MODEL 1
REMARK VINA RESULT:     -11.5      0.000      0.000
REMARK SMILES C[C@@H]1[NH2+]CC[C@H]1C(=O)NCc1cccc(C(=O)NCCCCNC(=O)c2ccc(-c3c4nc(c(-c5c(F)cccc5F)c5ccc([nH]5)c(-c5c(F)cccc5F)c5nc(c(-c6c(F)cccc6F)c6ccc3[nH]6)C=C5)C=C4)cc2)c1
REMARK SMILES IDX 20 1 19 2 18 3 16 4 17 5 15 7 11 8 12 9 80 10 13 11 14 12
REMARK SMILES IDX 10 13 9 14 7 15 8 16 6 18 1 19 2 20 3 21 4 22 5 25 21 26
REMARK SMILES IDX 22 27 23 28 24 29 25 31 26 32 27 33 79 34 28 35 78 36 29 37
REMARK SMILES IDX 30 38 31 39 72 40 32 41 77 42 71 43 73 44 33 45 76 46 70 47
REMARK SMILES IDX 69 48 34 50 60 51 43 52 59 53 44 54 47 55 58 56 74 57 45 58
REMARK SMILES IDX 46 59 57 61 75 62 48 63 35 64 36 65 41 66 37 67 38 68 40 69
REMARK SMILES IDX 42 70 39 71 61 72 62 73 67 74 63 75 64 76 66 77 68 78 65 79
REMARK SMILES IDX 49 80 50 81 55 82 51 83 52 84 54 85 56 86 53 87
REMARK H PARENT 18 6 9 17 3 23 3 24 23 30 73 49 47 60
REMARK Flexibility Score: inf
ROOT
ATOM      1  C   UNL A   1      32.902  29.648  25.143  1.00  0.00     0.023 C 
ENDROOT
BRANCH   1   2
ATOM      2  C   UNL A   1      31.410  29.374  25.040  1.00  0.00     0.116 C 
BRANCH   2   3
ATOM      3  N   UNL A   1      30.795  29.680  23.756  1.00  0.00    -0.352 N 
ATOM      4  C   UNL A   1      30.687  28.936  22.595  1.00  0.00     0.251 C 
ATOM      5  O   UNL A   1      30.080  29.418  21.640  1.00  0.00    -0.269 OA
ATOM      6  H   UNL A   1      30.386  30.574  23.706  1.00  0.00     0.163 HD
BRANCH   4   7
ATOM      7  C   UNL A   1      31.364  27.617  22.435  1.00  0.00     0.040 A 
ATOM      8  C   UNL A   1      31.393  25.245  22.929  1.00  0.00    -0.028 A 
ATOM      9  C   UNL A   1      32.776  25.225  22.714  1.00  0.00     0.005 A 
ATOM     10  C   UNL A   1      30.690  26.413  22.612  1.00  0.00     0.019 A 
ATOM     11  C   UNL A   1      33.442  26.381  22.300  1.00  0.00     0.001 A 
ATOM     12  C   UNL A   1      32.745  27.588  22.214  1.00  0.00     0.014 A 
BRANCH   8  13
ATOM     13  C   UNL A   1      30.733  24.102  23.667  1.00  0.00     0.151 C 
BRANCH  13  14
ATOM     14  N   UNL A   1      30.704  24.277  25.107  1.00  0.00    -0.352 N 
ATOM     15  C   UNL A   1      31.528  23.822  26.084  1.00  0.00     0.229 C 
ATOM     16  O   UNL A   1      31.169  24.003  27.250  1.00  0.00    -0.275 OA
ATOM     17  H   UNL A   1      29.952  24.824  25.433  1.00  0.00     0.163 HD
BRANCH  15  18
ATOM     18  C   UNL A   1      32.848  23.142  25.773  1.00  0.00     0.142 C 
ATOM     19  C   UNL A   1      35.017  24.410  25.442  1.00  0.00     0.076 C 
ATOM     20  C   UNL A   1      34.049  23.798  26.451  1.00  0.00     0.192 C 
ATOM     21  N   UNL A   1      34.753  22.754  27.212  1.00  0.00    -0.343 N 
ATOM     22  C   UNL A   1      34.225  21.454  26.803  1.00  0.00     0.261 C 
ATOM     23  H   UNL A   1      34.596  22.890  28.212  1.00  0.00     0.346 HD
ATOM     24  H   UNL A   1      35.755  22.800  27.029  1.00  0.00     0.346 HD
ATOM     25  C   UNL A   1      32.861  21.678  26.185  1.00  0.00     0.081 C 
ENDBRANCH  15  18
ENDBRANCH  13  14
ENDBRANCH   8  13
ENDBRANCH   4   7
ENDBRANCH   2   3
ENDBRANCH   1   2
BRANCH   1  26
ATOM     26  C   UNL A   1      33.753  28.541  25.737  1.00  0.00     0.023 C 
BRANCH  26  27
ATOM     27  C   UNL A   1      33.911  28.570  27.250  1.00  0.00     0.116 C 
BRANCH  27  28
ATOM     28  N   UNL A   1      33.823  29.899  27.834  1.00  0.00    -0.352 N 
ATOM     29  C   UNL A   1      34.792  30.636  28.481  1.00  0.00     0.251 C 
ATOM     30  H   UNL A   1      32.943  30.336  27.756  1.00  0.00     0.163 HD
ATOM     31  O   UNL A   1      34.514  31.705  28.998  1.00  0.00    -0.269 OA
BRANCH  29  32
ATOM     32  C   UNL A   1      36.171  30.103  28.581  1.00  0.00     0.039 A 
ATOM     33  C   UNL A   1      37.011  30.198  27.468  1.00  0.00     0.014 A 
ATOM     34  C   UNL A   1      36.637  29.528  29.765  1.00  0.00     0.014 A 
ATOM     35  C   UNL A   1      38.338  29.774  27.567  1.00  0.00     0.010 A 
ATOM     36  C   UNL A   1      37.983  29.203  29.893  1.00  0.00     0.010 A 
ATOM     37  C   UNL A   1      38.844  29.303  28.790  1.00  0.00    -0.014 A 
BRANCH  37  38
ATOM     38  C   UNL A   1      40.254  28.859  28.924  1.00  0.00     0.031 A 
ATOM     39  C   UNL A   1      41.284  29.805  29.481  1.00  0.00     0.074 A 
ATOM     40  C   UNL A   1      40.621  27.634  28.500  1.00  0.00     0.049 A 
ATOM     41  N   UNL A   1      42.573  29.634  29.630  1.00  0.00    -0.248 NA
ATOM     42  C   UNL A   1      40.807  31.135  29.894  1.00  0.00     0.031 C 
ATOM     43  C   UNL A   1      39.730  26.644  27.891  1.00  0.00     0.029 A 
ATOM     44  N   UNL A   1      41.845  27.015  28.513  1.00  0.00    -0.354 N 
ATOM     45  C   UNL A   1      43.058  30.835  30.133  1.00  0.00     0.074 A 
ATOM     46  C   UNL A   1      41.938  31.749  30.199  1.00  0.00     0.031 C 
ATOM     47  C   UNL A   1      40.431  25.532  27.618  1.00  0.00     0.029 A 
ATOM     48  C   UNL A   1      41.824  25.739  28.000  1.00  0.00     0.049 A 
ATOM     49  H   UNL A   1      42.662  27.443  28.857  1.00  0.00     0.167 HD
ATOM     50  C   UNL A   1      44.313  31.142  30.535  1.00  0.00     0.037 A 
ATOM     51  C   UNL A   1      42.818  24.842  27.859  1.00  0.00     0.037 A 
ATOM     52  C   UNL A   1      45.417  30.221  30.500  1.00  0.00     0.049 A 
ATOM     53  C   UNL A   1      44.201  25.200  28.328  1.00  0.00     0.074 A 
ATOM     54  C   UNL A   1      46.716  30.414  30.932  1.00  0.00     0.029 A 
ATOM     55  N   UNL A   1      45.346  28.926  30.007  1.00  0.00    -0.354 N 
ATOM     56  N   UNL A   1      44.632  26.317  28.863  1.00  0.00    -0.248 NA
ATOM     57  C   UNL A   1      45.236  24.166  28.188  1.00  0.00     0.031 C 
ATOM     58  C   UNL A   1      47.443  29.249  30.665  1.00  0.00     0.029 A 
ATOM     59  C   UNL A   1      46.583  28.312  30.115  1.00  0.00     0.049 A 
ATOM     60  H   UNL A   1      44.537  28.506  29.636  1.00  0.00     0.167 HD
ATOM     61  C   UNL A   1      45.972  26.105  29.161  1.00  0.00     0.074 A 
ATOM     62  C   UNL A   1      46.281  24.751  28.754  1.00  0.00     0.031 C 
ATOM     63  C   UNL A   1      46.866  26.955  29.724  1.00  0.00     0.037 A 
BRANCH  50  64
ATOM     64  C   UNL A   1      44.551  32.531  31.056  1.00  0.00     0.057 A 
ATOM     65  C   UNL A   1      44.946  33.581  30.215  1.00  0.00     0.134 A 
ATOM     66  C   UNL A   1      44.366  32.827  32.412  1.00  0.00     0.134 A 
ATOM     67  F   UNL A   1      45.155  33.362  28.908  1.00  0.00    -0.206 F 
ATOM     68  C   UNL A   1      45.181  34.864  30.709  1.00  0.00     0.040 A 
ATOM     69  C   UNL A   1      44.567  34.115  32.913  1.00  0.00     0.040 A 
ATOM     70  F   UNL A   1      43.983  31.872  33.273  1.00  0.00    -0.206 F 
ATOM     71  C   UNL A   1      44.984  35.135  32.061  1.00  0.00     0.006 A 
ENDBRANCH  50  64
BRANCH  51  72
ATOM     72  C   UNL A   1      42.536  23.500  27.287  1.00  0.00     0.057 A 
ATOM     73  C   UNL A   1      42.161  22.430  28.107  1.00  0.00     0.134 A 
ATOM     74  C   UNL A   1      42.650  23.249  25.914  1.00  0.00     0.134 A 
ATOM     75  F   UNL A   1      42.051  22.602  29.433  1.00  0.00    -0.206 F 
ATOM     76  C   UNL A   1      41.935  21.153  27.589  1.00  0.00     0.040 A 
ATOM     77  C   UNL A   1      42.401  21.984  25.379  1.00  0.00     0.040 A 
ATOM     78  F   UNL A   1      42.996  24.235  25.072  1.00  0.00    -0.206 F 
ATOM     79  C   UNL A   1      42.052  20.929  26.220  1.00  0.00     0.006 A 
ENDBRANCH  51  72
BRANCH  63  80
ATOM     80  C   UNL A   1      48.245  26.425  29.991  1.00  0.00     0.057 A 
ATOM     81  C   UNL A   1      48.589  25.825  31.209  1.00  0.00     0.134 A 
ATOM     82  C   UNL A   1      49.231  26.486  28.998  1.00  0.00     0.134 A 
ATOM     83  F   UNL A   1      47.694  25.743  32.205  1.00  0.00    -0.206 F 
ATOM     84  C   UNL A   1      49.875  25.333  31.440  1.00  0.00     0.040 A 
ATOM     85  C   UNL A   1      50.511  25.972  29.207  1.00  0.00     0.040 A 
ATOM     86  F   UNL A   1      48.963  27.038  27.805  1.00  0.00    -0.206 F 
ATOM     87  C   UNL A   1      50.838  25.400  30.434  1.00  0.00     0.006 A 
ENDBRANCH  63  80
ENDBRANCH  37  38
ENDBRANCH  29  32
ENDBRANCH  27  28
ENDBRANCH  26  27
ENDBRANCH   1  26
TORSDOF 14
ENDMDL
MODEL 2
REMARK VINA RESULT:     -11.4      2.752      7.893
REMARK SMILES C[C@@H]1[NH2+]CC[C@H]1C(=O)NCc1cccc(C(=O)NCCCCNC(=O)c2ccc(-c3c4nc(c(-c5c(F)cccc5F)c5ccc([nH]5)c(-c5c(F)cccc5F)c5nc(c(-c6c(F)cccc6F)c6ccc3[nH]6)C=C5)C=C4)cc2)c1
REMARK SMILES IDX 20 1 19 2 18 3 16 4 17 5 15 7 11 8 12 9 80 10 13 11 14 12
REMARK SMILES IDX 10 13 9 14 7 15 8 16 6 18 1 19 2 20 3 21 4 22 5 25 21 26
REMARK SMILES IDX 22 27 23 28 24 29 25 31 26 32 27 33 79 34 28 35 78 36 29 37
REMARK SMILES IDX 30 38 31 39 72 40 32 41 77 42 71 43 73 44 33 45 76 46 70 47
REMARK SMILES IDX 69 48 34 50 60 51 43 52 59 53 44 54 47 55 58 56 74 57 45 58
REMARK SMILES IDX 46 59 57 61 75 62 48 63 35 64 36 65 41 66 37 67 38 68 40 69
REMARK SMILES IDX 42 70 39 71 61 72 62 73 67 74 63 75 64 76 66 77 68 78 65 79
REMARK SMILES IDX 49 80 50 81 55 82 51 83 52 84 54 85 56 86 53 87
REMARK H PARENT 18 6 9 17 3 23 3 24 23 30 73 49 47 60
REMARK Flexibility Score: inf
ROOT
ATOM      1  C   UNL A   1      37.392  20.749  24.275  1.00  0.00     0.023 C 
ENDROOT
BRANCH   1   2
ATOM      2  C   UNL A   1      37.184  22.011  25.097  1.00  0.00     0.116 C 
BRANCH   2   3
ATOM      3  N   UNL A   1      36.274  21.889  26.227  1.00  0.00    -0.352 N 
ATOM      4  C   UNL A   1      34.947  21.505  26.293  1.00  0.00     0.251 C 
ATOM      5  O   UNL A   1      34.403  21.453  27.394  1.00  0.00    -0.269 OA
ATOM      6  H   UNL A   1      36.674  22.122  27.096  1.00  0.00     0.163 HD
BRANCH   4   7
ATOM      7  C   UNL A   1      34.136  21.249  25.068  1.00  0.00     0.040 A 
ATOM      8  C   UNL A   1      32.621  22.111  23.385  1.00  0.00    -0.028 A 
ATOM      9  C   UNL A   1      32.153  20.813  23.152  1.00  0.00     0.005 A 
ATOM     10  C   UNL A   1      33.732  22.275  24.220  1.00  0.00     0.019 A 
ATOM     11  C   UNL A   1      32.717  19.728  23.828  1.00  0.00     0.001 A 
ATOM     12  C   UNL A   1      33.669  19.953  24.824  1.00  0.00     0.014 A 
BRANCH   8  13
ATOM     13  C   UNL A   1      31.816  23.296  22.902  1.00  0.00     0.151 C 
BRANCH  13  14
ATOM     14  N   UNL A   1      32.528  24.142  21.961  1.00  0.00    -0.352 N 
ATOM     15  C   UNL A   1      32.768  25.477  21.958  1.00  0.00     0.229 C 
ATOM     16  O   UNL A   1      33.278  25.953  20.941  1.00  0.00    -0.275 OA
ATOM     17  H   UNL A   1      32.904  23.660  21.189  1.00  0.00     0.163 HD
BRANCH  15  18
ATOM     18  C   UNL A   1      32.455  26.355  23.155  1.00  0.00     0.142 C 
ATOM     19  C   UNL A   1      33.448  25.972  25.454  1.00  0.00     0.076 C 
ATOM     20  C   UNL A   1      33.653  26.589  24.073  1.00  0.00     0.192 C 
ATOM     21  N   UNL A   1      33.820  28.044  24.222  1.00  0.00    -0.343 N 
ATOM     22  C   UNL A   1      32.626  28.699  23.691  1.00  0.00     0.261 C 
ATOM     23  H   UNL A   1      34.642  28.351  23.701  1.00  0.00     0.346 HD
ATOM     24  H   UNL A   1      33.945  28.284  25.205  1.00  0.00     0.346 HD
ATOM     25  C   UNL A   1      31.941  27.729  22.751  1.00  0.00     0.081 C 
ENDBRANCH  15  18
ENDBRANCH  13  14
ENDBRANCH   8  13
ENDBRANCH   4   7
ENDBRANCH   2   3
ENDBRANCH   1   2
BRANCH   1  26
ATOM     26  C   UNL A   1      37.995  19.560  25.001  1.00  0.00     0.023 C 
BRANCH  26  27
ATOM     27  C   UNL A   1      39.138  19.880  25.953  1.00  0.00     0.116 C 
BRANCH  27  28
ATOM     28  N   UNL A   1      40.255  18.952  25.878  1.00  0.00    -0.352 N 
ATOM     29  C   UNL A   1      41.604  19.193  26.032  1.00  0.00     0.251 C 
ATOM     30  H   UNL A   1      40.013  18.015  25.690  1.00  0.00     0.163 HD
ATOM     31  O   UNL A   1      42.417  18.304  25.838  1.00  0.00    -0.269 OA
BRANCH  29  32
ATOM     32  C   UNL A   1      42.067  20.552  26.396  1.00  0.00     0.039 A 
ATOM     33  C   UNL A   1      42.328  21.471  25.376  1.00  0.00     0.014 A 
ATOM     34  C   UNL A   1      42.230  20.923  27.732  1.00  0.00     0.014 A 
ATOM     35  C   UNL A   1      42.689  22.780  25.701  1.00  0.00     0.010 A 
ATOM     36  C   UNL A   1      42.487  22.251  28.055  1.00  0.00     0.010 A 
ATOM     37  C   UNL A   1      42.740  23.190  27.043  1.00  0.00    -0.014 A 
BRANCH  37  38
ATOM     38  C   UNL A   1      43.108  24.580  27.414  1.00  0.00     0.031 A 
ATOM     39  C   UNL A   1      44.550  25.009  27.359  1.00  0.00     0.074 A 
ATOM     40  C   UNL A   1      42.164  25.436  27.849  1.00  0.00     0.049 A 
ATOM     41  N   UNL A   1      45.087  26.156  27.692  1.00  0.00    -0.248 NA
ATOM     42  C   UNL A   1      45.524  24.005  26.900  1.00  0.00     0.031 C 
ATOM     43  C   UNL A   1      40.741  25.126  28.001  1.00  0.00     0.029 A 
ATOM     44  N   UNL A   1      42.262  26.745  28.248  1.00  0.00    -0.354 N 
ATOM     45  C   UNL A   1      46.455  26.001  27.501  1.00  0.00     0.074 A 
ATOM     46  C   UNL A   1      46.673  24.631  27.091  1.00  0.00     0.031 C 
ATOM     47  C   UNL A   1      40.096  26.222  28.430  1.00  0.00     0.029 A 
ATOM     48  C   UNL A   1      41.060  27.302  28.616  1.00  0.00     0.049 A 
ATOM     49  H   UNL A   1      43.113  27.239  28.270  1.00  0.00     0.167 HD
ATOM     50  C   UNL A   1      47.439  26.922  27.625  1.00  0.00     0.037 A 
ATOM     51  C   UNL A   1      40.773  28.543  29.049  1.00  0.00     0.037 A 
ATOM     52  C   UNL A   1      47.215  28.293  27.999  1.00  0.00     0.049 A 
ATOM     53  C   UNL A   1      41.880  29.555  29.163  1.00  0.00     0.074 A 
ATOM     54  C   UNL A   1      48.135  29.320  28.102  1.00  0.00     0.029 A 
ATOM     55  N   UNL A   1      45.977  28.827  28.328  1.00  0.00    -0.354 N 
ATOM     56  N   UNL A   1      43.161  29.414  28.916  1.00  0.00    -0.248 NA
ATOM     57  C   UNL A   1      41.501  30.905  29.601  1.00  0.00     0.031 C 
ATOM     58  C   UNL A   1      47.460  30.468  28.532  1.00  0.00     0.029 A 
ATOM     59  C   UNL A   1      46.112  30.168  28.645  1.00  0.00     0.049 A 
ATOM     60  H   UNL A   1      45.130  28.326  28.335  1.00  0.00     0.167 HD
ATOM     61  C   UNL A   1      43.730  30.663  29.127  1.00  0.00     0.074 A 
ATOM     62  C   UNL A   1      42.654  31.552  29.515  1.00  0.00     0.031 C 
ATOM     63  C   UNL A   1      45.026  31.042  29.009  1.00  0.00     0.037 A 
BRANCH  50  64
ATOM     64  C   UNL A   1      48.844  26.474  27.339  1.00  0.00     0.057 A 
ATOM     65  C   UNL A   1      49.395  26.542  26.051  1.00  0.00     0.134 A 
ATOM     66  C   UNL A   1      49.662  25.985  28.365  1.00  0.00     0.134 A 
ATOM     67  F   UNL A   1      48.661  26.987  25.020  1.00  0.00    -0.206 F 
ATOM     68  C   UNL A   1      50.696  26.109  25.790  1.00  0.00     0.040 A 
ATOM     69  C   UNL A   1      50.975  25.578  28.121  1.00  0.00     0.040 A 
ATOM     70  F   UNL A   1      49.201  25.897  29.622  1.00  0.00    -0.206 F 
ATOM     71  C   UNL A   1      51.491  25.631  26.828  1.00  0.00     0.006 A 
ENDBRANCH  50  64
BRANCH  51  72
ATOM     72  C   UNL A   1      39.371  28.917  29.369  1.00  0.00     0.057 A 
ATOM     73  C   UNL A   1      38.842  28.710  30.649  1.00  0.00     0.134 A 
ATOM     74  C   UNL A   1      38.521  29.471  28.404  1.00  0.00     0.134 A 
ATOM     75  F   UNL A   1      39.601  28.166  31.612  1.00  0.00    -0.206 F 
ATOM     76  C   UNL A   1      37.515  29.016  30.952  1.00  0.00     0.040 A 
ATOM     77  C   UNL A   1      37.199  29.806  28.700  1.00  0.00     0.040 A 
ATOM     78  F   UNL A   1      38.969  29.703  27.161  1.00  0.00    -0.206 F 
ATOM     79  C   UNL A   1      36.690  29.569  29.975  1.00  0.00     0.006 A 
ENDBRANCH  51  72
BRANCH  63  80
ATOM     80  C   UNL A   1      45.343  32.491  29.238  1.00  0.00     0.057 A 
ATOM     81  C   UNL A   1      45.278  33.440  28.210  1.00  0.00     0.134 A 
ATOM     82  C   UNL A   1      45.684  32.946  30.518  1.00  0.00     0.134 A 
ATOM     83  F   UNL A   1      44.968  33.068  26.958  1.00  0.00    -0.206 F 
ATOM     84  C   UNL A   1      45.573  34.784  28.441  1.00  0.00     0.040 A 
ATOM     85  C   UNL A   1      45.951  34.293  30.767  1.00  0.00     0.040 A 
ATOM     86  F   UNL A   1      45.752  32.092  31.550  1.00  0.00    -0.206 F 
ATOM     87  C   UNL A   1      45.903  35.215  29.725  1.00  0.00     0.006 A 
ENDBRANCH  63  80
ENDBRANCH  37  38
ENDBRANCH  29  32
ENDBRANCH  27  28
ENDBRANCH  26  27
ENDBRANCH   1  26
TORSDOF 14
ENDMDL
MODEL 3
REMARK VINA RESULT:     -11.4      3.774      5.108
REMARK SMILES C[C@@H]1[NH2+]CC[C@H]1C(=O)NCc1cccc(C(=O)NCCCCNC(=O)c2ccc(-c3c4nc(c(-c5c(F)cccc5F)c5ccc([nH]5)c(-c5c(F)cccc5F)c5nc(c(-c6c(F)cccc6F)c6ccc3[nH]6)C=C5)C=C4)cc2)c1
REMARK SMILES IDX 20 1 19 2 18 3 16 4 17 5 15 7 11 8 12 9 80 10 13 11 14 12
REMARK SMILES IDX 10 13 9 14 7 15 8 16 6 18 1 19 2 20 3 21 4 22 5 25 21 26
REMARK SMILES IDX 22 27 23 28 24 29 25 31 26 32 27 33 79 34 28 35 78 36 29 37
REMARK SMILES IDX 30 38 31 39 72 40 32 41 77 42 71 43 73 44 33 45 76 46 70 47
REMARK SMILES IDX 69 48 34 50 60 51 43 52 59 53 44 54 47 55 58 56 74 57 45 58
REMARK SMILES IDX 46 59 57 61 75 62 48 63 35 64 36 65 41 66 37 67 38 68 40 69
REMARK SMILES IDX 42 70 39 71 61 72 62 73 67 74 63 75 64 76 66 77 68 78 65 79
REMARK SMILES IDX 49 80 50 81 55 82 51 83 52 84 54 85 56 86 53 87
REMARK H PARENT 18 6 9 17 3 23 3 24 23 30 73 49 47 60
REMARK Flexibility Score: inf
ROOT
ATOM      1  C   UNL A   1      31.435  30.708  26.485  1.00  0.00     0.023 C 
ENDROOT
BRANCH   1   2
ATOM      2  C   UNL A   1      32.806  30.053  26.545  1.00  0.00     0.116 C 
BRANCH   2   3
ATOM      3  N   UNL A   1      33.436  29.780  25.262  1.00  0.00    -0.352 N 
ATOM      4  C   UNL A   1      32.953  29.165  24.120  1.00  0.00     0.251 C 
ATOM      5  O   UNL A   1      33.688  29.084  23.138  1.00  0.00    -0.269 OA
ATOM      6  H   UNL A   1      34.369  30.085  25.195  1.00  0.00     0.163 HD
BRANCH   4   7
ATOM      7  C   UNL A   1      31.610  28.516  24.079  1.00  0.00     0.040 A 
ATOM      8  C   UNL A   1      30.305  26.478  24.186  1.00  0.00    -0.028 A 
ATOM      9  C   UNL A   1      29.281  27.105  23.466  1.00  0.00     0.005 A 
ATOM     10  C   UNL A   1      31.379  27.259  24.627  1.00  0.00     0.019 A 
ATOM     11  C   UNL A   1      29.393  28.451  23.109  1.00  0.00     0.001 A 
ATOM     12  C   UNL A   1      30.579  29.140  23.367  1.00  0.00     0.014 A 
BRANCH   8  13
ATOM     13  C   UNL A   1      30.329  24.970  24.296  1.00  0.00     0.151 C 
BRANCH  13  14
ATOM     14  N   UNL A   1      30.316  24.485  25.664  1.00  0.00    -0.352 N 
ATOM     15  C   UNL A   1      31.178  23.687  26.341  1.00  0.00     0.229 C 
ATOM     16  O   UNL A   1      30.831  23.311  27.464  1.00  0.00    -0.275 OA
ATOM     17  H   UNL A   1      29.543  24.790  26.194  1.00  0.00     0.163 HD
BRANCH  15  18
ATOM     18  C   UNL A   1      32.525  23.286  25.769  1.00  0.00     0.142 C 
ATOM     19  C   UNL A   1      34.407  24.934  25.368  1.00  0.00     0.076 C 
ATOM     20  C   UNL A   1      33.700  24.042  26.385  1.00  0.00     0.192 C 
ATOM     21  N   UNL A   1      34.658  23.042  26.885  1.00  0.00    -0.343 N 
ATOM     22  C   UNL A   1      34.276  21.736  26.352  1.00  0.00     0.261 C 
ATOM     23  H   UNL A   1      34.631  23.019  27.905  1.00  0.00     0.346 HD
ATOM     24  H   UNL A   1      35.603  23.281  26.587  1.00  0.00     0.346 HD
ATOM     25  C   UNL A   1      32.817  21.804  25.949  1.00  0.00     0.081 C 
ENDBRANCH  15  18
ENDBRANCH  13  14
ENDBRANCH   8  13
ENDBRANCH   4   7
ENDBRANCH   2   3
ENDBRANCH   1   2
BRANCH   1  26
ATOM     26  C   UNL A   1      31.406  32.224  26.560  1.00  0.00     0.023 C 
BRANCH  26  27
ATOM     27  C   UNL A   1      32.664  32.881  27.108  1.00  0.00     0.116 C 
BRANCH  27  28
ATOM     28  N   UNL A   1      32.443  34.187  27.709  1.00  0.00    -0.352 N 
ATOM     29  C   UNL A   1      33.115  34.797  28.746  1.00  0.00     0.251 C 
ATOM     30  H   UNL A   1      31.705  34.711  27.318  1.00  0.00     0.163 HD
ATOM     31  O   UNL A   1      32.729  35.866  29.190  1.00  0.00    -0.269 OA
BRANCH  29  32
ATOM     32  C   UNL A   1      34.291  34.128  29.351  1.00  0.00     0.039 A 
ATOM     33  C   UNL A   1      34.081  33.152  30.330  1.00  0.00     0.014 A 
ATOM     34  C   UNL A   1      35.588  34.447  28.946  1.00  0.00     0.014 A 
ATOM     35  C   UNL A   1      35.171  32.455  30.854  1.00  0.00     0.010 A 
ATOM     36  C   UNL A   1      36.660  33.682  29.392  1.00  0.00     0.010 A 
ATOM     37  C   UNL A   1      36.466  32.691  30.366  1.00  0.00    -0.014 A 
BRANCH  37  38
ATOM     38  C   UNL A   1      37.640  31.953  30.897  1.00  0.00     0.031 A 
ATOM     39  C   UNL A   1      38.148  32.257  32.282  1.00  0.00     0.074 A 
ATOM     40  C   UNL A   1      38.279  31.053  30.125  1.00  0.00     0.049 A 
ATOM     41  N   UNL A   1      39.187  31.767  32.910  1.00  0.00    -0.248 NA
ATOM     42  C   UNL A   1      37.411  33.274  33.049  1.00  0.00     0.031 C 
ATOM     43  C   UNL A   1      37.920  30.708  28.748  1.00  0.00     0.029 A 
ATOM     44  N   UNL A   1      39.371  30.266  30.390  1.00  0.00    -0.354 N 
ATOM     45  C   UNL A   1      39.235  32.428  34.131  1.00  0.00     0.074 A 
ATOM     46  C   UNL A   1      38.165  33.402  34.129  1.00  0.00     0.031 C 
ATOM     47  C   UNL A   1      38.756  29.758  28.301  1.00  0.00     0.029 A 
ATOM     48  C   UNL A   1      39.730  29.449  29.344  1.00  0.00     0.049 A 
ATOM     49  H   UNL A   1      39.853  30.285  31.248  1.00  0.00     0.167 HD
ATOM     50  C   UNL A   1      40.072  32.223  35.175  1.00  0.00     0.037 A 
ATOM     51  C   UNL A   1      40.729  28.553  29.243  1.00  0.00     0.037 A 
ATOM     52  C   UNL A   1      41.113  31.230  35.189  1.00  0.00     0.049 A 
ATOM     53  C   UNL A   1      41.636  28.330  30.422  1.00  0.00     0.074 A 
ATOM     54  C   UNL A   1      41.982  30.905  36.214  1.00  0.00     0.029 A 
ATOM     55  N   UNL A   1      41.420  30.398  34.122  1.00  0.00    -0.354 N 
ATOM     56  N   UNL A   1      41.630  28.916  31.595  1.00  0.00    -0.248 NA
ATOM     57  C   UNL A   1      42.683  27.310  30.268  1.00  0.00     0.031 C 
ATOM     58  C   UNL A   1      42.842  29.902  35.755  1.00  0.00     0.029 A 
ATOM     59  C   UNL A   1      42.474  29.566  34.462  1.00  0.00     0.049 A 
ATOM     60  H   UNL A   1      40.958  30.399  33.253  1.00  0.00     0.167 HD
ATOM     61  C   UNL A   1      42.639  28.307  32.330  1.00  0.00     0.074 A 
ATOM     62  C   UNL A   1      43.232  27.302  31.474  1.00  0.00     0.031 C 
ATOM     63  C   UNL A   1      43.037  28.556  33.602  1.00  0.00     0.037 A 
BRANCH  50  64
ATOM     64  C   UNL A   1      39.883  33.084  36.390  1.00  0.00     0.057 A 
ATOM     65  C   UNL A   1      38.993  32.735  37.416  1.00  0.00     0.134 A 
ATOM     66  C   UNL A   1      40.612  34.270  36.547  1.00  0.00     0.134 A 
ATOM     67  F   UNL A   1      38.253  31.619  37.322  1.00  0.00    -0.206 F 
ATOM     68  C   UNL A   1      38.811  33.548  38.535  1.00  0.00     0.040 A 
ATOM     69  C   UNL A   1      40.461  35.076  37.677  1.00  0.00     0.040 A 
ATOM     70  F   UNL A   1      41.485  34.664  35.608  1.00  0.00    -0.206 F 
ATOM     71  C   UNL A   1      39.551  34.720  38.670  1.00  0.00     0.006 A 
ENDBRANCH  50  64
BRANCH  51  72
ATOM     72  C   UNL A   1      40.902  27.765  27.995  1.00  0.00     0.057 A 
ATOM     73  C   UNL A   1      40.298  26.511  27.844  1.00  0.00     0.134 A 
ATOM     74  C   UNL A   1      41.685  28.234  26.933  1.00  0.00     0.134 A 
ATOM     75  F   UNL A   1      39.550  25.999  28.833  1.00  0.00    -0.206 F 
ATOM     76  C   UNL A   1      40.486  25.740  26.695  1.00  0.00     0.040 A 
ATOM     77  C   UNL A   1      41.860  27.486  25.768  1.00  0.00     0.040 A 
ATOM     78  F   UNL A   1      42.283  29.432  27.011  1.00  0.00    -0.206 F 
ATOM     79  C   UNL A   1      41.268  26.230  25.651  1.00  0.00     0.006 A 
ENDBRANCH  51  72
BRANCH  63  80
ATOM     80  C   UNL A   1      44.122  27.686  34.166  1.00  0.00     0.057 A 
ATOM     81  C   UNL A   1      43.850  26.452  34.771  1.00  0.00     0.134 A 
ATOM     82  C   UNL A   1      45.464  28.076  34.068  1.00  0.00     0.134 A 
ATOM     83  F   UNL A   1      42.585  26.024  34.906  1.00  0.00    -0.206 F 
ATOM     84  C   UNL A   1      44.871  25.654  35.287  1.00  0.00     0.040 A 
ATOM     85  C   UNL A   1      46.496  27.272  34.554  1.00  0.00     0.040 A 
ATOM     86  F   UNL A   1      45.795  29.240  33.489  1.00  0.00    -0.206 F 
ATOM     87  C   UNL A   1      46.200  26.060  35.172  1.00  0.00     0.006 A 
ENDBRANCH  63  80
ENDBRANCH  37  38
ENDBRANCH  29  32
ENDBRANCH  27  28
ENDBRANCH  26  27
ENDBRANCH   1  26
TORSDOF 14
ENDMDL
