MODEL 1
REMARK VINA RESULT:     -12.8      0.000      0.000
REMARK SMILES Cc1c(CC(=O)NCCCCNC(=O)c2ccc(-c3c4nc(c(-c5c(F)cccc5F)c5ccc([nH]5)c(-c5c(F)cccc5F)c5nc(c(-c6c(F)cccc6F)c6ccc3[nH]6)C=C5)C=C4)cc2)cc(-c2ccc(S(C)(=O)=O)cc2)n1-c1ccccc1
REMARK SMILES IDX 9 1 8 2 7 3 5 4 6 5 4 7 3 8 1 9 2 10 81 11 69 12 70 13 82 14
REMARK SMILES IDX 83 15 87 16 84 17 86 18 85 19 71 20 72 21 80 22 73 23 79 24
REMARK SMILES IDX 74 25 75 26 76 27 77 28 78 29 10 30 11 31 12 32 13 33 14 35
REMARK SMILES IDX 15 36 16 37 68 38 17 39 67 40 18 41 19 42 20 43 61 44 21 45
REMARK SMILES IDX 66 46 60 47 62 48 22 49 65 50 59 51 58 52 23 54 49 55 32 56
REMARK SMILES IDX 48 57 33 58 36 59 47 60 63 61 34 62 35 63 46 65 64 66 37 67
REMARK SMILES IDX 24 68 25 69 30 70 26 71 27 72 29 73 31 74 28 75 50 76 51 77
REMARK SMILES IDX 56 78 52 79 53 80 55 81 57 82 54 83 38 84 39 85 44 86 40 87
REMARK SMILES IDX 41 88 43 89 45 90 42 91
REMARK H PARENT 7 6 12 34 62 53 36 64
REMARK Flexibility Score: inf
ROOT
ATOM      1  C   UNL A   1      35.636  22.651  23.726  1.00  0.00     0.023 C 
ENDROOT
BRANCH   1   2
ATOM      2  C   UNL A   1      34.507  23.310  22.934  1.00  0.00     0.116 C 
BRANCH   2   3
ATOM      3  N   UNL A   1      33.598  22.340  22.347  1.00  0.00    -0.356 N 
ATOM      4  C   UNL A   1      32.473  21.766  22.858  1.00  0.00     0.224 C 
ATOM      5  O   UNL A   1      31.835  21.005  22.127  1.00  0.00    -0.275 OA
ATOM      6  H   UNL A   1      33.831  22.054  21.435  1.00  0.00     0.163 HD
BRANCH   4   7
ATOM      7  C   UNL A   1      32.011  22.086  24.266  1.00  0.00     0.137 C 
BRANCH   7   8
ATOM      8  C   UNL A   1      31.773  23.548  24.490  1.00  0.00    -0.017 A 
ATOM      9  C   UNL A   1      33.464  24.019  26.389  1.00  0.00     0.065 C 
ATOM     10  C   UNL A   1      32.425  24.394  25.381  1.00  0.00     0.024 A 
ATOM     11  N   UNL A   1      31.884  25.670  25.245  1.00  0.00    -0.314 N 
ATOM     12  C   UNL A   1      30.798  24.328  23.821  1.00  0.00     0.033 A 
ATOM     13  C   UNL A   1      30.909  25.636  24.246  1.00  0.00     0.053 A 
BRANCH  11  14
ATOM     14  C   UNL A   1      32.230  26.816  26.011  1.00  0.00     0.046 A 
ATOM     15  C   UNL A   1      31.315  27.312  26.950  1.00  0.00     0.026 A 
ATOM     16  C   UNL A   1      33.454  27.459  25.806  1.00  0.00     0.026 A 
ATOM     17  C   UNL A   1      31.633  28.449  27.689  1.00  0.00     0.002 A 
ATOM     18  C   UNL A   1      33.756  28.607  26.539  1.00  0.00     0.002 A 
ATOM     19  C   UNL A   1      32.849  29.099  27.480  1.00  0.00     0.000 A 
ENDBRANCH  11  14
BRANCH  13  20
ATOM     20  C   UNL A   1      30.218  26.806  23.691  1.00  0.00    -0.001 A 
ATOM     21  C   UNL A   1      28.834  26.969  23.861  1.00  0.00     0.011 A 
ATOM     22  C   UNL A   1      30.945  27.797  23.019  1.00  0.00     0.011 A 
ATOM     23  C   UNL A   1      28.180  28.089  23.343  1.00  0.00     0.021 A 
ATOM     24  C   UNL A   1      30.298  28.919  22.494  1.00  0.00     0.021 A 
ATOM     25  C   UNL A   1      28.917  29.052  22.650  1.00  0.00     0.067 A 
BRANCH  25  26
ATOM     26  S   UNL A   1      28.078  30.485  22.018  1.00  0.00     0.175 S 
ATOM     27  C   UNL A   1      29.181  31.828  22.374  1.00  0.00     0.163 C 
ATOM     28  O   UNL A   1      27.983  30.331  20.593  1.00  0.00    -0.224 OA
ATOM     29  O   UNL A   1      26.881  30.685  22.836  1.00  0.00    -0.224 OA
ENDBRANCH  25  26
ENDBRANCH  13  20
ENDBRANCH   7   8
ENDBRANCH   4   7
ENDBRANCH   2   3
ENDBRANCH   1   2
BRANCH   1  30
ATOM     30  C   UNL A   1      36.794  23.564  24.178  1.00  0.00     0.023 C 
BRANCH  30  31
ATOM     31  C   UNL A   1      37.268  23.505  25.644  1.00  0.00     0.116 C 
BRANCH  31  32
ATOM     32  N   UNL A   1      38.301  22.540  25.934  1.00  0.00    -0.352 N 
ATOM     33  C   UNL A   1      39.462  22.760  26.659  1.00  0.00     0.251 C 
ATOM     34  H   UNL A   1      38.167  21.631  25.580  1.00  0.00     0.163 HD
ATOM     35  O   UNL A   1      40.246  21.823  26.809  1.00  0.00    -0.269 OA
BRANCH  33  36
ATOM     36  C   UNL A   1      39.828  24.130  27.181  1.00  0.00     0.039 A 
ATOM     37  C   UNL A   1      39.243  24.557  28.359  1.00  0.00     0.014 A 
ATOM     38  C   UNL A   1      40.551  25.099  26.458  1.00  0.00     0.014 A 
ATOM     39  C   UNL A   1      39.418  25.897  28.814  1.00  0.00     0.010 A 
ATOM     40  C   UNL A   1      40.649  26.495  26.885  1.00  0.00     0.010 A 
ATOM     41  C   UNL A   1      40.061  26.962  28.077  1.00  0.00    -0.014 A 
BRANCH  41  42
ATOM     42  C   UNL A   1      39.562  28.471  28.424  1.00  0.00     0.031 A 
ATOM     43  C   UNL A   1      40.859  29.197  28.569  1.00  0.00     0.074 A 
ATOM     44  C   UNL A   1      38.449  29.272  28.706  1.00  0.00     0.049 A 
ATOM     45  N   UNL A   1      41.755  28.765  29.414  1.00  0.00    -0.248 NA
ATOM     46  C   UNL A   1      41.376  30.096  27.534  1.00  0.00     0.031 C 
ATOM     47  C   UNL A   1      37.035  28.875  28.808  1.00  0.00     0.029 A 
ATOM     48  N   UNL A   1      38.316  30.681  28.974  1.00  0.00    -0.354 N 
ATOM     49  C   UNL A   1      42.868  29.541  29.220  1.00  0.00     0.074 A 
ATOM     50  C   UNL A   1      42.658  30.156  27.916  1.00  0.00     0.031 C 
ATOM     51  C   UNL A   1      36.210  29.954  28.981  1.00  0.00     0.029 A 
ATOM     52  C   UNL A   1      36.970  31.201  29.088  1.00  0.00     0.049 A 
ATOM     53  H   UNL A   1      39.103  31.262  29.077  1.00  0.00     0.167 HD
ATOM     54  C   UNL A   1      43.402  30.096  30.345  1.00  0.00     0.037 A 
ATOM     55  C   UNL A   1      36.487  32.491  29.335  1.00  0.00     0.037 A 
ATOM     56  C   UNL A   1      43.040  31.480  30.482  1.00  0.00     0.049 A 
ATOM     57  C   UNL A   1      37.567  33.255  29.969  1.00  0.00     0.074 A 
ATOM     58  C   UNL A   1      42.950  32.522  29.580  1.00  0.00     0.029 A 
ATOM     59  N   UNL A   1      42.216  31.805  31.541  1.00  0.00    -0.354 N 
ATOM     60  N   UNL A   1      37.831  33.127  31.232  1.00  0.00    -0.248 NA
ATOM     61  C   UNL A   1      38.315  34.301  29.277  1.00  0.00     0.031 C 
ATOM     62  C   UNL A   1      41.674  33.072  29.828  1.00  0.00     0.029 A 
ATOM     63  C   UNL A   1      41.238  32.654  31.081  1.00  0.00     0.049 A 
ATOM     64  H   UNL A   1      42.311  31.484  32.466  1.00  0.00     0.167 HD
ATOM     65  C   UNL A   1      39.087  33.624  31.322  1.00  0.00     0.074 A 
ATOM     66  C   UNL A   1      39.204  34.578  30.236  1.00  0.00     0.031 C 
ATOM     67  C   UNL A   1      40.012  32.769  31.819  1.00  0.00     0.037 A 
BRANCH  54  68
ATOM     68  C   UNL A   1      43.504  29.145  31.501  1.00  0.00     0.057 A 
ATOM     69  C   UNL A   1      44.747  28.608  31.835  1.00  0.00     0.134 A 
ATOM     70  C   UNL A   1      42.386  28.657  32.206  1.00  0.00     0.134 A 
ATOM     71  F   UNL A   1      45.864  29.070  31.252  1.00  0.00    -0.206 F 
ATOM     72  C   UNL A   1      44.865  27.580  32.775  1.00  0.00     0.040 A 
ATOM     73  C   UNL A   1      42.482  27.593  33.097  1.00  0.00     0.040 A 
ATOM     74  F   UNL A   1      41.173  29.211  32.044  1.00  0.00    -0.206 F 
ATOM     75  C   UNL A   1      43.727  27.043  33.378  1.00  0.00     0.006 A 
ENDBRANCH  54  68
BRANCH  55  76
ATOM     76  C   UNL A   1      35.222  33.394  29.372  1.00  0.00     0.057 A 
ATOM     77  C   UNL A   1      34.573  33.713  30.615  1.00  0.00     0.134 A 
ATOM     78  C   UNL A   1      34.941  34.322  28.361  1.00  0.00     0.134 A 
ATOM     79  F   UNL A   1      34.681  32.913  31.685  1.00  0.00    -0.206 F 
ATOM     80  C   UNL A   1      33.844  34.895  30.860  1.00  0.00     0.040 A 
ATOM     81  C   UNL A   1      34.162  35.492  28.584  1.00  0.00     0.040 A 
ATOM     82  F   UNL A   1      35.493  34.181  27.149  1.00  0.00    -0.206 F 
ATOM     83  C   UNL A   1      33.647  35.805  29.841  1.00  0.00     0.006 A 
ENDBRANCH  55  76
BRANCH  67  84
ATOM     84  C   UNL A   1      39.554  31.880  32.965  1.00  0.00     0.057 A 
ATOM     85  C   UNL A   1      38.754  30.718  32.862  1.00  0.00     0.134 A 
ATOM     86  C   UNL A   1      39.826  32.304  34.268  1.00  0.00     0.134 A 
ATOM     87  F   UNL A   1      38.499  30.130  31.687  1.00  0.00    -0.206 F 
ATOM     88  C   UNL A   1      38.173  30.099  33.977  1.00  0.00     0.040 A 
ATOM     89  C   UNL A   1      39.295  31.663  35.395  1.00  0.00     0.040 A 
ATOM     90  F   UNL A   1      40.624  33.363  34.473  1.00  0.00    -0.206 F 
ATOM     91  C   UNL A   1      38.437  30.578  35.251  1.00  0.00     0.006 A 
ENDBRANCH  67  84
ENDBRANCH  41  42
ENDBRANCH  33  36
ENDBRANCH  31  32
ENDBRANCH  30  31
ENDBRANCH   1  30
TORSDOF 15
ENDMDL
MODEL 2
REMARK VINA RESULT:     -11.7      1.941      2.469
REMARK SMILES Cc1c(CC(=O)NCCCCNC(=O)c2ccc(-c3c4nc(c(-c5c(F)cccc5F)c5ccc([nH]5)c(-c5c(F)cccc5F)c5nc(c(-c6c(F)cccc6F)c6ccc3[nH]6)C=C5)C=C4)cc2)cc(-c2ccc(S(C)(=O)=O)cc2)n1-c1ccccc1
REMARK SMILES IDX 9 1 8 2 7 3 5 4 6 5 4 7 3 8 1 9 2 10 81 11 69 12 70 13 82 14
REMARK SMILES IDX 83 15 87 16 84 17 86 18 85 19 71 20 72 21 80 22 73 23 79 24
REMARK SMILES IDX 74 25 75 26 76 27 77 28 78 29 10 30 11 31 12 32 13 33 14 35
REMARK SMILES IDX 15 36 16 37 68 38 17 39 67 40 18 41 19 42 20 43 61 44 21 45
REMARK SMILES IDX 66 46 60 47 62 48 22 49 65 50 59 51 58 52 23 54 49 55 32 56
REMARK SMILES IDX 48 57 33 58 36 59 47 60 63 61 34 62 35 63 46 65 64 66 37 67
REMARK SMILES IDX 24 68 25 69 30 70 26 71 27 72 29 73 31 74 28 75 50 76 51 77
REMARK SMILES IDX 56 78 52 79 53 80 55 81 57 82 54 83 38 84 39 85 44 86 40 87
REMARK SMILES IDX 41 88 43 89 45 90 42 91
REMARK H PARENT 7 6 12 34 62 53 36 64
REMARK Flexibility Score: inf
ROOT
ATOM      1  C   UNL A   1      37.839  22.049  25.444  1.00  0.00     0.023 C 
ENDROOT
BRANCH   1   2
ATOM      2  C   UNL A   1      36.920  22.021  24.223  1.00  0.00     0.116 C 
BRANCH   2   3
ATOM      3  N   UNL A   1      35.568  21.604  24.551  1.00  0.00    -0.356 N 
ATOM      4  C   UNL A   1      34.371  22.022  24.052  1.00  0.00     0.224 C 
ATOM      5  O   UNL A   1      33.352  21.461  24.462  1.00  0.00    -0.275 OA
ATOM      6  H   UNL A   1      35.508  20.908  25.244  1.00  0.00     0.163 HD
BRANCH   4   7
ATOM      7  C   UNL A   1      34.308  23.114  23.003  1.00  0.00     0.137 C 
BRANCH   7   8
ATOM      8  C   UNL A   1      33.636  24.361  23.490  1.00  0.00    -0.017 A 
ATOM      9  C   UNL A   1      35.058  24.877  25.587  1.00  0.00     0.065 C 
ATOM     10  C   UNL A   1      33.980  25.145  24.586  1.00  0.00     0.024 A 
ATOM     11  N   UNL A   1      33.085  26.209  24.659  1.00  0.00    -0.314 N 
ATOM     12  C   UNL A   1      32.489  24.951  22.906  1.00  0.00     0.033 A 
ATOM     13  C   UNL A   1      32.191  26.112  23.591  1.00  0.00     0.053 A 
BRANCH  11  14
ATOM     14  C   UNL A   1      33.050  27.212  25.665  1.00  0.00     0.046 A 
ATOM     15  C   UNL A   1      34.037  28.207  25.673  1.00  0.00     0.026 A 
ATOM     16  C   UNL A   1      32.062  27.186  26.654  1.00  0.00     0.026 A 
ATOM     17  C   UNL A   1      34.027  29.181  26.669  1.00  0.00     0.002 A 
ATOM     18  C   UNL A   1      32.072  28.154  27.658  1.00  0.00     0.002 A 
ATOM     19  C   UNL A   1      33.050  29.151  27.663  1.00  0.00     0.000 A 
ENDBRANCH  11  14
BRANCH  13  20
ATOM     20  C   UNL A   1      31.195  27.124  23.220  1.00  0.00    -0.001 A 
ATOM     21  C   UNL A   1      29.829  26.910  23.464  1.00  0.00     0.011 A 
ATOM     22  C   UNL A   1      31.605  28.338  22.653  1.00  0.00     0.011 A 
ATOM     23  C   UNL A   1      28.883  27.878  23.122  1.00  0.00     0.021 A 
ATOM     24  C   UNL A   1      30.665  29.311  22.305  1.00  0.00     0.021 A 
ATOM     25  C   UNL A   1      29.309  29.071  22.531  1.00  0.00     0.067 A 
BRANCH  25  26
ATOM     26  S   UNL A   1      28.099  30.307  22.125  1.00  0.00     0.175 S 
ATOM     27  C   UNL A   1      28.958  31.844  22.338  1.00  0.00     0.163 C 
ATOM     28  O   UNL A   1      27.776  30.147  20.734  1.00  0.00    -0.224 OA
ATOM     29  O   UNL A   1      27.057  30.251  23.152  1.00  0.00    -0.224 OA
ENDBRANCH  25  26
ENDBRANCH  13  20
ENDBRANCH   7   8
ENDBRANCH   4   7
ENDBRANCH   2   3
ENDBRANCH   1   2
BRANCH   1  30
ATOM     30  C   UNL A   1      38.934  20.965  25.516  1.00  0.00     0.023 C 
BRANCH  30  31
ATOM     31  C   UNL A   1      40.230  21.258  26.297  1.00  0.00     0.116 C 
BRANCH  31  32
ATOM     32  N   UNL A   1      41.265  21.947  25.563  1.00  0.00    -0.352 N 
ATOM     33  C   UNL A   1      41.793  23.197  25.849  1.00  0.00     0.251 C 
ATOM     34  H   UNL A   1      41.635  21.480  24.779  1.00  0.00     0.163 HD
ATOM     35  O   UNL A   1      42.672  23.644  25.114  1.00  0.00    -0.269 OA
BRANCH  33  36
ATOM     36  C   UNL A   1      41.252  24.053  26.971  1.00  0.00     0.039 A 
ATOM     37  C   UNL A   1      40.139  24.835  26.715  1.00  0.00     0.014 A 
ATOM     38  C   UNL A   1      41.911  24.288  28.193  1.00  0.00     0.014 A 
ATOM     39  C   UNL A   1      39.683  25.784  27.677  1.00  0.00     0.010 A 
ATOM     40  C   UNL A   1      41.490  25.329  29.132  1.00  0.00     0.010 A 
ATOM     41  C   UNL A   1      40.364  26.143  28.900  1.00  0.00    -0.014 A 
BRANCH  41  42
ATOM     42  C   UNL A   1      40.082  27.644  29.460  1.00  0.00     0.031 A 
ATOM     43  C   UNL A   1      41.295  28.379  28.991  1.00  0.00     0.074 A 
ATOM     44  C   UNL A   1      39.229  28.432  30.242  1.00  0.00     0.049 A 
ATOM     45  N   UNL A   1      42.483  27.946  29.312  1.00  0.00    -0.248 NA
ATOM     46  C   UNL A   1      41.265  29.293  27.847  1.00  0.00     0.031 C 
ATOM     47  C   UNL A   1      38.028  28.023  30.989  1.00  0.00     0.029 A 
ATOM     48  N   UNL A   1      39.234  29.837  30.561  1.00  0.00    -0.354 N 
ATOM     49  C   UNL A   1      43.373  28.732  28.630  1.00  0.00     0.074 A 
ATOM     50  C   UNL A   1      42.575  29.360  27.584  1.00  0.00     0.031 C 
ATOM     51  C   UNL A   1      37.378  29.093  31.542  1.00  0.00     0.029 A 
ATOM     52  C   UNL A   1      38.097  30.345  31.298  1.00  0.00     0.049 A 
ATOM     53  H   UNL A   1      39.976  30.423  30.290  1.00  0.00     0.167 HD
ATOM     54  C   UNL A   1      44.371  29.280  29.381  1.00  0.00     0.037 A 
ATOM     55  C   UNL A   1      37.783  31.628  31.760  1.00  0.00     0.037 A 
ATOM     56  C   UNL A   1      44.112  30.659  29.691  1.00  0.00     0.049 A 
ATOM     57  C   UNL A   1      39.033  32.394  31.825  1.00  0.00     0.074 A 
ATOM     58  C   UNL A   1      43.608  31.710  28.951  1.00  0.00     0.029 A 
ATOM     59  N   UNL A   1      43.880  30.965  31.016  1.00  0.00    -0.354 N 
ATOM     60  N   UNL A   1      39.858  32.254  32.815  1.00  0.00    -0.248 NA
ATOM     61  C   UNL A   1      39.368  33.454  30.878  1.00  0.00     0.031 C 
ATOM     62  C   UNL A   1      42.595  32.247  29.775  1.00  0.00     0.029 A 
ATOM     63  C   UNL A   1      42.799  31.812  31.080  1.00  0.00     0.049 A 
ATOM     64  H   UNL A   1      44.398  30.635  31.785  1.00  0.00     0.167 HD
ATOM     65  C   UNL A   1      41.008  32.761  32.314  1.00  0.00     0.074 A 
ATOM     66  C   UNL A   1      40.601  33.727  31.312  1.00  0.00     0.031 C 
ATOM     67  C   UNL A   1      42.060  31.908  32.308  1.00  0.00     0.037 A 
BRANCH  54  68
ATOM     68  C   UNL A   1      45.005  28.316  30.342  1.00  0.00     0.057 A 
ATOM     69  C   UNL A   1      46.283  27.828  30.075  1.00  0.00     0.134 A 
ATOM     70  C   UNL A   1      44.330  27.771  31.452  1.00  0.00     0.134 A 
ATOM     71  F   UNL A   1      47.011  28.347  29.074  1.00  0.00    -0.206 F 
ATOM     72  C   UNL A   1      46.838  26.793  30.832  1.00  0.00     0.040 A 
ATOM     73  C   UNL A   1      44.845  26.699  32.175  1.00  0.00     0.040 A 
ATOM     74  F   UNL A   1      43.154  28.275  31.862  1.00  0.00    -0.206 F 
ATOM     75  C   UNL A   1      46.102  26.199  31.858  1.00  0.00     0.006 A 
ENDBRANCH  54  68
BRANCH  55  76
ATOM     76  C   UNL A   1      36.680  32.520  32.397  1.00  0.00     0.057 A 
ATOM     77  C   UNL A   1      36.613  32.714  33.821  1.00  0.00     0.134 A 
ATOM     78  C   UNL A   1      36.045  33.542  31.681  1.00  0.00     0.134 A 
ATOM     79  F   UNL A   1      37.121  31.813  34.674  1.00  0.00    -0.206 F 
ATOM     80  C   UNL A   1      36.095  33.865  34.451  1.00  0.00     0.040 A 
ATOM     81  C   UNL A   1      35.472  34.683  32.311  1.00  0.00     0.040 A 
ATOM     82  F   UNL A   1      36.044  33.521  30.342  1.00  0.00    -0.206 F 
ATOM     83  C   UNL A   1      35.532  34.869  33.691  1.00  0.00     0.006 A 
ENDBRANCH  55  76
BRANCH  67  84
ATOM     84  C   UNL A   1      42.194  31.003  33.523  1.00  0.00     0.057 A 
ATOM     85  C   UNL A   1      41.468  29.814  33.772  1.00  0.00     0.134 A 
ATOM     86  C   UNL A   1      43.012  31.434  34.570  1.00  0.00     0.134 A 
ATOM     87  F   UNL A   1      40.729  29.220  32.828  1.00  0.00    -0.206 F 
ATOM     88  C   UNL A   1      41.471  29.175  35.019  1.00  0.00     0.040 A 
ATOM     89  C   UNL A   1      43.065  30.774  35.805  1.00  0.00     0.040 A 
ATOM     90  F   UNL A   1      43.785  32.519  34.411  1.00  0.00    -0.206 F 
ATOM     91  C   UNL A   1      42.267  29.661  36.045  1.00  0.00     0.006 A 
ENDBRANCH  67  84
ENDBRANCH  41  42
ENDBRANCH  33  36
ENDBRANCH  31  32
ENDBRANCH  30  31
ENDBRANCH   1  30
TORSDOF 15
ENDMDL
MODEL 3
REMARK VINA RESULT:     -11.4      5.461     11.894
REMARK SMILES Cc1c(CC(=O)NCCCCNC(=O)c2ccc(-c3c4nc(c(-c5c(F)cccc5F)c5ccc([nH]5)c(-c5c(F)cccc5F)c5nc(c(-c6c(F)cccc6F)c6ccc3[nH]6)C=C5)C=C4)cc2)cc(-c2ccc(S(C)(=O)=O)cc2)n1-c1ccccc1
REMARK SMILES IDX 9 1 8 2 7 3 5 4 6 5 4 7 3 8 1 9 2 10 81 11 69 12 70 13 82 14
REMARK SMILES IDX 83 15 87 16 84 17 86 18 85 19 71 20 72 21 80 22 73 23 79 24
REMARK SMILES IDX 74 25 75 26 76 27 77 28 78 29 10 30 11 31 12 32 13 33 14 35
REMARK SMILES IDX 15 36 16 37 68 38 17 39 67 40 18 41 19 42 20 43 61 44 21 45
REMARK SMILES IDX 66 46 60 47 62 48 22 49 65 50 59 51 58 52 23 54 49 55 32 56
REMARK SMILES IDX 48 57 33 58 36 59 47 60 63 61 34 62 35 63 46 65 64 66 37 67
REMARK SMILES IDX 24 68 25 69 30 70 26 71 27 72 29 73 31 74 28 75 50 76 51 77
REMARK SMILES IDX 56 78 52 79 53 80 55 81 57 82 54 83 38 84 39 85 44 86 40 87
REMARK SMILES IDX 41 88 43 89 45 90 42 91
REMARK H PARENT 7 6 12 34 62 53 36 64
REMARK Flexibility Score: inf
ROOT
ATOM      1  C   UNL A   1      34.133  35.255  28.522  1.00  0.00     0.023 C 
ENDROOT
BRANCH   1   2
ATOM      2  C   UNL A   1      33.122  35.330  29.667  1.00  0.00     0.116 C 
BRANCH   2   3
ATOM      3  N   UNL A   1      33.452  36.362  30.634  1.00  0.00    -0.356 N 
ATOM      4  C   UNL A   1      33.584  36.291  31.988  1.00  0.00     0.224 C 
ATOM      5  O   UNL A   1      33.934  37.312  32.584  1.00  0.00    -0.275 OA
ATOM      6  H   UNL A   1      33.606  37.255  30.249  1.00  0.00     0.163 HD
BRANCH   4   7
ATOM      7  C   UNL A   1      33.344  34.986  32.722  1.00  0.00     0.137 C 
BRANCH   7   8
ATOM      8  C   UNL A   1      34.605  34.351  33.222  1.00  0.00    -0.017 A 
ATOM      9  C   UNL A   1      35.032  32.611  31.356  1.00  0.00     0.065 C 
ATOM     10  C   UNL A   1      35.357  33.350  32.616  1.00  0.00     0.024 A 
ATOM     11  N   UNL A   1      36.451  33.071  33.431  1.00  0.00    -0.314 N 
ATOM     12  C   UNL A   1      35.248  34.663  34.445  1.00  0.00     0.033 A 
ATOM     13  C   UNL A   1      36.406  33.919  34.540  1.00  0.00     0.053 A 
BRANCH  11  14
ATOM     14  C   UNL A   1      37.436  32.072  33.206  1.00  0.00     0.046 A 
ATOM     15  C   UNL A   1      37.281  30.813  33.800  1.00  0.00     0.026 A 
ATOM     16  C   UNL A   1      38.562  32.355  32.427  1.00  0.00     0.026 A 
ATOM     17  C   UNL A   1      38.253  29.834  33.606  1.00  0.00     0.002 A 
ATOM     18  C   UNL A   1      39.538  31.374  32.253  1.00  0.00     0.002 A 
ATOM     19  C   UNL A   1      39.383  30.115  32.839  1.00  0.00     0.000 A 
ENDBRANCH  11  14
BRANCH  13  20
ATOM     20  C   UNL A   1      37.459  34.052  35.553  1.00  0.00    -0.001 A 
ATOM     21  C   UNL A   1      38.660  34.716  35.257  1.00  0.00     0.011 A 
ATOM     22  C   UNL A   1      37.257  33.550  36.846  1.00  0.00     0.011 A 
ATOM     23  C   UNL A   1      39.657  34.852  36.225  1.00  0.00     0.021 A 
ATOM     24  C   UNL A   1      38.251  33.679  37.820  1.00  0.00     0.021 A 
ATOM     25  C   UNL A   1      39.449  34.320  37.500  1.00  0.00     0.067 A 
BRANCH  25  26
ATOM     26  S   UNL A   1      40.713  34.524  38.732  1.00  0.00     0.175 S 
ATOM     27  C   UNL A   1      41.791  33.136  38.483  1.00  0.00     0.163 C 
ATOM     28  O   UNL A   1      41.430  35.728  38.414  1.00  0.00    -0.224 OA
ATOM     29  O   UNL A   1      40.080  34.346  40.040  1.00  0.00    -0.224 OA
ENDBRANCH  25  26
ENDBRANCH  13  20
ENDBRANCH   7   8
ENDBRANCH   4   7
ENDBRANCH   2   3
ENDBRANCH   1   2
BRANCH   1  30
ATOM     30  C   UNL A   1      35.492  34.595  28.836  1.00  0.00     0.023 C 
BRANCH  30  31
ATOM     31  C   UNL A   1      35.962  33.403  27.979  1.00  0.00     0.116 C 
BRANCH  31  32
ATOM     32  N   UNL A   1      34.976  32.379  27.728  1.00  0.00    -0.352 N 
ATOM     33  C   UNL A   1      35.140  31.012  27.890  1.00  0.00     0.251 C 
ATOM     34  H   UNL A   1      34.096  32.684  27.408  1.00  0.00     0.163 HD
ATOM     35  O   UNL A   1      34.193  30.273  27.624  1.00  0.00    -0.269 OA
BRANCH  33  36
ATOM     36  C   UNL A   1      36.467  30.410  28.290  1.00  0.00     0.039 A 
ATOM     37  C   UNL A   1      37.373  30.109  27.289  1.00  0.00     0.014 A 
ATOM     38  C   UNL A   1      36.778  29.930  29.576  1.00  0.00     0.014 A 
ATOM     39  C   UNL A   1      38.569  29.390  27.584  1.00  0.00     0.010 A 
ATOM     40  C   UNL A   1      37.961  29.114  29.853  1.00  0.00     0.010 A 
ATOM     41  C   UNL A   1      38.901  28.787  28.855  1.00  0.00    -0.014 A 
BRANCH  41  42
ATOM     42  C   UNL A   1      39.890  27.497  28.796  1.00  0.00     0.031 A 
ATOM     43  C   UNL A   1      40.840  27.788  29.911  1.00  0.00     0.074 A 
ATOM     44  C   UNL A   1      40.217  26.337  28.083  1.00  0.00     0.049 A 
ATOM     45  N   UNL A   1      41.497  28.916  29.927  1.00  0.00    -0.248 NA
ATOM     46  C   UNL A   1      40.770  27.102  31.203  1.00  0.00     0.031 C 
ATOM     47  C   UNL A   1      39.607  25.815  26.849  1.00  0.00     0.029 A 
ATOM     48  N   UNL A   1      41.206  25.314  28.305  1.00  0.00    -0.354 N 
ATOM     49  C   UNL A   1      42.167  28.950  31.122  1.00  0.00     0.074 A 
ATOM     50  C   UNL A   1      41.497  27.948  31.942  1.00  0.00     0.031 C 
ATOM     51  C   UNL A   1      40.109  24.589  26.507  1.00  0.00     0.029 A 
ATOM     52  C   UNL A   1      41.168  24.165  27.425  1.00  0.00     0.049 A 
ATOM     53  H   UNL A   1      41.876  25.392  29.021  1.00  0.00     0.167 HD
ATOM     54  C   UNL A   1      43.500  29.230  31.043  1.00  0.00     0.037 A 
ATOM     55  C   UNL A   1      41.959  23.013  27.362  1.00  0.00     0.037 A 
ATOM     56  C   UNL A   1      44.303  28.045  31.165  1.00  0.00     0.049 A 
ATOM     57  C   UNL A   1      43.225  23.306  28.043  1.00  0.00     0.074 A 
ATOM     58  C   UNL A   1      44.222  26.934  31.981  1.00  0.00     0.029 A 
ATOM     59  N   UNL A   1      45.017  27.660  30.048  1.00  0.00    -0.354 N 
ATOM     60  N   UNL A   1      44.169  23.970  27.452  1.00  0.00    -0.248 NA
ATOM     61  C   UNL A   1      43.569  22.762  29.354  1.00  0.00     0.031 C 
ATOM     62  C   UNL A   1      44.323  25.849  31.083  1.00  0.00     0.029 A 
ATOM     63  C   UNL A   1      44.866  26.303  29.887  1.00  0.00     0.049 A 
ATOM     64  H   UNL A   1      45.543  28.254  29.466  1.00  0.00     0.167 HD
ATOM     65  C   UNL A   1      44.931  24.386  28.492  1.00  0.00     0.074 A 
ATOM     66  C   UNL A   1      44.727  23.403  29.538  1.00  0.00     0.031 C 
ATOM     67  C   UNL A   1      45.089  25.727  28.590  1.00  0.00     0.037 A 
BRANCH  54  68
ATOM     68  C   UNL A   1      43.826  30.365  30.117  1.00  0.00     0.057 A 
ATOM     69  C   UNL A   1      44.139  31.614  30.653  1.00  0.00     0.134 A 
ATOM     70  C   UNL A   1      43.717  30.278  28.715  1.00  0.00     0.134 A 
ATOM     71  F   UNL A   1      44.324  31.757  31.974  1.00  0.00    -0.206 F 
ATOM     72  C   UNL A   1      44.265  32.742  29.838  1.00  0.00     0.040 A 
ATOM     73  C   UNL A   1      43.778  31.404  27.899  1.00  0.00     0.040 A 
ATOM     74  F   UNL A   1      43.551  29.092  28.107  1.00  0.00    -0.206 F 
ATOM     75  C   UNL A   1      44.044  32.646  28.463  1.00  0.00     0.006 A 
ENDBRANCH  54  68
BRANCH  55  76
ATOM     76  C   UNL A   1      42.116  21.607  26.716  1.00  0.00     0.057 A 
ATOM     77  C   UNL A   1      43.100  21.364  25.696  1.00  0.00     0.134 A 
ATOM     78  C   UNL A   1      41.722  20.437  27.377  1.00  0.00     0.134 A 
ATOM     79  F   UNL A   1      43.561  22.356  24.920  1.00  0.00    -0.206 F 
ATOM     80  C   UNL A   1      43.721  20.121  25.458  1.00  0.00     0.040 A 
ATOM     81  C   UNL A   1      42.305  19.166  27.109  1.00  0.00     0.040 A 
ATOM     82  F   UNL A   1      40.831  20.498  28.375  1.00  0.00    -0.206 F 
ATOM     83  C   UNL A   1      43.334  19.011  26.181  1.00  0.00     0.006 A 
ENDBRANCH  55  76
BRANCH  67  84
ATOM     84  C   UNL A   1      45.266  26.478  27.280  1.00  0.00     0.057 A 
ATOM     85  C   UNL A   1      44.246  26.831  26.366  1.00  0.00     0.134 A 
ATOM     86  C   UNL A   1      46.570  26.741  26.850  1.00  0.00     0.134 A 
ATOM     87  F   UNL A   1      42.947  26.741  26.678  1.00  0.00    -0.206 F 
ATOM     88  C   UNL A   1      44.517  27.299  25.073  1.00  0.00     0.040 A 
ATOM     89  C   UNL A   1      46.854  27.259  25.580  1.00  0.00     0.040 A 
ATOM     90  F   UNL A   1      47.605  26.495  27.667  1.00  0.00    -0.206 F 
ATOM     91  C   UNL A   1      45.829  27.508  24.673  1.00  0.00     0.006 A 
ENDBRANCH  67  84
ENDBRANCH  41  42
ENDBRANCH  33  36
ENDBRANCH  31  32
ENDBRANCH  30  31
ENDBRANCH   1  30
TORSDOF 15
ENDMDL
