MODEL 1
REMARK VINA RESULT:     -12.1      0.000      0.000
REMARK SMILES O=C(NCCCCNC(=O)[C@@H](Cc1ccncc1)c1ccc(Cl)cc1)c1ccc(-c2c3nc(c(-c4c(F)cccc4F)c4ccc([nH]4)c(-c4c(F)cccc4F)c4nc(c(-c5c(F)cccc5F)c5ccc2[nH]5)C=C4)C=C3)cc1
REMARK SMILES IDX 5 1 4 2 3 3 1 4 2 5 26 7 27 8 79 9 28 10 78 11 29 12 30 13
REMARK SMILES IDX 31 14 72 15 32 16 77 17 71 18 73 19 33 20 76 21 70 22 69 23
REMARK SMILES IDX 34 25 60 26 43 27 59 28 44 29 47 30 58 31 74 32 45 33 46 34
REMARK SMILES IDX 57 36 75 37 48 38 35 39 36 40 41 41 37 42 38 43 40 44 42 45
REMARK SMILES IDX 39 46 61 47 62 48 67 49 63 50 64 51 66 52 68 53 65 54 49 55
REMARK SMILES IDX 50 56 55 57 51 58 52 59 54 60 56 61 53 62 6 63 7 64 8 65
REMARK SMILES IDX 9 66 10 68 11 69 12 70 13 71 14 72 18 73 15 74 17 75 16 76
REMARK SMILES IDX 19 77 20 78 25 79 21 80 24 81 22 82 23 83
REMARK H PARENT 3 6 73 24 47 35 8 67
REMARK Flexibility Score: inf
ROOT
ATOM      1  C   UNL A   1      37.926  20.029  24.999  1.00  0.00     0.023 C 
ENDROOT
BRANCH   1   2
ATOM      2  C   UNL A   1      39.183  20.188  25.843  1.00  0.00     0.116 C 
BRANCH   2   3
ATOM      3  N   UNL A   1      40.122  19.077  25.760  1.00  0.00    -0.352 N 
ATOM      4  O   UNL A   1      42.180  18.116  25.897  1.00  0.00    -0.269 OA
ATOM      5  C   UNL A   1      41.475  19.112  26.017  1.00  0.00     0.251 C 
ATOM      6  H   UNL A   1      39.748  18.206  25.490  1.00  0.00     0.163 HD
BRANCH   5   7
ATOM      7  C   UNL A   1      42.081  20.407  26.385  1.00  0.00     0.039 A 
ATOM      8  C   UNL A   1      42.184  20.778  27.728  1.00  0.00     0.014 A 
ATOM      9  C   UNL A   1      42.441  21.297  25.370  1.00  0.00     0.014 A 
ATOM     10  C   UNL A   1      42.491  22.092  28.050  1.00  0.00     0.010 A 
ATOM     11  C   UNL A   1      42.835  22.593  25.701  1.00  0.00     0.010 A 
ATOM     12  C   UNL A   1      42.825  23.012  27.042  1.00  0.00    -0.014 A 
BRANCH  12  13
ATOM     13  C   UNL A   1      43.228  24.389  27.414  1.00  0.00     0.031 A 
ATOM     14  C   UNL A   1      42.217  25.405  27.865  1.00  0.00     0.074 A 
ATOM     15  C   UNL A   1      44.533  24.714  27.336  1.00  0.00     0.049 A 
ATOM     16  N   UNL A   1      42.400  26.665  28.170  1.00  0.00    -0.248 NA
ATOM     17  C   UNL A   1      40.820  24.958  27.983  1.00  0.00     0.031 C 
ATOM     18  C   UNL A   1      45.600  23.810  26.900  1.00  0.00     0.029 A 
ATOM     19  N   UNL A   1      45.184  25.886  27.619  1.00  0.00    -0.354 N 
ATOM     20  C   UNL A   1      41.144  27.170  28.481  1.00  0.00     0.074 A 
ATOM     21  C   UNL A   1      40.202  26.081  28.328  1.00  0.00     0.031 C 
ATOM     22  C   UNL A   1      46.774  24.451  26.966  1.00  0.00     0.029 A 
ATOM     23  C   UNL A   1      46.535  25.827  27.383  1.00  0.00     0.049 A 
ATOM     24  H   UNL A   1      44.728  26.690  27.959  1.00  0.00     0.167 HD
ATOM     25  C   UNL A   1      40.814  28.429  28.859  1.00  0.00     0.037 A 
ATOM     26  C   UNL A   1      47.476  26.784  27.452  1.00  0.00     0.037 A 
ATOM     27  C   UNL A   1      41.766  29.493  29.049  1.00  0.00     0.049 A 
ATOM     28  C   UNL A   1      47.077  28.171  27.853  1.00  0.00     0.074 A 
ATOM     29  C   UNL A   1      41.541  30.774  29.524  1.00  0.00     0.029 A 
ATOM     30  N   UNL A   1      43.120  29.403  28.767  1.00  0.00    -0.354 N 
ATOM     31  N   UNL A   1      45.893  28.620  28.188  1.00  0.00    -0.248 NA
ATOM     32  C   UNL A   1      48.137  29.186  27.867  1.00  0.00     0.031 C 
ATOM     33  C   UNL A   1      42.753  31.474  29.487  1.00  0.00     0.029 A 
ATOM     34  C   UNL A   1      43.736  30.617  29.022  1.00  0.00     0.049 A 
ATOM     35  H   UNL A   1      43.576  28.596  28.435  1.00  0.00     0.167 HD
ATOM     36  C   UNL A   1      46.062  29.971  28.449  1.00  0.00     0.074 A 
ATOM     37  C   UNL A   1      47.469  30.262  28.261  1.00  0.00     0.031 C 
ATOM     38  C   UNL A   1      45.133  30.891  28.807  1.00  0.00     0.037 A 
BRANCH  25  39
ATOM     39  C   UNL A   1      39.366  28.744  29.080  1.00  0.00     0.057 A 
ATOM     40  C   UNL A   1      38.752  28.577  30.327  1.00  0.00     0.134 A 
ATOM     41  C   UNL A   1      38.601  29.310  28.052  1.00  0.00     0.134 A 
ATOM     42  F   UNL A   1      39.429  28.034  31.350  1.00  0.00    -0.206 F 
ATOM     43  C   UNL A   1      37.425  28.957  30.542  1.00  0.00     0.040 A 
ATOM     44  C   UNL A   1      37.280  29.709  28.259  1.00  0.00     0.040 A 
ATOM     45  F   UNL A   1      39.133  29.504  26.836  1.00  0.00    -0.206 F 
ATOM     46  C   UNL A   1      36.688  29.534  29.509  1.00  0.00     0.006 A 
ENDBRANCH  25  39
BRANCH  26  47
ATOM     47  C   UNL A   1      48.874  26.460  27.083  1.00  0.00     0.057 A 
ATOM     48  C   UNL A   1      49.801  26.048  28.045  1.00  0.00     0.134 A 
ATOM     49  C   UNL A   1      49.305  26.526  25.753  1.00  0.00     0.134 A 
ATOM     50  F   UNL A   1      49.448  25.981  29.338  1.00  0.00    -0.206 F 
ATOM     51  C   UNL A   1      51.110  25.715  27.697  1.00  0.00     0.040 A 
ATOM     52  C   UNL A   1      50.603  26.173  25.387  1.00  0.00     0.040 A 
ATOM     53  F   UNL A   1      48.458  26.907  24.785  1.00  0.00    -0.206 F 
ATOM     54  C   UNL A   1      51.512  25.769  26.363  1.00  0.00     0.006 A 
ENDBRANCH  26  47
BRANCH  38  55
ATOM     55  C   UNL A   1      45.615  32.294  29.004  1.00  0.00     0.057 A 
ATOM     56  C   UNL A   1      46.132  32.717  30.234  1.00  0.00     0.134 A 
ATOM     57  C   UNL A   1      45.583  33.219  27.955  1.00  0.00     0.134 A 
ATOM     58  F   UNL A   1      46.171  31.879  31.280  1.00  0.00    -0.206 F 
ATOM     59  C   UNL A   1      46.589  34.022  30.419  1.00  0.00     0.040 A 
ATOM     60  C   UNL A   1      46.054  34.521  28.122  1.00  0.00     0.040 A 
ATOM     61  F   UNL A   1      45.101  32.871  26.752  1.00  0.00    -0.206 F 
ATOM     62  C   UNL A   1      46.556  34.927  29.358  1.00  0.00     0.006 A 
ENDBRANCH  38  55
ENDBRANCH  12  13
ENDBRANCH   5   7
ENDBRANCH   2   3
ENDBRANCH   1   2
BRANCH   1  63
ATOM     63  C   UNL A   1      37.401  21.332  24.414  1.00  0.00     0.023 C 
BRANCH  63  64
ATOM     64  C   UNL A   1      37.275  22.478  25.417  1.00  0.00     0.116 C 
BRANCH  64  65
ATOM     65  N   UNL A   1      36.265  22.204  26.413  1.00  0.00    -0.356 N 
ATOM     66  C   UNL A   1      34.947  21.902  26.293  1.00  0.00     0.227 C 
ATOM     67  H   UNL A   1      36.588  22.244  27.342  1.00  0.00     0.163 HD
ATOM     68  O   UNL A   1      34.353  21.643  27.346  1.00  0.00    -0.274 OA
BRANCH  66  69
ATOM     69  C   UNL A   1      34.188  21.882  24.958  1.00  0.00     0.113 C 
BRANCH  69  70
ATOM     70  C   UNL A   1      33.105  20.769  24.877  1.00  0.00     0.054 C 
BRANCH  70  71
ATOM     71  C   UNL A   1      33.324  19.401  24.258  1.00  0.00    -0.044 A 
ATOM     72  C   UNL A   1      32.404  18.963  23.291  1.00  0.00     0.024 A 
ATOM     73  C   UNL A   1      34.329  18.502  24.626  1.00  0.00     0.024 A 
ATOM     74  C   UNL A   1      32.568  17.715  22.704  1.00  0.00     0.111 A 
ATOM     75  C   UNL A   1      34.417  17.274  23.982  1.00  0.00     0.111 A 
ATOM     76  N   UNL A   1      33.570  16.871  23.016  1.00  0.00    -0.265 NA
ENDBRANCH  70  71
ENDBRANCH  69  70
BRANCH  69  77
ATOM     77  C   UNL A   1      33.900  23.220  24.289  1.00  0.00    -0.035 A 
ATOM     78  C   UNL A   1      34.038  24.402  25.046  1.00  0.00     0.006 A 
ATOM     79  C   UNL A   1      33.489  23.340  22.953  1.00  0.00     0.006 A 
ATOM     80  C   UNL A   1      33.859  25.659  24.464  1.00  0.00     0.021 A 
ATOM     81  C   UNL A   1      33.305  24.599  22.370  1.00  0.00     0.021 A 
ATOM     82  C   UNL A   1      33.506  25.752  23.123  1.00  0.00     0.041 A 
ATOM     83  Cl  UNL A   1      33.321  27.297  22.393  1.00  0.00    -0.084 Cl
ENDBRANCH  69  77
ENDBRANCH  66  69
ENDBRANCH  64  65
ENDBRANCH  63  64
ENDBRANCH   1  63
TORSDOF 14
ENDMDL
MODEL 2
REMARK VINA RESULT:     -12.1      0.133      1.422
REMARK SMILES O=C(NCCCCNC(=O)[C@@H](Cc1ccncc1)c1ccc(Cl)cc1)c1ccc(-c2c3nc(c(-c4c(F)cccc4F)c4ccc([nH]4)c(-c4c(F)cccc4F)c4nc(c(-c5c(F)cccc5F)c5ccc2[nH]5)C=C4)C=C3)cc1
REMARK SMILES IDX 5 1 4 2 3 3 1 4 2 5 26 7 27 8 79 9 28 10 78 11 29 12 30 13
REMARK SMILES IDX 31 14 72 15 32 16 77 17 71 18 73 19 33 20 76 21 70 22 69 23
REMARK SMILES IDX 34 25 60 26 43 27 59 28 44 29 47 30 58 31 74 32 45 33 46 34
REMARK SMILES IDX 57 36 75 37 48 38 35 39 36 40 41 41 37 42 38 43 40 44 42 45
REMARK SMILES IDX 39 46 61 47 62 48 67 49 63 50 64 51 66 52 68 53 65 54 49 55
REMARK SMILES IDX 50 56 55 57 51 58 52 59 54 60 56 61 53 62 6 63 7 64 8 65
REMARK SMILES IDX 9 66 10 68 11 69 12 70 13 71 14 72 18 73 15 74 17 75 16 76
REMARK SMILES IDX 19 77 20 78 25 79 21 80 24 81 22 82 23 83
REMARK H PARENT 3 6 73 24 47 35 8 67
REMARK Flexibility Score: inf
ROOT
ATOM      1  C   UNL A   1      37.844  20.039  24.983  1.00  0.00     0.023 C 
ENDROOT
BRANCH   1   2
ATOM      2  C   UNL A   1      39.136  20.255  25.759  1.00  0.00     0.116 C 
BRANCH   2   3
ATOM      3  N   UNL A   1      40.052  19.123  25.750  1.00  0.00    -0.352 N 
ATOM      4  O   UNL A   1      42.081  18.125  26.004  1.00  0.00    -0.269 OA
ATOM      5  C   UNL A   1      41.394  19.139  26.062  1.00  0.00     0.251 C 
ATOM      6  H   UNL A   1      39.671  18.252  25.493  1.00  0.00     0.163 HD
BRANCH   5   7
ATOM      7  C   UNL A   1      42.013  20.433  26.412  1.00  0.00     0.039 A 
ATOM      8  C   UNL A   1      42.184  20.790  27.752  1.00  0.00     0.014 A 
ATOM      9  C   UNL A   1      42.317  21.335  25.390  1.00  0.00     0.014 A 
ATOM     10  C   UNL A   1      42.501  22.102  28.072  1.00  0.00     0.010 A 
ATOM     11  C   UNL A   1      42.723  22.630  25.714  1.00  0.00     0.010 A 
ATOM     12  C   UNL A   1      42.780  23.034  27.058  1.00  0.00    -0.014 A 
BRANCH  12  13
ATOM     13  C   UNL A   1      43.196  24.409  27.424  1.00  0.00     0.031 A 
ATOM     14  C   UNL A   1      42.196  25.432  27.887  1.00  0.00     0.074 A 
ATOM     15  C   UNL A   1      44.501  24.727  27.329  1.00  0.00     0.049 A 
ATOM     16  N   UNL A   1      42.390  26.691  28.189  1.00  0.00    -0.248 NA
ATOM     17  C   UNL A   1      40.798  24.993  28.025  1.00  0.00     0.031 C 
ATOM     18  C   UNL A   1      45.557  23.816  26.880  1.00  0.00     0.029 A 
ATOM     19  N   UNL A   1      45.163  25.894  27.603  1.00  0.00    -0.354 N 
ATOM     20  C   UNL A   1      41.142  27.203  28.516  1.00  0.00     0.074 A 
ATOM     21  C   UNL A   1      40.192  26.120  28.376  1.00  0.00     0.031 C 
ATOM     22  C   UNL A   1      46.735  24.450  26.931  1.00  0.00     0.029 A 
ATOM     23  C   UNL A   1      46.510  25.828  27.349  1.00  0.00     0.049 A 
ATOM     24  H   UNL A   1      44.716  26.701  27.948  1.00  0.00     0.167 HD
ATOM     25  C   UNL A   1      40.825  28.464  28.897  1.00  0.00     0.037 A 
ATOM     26  C   UNL A   1      47.458  26.779  27.406  1.00  0.00     0.037 A 
ATOM     27  C   UNL A   1      41.784  29.523  29.075  1.00  0.00     0.049 A 
ATOM     28  C   UNL A   1      47.072  28.169  27.811  1.00  0.00     0.074 A 
ATOM     29  C   UNL A   1      41.573  30.806  29.552  1.00  0.00     0.029 A 
ATOM     30  N   UNL A   1      43.135  29.425  28.775  1.00  0.00    -0.354 N 
ATOM     31  N   UNL A   1      45.895  28.625  28.161  1.00  0.00    -0.248 NA
ATOM     32  C   UNL A   1      48.138  29.177  27.811  1.00  0.00     0.031 C 
ATOM     33  C   UNL A   1      42.789  31.498  29.498  1.00  0.00     0.029 A 
ATOM     34  C   UNL A   1      43.761  30.635  29.021  1.00  0.00     0.049 A 
ATOM     35  H   UNL A   1      43.582  28.615  28.438  1.00  0.00     0.167 HD
ATOM     36  C   UNL A   1      46.075  29.975  28.419  1.00  0.00     0.074 A 
ATOM     37  C   UNL A   1      47.482  30.258  28.212  1.00  0.00     0.031 C 
ATOM     38  C   UNL A   1      45.157  30.900  28.788  1.00  0.00     0.037 A 
BRANCH  25  39
ATOM     39  C   UNL A   1      39.381  28.788  29.137  1.00  0.00     0.057 A 
ATOM     40  C   UNL A   1      38.790  28.655  30.399  1.00  0.00     0.134 A 
ATOM     41  C   UNL A   1      38.598  29.329  28.109  1.00  0.00     0.134 A 
ATOM     42  F   UNL A   1      39.485  28.137  31.424  1.00  0.00    -0.206 F 
ATOM     43  C   UNL A   1      37.468  29.043  30.629  1.00  0.00     0.040 A 
ATOM     44  C   UNL A   1      37.281  29.736  28.330  1.00  0.00     0.040 A 
ATOM     45  F   UNL A   1      39.108  29.490  26.878  1.00  0.00    -0.206 F 
ATOM     46  C   UNL A   1      36.713  29.595  29.595  1.00  0.00     0.006 A 
ENDBRANCH  25  39
BRANCH  26  47
ATOM     47  C   UNL A   1      48.849  26.447  27.019  1.00  0.00     0.057 A 
ATOM     48  C   UNL A   1      49.295  26.611  25.705  1.00  0.00     0.134 A 
ATOM     49  C   UNL A   1      49.772  25.986  27.965  1.00  0.00     0.134 A 
ATOM     50  F   UNL A   1      48.450  27.034  24.752  1.00  0.00    -0.206 F 
ATOM     51  C   UNL A   1      50.612  26.326  25.343  1.00  0.00     0.040 A 
ATOM     52  C   UNL A   1      51.097  25.720  27.623  1.00  0.00     0.040 A 
ATOM     53  F   UNL A   1      49.403  25.817  29.244  1.00  0.00    -0.206 F 
ATOM     54  C   UNL A   1      51.520  25.886  26.306  1.00  0.00     0.006 A 
ENDBRANCH  26  47
BRANCH  38  55
ATOM     55  C   UNL A   1      45.649  32.300  28.977  1.00  0.00     0.057 A 
ATOM     56  C   UNL A   1      45.590  33.237  27.939  1.00  0.00     0.134 A 
ATOM     57  C   UNL A   1      46.164  32.721  30.208  1.00  0.00     0.134 A 
ATOM     58  F   UNL A   1      45.123  32.886  26.732  1.00  0.00    -0.206 F 
ATOM     59  C   UNL A   1      46.042  34.546  28.115  1.00  0.00     0.040 A 
ATOM     60  C   UNL A   1      46.601  34.032  30.402  1.00  0.00     0.040 A 
ATOM     61  F   UNL A   1      46.244  31.869  31.242  1.00  0.00    -0.206 F 
ATOM     62  C   UNL A   1      46.544  34.947  29.352  1.00  0.00     0.006 A 
ENDBRANCH  38  55
ENDBRANCH  12  13
ENDBRANCH   5   7
ENDBRANCH   2   3
ENDBRANCH   1   2
BRANCH   1  63
ATOM     63  C   UNL A   1      37.187  21.324  24.498  1.00  0.00     0.023 C 
BRANCH  63  64
ATOM     64  C   UNL A   1      37.155  22.453  25.527  1.00  0.00     0.116 C 
BRANCH  64  65
ATOM     65  N   UNL A   1      36.114  22.248  26.509  1.00  0.00    -0.356 N 
ATOM     66  C   UNL A   1      34.802  21.930  26.370  1.00  0.00     0.227 C 
ATOM     67  H   UNL A   1      36.408  22.359  27.442  1.00  0.00     0.163 HD
ATOM     68  O   UNL A   1      34.176  21.747  27.420  1.00  0.00    -0.274 OA
BRANCH  66  69
ATOM     69  C   UNL A   1      34.086  21.805  25.017  1.00  0.00     0.113 C 
BRANCH  69  70
ATOM     70  C   UNL A   1      33.006  20.687  24.987  1.00  0.00     0.054 C 
BRANCH  70  71
ATOM     71  C   UNL A   1      33.160  19.365  24.257  1.00  0.00    -0.044 A 
ATOM     72  C   UNL A   1      34.233  18.535  24.621  1.00  0.00     0.024 A 
ATOM     73  C   UNL A   1      32.363  18.935  23.193  1.00  0.00     0.024 A 
ATOM     74  C   UNL A   1      34.410  17.319  23.974  1.00  0.00     0.111 A 
ATOM     75  C   UNL A   1      32.614  17.701  22.605  1.00  0.00     0.111 A 
ATOM     76  N   UNL A   1      33.607  16.877  22.986  1.00  0.00    -0.265 NA
ENDBRANCH  70  71
ENDBRANCH  69  70
BRANCH  69  77
ATOM     77  C   UNL A   1      33.819  23.088  24.238  1.00  0.00    -0.035 A 
ATOM     78  C   UNL A   1      34.040  24.328  24.874  1.00  0.00     0.006 A 
ATOM     79  C   UNL A   1      33.347  23.102  22.917  1.00  0.00     0.006 A 
ATOM     80  C   UNL A   1      33.882  25.532  24.186  1.00  0.00     0.021 A 
ATOM     81  C   UNL A   1      33.185  24.309  22.227  1.00  0.00     0.021 A 
ATOM     82  C   UNL A   1      33.467  25.517  22.859  1.00  0.00     0.041 A 
ATOM     83  Cl  UNL A   1      33.307  26.995  21.996  1.00  0.00    -0.084 Cl
ENDBRANCH  69  77
ENDBRANCH  66  69
ENDBRANCH  64  65
ENDBRANCH  63  64
ENDBRANCH   1  63
TORSDOF 14
ENDMDL
MODEL 3
REMARK VINA RESULT:     -12.0      5.719     10.581
REMARK SMILES O=C(NCCCCNC(=O)[C@@H](Cc1ccncc1)c1ccc(Cl)cc1)c1ccc(-c2c3nc(c(-c4c(F)cccc4F)c4ccc([nH]4)c(-c4c(F)cccc4F)c4nc(c(-c5c(F)cccc5F)c5ccc2[nH]5)C=C4)C=C3)cc1
REMARK SMILES IDX 5 1 4 2 3 3 1 4 2 5 26 7 27 8 79 9 28 10 78 11 29 12 30 13
REMARK SMILES IDX 31 14 72 15 32 16 77 17 71 18 73 19 33 20 76 21 70 22 69 23
REMARK SMILES IDX 34 25 60 26 43 27 59 28 44 29 47 30 58 31 74 32 45 33 46 34
REMARK SMILES IDX 57 36 75 37 48 38 35 39 36 40 41 41 37 42 38 43 40 44 42 45
REMARK SMILES IDX 39 46 61 47 62 48 67 49 63 50 64 51 66 52 68 53 65 54 49 55
REMARK SMILES IDX 50 56 55 57 51 58 52 59 54 60 56 61 53 62 6 63 7 64 8 65
REMARK SMILES IDX 9 66 10 68 11 69 12 70 13 71 14 72 18 73 15 74 17 75 16 76
REMARK SMILES IDX 19 77 20 78 25 79 21 80 24 81 22 82 23 83
REMARK H PARENT 3 6 73 24 47 35 8 67
REMARK Flexibility Score: inf
ROOT
ATOM      1  C   UNL A   1      31.615  31.589  26.807  1.00  0.00     0.023 C 
ENDROOT
BRANCH   1   2
ATOM      2  C   UNL A   1      32.794  32.441  27.255  1.00  0.00     0.116 C 
BRANCH   2   3
ATOM      3  N   UNL A   1      32.464  33.823  27.576  1.00  0.00    -0.352 N 
ATOM      4  O   UNL A   1      32.755  35.804  28.658  1.00  0.00    -0.269 OA
ATOM      5  C   UNL A   1      33.131  34.656  28.447  1.00  0.00     0.251 C 
ATOM      6  H   UNL A   1      31.677  34.204  27.121  1.00  0.00     0.163 HD
BRANCH   5   7
ATOM      7  C   UNL A   1      34.292  34.111  29.180  1.00  0.00     0.039 A 
ATOM      8  C   UNL A   1      35.590  34.466  28.804  1.00  0.00     0.014 A 
ATOM      9  C   UNL A   1      34.074  33.154  30.173  1.00  0.00     0.014 A 
ATOM     10  C   UNL A   1      36.665  33.746  29.305  1.00  0.00     0.010 A 
ATOM     11  C   UNL A   1      35.164  32.493  30.740  1.00  0.00     0.010 A 
ATOM     12  C   UNL A   1      36.464  32.757  30.281  1.00  0.00    -0.014 A 
BRANCH  12  13
ATOM     13  C   UNL A   1      37.635  32.055  30.861  1.00  0.00     0.031 A 
ATOM     14  C   UNL A   1      38.376  31.000  30.090  1.00  0.00     0.074 A 
ATOM     15  C   UNL A   1      38.023  32.386  32.108  1.00  0.00     0.049 A 
ATOM     16  N   UNL A   1      39.381  30.255  30.476  1.00  0.00    -0.248 NA
ATOM     17  C   UNL A   1      37.932  30.737  28.712  1.00  0.00     0.031 C 
ATOM     18  C   UNL A   1      37.369  33.389  32.953  1.00  0.00     0.029 A 
ATOM     19  N   UNL A   1      39.053  31.920  32.881  1.00  0.00    -0.354 N 
ATOM     20  C   UNL A   1      39.668  29.415  29.409  1.00  0.00     0.074 A 
ATOM     21  C   UNL A   1      38.729  29.737  28.354  1.00  0.00     0.031 C 
ATOM     22  C   UNL A   1      38.027  33.479  34.116  1.00  0.00     0.029 A 
ATOM     23  C   UNL A   1      39.103  32.497  34.126  1.00  0.00     0.049 A 
ATOM     24  H   UNL A   1      39.695  31.239  32.573  1.00  0.00     0.167 HD
ATOM     25  C   UNL A   1      40.627  28.462  29.322  1.00  0.00     0.037 A 
ATOM     26  C   UNL A   1      39.899  32.238  35.177  1.00  0.00     0.037 A 
ATOM     27  C   UNL A   1      41.583  28.179  30.362  1.00  0.00     0.049 A 
ATOM     28  C   UNL A   1      40.937  31.164  35.058  1.00  0.00     0.074 A 
ATOM     29  C   UNL A   1      42.653  27.301  30.331  1.00  0.00     0.029 A 
ATOM     30  N   UNL A   1      41.579  28.761  31.620  1.00  0.00    -0.354 N 
ATOM     31  N   UNL A   1      41.224  30.410  34.026  1.00  0.00    -0.248 NA
ATOM     32  C   UNL A   1      41.746  30.892  36.252  1.00  0.00     0.031 C 
ATOM     33  C   UNL A   1      43.270  27.319  31.587  1.00  0.00     0.029 A 
ATOM     34  C   UNL A   1      42.605  28.233  32.387  1.00  0.00     0.049 A 
ATOM     35  H   UNL A   1      40.942  29.447  31.923  1.00  0.00     0.167 HD
ATOM     36  C   UNL A   1      42.244  29.570  34.444  1.00  0.00     0.074 A 
ATOM     37  C   UNL A   1      42.545  29.927  35.817  1.00  0.00     0.031 C 
ATOM     38  C   UNL A   1      42.872  28.587  33.756  1.00  0.00     0.037 A 
BRANCH  25  39
ATOM     39  C   UNL A   1      40.695  27.636  28.074  1.00  0.00     0.057 A 
ATOM     40  C   UNL A   1      41.460  28.023  26.967  1.00  0.00     0.134 A 
ATOM     41  C   UNL A   1      40.055  26.391  28.014  1.00  0.00     0.134 A 
ATOM     42  F   UNL A   1      42.092  29.207  26.960  1.00  0.00    -0.206 F 
ATOM     43  C   UNL A   1      41.585  27.203  25.844  1.00  0.00     0.040 A 
ATOM     44  C   UNL A   1      40.185  25.555  26.904  1.00  0.00     0.040 A 
ATOM     45  F   UNL A   1      39.311  25.958  29.044  1.00  0.00    -0.206 F 
ATOM     46  C   UNL A   1      40.953  25.960  25.815  1.00  0.00     0.006 A 
ENDBRANCH  25  39
BRANCH  26  47
ATOM     47  C   UNL A   1      39.700  32.981  36.443  1.00  0.00     0.057 A 
ATOM     48  C   UNL A   1      38.773  32.553  37.397  1.00  0.00     0.134 A 
ATOM     49  C   UNL A   1      40.457  34.121  36.739  1.00  0.00     0.134 A 
ATOM     50  F   UNL A   1      38.008  31.477  37.162  1.00  0.00    -0.206 F 
ATOM     51  C   UNL A   1      38.603  33.235  38.603  1.00  0.00     0.040 A 
ATOM     52  C   UNL A   1      40.315  34.798  37.949  1.00  0.00     0.040 A 
ATOM     53  F   UNL A   1      41.368  34.574  35.865  1.00  0.00    -0.206 F 
ATOM     54  C   UNL A   1      39.382  34.357  38.885  1.00  0.00     0.006 A 
ENDBRANCH  26  47
BRANCH  38  55
ATOM     55  C   UNL A   1      43.934  27.826  34.486  1.00  0.00     0.057 A 
ATOM     56  C   UNL A   1      43.646  26.621  35.138  1.00  0.00     0.134 A 
ATOM     57  C   UNL A   1      45.255  28.286  34.518  1.00  0.00     0.134 A 
ATOM     58  F   UNL A   1      42.394  26.141  35.156  1.00  0.00    -0.206 F 
ATOM     59  C   UNL A   1      44.635  25.906  35.813  1.00  0.00     0.040 A 
ATOM     60  C   UNL A   1      46.257  27.571  35.173  1.00  0.00     0.040 A 
ATOM     61  F   UNL A   1      45.593  29.433  33.909  1.00  0.00    -0.206 F 
ATOM     62  C   UNL A   1      45.948  26.378  35.826  1.00  0.00     0.006 A 
ENDBRANCH  38  55
ENDBRANCH  12  13
ENDBRANCH   5   7
ENDBRANCH   2   3
ENDBRANCH   1   2
BRANCH   1  63
ATOM     63  C   UNL A   1      31.948  30.115  26.621  1.00  0.00     0.023 C 
BRANCH  63  64
ATOM     64  C   UNL A   1      33.422  29.823  26.350  1.00  0.00     0.116 C 
BRANCH  64  65
ATOM     65  N   UNL A   1      33.679  29.645  24.939  1.00  0.00    -0.356 N 
ATOM     66  C   UNL A   1      33.081  28.852  24.013  1.00  0.00     0.227 C 
ATOM     67  H   UNL A   1      34.416  30.193  24.587  1.00  0.00     0.163 HD
ATOM     68  O   UNL A   1      33.483  28.979  22.851  1.00  0.00    -0.274 OA
BRANCH  66  69
ATOM     69  C   UNL A   1      31.979  27.833  24.338  1.00  0.00     0.113 C 
BRANCH  69  70
ATOM     70  C   UNL A   1      30.889  27.726  23.233  1.00  0.00     0.054 C 
BRANCH  70  71
ATOM     71  C   UNL A   1      29.595  28.519  23.225  1.00  0.00    -0.044 A 
ATOM     72  C   UNL A   1      29.680  29.915  23.363  1.00  0.00     0.024 A 
ATOM     73  C   UNL A   1      28.312  27.968  23.168  1.00  0.00     0.024 A 
ATOM     74  C   UNL A   1      28.517  30.675  23.363  1.00  0.00     0.111 A 
ATOM     75  C   UNL A   1      27.205  28.808  23.174  1.00  0.00     0.111 A 
ATOM     76  N   UNL A   1      27.282  30.149  23.251  1.00  0.00    -0.265 NA
ENDBRANCH  70  71
ENDBRANCH  69  70
BRANCH  69  77
ATOM     77  C   UNL A   1      32.384  26.564  25.077  1.00  0.00    -0.035 A 
ATOM     78  C   UNL A   1      31.408  25.871  25.823  1.00  0.00     0.006 A 
ATOM     79  C   UNL A   1      33.690  26.051  25.066  1.00  0.00     0.006 A 
ATOM     80  C   UNL A   1      31.706  24.664  26.459  1.00  0.00     0.021 A 
ATOM     81  C   UNL A   1      33.991  24.843  25.706  1.00  0.00     0.021 A 
ATOM     82  C   UNL A   1      32.995  24.148  26.386  1.00  0.00     0.041 A 
ATOM     83  Cl  UNL A   1      33.357  22.644  27.136  1.00  0.00    -0.084 Cl
ENDBRANCH  69  77
ENDBRANCH  66  69
ENDBRANCH  64  65
ENDBRANCH  63  64
ENDBRANCH   1  63
TORSDOF 14
ENDMDL
