MODEL 1
REMARK VINA RESULT:     -13.1      0.000      0.000
REMARK SMILES O=C(NCCCCNC(=O)[C@@H]1CC2(CCN(C(=O)C3(c4ccccc4F)CC3)CC2)C[NH2+]1)c1ccc(-c2c3nc(c(-c4c(F)cccc4F)c4ccc([nH]4)c(-c4c(F)cccc4F)c4nc(c(-c5c(F)cccc5F)c5ccc2[nH]5)C=C4)C=C3)cc1
REMARK SMILES IDX 5 1 4 2 3 3 1 4 2 5 33 7 34 8 86 9 35 10 85 11 36 12 37 13
REMARK SMILES IDX 38 14 79 15 39 16 84 17 78 18 80 19 40 20 83 21 77 22 76 23
REMARK SMILES IDX 41 25 67 26 50 27 66 28 51 29 54 30 65 31 81 32 52 33 53 34
REMARK SMILES IDX 64 36 82 37 55 38 42 39 43 40 48 41 44 42 45 43 47 44 49 45
REMARK SMILES IDX 46 46 68 47 69 48 74 49 70 50 71 51 73 52 75 53 72 54 56 55
REMARK SMILES IDX 57 56 62 57 58 58 59 59 61 60 63 61 60 62 6 63 7 64 8 65
REMARK SMILES IDX 9 66 10 68 11 69 12 70 32 71 13 72 31 73 14 76 30 77 15 78
REMARK SMILES IDX 29 79 16 80 17 81 18 82 19 83 27 84 28 85 20 86 21 87 25 88
REMARK SMILES IDX 22 89 24 90 26 91 23 92
REMARK H PARENT 3 6 80 24 54 35 8 67 32 74 32 75
REMARK Flexibility Score: inf
ROOT
ATOM      1  C   UNL A   1      31.290  31.667  26.789  1.00  0.00     0.023 C 
ENDROOT
BRANCH   1   2
ATOM      2  C   UNL A   1      32.588  32.454  26.899  1.00  0.00     0.116 C 
BRANCH   2   3
ATOM      3  N   UNL A   1      32.386  33.811  27.379  1.00  0.00    -0.352 N 
ATOM      4  O   UNL A   1      32.656  35.572  28.765  1.00  0.00    -0.269 OA
ATOM      5  C   UNL A   1      33.050  34.473  28.383  1.00  0.00     0.251 C 
ATOM      6  H   UNL A   1      31.678  34.324  26.924  1.00  0.00     0.163 HD
BRANCH   5   7
ATOM      7  C   UNL A   1      34.231  33.849  29.014  1.00  0.00     0.039 A 
ATOM      8  C   UNL A   1      34.076  32.825  29.953  1.00  0.00     0.014 A 
ATOM      9  C   UNL A   1      35.509  34.280  28.647  1.00  0.00     0.014 A 
ATOM     10  C   UNL A   1      35.190  32.310  30.605  1.00  0.00     0.010 A 
ATOM     11  C   UNL A   1      36.634  33.703  29.244  1.00  0.00     0.010 A 
ATOM     12  C   UNL A   1      36.481  32.718  30.232  1.00  0.00    -0.014 A 
BRANCH  12  13
ATOM     13  C   UNL A   1      37.655  31.998  30.783  1.00  0.00     0.031 A 
ATOM     14  C   UNL A   1      38.365  30.933  30.002  1.00  0.00     0.074 A 
ATOM     15  C   UNL A   1      38.067  32.325  32.024  1.00  0.00     0.049 A 
ATOM     16  N   UNL A   1      39.380  30.193  30.368  1.00  0.00    -0.248 NA
ATOM     17  C   UNL A   1      37.881  30.656  28.640  1.00  0.00     0.031 C 
ATOM     18  C   UNL A   1      37.437  33.339  32.877  1.00  0.00     0.029 A 
ATOM     19  N   UNL A   1      39.104  31.851  32.786  1.00  0.00    -0.354 N 
ATOM     20  C   UNL A   1      39.650  29.355  29.294  1.00  0.00     0.074 A 
ATOM     21  C   UNL A   1      38.682  29.666  28.263  1.00  0.00     0.031 C 
ATOM     22  C   UNL A   1      38.113  33.427  34.031  1.00  0.00     0.029 A 
ATOM     23  C   UNL A   1      39.177  32.430  34.030  1.00  0.00     0.049 A 
ATOM     24  H   UNL A   1      39.733  31.163  32.473  1.00  0.00     0.167 HD
ATOM     25  C   UNL A   1      40.622  28.421  29.187  1.00  0.00     0.037 A 
ATOM     26  C   UNL A   1      39.983  32.165  35.075  1.00  0.00     0.037 A 
ATOM     27  C   UNL A   1      41.595  28.140  30.212  1.00  0.00     0.049 A 
ATOM     28  C   UNL A   1      41.020  31.091  34.938  1.00  0.00     0.074 A 
ATOM     29  C   UNL A   1      42.661  27.258  30.164  1.00  0.00     0.029 A 
ATOM     30  N   UNL A   1      41.614  28.724  31.470  1.00  0.00    -0.354 N 
ATOM     31  N   UNL A   1      41.297  30.348  33.895  1.00  0.00    -0.248 NA
ATOM     32  C   UNL A   1      41.845  30.806  36.119  1.00  0.00     0.031 C 
ATOM     33  C   UNL A   1      43.290  27.265  31.409  1.00  0.00     0.029 A 
ATOM     34  C   UNL A   1      42.649  28.188  32.219  1.00  0.00     0.049 A 
ATOM     35  H   UNL A   1      40.988  29.416  31.782  1.00  0.00     0.167 HD
ATOM     36  C   UNL A   1      42.330  29.510  34.291  1.00  0.00     0.074 A 
ATOM     37  C   UNL A   1      42.647  29.854  35.662  1.00  0.00     0.031 C 
ATOM     38  C   UNL A   1      42.951  28.538  33.583  1.00  0.00     0.037 A 
BRANCH  25  39
ATOM     39  C   UNL A   1      40.712  27.613  27.926  1.00  0.00     0.057 A 
ATOM     40  C   UNL A   1      40.090  26.359  27.843  1.00  0.00     0.134 A 
ATOM     41  C   UNL A   1      41.540  27.997  26.865  1.00  0.00     0.134 A 
ATOM     42  F   UNL A   1      39.294  25.928  28.833  1.00  0.00    -0.206 F 
ATOM     43  C   UNL A   1      40.312  25.504  26.763  1.00  0.00     0.040 A 
ATOM     44  C   UNL A   1      41.756  27.157  25.771  1.00  0.00     0.040 A 
ATOM     45  F   UNL A   1      42.163  29.184  26.884  1.00  0.00    -0.206 F 
ATOM     46  C   UNL A   1      41.153  25.900  25.724  1.00  0.00     0.006 A 
ENDBRANCH  25  39
BRANCH  26  47
ATOM     47  C   UNL A   1      39.803  32.909  36.347  1.00  0.00     0.057 A 
ATOM     48  C   UNL A   1      38.847  32.507  37.292  1.00  0.00     0.134 A 
ATOM     49  C   UNL A   1      40.556  34.049  36.639  1.00  0.00     0.134 A 
ATOM     50  F   UNL A   1      38.084  31.426  37.068  1.00  0.00    -0.206 F 
ATOM     51  C   UNL A   1      38.634  33.226  38.468  1.00  0.00     0.040 A 
ATOM     52  C   UNL A   1      40.376  34.759  37.826  1.00  0.00     0.040 A 
ATOM     53  F   UNL A   1      41.497  34.473  35.782  1.00  0.00    -0.206 F 
ATOM     54  C   UNL A   1      39.405  34.353  38.740  1.00  0.00     0.006 A 
ENDBRANCH  26  47
BRANCH  38  55
ATOM     55  C   UNL A   1      44.035  27.765  34.268  1.00  0.00     0.057 A 
ATOM     56  C   UNL A   1      45.368  28.189  34.205  1.00  0.00     0.134 A 
ATOM     57  C   UNL A   1      43.769  26.548  34.907  1.00  0.00     0.134 A 
ATOM     58  F   UNL A   1      45.688  29.342  33.597  1.00  0.00    -0.206 F 
ATOM     59  C   UNL A   1      46.403  27.416  34.731  1.00  0.00     0.040 A 
ATOM     60  C   UNL A   1      44.793  25.778  35.459  1.00  0.00     0.040 A 
ATOM     61  F   UNL A   1      42.509  26.096  35.012  1.00  0.00    -0.206 F 
ATOM     62  C   UNL A   1      46.117  26.206  35.360  1.00  0.00     0.006 A 
ENDBRANCH  38  55
ENDBRANCH  12  13
ENDBRANCH   5   7
ENDBRANCH   2   3
ENDBRANCH   1   2
BRANCH   1  63
ATOM     63  C   UNL A   1      30.999  31.084  25.405  1.00  0.00     0.023 C 
BRANCH  63  64
ATOM     64  C   UNL A   1      31.757  29.802  25.068  1.00  0.00     0.116 C 
BRANCH  64  65
ATOM     65  N   UNL A   1      31.421  29.282  23.755  1.00  0.00    -0.351 N 
ATOM     66  C   UNL A   1      30.674  28.183  23.437  1.00  0.00     0.278 C 
ATOM     67  H   UNL A   1      31.781  29.790  22.991  1.00  0.00     0.163 HD
ATOM     68  O   UNL A   1      30.368  28.010  22.256  1.00  0.00    -0.268 OA
BRANCH  66  69
ATOM     69  C   UNL A   1      30.242  27.224  24.564  1.00  0.00     0.273 C 
ATOM     70  C   UNL A   1      31.393  26.372  25.074  1.00  0.00     0.088 C 
ATOM     71  N   UNL A   1      29.265  26.221  24.103  1.00  0.00    -0.336 N 
ATOM     72  C   UNL A   1      31.415  25.129  24.159  1.00  0.00     0.029 C 
ATOM     73  C   UNL A   1      30.031  25.137  23.482  1.00  0.00     0.268 C 
ATOM     74  H   UNL A   1      28.629  26.637  23.422  1.00  0.00     0.346 HD
ATOM     75  H   UNL A   1      28.704  25.873  24.880  1.00  0.00     0.346 HD
ATOM     76  C   UNL A   1      31.628  23.843  24.983  1.00  0.00     0.034 C 
ATOM     77  C   UNL A   1      32.528  25.216  23.088  1.00  0.00     0.034 C 
ATOM     78  C   UNL A   1      33.051  23.726  25.537  1.00  0.00     0.120 C 
ATOM     79  C   UNL A   1      33.921  25.079  23.695  1.00  0.00     0.120 C 
ATOM     80  N   UNL A   1      34.031  23.841  24.469  1.00  0.00    -0.342 N 
ATOM     81  C   UNL A   1      34.938  22.886  24.001  1.00  0.00     0.233 C 
ATOM     82  O   UNL A   1      35.442  23.049  22.886  1.00  0.00    -0.274 OA
BRANCH  81  83
ATOM     83  C   UNL A   1      35.404  21.651  24.774  1.00  0.00     0.077 C 
ATOM     84  C   UNL A   1      36.789  21.257  25.284  1.00  0.00     0.023 C 
ATOM     85  C   UNL A   1      35.847  21.947  26.212  1.00  0.00     0.023 C 
BRANCH  83  86
ATOM     86  C   UNL A   1      34.513  20.420  24.490  1.00  0.00     0.003 A 
ATOM     87  C   UNL A   1      33.140  20.568  24.210  1.00  0.00     0.008 A 
ATOM     88  C   UNL A   1      35.002  19.108  24.599  1.00  0.00     0.127 A 
ATOM     89  C   UNL A   1      32.300  19.458  24.075  1.00  0.00     0.001 A 
ATOM     90  C   UNL A   1      34.169  17.997  24.486  1.00  0.00     0.039 A 
ATOM     91  F   UNL A   1      36.306  18.902  24.838  1.00  0.00    -0.207 F 
ATOM     92  C   UNL A   1      32.812  18.172  24.230  1.00  0.00     0.003 A 
ENDBRANCH  83  86
ENDBRANCH  81  83
ENDBRANCH  66  69
ENDBRANCH  64  65
ENDBRANCH  63  64
ENDBRANCH   1  63
TORSDOF 13
ENDMDL
MODEL 2
REMARK VINA RESULT:     -13.1      4.504     10.221
REMARK SMILES O=C(NCCCCNC(=O)[C@@H]1CC2(CCN(C(=O)C3(c4ccccc4F)CC3)CC2)C[NH2+]1)c1ccc(-c2c3nc(c(-c4c(F)cccc4F)c4ccc([nH]4)c(-c4c(F)cccc4F)c4nc(c(-c5c(F)cccc5F)c5ccc2[nH]5)C=C4)C=C3)cc1
REMARK SMILES IDX 5 1 4 2 3 3 1 4 2 5 33 7 34 8 86 9 35 10 85 11 36 12 37 13
REMARK SMILES IDX 38 14 79 15 39 16 84 17 78 18 80 19 40 20 83 21 77 22 76 23
REMARK SMILES IDX 41 25 67 26 50 27 66 28 51 29 54 30 65 31 81 32 52 33 53 34
REMARK SMILES IDX 64 36 82 37 55 38 42 39 43 40 48 41 44 42 45 43 47 44 49 45
REMARK SMILES IDX 46 46 68 47 69 48 74 49 70 50 71 51 73 52 75 53 72 54 56 55
REMARK SMILES IDX 57 56 62 57 58 58 59 59 61 60 63 61 60 62 6 63 7 64 8 65
REMARK SMILES IDX 9 66 10 68 11 69 12 70 32 71 13 72 31 73 14 76 30 77 15 78
REMARK SMILES IDX 29 79 16 80 17 81 18 82 19 83 27 84 28 85 20 86 21 87 25 88
REMARK SMILES IDX 22 89 24 90 26 91 23 92
REMARK H PARENT 3 6 80 24 54 35 8 67 32 74 32 75
REMARK Flexibility Score: inf
ROOT
ATOM      1  C   UNL A   1      37.891  20.065  24.621  1.00  0.00     0.023 C 
ENDROOT
BRANCH   1   2
ATOM      2  C   UNL A   1      38.849  20.222  25.793  1.00  0.00     0.116 C 
BRANCH   2   3
ATOM      3  N   UNL A   1      39.876  19.194  25.824  1.00  0.00    -0.352 N 
ATOM      4  O   UNL A   1      41.980  18.378  25.878  1.00  0.00    -0.269 OA
ATOM      5  C   UNL A   1      41.227  19.336  26.029  1.00  0.00     0.251 C 
ATOM      6  H   UNL A   1      39.560  18.272  25.678  1.00  0.00     0.163 HD
BRANCH   5   7
ATOM      7  C   UNL A   1      41.772  20.654  26.417  1.00  0.00     0.039 A 
ATOM      8  C   UNL A   1      42.113  21.595  25.441  1.00  0.00     0.014 A 
ATOM      9  C   UNL A   1      41.926  20.957  27.772  1.00  0.00     0.014 A 
ATOM     10  C   UNL A   1      42.709  22.794  25.815  1.00  0.00     0.010 A 
ATOM     11  C   UNL A   1      42.450  22.197  28.151  1.00  0.00     0.010 A 
ATOM     12  C   UNL A   1      42.850  23.121  27.174  1.00  0.00    -0.014 A 
BRANCH  12  13
ATOM     13  C   UNL A   1      43.283  24.490  27.547  1.00  0.00     0.031 A 
ATOM     14  C   UNL A   1      42.299  25.542  27.964  1.00  0.00     0.074 A 
ATOM     15  C   UNL A   1      44.601  24.769  27.493  1.00  0.00     0.049 A 
ATOM     16  N   UNL A   1      42.526  26.791  28.281  1.00  0.00    -0.248 NA
ATOM     17  C   UNL A   1      40.882  25.153  28.034  1.00  0.00     0.031 C 
ATOM     18  C   UNL A   1      45.643  23.820  27.087  1.00  0.00     0.029 A 
ATOM     19  N   UNL A   1      45.294  25.917  27.779  1.00  0.00    -0.354 N 
ATOM     20  C   UNL A   1      41.286  27.342  28.575  1.00  0.00     0.074 A 
ATOM     21  C   UNL A   1      40.304  26.297  28.385  1.00  0.00     0.031 C 
ATOM     22  C   UNL A   1      46.840  24.417  27.172  1.00  0.00     0.029 A 
ATOM     23  C   UNL A   1      46.647  25.806  27.568  1.00  0.00     0.049 A 
ATOM     24  H   UNL A   1      44.863  26.741  28.102  1.00  0.00     0.167 HD
ATOM     25  C   UNL A   1      41.006  28.605  28.972  1.00  0.00     0.037 A 
ATOM     26  C   UNL A   1      47.626  26.727  27.645  1.00  0.00     0.037 A 
ATOM     27  C   UNL A   1      41.998  29.629  29.181  1.00  0.00     0.049 A 
ATOM     28  C   UNL A   1      47.273  28.129  28.043  1.00  0.00     0.074 A 
ATOM     29  C   UNL A   1      41.813  30.918  29.651  1.00  0.00     0.029 A 
ATOM     30  N   UNL A   1      43.353  29.487  28.925  1.00  0.00    -0.354 N 
ATOM     31  N   UNL A   1      46.103  28.618  28.372  1.00  0.00    -0.248 NA
ATOM     32  C   UNL A   1      48.366  29.110  28.069  1.00  0.00     0.031 C 
ATOM     33  C   UNL A   1      43.044  31.573  29.624  1.00  0.00     0.029 A 
ATOM     34  C   UNL A   1      44.007  30.680  29.187  1.00  0.00     0.049 A 
ATOM     35  H   UNL A   1      43.785  28.661  28.606  1.00  0.00     0.167 HD
ATOM     36  C   UNL A   1      46.318  29.961  28.647  1.00  0.00     0.074 A 
ATOM     37  C   UNL A   1      47.734  30.205  28.471  1.00  0.00     0.031 C 
ATOM     38  C   UNL A   1      45.417  30.907  29.004  1.00  0.00     0.037 A 
BRANCH  25  39
ATOM     39  C   UNL A   1      39.576  28.985  29.216  1.00  0.00     0.057 A 
ATOM     40  C   UNL A   1      39.003  28.809  30.484  1.00  0.00     0.134 A 
ATOM     41  C   UNL A   1      38.728  29.368  28.170  1.00  0.00     0.134 A 
ATOM     42  F   UNL A   1      39.759  28.432  31.526  1.00  0.00    -0.206 F 
ATOM     43  C   UNL A   1      37.633  28.971  30.695  1.00  0.00     0.040 A 
ATOM     44  C   UNL A   1      37.359  29.551  28.374  1.00  0.00     0.040 A 
ATOM     45  F   UNL A   1      39.215  29.554  26.934  1.00  0.00    -0.206 F 
ATOM     46  C   UNL A   1      36.805  29.337  29.635  1.00  0.00     0.006 A 
ENDBRANCH  25  39
BRANCH  26  47
ATOM     47  C   UNL A   1      49.018  26.349  27.296  1.00  0.00     0.057 A 
ATOM     48  C   UNL A   1      49.467  26.388  25.968  1.00  0.00     0.134 A 
ATOM     49  C   UNL A   1      49.921  25.915  28.269  1.00  0.00     0.134 A 
ATOM     50  F   UNL A   1      48.646  26.786  24.985  1.00  0.00    -0.206 F 
ATOM     51  C   UNL A   1      50.758  25.988  25.621  1.00  0.00     0.040 A 
ATOM     52  C   UNL A   1      51.225  25.542  27.940  1.00  0.00     0.040 A 
ATOM     53  F   UNL A   1      49.555  25.872  29.559  1.00  0.00    -0.206 F 
ATOM     54  C   UNL A   1      51.643  25.568  26.611  1.00  0.00     0.006 A 
ENDBRANCH  26  47
BRANCH  38  55
ATOM     55  C   UNL A   1      45.924  32.299  29.225  1.00  0.00     0.057 A 
ATOM     56  C   UNL A   1      46.343  32.715  30.495  1.00  0.00     0.134 A 
ATOM     57  C   UNL A   1      45.904  33.253  28.201  1.00  0.00     0.134 A 
ATOM     58  F   UNL A   1      46.376  31.849  31.520  1.00  0.00    -0.206 F 
ATOM     59  C   UNL A   1      46.700  34.040  30.745  1.00  0.00     0.040 A 
ATOM     60  C   UNL A   1      46.282  34.576  28.433  1.00  0.00     0.040 A 
ATOM     61  F   UNL A   1      45.525  32.910  26.961  1.00  0.00    -0.206 F 
ATOM     62  C   UNL A   1      46.669  34.975  29.712  1.00  0.00     0.006 A 
ENDBRANCH  38  55
ENDBRANCH  12  13
ENDBRANCH   5   7
ENDBRANCH   2   3
ENDBRANCH   1   2
BRANCH   1  63
ATOM     63  C   UNL A   1      36.451  19.717  25.000  1.00  0.00     0.023 C 
BRANCH  63  64
ATOM     64  C   UNL A   1      35.617  20.884  25.523  1.00  0.00     0.116 C 
BRANCH  64  65
ATOM     65  N   UNL A   1      34.224  20.528  25.727  1.00  0.00    -0.351 N 
ATOM     66  C   UNL A   1      33.177  20.642  24.855  1.00  0.00     0.278 C 
ATOM     67  H   UNL A   1      34.004  20.157  26.612  1.00  0.00     0.163 HD
ATOM     68  O   UNL A   1      32.103  20.126  25.167  1.00  0.00    -0.268 OA
BRANCH  66  69
ATOM     69  C   UNL A   1      33.392  21.394  23.527  1.00  0.00     0.273 C 
ATOM     70  C   UNL A   1      33.638  22.879  23.734  1.00  0.00     0.088 C 
ATOM     71  N   UNL A   1      32.193  21.372  22.670  1.00  0.00    -0.336 N 
ATOM     72  C   UNL A   1      32.236  23.524  23.758  1.00  0.00     0.029 C 
ATOM     73  C   UNL A   1      31.320  22.455  23.135  1.00  0.00     0.268 C 
ATOM     74  H   UNL A   1      31.716  20.475  22.756  1.00  0.00     0.346 HD
ATOM     75  H   UNL A   1      32.441  21.500  21.689  1.00  0.00     0.346 HD
ATOM     76  C   UNL A   1      32.216  24.828  22.935  1.00  0.00     0.034 C 
ATOM     77  C   UNL A   1      31.770  23.845  25.198  1.00  0.00     0.034 C 
ATOM     78  C   UNL A   1      32.987  25.965  23.612  1.00  0.00     0.120 C 
ATOM     79  C   UNL A   1      32.562  24.994  25.816  1.00  0.00     0.120 C 
ATOM     80  N   UNL A   1      32.501  26.184  24.965  1.00  0.00    -0.342 N 
ATOM     81  C   UNL A   1      31.860  27.306  25.499  1.00  0.00     0.233 C 
ATOM     82  O   UNL A   1      31.229  27.178  26.552  1.00  0.00    -0.274 OA
BRANCH  81  83
ATOM     83  C   UNL A   1      31.900  28.716  24.909  1.00  0.00     0.077 C 
ATOM     84  C   UNL A   1      32.093  29.191  23.470  1.00  0.00     0.023 C 
ATOM     85  C   UNL A   1      30.708  29.046  24.002  1.00  0.00     0.023 C 
BRANCH  83  86
ATOM     86  C   UNL A   1      32.384  29.761  25.940  1.00  0.00     0.003 A 
ATOM     87  C   UNL A   1      31.589  30.877  26.269  1.00  0.00     0.008 A 
ATOM     88  C   UNL A   1      33.665  29.702  26.513  1.00  0.00     0.127 A 
ATOM     89  C   UNL A   1      32.067  31.891  27.106  1.00  0.00     0.001 A 
ATOM     90  C   UNL A   1      34.157  30.717  27.330  1.00  0.00     0.039 A 
ATOM     91  F   UNL A   1      34.459  28.651  26.258  1.00  0.00    -0.207 F 
ATOM     92  C   UNL A   1      33.358  31.819  27.622  1.00  0.00     0.003 A 
ENDBRANCH  83  86
ENDBRANCH  81  83
ENDBRANCH  66  69
ENDBRANCH  64  65
ENDBRANCH  63  64
ENDBRANCH   1  63
TORSDOF 13
ENDMDL
MODEL 3
REMARK VINA RESULT:     -13.0      4.401      9.682
REMARK SMILES O=C(NCCCCNC(=O)[C@@H]1CC2(CCN(C(=O)C3(c4ccccc4F)CC3)CC2)C[NH2+]1)c1ccc(-c2c3nc(c(-c4c(F)cccc4F)c4ccc([nH]4)c(-c4c(F)cccc4F)c4nc(c(-c5c(F)cccc5F)c5ccc2[nH]5)C=C4)C=C3)cc1
REMARK SMILES IDX 5 1 4 2 3 3 1 4 2 5 33 7 34 8 86 9 35 10 85 11 36 12 37 13
REMARK SMILES IDX 38 14 79 15 39 16 84 17 78 18 80 19 40 20 83 21 77 22 76 23
REMARK SMILES IDX 41 25 67 26 50 27 66 28 51 29 54 30 65 31 81 32 52 33 53 34
REMARK SMILES IDX 64 36 82 37 55 38 42 39 43 40 48 41 44 42 45 43 47 44 49 45
REMARK SMILES IDX 46 46 68 47 69 48 74 49 70 50 71 51 73 52 75 53 72 54 56 55
REMARK SMILES IDX 57 56 62 57 58 58 59 59 61 60 63 61 60 62 6 63 7 64 8 65
REMARK SMILES IDX 9 66 10 68 11 69 12 70 32 71 13 72 31 73 14 76 30 77 15 78
REMARK SMILES IDX 29 79 16 80 17 81 18 82 19 83 27 84 28 85 20 86 21 87 25 88
REMARK SMILES IDX 22 89 24 90 26 91 23 92
REMARK H PARENT 3 6 80 24 54 35 8 67 32 74 32 75
REMARK Flexibility Score: inf
ROOT
ATOM      1  C   UNL A   1      37.649  19.832  24.646  1.00  0.00     0.023 C 
ENDROOT
BRANCH   1   2
ATOM      2  C   UNL A   1      38.729  20.198  25.654  1.00  0.00     0.116 C 
BRANCH   2   3
ATOM      3  N   UNL A   1      39.794  19.211  25.722  1.00  0.00    -0.352 N 
ATOM      4  O   UNL A   1      41.921  18.479  25.913  1.00  0.00    -0.269 OA
ATOM      5  C   UNL A   1      41.116  19.397  26.046  1.00  0.00     0.251 C 
ATOM      6  H   UNL A   1      39.532  18.286  25.508  1.00  0.00     0.163 HD
BRANCH   5   7
ATOM      7  C   UNL A   1      41.569  20.715  26.538  1.00  0.00     0.039 A 
ATOM      8  C   UNL A   1      41.987  21.702  25.641  1.00  0.00     0.014 A 
ATOM      9  C   UNL A   1      41.559  20.971  27.912  1.00  0.00     0.014 A 
ATOM     10  C   UNL A   1      42.497  22.903  26.122  1.00  0.00     0.010 A 
ATOM     11  C   UNL A   1      41.994  22.210  28.390  1.00  0.00     0.010 A 
ATOM     12  C   UNL A   1      42.472  23.182  27.498  1.00  0.00    -0.014 A 
BRANCH  12  13
ATOM     13  C   UNL A   1      42.814  24.547  27.965  1.00  0.00     0.031 A 
ATOM     14  C   UNL A   1      41.756  25.570  28.254  1.00  0.00     0.074 A 
ATOM     15  C   UNL A   1      44.118  24.851  28.118  1.00  0.00     0.049 A 
ATOM     16  N   UNL A   1      41.905  26.814  28.632  1.00  0.00    -0.248 NA
ATOM     17  C   UNL A   1      40.352  25.155  28.100  1.00  0.00     0.031 C 
ATOM     18  C   UNL A   1      45.230  23.933  27.851  1.00  0.00     0.029 A 
ATOM     19  N   UNL A   1      44.735  26.004  28.533  1.00  0.00    -0.354 N 
ATOM     20  C   UNL A   1      40.622  27.335  28.748  1.00  0.00     0.074 A 
ATOM     21  C   UNL A   1      39.703  26.277  28.387  1.00  0.00     0.031 C 
ATOM     22  C   UNL A   1      46.388  24.548  28.131  1.00  0.00     0.029 A 
ATOM     23  C   UNL A   1      46.106  25.923  28.526  1.00  0.00     0.049 A 
ATOM     24  H   UNL A   1      44.243  26.811  28.807  1.00  0.00     0.167 HD
ATOM     25  C   UNL A   1      40.259  28.581  29.129  1.00  0.00     0.037 A 
ATOM     26  C   UNL A   1      47.042  26.859  28.772  1.00  0.00     0.037 A 
ATOM     27  C   UNL A   1      41.185  29.616  29.510  1.00  0.00     0.049 A 
ATOM     28  C   UNL A   1      46.603  28.243  29.146  1.00  0.00     0.074 A 
ATOM     29  C   UNL A   1      40.904  30.889  29.977  1.00  0.00     0.029 A 
ATOM     30  N   UNL A   1      42.566  29.506  29.458  1.00  0.00    -0.354 N 
ATOM     31  N   UNL A   1      45.386  28.702  29.306  1.00  0.00    -0.248 NA
ATOM     32  C   UNL A   1      47.658  29.242  29.360  1.00  0.00     0.031 C 
ATOM     33  C   UNL A   1      42.110  31.567  30.152  1.00  0.00     0.029 A 
ATOM     34  C   UNL A   1      43.148  30.703  29.844  1.00  0.00     0.049 A 
ATOM     35  H   UNL A   1      43.059  28.697  29.189  1.00  0.00     0.167 HD
ATOM     36  C   UNL A   1      45.528  30.041  29.643  1.00  0.00     0.074 A 
ATOM     37  C   UNL A   1      46.949  30.314  29.689  1.00  0.00     0.031 C 
ATOM     38  C   UNL A   1      44.564  30.960  29.882  1.00  0.00     0.037 A 
BRANCH  25  39
ATOM     39  C   UNL A   1      38.800  28.929  29.163  1.00  0.00     0.057 A 
ATOM     40  C   UNL A   1      38.192  29.541  28.058  1.00  0.00     0.134 A 
ATOM     41  C   UNL A   1      38.044  28.808  30.334  1.00  0.00     0.134 A 
ATOM     42  F   UNL A   1      38.868  29.698  26.910  1.00  0.00    -0.206 F 
ATOM     43  C   UNL A   1      36.894  30.049  28.127  1.00  0.00     0.040 A 
ATOM     44  C   UNL A   1      36.737  29.295  30.409  1.00  0.00     0.040 A 
ATOM     45  F   UNL A   1      38.567  28.230  31.426  1.00  0.00    -0.206 F 
ATOM     46  C   UNL A   1      36.164  29.931  29.309  1.00  0.00     0.006 A 
ENDBRANCH  25  39
BRANCH  26  47
ATOM     47  C   UNL A   1      48.479  26.515  28.628  1.00  0.00     0.057 A 
ATOM     48  C   UNL A   1      49.149  26.699  27.411  1.00  0.00     0.134 A 
ATOM     49  C   UNL A   1      49.208  25.972  29.689  1.00  0.00     0.134 A 
ATOM     50  F   UNL A   1      48.503  27.208  26.350  1.00  0.00    -0.206 F 
ATOM     51  C   UNL A   1      50.485  26.334  27.249  1.00  0.00     0.040 A 
ATOM     52  C   UNL A   1      50.554  25.631  29.551  1.00  0.00     0.040 A 
ATOM     53  F   UNL A   1      48.626  25.788  30.884  1.00  0.00    -0.206 F 
ATOM     54  C   UNL A   1      51.194  25.803  28.324  1.00  0.00     0.006 A 
ENDBRANCH  26  47
BRANCH  38  55
ATOM     55  C   UNL A   1      45.001  32.354  30.211  1.00  0.00     0.057 A 
ATOM     56  C   UNL A   1      45.134  33.320  29.206  1.00  0.00     0.134 A 
ATOM     57  C   UNL A   1      45.383  32.710  31.510  1.00  0.00     0.134 A 
ATOM     58  F   UNL A   1      44.794  33.037  27.939  1.00  0.00    -0.206 F 
ATOM     59  C   UNL A   1      45.658  34.584  29.477  1.00  0.00     0.040 A 
ATOM     60  C   UNL A   1      45.885  33.979  31.798  1.00  0.00     0.040 A 
ATOM     61  F   UNL A   1      45.265  31.831  32.518  1.00  0.00    -0.206 F 
ATOM     62  C   UNL A   1      46.036  34.916  30.776  1.00  0.00     0.006 A 
ENDBRANCH  38  55
ENDBRANCH  12  13
ENDBRANCH   5   7
ENDBRANCH   2   3
ENDBRANCH   1   2
BRANCH   1  63
ATOM     63  C   UNL A   1      36.221  20.183  25.067  1.00  0.00     0.023 C 
BRANCH  63  64
ATOM     64  C   UNL A   1      35.162  19.145  24.702  1.00  0.00     0.116 C 
BRANCH  64  65
ATOM     65  N   UNL A   1      33.852  19.472  25.236  1.00  0.00    -0.351 N 
ATOM     66  C   UNL A   1      32.912  20.325  24.729  1.00  0.00     0.278 C 
ATOM     67  H   UNL A   1      33.609  19.018  26.075  1.00  0.00     0.163 HD
ATOM     68  O   UNL A   1      31.795  20.333  25.247  1.00  0.00    -0.268 OA
BRANCH  66  69
ATOM     69  C   UNL A   1      33.288  21.222  23.532  1.00  0.00     0.273 C 
ATOM     70  C   UNL A   1      33.729  22.611  23.964  1.00  0.00     0.088 C 
ATOM     71  N   UNL A   1      32.136  21.497  22.654  1.00  0.00    -0.336 N 
ATOM     72  C   UNL A   1      32.430  23.441  24.052  1.00  0.00     0.029 C 
ATOM     73  C   UNL A   1      31.403  22.615  23.256  1.00  0.00     0.268 C 
ATOM     74  H   UNL A   1      31.536  20.674  22.595  1.00  0.00     0.346 HD
ATOM     75  H   UNL A   1      32.443  21.727  21.710  1.00  0.00     0.346 HD
ATOM     76  C   UNL A   1      32.628  24.839  23.432  1.00  0.00     0.034 C 
ATOM     77  C   UNL A   1      31.950  23.614  25.513  1.00  0.00     0.034 C 
ATOM     78  C   UNL A   1      33.518  25.743  24.289  1.00  0.00     0.120 C 
ATOM     79  C   UNL A   1      32.866  24.536  26.313  1.00  0.00     0.120 C 
ATOM     80  N   UNL A   1      33.008  25.832  25.648  1.00  0.00    -0.342 N 
ATOM     81  C   UNL A   1      32.506  26.946  26.328  1.00  0.00     0.233 C 
ATOM     82  O   UNL A   1      31.818  26.759  27.335  1.00  0.00    -0.274 OA
BRANCH  81  83
ATOM     83  C   UNL A   1      32.768  28.406  25.955  1.00  0.00     0.077 C 
ATOM     84  C   UNL A   1      33.108  29.613  26.828  1.00  0.00     0.023 C 
ATOM     85  C   UNL A   1      34.217  28.855  26.181  1.00  0.00     0.023 C 
BRANCH  83  86
ATOM     86  C   UNL A   1      32.040  28.811  24.653  1.00  0.00     0.003 A 
ATOM     87  C   UNL A   1      30.649  29.037  24.640  1.00  0.00     0.008 A 
ATOM     88  C   UNL A   1      32.706  28.871  23.418  1.00  0.00     0.127 A 
ATOM     89  C   UNL A   1      29.963  29.282  23.446  1.00  0.00     0.001 A 
ATOM     90  C   UNL A   1      32.027  29.094  22.222  1.00  0.00     0.039 A 
ATOM     91  F   UNL A   1      34.035  28.691  23.369  1.00  0.00    -0.207 F 
ATOM     92  C   UNL A   1      30.650  29.293  22.235  1.00  0.00     0.003 A 
ENDBRANCH  83  86
ENDBRANCH  81  83
ENDBRANCH  66  69
ENDBRANCH  64  65
ENDBRANCH  63  64
ENDBRANCH   1  63
TORSDOF 13
ENDMDL
