MODEL 1
REMARK VINA RESULT:     -12.0      0.000      0.000
REMARK SMILES COc1cc(/C=C2\SC(=S)N(CC(=O)NCCCCNC(=O)c3ccc(-c4c5nc(c(-c6c(F)cccc6F)c6ccc([nH]6)c(-c6c(F)cccc6F)c6nc(c(-c7c(F)cccc7F)c7ccc4[nH]7)C=C6)C=C5)cc3)C2=O)cc2c1OCO2
REMARK SMILES IDX 17 1 16 2 15 3 13 4 14 5 12 7 11 8 6 9 7 10 8 11 77 12 9 13
REMARK SMILES IDX 78 14 10 15 5 16 3 17 4 18 81 19 80 20 82 21 79 22 84 23
REMARK SMILES IDX 83 24 2 25 1 26 18 27 19 28 20 29 21 30 22 32 23 33 24 34
REMARK SMILES IDX 76 35 25 36 75 37 26 38 27 39 28 40 69 41 29 42 74 43 68 44
REMARK SMILES IDX 70 45 30 46 73 47 67 48 66 49 31 51 57 52 40 53 56 54 41 55
REMARK SMILES IDX 44 56 55 57 71 58 42 59 43 60 54 62 72 63 45 64 32 65 33 66
REMARK SMILES IDX 38 67 34 68 35 69 37 70 39 71 36 72 58 73 59 74 64 75 60 76
REMARK SMILES IDX 61 77 63 78 65 79 62 80 46 81 47 82 52 83 48 84 49 85 51 86
REMARK SMILES IDX 53 87 50 88
REMARK H PARENT 15 6 20 31 70 50 44 61
REMARK Flexibility Score: inf
ROOT
ATOM      1  C   UNL A   1      31.778  30.458  25.866  1.00  0.00     0.023 C 
ENDROOT
BRANCH   1   2
ATOM      2  C   UNL A   1      33.042  29.651  26.151  1.00  0.00     0.116 C 
BRANCH   2   3
ATOM      3  N   UNL A   1      33.767  29.319  24.944  1.00  0.00    -0.355 N 
ATOM      4  C   UNL A   1      33.438  28.482  23.920  1.00  0.00     0.240 C 
ATOM      5  O   UNL A   1      34.091  28.594  22.879  1.00  0.00    -0.273 OA
ATOM      6  H   UNL A   1      34.636  29.771  24.846  1.00  0.00     0.163 HD
BRANCH   4   7
ATOM      7  C   UNL A   1      32.200  27.575  23.968  1.00  0.00     0.227 C 
BRANCH   7   8
ATOM      8  N   UNL A   1      32.469  26.150  23.790  1.00  0.00    -0.283 N 
ATOM      9  C   UNL A   1      33.475  23.107  25.468  1.00  0.00     0.029 C 
ATOM     10  C   UNL A   1      33.118  24.012  24.548  1.00  0.00     0.081 C 
ATOM     11  S   UNL A   1      32.855  23.781  22.867  1.00  0.00    -0.054 SA
ATOM     12  C   UNL A   1      32.856  25.430  24.909  1.00  0.00     0.266 C 
ATOM     13  C   UNL A   1      32.531  25.484  22.585  1.00  0.00     0.148 C 
ATOM     14  O   UNL A   1      32.978  25.872  26.039  1.00  0.00    -0.268 OA
ATOM     15  S   UNL A   1      32.358  26.099  21.043  1.00  0.00    -0.052 S 
BRANCH   9  16
ATOM     16  C   UNL A   1      33.719  21.676  25.234  1.00  0.00    -0.017 A 
ATOM     17  C   UNL A   1      35.344  19.874  24.914  1.00  0.00     0.165 A 
ATOM     18  C   UNL A   1      35.052  21.225  25.139  1.00  0.00     0.058 A 
ATOM     19  C   UNL A   1      34.287  18.988  24.832  1.00  0.00     0.207 A 
ATOM     20  C   UNL A   1      32.985  19.433  24.909  1.00  0.00     0.170 A 
ATOM     21  O   UNL A   1      34.346  17.634  24.699  1.00  0.00    -0.450 OA
ATOM     22  C   UNL A   1      32.669  20.764  25.079  1.00  0.00     0.059 A 
ATOM     23  O   UNL A   1      32.078  18.423  24.818  1.00  0.00    -0.453 OA
ATOM     24  C   UNL A   1      32.952  17.280  24.771  1.00  0.00     0.468 C 
BRANCH  17  25
ATOM     25  O   UNL A   1      36.669  19.546  24.861  1.00  0.00    -0.493 OA
ATOM     26  C   UNL A   1      37.538  20.676  24.859  1.00  0.00     0.278 C 
ENDBRANCH  17  25
ENDBRANCH   9  16
ENDBRANCH   7   8
ENDBRANCH   4   7
ENDBRANCH   2   3
ENDBRANCH   1   2
BRANCH   1  27
ATOM     27  C   UNL A   1      31.526  31.616  26.835  1.00  0.00     0.023 C 
BRANCH  27  28
ATOM     28  C   UNL A   1      32.743  32.477  27.161  1.00  0.00     0.116 C 
BRANCH  28  29
ATOM     29  N   UNL A   1      32.406  33.857  27.471  1.00  0.00    -0.352 N 
ATOM     30  C   UNL A   1      33.016  34.715  28.357  1.00  0.00     0.251 C 
ATOM     31  H   UNL A   1      31.638  34.229  26.980  1.00  0.00     0.163 HD
ATOM     32  O   UNL A   1      32.536  35.822  28.576  1.00  0.00    -0.269 OA
BRANCH  30  33
ATOM     33  C   UNL A   1      34.233  34.282  29.076  1.00  0.00     0.039 A 
ATOM     34  C   UNL A   1      34.092  33.597  30.287  1.00  0.00     0.014 A 
ATOM     35  C   UNL A   1      35.504  34.528  28.552  1.00  0.00     0.014 A 
ATOM     36  C   UNL A   1      35.222  33.095  30.934  1.00  0.00     0.010 A 
ATOM     37  C   UNL A   1      36.624  33.969  29.162  1.00  0.00     0.010 A 
ATOM     38  C   UNL A   1      36.494  33.244  30.356  1.00  0.00    -0.014 A 
BRANCH  38  39
ATOM     39  C   UNL A   1      37.699  32.638  30.977  1.00  0.00     0.031 A 
ATOM     40  C   UNL A   1      38.331  31.417  30.370  1.00  0.00     0.074 A 
ATOM     41  C   UNL A   1      38.182  33.145  32.128  1.00  0.00     0.049 A 
ATOM     42  N   UNL A   1      39.332  30.697  30.809  1.00  0.00    -0.248 NA
ATOM     43  C   UNL A   1      37.742  30.925  29.114  1.00  0.00     0.031 C 
ATOM     44  C   UNL A   1      37.632  34.297  32.844  1.00  0.00     0.029 A 
ATOM     45  N   UNL A   1      39.240  32.745  32.907  1.00  0.00    -0.354 N 
ATOM     46  C   UNL A   1      39.483  29.663  29.894  1.00  0.00     0.074 A 
ATOM     47  C   UNL A   1      38.441  29.819  28.903  1.00  0.00     0.031 C 
ATOM     48  C   UNL A   1      38.366  34.521  33.947  1.00  0.00     0.029 A 
ATOM     49  C   UNL A   1      39.413  33.509  34.036  1.00  0.00     0.049 A 
ATOM     50  H   UNL A   1      39.818  31.981  32.679  1.00  0.00     0.167 HD
ATOM     51  C   UNL A   1      40.422  28.687  29.868  1.00  0.00     0.037 A 
ATOM     52  C   UNL A   1      40.310  33.401  35.034  1.00  0.00     0.037 A 
ATOM     53  C   UNL A   1      41.473  28.547  30.842  1.00  0.00     0.049 A 
ATOM     54  C   UNL A   1      41.337  32.303  34.986  1.00  0.00     0.074 A 
ATOM     55  C   UNL A   1      42.501  27.621  30.873  1.00  0.00     0.029 A 
ATOM     56  N   UNL A   1      41.629  29.355  31.958  1.00  0.00    -0.354 N 
ATOM     57  N   UNL A   1      41.507  31.370  34.081  1.00  0.00    -0.248 NA
ATOM     58  C   UNL A   1      42.299  32.247  36.095  1.00  0.00     0.031 C 
ATOM     59  C   UNL A   1      43.258  27.846  32.027  1.00  0.00     0.029 A 
ATOM     60  C   UNL A   1      42.727  28.939  32.693  1.00  0.00     0.049 A 
ATOM     61  H   UNL A   1      41.046  30.112  32.192  1.00  0.00     0.167 HD
ATOM     62  C   UNL A   1      42.610  30.635  34.496  1.00  0.00     0.074 A 
ATOM     63  C   UNL A   1      43.076  31.239  35.727  1.00  0.00     0.031 C 
ATOM     64  C   UNL A   1      43.185  29.557  33.910  1.00  0.00     0.037 A 
BRANCH  51  65
ATOM     65  C   UNL A   1      40.356  27.698  28.742  1.00  0.00     0.057 A 
ATOM     66  C   UNL A   1      41.054  27.900  27.543  1.00  0.00     0.134 A 
ATOM     67  C   UNL A   1      39.615  26.516  28.867  1.00  0.00     0.134 A 
ATOM     68  F   UNL A   1      41.773  29.017  27.355  1.00  0.00    -0.206 F 
ATOM     69  C   UNL A   1      40.993  26.975  26.499  1.00  0.00     0.040 A 
ATOM     70  C   UNL A   1      39.568  25.572  27.839  1.00  0.00     0.040 A 
ATOM     71  F   UNL A   1      38.929  26.257  29.990  1.00  0.00    -0.206 F 
ATOM     72  C   UNL A   1      40.254  25.803  26.648  1.00  0.00     0.006 A 
ENDBRANCH  51  65
BRANCH  52  73
ATOM     73  C   UNL A   1      40.294  34.370  36.157  1.00  0.00     0.057 A 
ATOM     74  C   UNL A   1      39.557  34.115  37.320  1.00  0.00     0.134 A 
ATOM     75  C   UNL A   1      40.999  35.578  36.093  1.00  0.00     0.134 A 
ATOM     76  F   UNL A   1      38.846  32.984  37.433  1.00  0.00    -0.206 F 
ATOM     77  C   UNL A   1      39.506  35.033  38.370  1.00  0.00     0.040 A 
ATOM     78  C   UNL A   1      40.976  36.495  37.145  1.00  0.00     0.040 A 
ATOM     79  F   UNL A   1      41.730  35.878  35.009  1.00  0.00    -0.206 F 
ATOM     80  C   UNL A   1      40.221  36.227  38.285  1.00  0.00     0.006 A 
ENDBRANCH  52  73
BRANCH  64  81
ATOM     81  C   UNL A   1      44.404  28.985  34.571  1.00  0.00     0.057 A 
ATOM     82  C   UNL A   1      45.688  29.476  34.304  1.00  0.00     0.134 A 
ATOM     83  C   UNL A   1      44.286  27.956  35.513  1.00  0.00     0.134 A 
ATOM     84  F   UNL A   1      45.870  30.452  33.402  1.00  0.00    -0.206 F 
ATOM     85  C   UNL A   1      46.815  28.949  34.938  1.00  0.00     0.040 A 
ATOM     86  C   UNL A   1      45.403  27.439  36.172  1.00  0.00     0.040 A 
ATOM     87  F   UNL A   1      43.084  27.447  35.819  1.00  0.00    -0.206 F 
ATOM     88  C   UNL A   1      46.673  27.932  35.880  1.00  0.00     0.006 A 
ENDBRANCH  64  81
ENDBRANCH  38  39
ENDBRANCH  30  33
ENDBRANCH  28  29
ENDBRANCH  27  28
ENDBRANCH   1  27
TORSDOF 14
ENDMDL
MODEL 2
REMARK VINA RESULT:     -12.0      4.048      9.590
REMARK SMILES COc1cc(/C=C2\SC(=S)N(CC(=O)NCCCCNC(=O)c3ccc(-c4c5nc(c(-c6c(F)cccc6F)c6ccc([nH]6)c(-c6c(F)cccc6F)c6nc(c(-c7c(F)cccc7F)c7ccc4[nH]7)C=C6)C=C5)cc3)C2=O)cc2c1OCO2
REMARK SMILES IDX 17 1 16 2 15 3 13 4 14 5 12 7 11 8 6 9 7 10 8 11 77 12 9 13
REMARK SMILES IDX 78 14 10 15 5 16 3 17 4 18 81 19 80 20 82 21 79 22 84 23
REMARK SMILES IDX 83 24 2 25 1 26 18 27 19 28 20 29 21 30 22 32 23 33 24 34
REMARK SMILES IDX 76 35 25 36 75 37 26 38 27 39 28 40 69 41 29 42 74 43 68 44
REMARK SMILES IDX 70 45 30 46 73 47 67 48 66 49 31 51 57 52 40 53 56 54 41 55
REMARK SMILES IDX 44 56 55 57 71 58 42 59 43 60 54 62 72 63 45 64 32 65 33 66
REMARK SMILES IDX 38 67 34 68 35 69 37 70 39 71 36 72 58 73 59 74 64 75 60 76
REMARK SMILES IDX 61 77 63 78 65 79 62 80 46 81 47 82 52 83 48 84 49 85 51 86
REMARK SMILES IDX 53 87 50 88
REMARK H PARENT 15 6 20 31 70 50 44 61
REMARK Flexibility Score: inf
ROOT
ATOM      1  C   UNL A   1      36.794  21.042  24.643  1.00  0.00     0.023 C 
ENDROOT
BRANCH   1   2
ATOM      2  C   UNL A   1      35.769  21.311  25.741  1.00  0.00     0.116 C 
BRANCH   2   3
ATOM      3  N   UNL A   1      34.482  20.719  25.450  1.00  0.00    -0.355 N 
ATOM      4  C   UNL A   1      33.233  21.082  25.858  1.00  0.00     0.240 C 
ATOM      5  O   UNL A   1      32.283  20.591  25.242  1.00  0.00    -0.273 OA
ATOM      6  H   UNL A   1      34.512  19.930  24.862  1.00  0.00     0.163 HD
BRANCH   4   7
ATOM      7  C   UNL A   1      32.998  22.187  26.897  1.00  0.00     0.227 C 
BRANCH   7   8
ATOM      8  N   UNL A   1      32.248  23.343  26.412  1.00  0.00    -0.283 N 
ATOM      9  C   UNL A   1      32.530  26.644  24.960  1.00  0.00     0.029 C 
ATOM     10  C   UNL A   1      32.064  25.511  25.501  1.00  0.00     0.081 C 
ATOM     11  S   UNL A   1      30.433  25.055  25.787  1.00  0.00    -0.054 SA
ATOM     12  C   UNL A   1      32.976  24.414  25.921  1.00  0.00     0.266 C 
ATOM     13  C   UNL A   1      30.890  23.537  26.544  1.00  0.00     0.148 C 
ATOM     14  O   UNL A   1      34.191  24.479  25.839  1.00  0.00    -0.268 OA
ATOM     15  S   UNL A   1      29.764  22.562  27.297  1.00  0.00    -0.052 S 
BRANCH   9  16
ATOM     16  C   UNL A   1      31.724  27.773  24.474  1.00  0.00    -0.017 A 
ATOM     17  C   UNL A   1      30.951  30.070  24.816  1.00  0.00     0.165 A 
ATOM     18  C   UNL A   1      31.703  28.964  25.229  1.00  0.00     0.058 A 
ATOM     19  C   UNL A   1      30.264  29.976  23.621  1.00  0.00     0.207 A 
ATOM     20  C   UNL A   1      30.272  28.807  22.892  1.00  0.00     0.170 A 
ATOM     21  O   UNL A   1      29.544  30.949  22.997  1.00  0.00    -0.450 OA
ATOM     22  C   UNL A   1      30.964  27.686  23.302  1.00  0.00     0.059 A 
ATOM     23  O   UNL A   1      29.552  28.898  21.741  1.00  0.00    -0.453 OA
ATOM     24  C   UNL A   1      29.166  30.284  21.776  1.00  0.00     0.468 C 
BRANCH  17  25
ATOM     25  O   UNL A   1      31.021  31.177  25.613  1.00  0.00    -0.493 OA
ATOM     26  C   UNL A   1      31.932  31.042  26.702  1.00  0.00     0.278 C 
ENDBRANCH  17  25
ENDBRANCH   9  16
ENDBRANCH   7   8
ENDBRANCH   4   7
ENDBRANCH   2   3
ENDBRANCH   1   2
BRANCH   1  27
ATOM     27  C   UNL A   1      37.786  19.917  24.955  1.00  0.00     0.023 C 
BRANCH  27  28
ATOM     28  C   UNL A   1      38.991  20.319  25.801  1.00  0.00     0.116 C 
BRANCH  28  29
ATOM     29  N   UNL A   1      40.066  19.341  25.773  1.00  0.00    -0.352 N 
ATOM     30  C   UNL A   1      41.396  19.514  26.080  1.00  0.00     0.251 C 
ATOM     31  H   UNL A   1      39.808  18.432  25.498  1.00  0.00     0.163 HD
ATOM     32  O   UNL A   1      42.196  18.601  25.901  1.00  0.00    -0.269 OA
BRANCH  30  33
ATOM     33  C   UNL A   1      41.867  20.819  26.592  1.00  0.00     0.039 A 
ATOM     34  C   UNL A   1      42.314  21.778  25.677  1.00  0.00     0.014 A 
ATOM     35  C   UNL A   1      41.847  21.105  27.958  1.00  0.00     0.014 A 
ATOM     36  C   UNL A   1      42.671  23.049  26.129  1.00  0.00     0.010 A 
ATOM     37  C   UNL A   1      42.139  22.393  28.399  1.00  0.00     0.010 A 
ATOM     38  C   UNL A   1      42.549  23.379  27.489  1.00  0.00    -0.014 A 
BRANCH  38  39
ATOM     39  C   UNL A   1      42.834  24.752  27.978  1.00  0.00     0.031 A 
ATOM     40  C   UNL A   1      44.233  25.144  28.361  1.00  0.00     0.074 A 
ATOM     41  C   UNL A   1      41.819  25.623  28.146  1.00  0.00     0.049 A 
ATOM     42  N   UNL A   1      44.665  26.263  28.885  1.00  0.00    -0.248 NA
ATOM     43  C   UNL A   1      45.282  24.135  28.150  1.00  0.00     0.031 C 
ATOM     44  C   UNL A   1      40.411  25.351  27.856  1.00  0.00     0.029 A 
ATOM     45  N   UNL A   1      41.817  26.914  28.615  1.00  0.00    -0.354 N 
ATOM     46  C   UNL A   1      46.029  26.087  29.078  1.00  0.00     0.074 A 
ATOM     47  C   UNL A   1      46.344  24.738  28.663  1.00  0.00     0.031 C 
ATOM     48  C   UNL A   1      39.684  26.445  28.138  1.00  0.00     0.029 A 
ATOM     49  C   UNL A   1      40.567  27.481  28.661  1.00  0.00     0.049 A 
ATOM     50  H   UNL A   1      42.635  27.386  28.893  1.00  0.00     0.167 HD
ATOM     51  C   UNL A   1      46.941  26.979  29.536  1.00  0.00     0.037 A 
ATOM     52  C   UNL A   1      40.176  28.698  29.086  1.00  0.00     0.037 A 
ATOM     53  C   UNL A   1      46.630  28.328  29.927  1.00  0.00     0.049 A 
ATOM     54  C   UNL A   1      41.207  29.666  29.597  1.00  0.00     0.074 A 
ATOM     55  C   UNL A   1      47.492  29.322  30.356  1.00  0.00     0.029 A 
ATOM     56  N   UNL A   1      45.355  28.873  29.938  1.00  0.00    -0.354 N 
ATOM     57  N   UNL A   1      42.503  29.507  29.715  1.00  0.00    -0.248 NA
ATOM     58  C   UNL A   1      40.721  30.984  30.030  1.00  0.00     0.031 C 
ATOM     59  C   UNL A   1      46.734  30.457  30.662  1.00  0.00     0.029 A 
ATOM     60  C   UNL A   1      45.405  30.185  30.382  1.00  0.00     0.049 A 
ATOM     61  H   UNL A   1      44.535  28.399  29.669  1.00  0.00     0.167 HD
ATOM     62  C   UNL A   1      42.989  30.711  30.208  1.00  0.00     0.074 A 
ATOM     63  C   UNL A   1      41.851  31.595  30.354  1.00  0.00     0.031 C 
ATOM     64  C   UNL A   1      44.265  31.055  30.511  1.00  0.00     0.037 A 
BRANCH  51  65
ATOM     65  C   UNL A   1      48.366  26.519  29.631  1.00  0.00     0.057 A 
ATOM     66  C   UNL A   1      49.280  26.736  28.591  1.00  0.00     0.134 A 
ATOM     67  C   UNL A   1      48.839  25.881  30.784  1.00  0.00     0.134 A 
ATOM     68  F   UNL A   1      48.888  27.331  27.454  1.00  0.00    -0.206 F 
ATOM     69  C   UNL A   1      50.607  26.311  28.684  1.00  0.00     0.040 A 
ATOM     70  C   UNL A   1      50.170  25.474  30.899  1.00  0.00     0.040 A 
ATOM     71  F   UNL A   1      48.019  25.647  31.820  1.00  0.00    -0.206 F 
ATOM     72  C   UNL A   1      51.056  25.683  29.845  1.00  0.00     0.006 A 
ENDBRANCH  51  65
BRANCH  52  73
ATOM     73  C   UNL A   1      38.744  29.082  29.027  1.00  0.00     0.057 A 
ATOM     74  C   UNL A   1      38.179  29.584  27.849  1.00  0.00     0.134 A 
ATOM     75  C   UNL A   1      37.909  28.969  30.145  1.00  0.00     0.134 A 
ATOM     76  F   UNL A   1      38.933  29.733  26.750  1.00  0.00    -0.206 F 
ATOM     77  C   UNL A   1      36.843  29.980  27.788  1.00  0.00     0.040 A 
ATOM     78  C   UNL A   1      36.564  29.339  30.093  1.00  0.00     0.040 A 
ATOM     79  F   UNL A   1      38.388  28.488  31.302  1.00  0.00    -0.206 F 
ATOM     80  C   UNL A   1      36.029  29.854  28.914  1.00  0.00     0.006 A 
ENDBRANCH  52  73
BRANCH  64  81
ATOM     81  C   UNL A   1      44.503  32.455  30.995  1.00  0.00     0.057 A 
ATOM     82  C   UNL A   1      44.503  32.776  32.357  1.00  0.00     0.134 A 
ATOM     83  C   UNL A   1      44.773  33.485  30.086  1.00  0.00     0.134 A 
ATOM     84  F   UNL A   1      44.239  31.837  33.278  1.00  0.00    -0.206 F 
ATOM     85  C   UNL A   1      44.745  34.078  32.799  1.00  0.00     0.040 A 
ATOM     86  C   UNL A   1      45.040  34.786  30.516  1.00  0.00     0.040 A 
ATOM     87  F   UNL A   1      44.794  33.242  28.767  1.00  0.00    -0.206 F 
ATOM     88  C   UNL A   1      45.021  35.086  31.876  1.00  0.00     0.006 A 
ENDBRANCH  64  81
ENDBRANCH  38  39
ENDBRANCH  30  33
ENDBRANCH  28  29
ENDBRANCH  27  28
ENDBRANCH   1  27
TORSDOF 14
ENDMDL
MODEL 3
REMARK VINA RESULT:     -12.0      1.093      6.059
REMARK SMILES COc1cc(/C=C2\SC(=S)N(CC(=O)NCCCCNC(=O)c3ccc(-c4c5nc(c(-c6c(F)cccc6F)c6ccc([nH]6)c(-c6c(F)cccc6F)c6nc(c(-c7c(F)cccc7F)c7ccc4[nH]7)C=C6)C=C5)cc3)C2=O)cc2c1OCO2
REMARK SMILES IDX 17 1 16 2 15 3 13 4 14 5 12 7 11 8 6 9 7 10 8 11 77 12 9 13
REMARK SMILES IDX 78 14 10 15 5 16 3 17 4 18 81 19 80 20 82 21 79 22 84 23
REMARK SMILES IDX 83 24 2 25 1 26 18 27 19 28 20 29 21 30 22 32 23 33 24 34
REMARK SMILES IDX 76 35 25 36 75 37 26 38 27 39 28 40 69 41 29 42 74 43 68 44
REMARK SMILES IDX 70 45 30 46 73 47 67 48 66 49 31 51 57 52 40 53 56 54 41 55
REMARK SMILES IDX 44 56 55 57 71 58 42 59 43 60 54 62 72 63 45 64 32 65 33 66
REMARK SMILES IDX 38 67 34 68 35 69 37 70 39 71 36 72 58 73 59 74 64 75 60 76
REMARK SMILES IDX 61 77 63 78 65 79 62 80 46 81 47 82 52 83 48 84 49 85 51 86
REMARK SMILES IDX 53 87 50 88
REMARK H PARENT 15 6 20 31 70 50 44 61
REMARK Flexibility Score: inf
ROOT
ATOM      1  C   UNL A   1      31.665  30.278  25.977  1.00  0.00     0.023 C 
ENDROOT
BRANCH   1   2
ATOM      2  C   UNL A   1      33.081  29.743  26.174  1.00  0.00     0.116 C 
BRANCH   2   3
ATOM      3  N   UNL A   1      33.721  29.405  24.922  1.00  0.00    -0.355 N 
ATOM      4  C   UNL A   1      33.326  28.556  23.932  1.00  0.00     0.240 C 
ATOM      5  O   UNL A   1      33.903  28.662  22.846  1.00  0.00    -0.273 OA
ATOM      6  H   UNL A   1      34.578  29.862  24.758  1.00  0.00     0.163 HD
BRANCH   4   7
ATOM      7  C   UNL A   1      32.102  27.641  24.075  1.00  0.00     0.227 C 
BRANCH   7   8
ATOM      8  N   UNL A   1      32.367  26.217  23.884  1.00  0.00    -0.283 N 
ATOM      9  C   UNL A   1      33.483  23.181  25.503  1.00  0.00     0.029 C 
ATOM     10  C   UNL A   1      33.069  24.083  24.604  1.00  0.00     0.081 C 
ATOM     11  S   UNL A   1      32.709  23.849  22.942  1.00  0.00    -0.054 SA
ATOM     12  C   UNL A   1      32.822  25.501  24.979  1.00  0.00     0.266 C 
ATOM     13  C   UNL A   1      32.361  25.550  22.677  1.00  0.00     0.148 C 
ATOM     14  O   UNL A   1      33.008  25.945  26.099  1.00  0.00    -0.268 OA
ATOM     15  S   UNL A   1      32.095  26.161  21.148  1.00  0.00    -0.052 S 
BRANCH   9  16
ATOM     16  C   UNL A   1      33.720  21.751  25.256  1.00  0.00    -0.017 A 
ATOM     17  C   UNL A   1      35.336  19.945  24.916  1.00  0.00     0.165 A 
ATOM     18  C   UNL A   1      35.051  21.295  25.153  1.00  0.00     0.058 A 
ATOM     19  C   UNL A   1      34.274  19.064  24.831  1.00  0.00     0.207 A 
ATOM     20  C   UNL A   1      32.975  19.514  24.917  1.00  0.00     0.170 A 
ATOM     21  O   UNL A   1      34.327  17.711  24.688  1.00  0.00    -0.450 OA
ATOM     22  C   UNL A   1      32.666  20.845  25.099  1.00  0.00     0.059 A 
ATOM     23  O   UNL A   1      32.063  18.509  24.822  1.00  0.00    -0.453 OA
ATOM     24  C   UNL A   1      32.931  17.363  24.762  1.00  0.00     0.468 C 
BRANCH  17  25
ATOM     25  O   UNL A   1      36.659  19.611  24.855  1.00  0.00    -0.493 OA
ATOM     26  C   UNL A   1      37.535  20.735  24.906  1.00  0.00     0.278 C 
ENDBRANCH  17  25
ENDBRANCH   9  16
ENDBRANCH   7   8
ENDBRANCH   4   7
ENDBRANCH   2   3
ENDBRANCH   1   2
BRANCH   1  27
ATOM     27  C   UNL A   1      31.441  31.702  26.494  1.00  0.00     0.023 C 
BRANCH  27  28
ATOM     28  C   UNL A   1      32.641  32.348  27.182  1.00  0.00     0.116 C 
BRANCH  28  29
ATOM     29  N   UNL A   1      32.399  33.721  27.593  1.00  0.00    -0.352 N 
ATOM     30  C   UNL A   1      33.142  34.511  28.440  1.00  0.00     0.251 C 
ATOM     31  H   UNL A   1      31.595  34.144  27.213  1.00  0.00     0.163 HD
ATOM     32  O   UNL A   1      32.736  35.622  28.765  1.00  0.00    -0.269 OA
BRANCH  30  33
ATOM     33  C   UNL A   1      34.415  34.000  28.990  1.00  0.00     0.039 A 
ATOM     34  C   UNL A   1      34.401  33.350  30.228  1.00  0.00     0.014 A 
ATOM     35  C   UNL A   1      35.611  34.139  28.282  1.00  0.00     0.014 A 
ATOM     36  C   UNL A   1      35.574  32.776  30.721  1.00  0.00     0.010 A 
ATOM     37  C   UNL A   1      36.764  33.507  28.742  1.00  0.00     0.010 A 
ATOM     38  C   UNL A   1      36.756  32.816  29.963  1.00  0.00    -0.014 A 
BRANCH  38  39
ATOM     39  C   UNL A   1      37.990  32.131  30.423  1.00  0.00     0.031 A 
ATOM     40  C   UNL A   1      38.851  32.755  31.485  1.00  0.00     0.074 A 
ATOM     41  C   UNL A   1      38.374  30.982  29.834  1.00  0.00     0.049 A 
ATOM     42  N   UNL A   1      40.004  32.355  31.957  1.00  0.00    -0.248 NA
ATOM     43  C   UNL A   1      38.363  34.011  32.076  1.00  0.00     0.031 C 
ATOM     44  C   UNL A   1      37.653  30.297  28.760  1.00  0.00     0.029 A 
ATOM     45  N   UNL A   1      39.477  30.193  30.047  1.00  0.00    -0.354 N 
ATOM     46  C   UNL A   1      40.384  33.313  32.888  1.00  0.00     0.074 A 
ATOM     47  C   UNL A   1      39.365  34.340  32.878  1.00  0.00     0.031 C 
ATOM     48  C   UNL A   1      38.322  29.184  28.419  1.00  0.00     0.029 A 
ATOM     49  C   UNL A   1      39.536  29.094  29.224  1.00  0.00     0.049 A 
ATOM     50  H   UNL A   1      40.162  30.396  30.724  1.00  0.00     0.167 HD
ATOM     51  C   UNL A   1      41.471  33.324  33.697  1.00  0.00     0.037 A 
ATOM     52  C   UNL A   1      40.469  28.127  29.123  1.00  0.00     0.037 A 
ATOM     53  C   UNL A   1      42.472  32.290  33.723  1.00  0.00     0.049 A 
ATOM     54  C   UNL A   1      41.670  28.166  30.027  1.00  0.00     0.074 A 
ATOM     55  C   UNL A   1      43.583  32.186  34.542  1.00  0.00     0.029 A 
ATOM     56  N   UNL A   1      42.484  31.181  32.890  1.00  0.00    -0.354 N 
ATOM     57  N   UNL A   1      41.984  29.046  30.946  1.00  0.00    -0.248 NA
ATOM     58  C   UNL A   1      42.644  27.075  29.881  1.00  0.00     0.031 C 
ATOM     59  C   UNL A   1      44.287  31.032  34.180  1.00  0.00     0.029 A 
ATOM     60  C   UNL A   1      43.592  30.395  33.165  1.00  0.00     0.049 A 
ATOM     61  H   UNL A   1      41.806  30.981  32.205  1.00  0.00     0.167 HD
ATOM     62  C   UNL A   1      43.174  28.600  31.507  1.00  0.00     0.074 A 
ATOM     63  C   UNL A   1      43.518  27.365  30.834  1.00  0.00     0.031 C 
ATOM     64  C   UNL A   1      43.915  29.163  32.493  1.00  0.00     0.037 A 
BRANCH  51  65
ATOM     65  C   UNL A   1      41.626  34.491  34.627  1.00  0.00     0.057 A 
ATOM     66  C   UNL A   1      42.248  35.679  34.220  1.00  0.00     0.134 A 
ATOM     67  C   UNL A   1      41.121  34.440  35.933  1.00  0.00     0.134 A 
ATOM     68  F   UNL A   1      42.764  35.788  32.987  1.00  0.00    -0.206 F 
ATOM     69  C   UNL A   1      42.386  36.764  35.088  1.00  0.00     0.040 A 
ATOM     70  C   UNL A   1      41.231  35.528  36.800  1.00  0.00     0.040 A 
ATOM     71  F   UNL A   1      40.509  33.335  36.385  1.00  0.00    -0.206 F 
ATOM     72  C   UNL A   1      41.870  36.693  36.380  1.00  0.00     0.006 A 
ENDBRANCH  51  65
BRANCH  52  73
ATOM     73  C   UNL A   1      40.296  27.027  28.143  1.00  0.00     0.057 A 
ATOM     74  C   UNL A   1      39.524  25.901  28.452  1.00  0.00     0.134 A 
ATOM     75  C   UNL A   1      40.907  27.064  26.884  1.00  0.00     0.134 A 
ATOM     76  F   UNL A   1      38.930  25.798  29.650  1.00  0.00    -0.206 F 
ATOM     77  C   UNL A   1      39.381  24.843  27.553  1.00  0.00     0.040 A 
ATOM     78  C   UNL A   1      40.753  26.024  25.966  1.00  0.00     0.040 A 
ATOM     79  F   UNL A   1      41.654  28.119  26.525  1.00  0.00    -0.206 F 
ATOM     80  C   UNL A   1      39.994  24.906  26.303  1.00  0.00     0.006 A 
ENDBRANCH  52  73
BRANCH  64  81
ATOM     81  C   UNL A   1      45.149  28.431  32.928  1.00  0.00     0.057 A 
ATOM     82  C   UNL A   1      46.404  28.698  32.367  1.00  0.00     0.134 A 
ATOM     83  C   UNL A   1      45.086  27.474  33.949  1.00  0.00     0.134 A 
ATOM     84  F   UNL A   1      46.529  29.594  31.376  1.00  0.00    -0.206 F 
ATOM     85  C   UNL A   1      47.550  28.024  32.791  1.00  0.00     0.040 A 
ATOM     86  C   UNL A   1      46.229  26.812  34.399  1.00  0.00     0.040 A 
ATOM     87  F   UNL A   1      43.916  27.177  34.533  1.00  0.00    -0.206 F 
ATOM     88  C   UNL A   1      47.465  27.082  33.816  1.00  0.00     0.006 A 
ENDBRANCH  64  81
ENDBRANCH  38  39
ENDBRANCH  30  33
ENDBRANCH  28  29
ENDBRANCH  27  28
ENDBRANCH   1  27
TORSDOF 14
ENDMDL
