MODEL 1
REMARK VINA RESULT:     -11.5      0.000      0.000
REMARK SMILES CCc1cccc(-c2ccc([C@@H](C)C(=O)NCCCCNC(=O)c3ccc(-c4c5nc(c(-c6c(F)cccc6F)c6ccc([nH]6)c(-c6c(F)cccc6F)c6nc(c(-c7c(F)cccc7F)c7ccc4[nH]7)C=C6)C=C5)cc3)cc2)c1
REMARK SMILES IDX 18 1 17 2 16 3 14 4 15 5 12 7 13 8 11 9 8 10 9 11 79 12
REMARK SMILES IDX 10 13 78 14 7 15 3 16 4 17 80 18 5 19 6 20 2 21 1 22 19 23
REMARK SMILES IDX 20 24 21 25 22 26 23 28 24 29 25 30 77 31 26 32 76 33 27 34
REMARK SMILES IDX 28 35 29 36 70 37 30 38 75 39 69 40 71 41 31 42 74 43 68 44
REMARK SMILES IDX 67 45 32 47 58 48 41 49 57 50 42 51 45 52 56 53 72 54 43 55
REMARK SMILES IDX 44 56 55 58 73 59 46 60 33 61 34 62 39 63 35 64 36 65 38 66
REMARK SMILES IDX 40 67 37 68 59 69 60 70 65 71 61 72 62 73 64 74 66 75 63 76
REMARK SMILES IDX 47 77 48 78 53 79 49 80 50 81 52 82 54 83 51 84
REMARK H PARENT 16 6 21 27 71 46 45 57
REMARK Flexibility Score: inf
ROOT
ATOM      1  C   UNL A   1      32.934  29.456  25.100  1.00  0.00     0.023 C 
ENDROOT
BRANCH   1   2
ATOM      2  C   UNL A   1      31.413  29.389  24.956  1.00  0.00     0.116 C 
BRANCH   2   3
ATOM      3  N   UNL A   1      30.974  29.712  23.616  1.00  0.00    -0.356 N 
ATOM      4  C   UNL A   1      30.402  28.943  22.648  1.00  0.00     0.227 C 
ATOM      5  O   UNL A   1      30.199  29.495  21.559  1.00  0.00    -0.274 OA
ATOM      6  H   UNL A   1      31.114  30.652  23.358  1.00  0.00     0.163 HD
BRANCH   4   7
ATOM      7  C   UNL A   1      29.996  27.474  22.850  1.00  0.00     0.105 C 
ATOM      8  C   UNL A   1      28.673  27.297  23.598  1.00  0.00     0.023 C 
BRANCH   7   9
ATOM      9  C   UNL A   1      31.145  26.585  23.296  1.00  0.00    -0.036 A 
ATOM     10  C   UNL A   1      33.191  24.741  24.087  1.00  0.00    -0.018 A 
ATOM     11  C   UNL A   1      33.378  25.651  23.032  1.00  0.00     0.009 A 
ATOM     12  C   UNL A   1      31.962  24.810  24.762  1.00  0.00     0.009 A 
ATOM     13  C   UNL A   1      32.392  26.577  22.669  1.00  0.00     0.005 A 
ATOM     14  C   UNL A   1      30.952  25.697  24.363  1.00  0.00     0.005 A 
BRANCH  10  15
ATOM     15  C   UNL A   1      34.244  23.756  24.452  1.00  0.00    -0.018 A 
ATOM     16  C   UNL A   1      36.483  23.234  25.360  1.00  0.00    -0.048 A 
ATOM     17  C   UNL A   1      36.219  21.871  25.207  1.00  0.00     0.004 A 
ATOM     18  C   UNL A   1      35.478  24.157  25.006  1.00  0.00     0.012 A 
ATOM     19  C   UNL A   1      35.011  21.444  24.663  1.00  0.00     0.001 A 
ATOM     20  C   UNL A   1      34.047  22.376  24.278  1.00  0.00     0.009 A 
BRANCH  16  21
ATOM     21  C   UNL A   1      37.781  23.747  25.943  1.00  0.00     0.032 C 
ATOM     22  C   UNL A   1      38.845  22.688  26.202  1.00  0.00     0.009 C 
ENDBRANCH  16  21
ENDBRANCH  10  15
ENDBRANCH   7   9
ENDBRANCH   4   7
ENDBRANCH   2   3
ENDBRANCH   1   2
BRANCH   1  23
ATOM     23  C   UNL A   1      33.555  28.337  25.935  1.00  0.00     0.023 C 
BRANCH  23  24
ATOM     24  C   UNL A   1      33.571  28.577  27.441  1.00  0.00     0.116 C 
BRANCH  24  25
ATOM     25  N   UNL A   1      33.573  29.982  27.822  1.00  0.00    -0.352 N 
ATOM     26  C   UNL A   1      34.620  30.730  28.311  1.00  0.00     0.251 C 
ATOM     27  H   UNL A   1      32.717  30.457  27.717  1.00  0.00     0.163 HD
ATOM     28  O   UNL A   1      34.451  31.893  28.654  1.00  0.00    -0.269 OA
BRANCH  26  29
ATOM     29  C   UNL A   1      35.945  30.092  28.466  1.00  0.00     0.039 A 
ATOM     30  C   UNL A   1      36.830  30.107  27.385  1.00  0.00     0.014 A 
ATOM     31  C   UNL A   1      36.332  29.544  29.691  1.00  0.00     0.014 A 
ATOM     32  C   UNL A   1      38.136  29.647  27.559  1.00  0.00     0.010 A 
ATOM     33  C   UNL A   1      37.654  29.153  29.882  1.00  0.00     0.010 A 
ATOM     34  C   UNL A   1      38.570  29.209  28.821  1.00  0.00    -0.014 A 
BRANCH  34  35
ATOM     35  C   UNL A   1      39.982  28.817  29.060  1.00  0.00     0.031 A 
ATOM     36  C   UNL A   1      40.943  29.802  29.665  1.00  0.00     0.074 A 
ATOM     37  C   UNL A   1      40.419  27.609  28.651  1.00  0.00     0.049 A 
ATOM     38  N   UNL A   1      42.232  29.687  29.857  1.00  0.00    -0.248 NA
ATOM     39  C   UNL A   1      40.388  31.102  30.078  1.00  0.00     0.031 C 
ATOM     40  C   UNL A   1      39.600  26.588  27.993  1.00  0.00     0.029 A 
ATOM     41  N   UNL A   1      41.667  27.042  28.712  1.00  0.00    -0.354 N 
ATOM     42  C   UNL A   1      42.645  30.904  30.385  1.00  0.00     0.074 A 
ATOM     43  C   UNL A   1      41.479  31.756  30.447  1.00  0.00     0.031 C 
ATOM     44  C   UNL A   1      40.363  25.515  27.727  1.00  0.00     0.029 A 
ATOM     45  C   UNL A   1      41.730  25.784  28.164  1.00  0.00     0.049 A 
ATOM     46  H   UNL A   1      42.445  27.494  29.112  1.00  0.00     0.167 HD
ATOM     47  C   UNL A   1      43.881  31.268  30.799  1.00  0.00     0.037 A 
ATOM     48  C   UNL A   1      42.773  24.944  28.024  1.00  0.00     0.037 A 
ATOM     49  C   UNL A   1      45.028  30.401  30.787  1.00  0.00     0.049 A 
ATOM     50  C   UNL A   1      44.126  25.363  28.529  1.00  0.00     0.074 A 
ATOM     51  C   UNL A   1      46.302  30.651  31.268  1.00  0.00     0.029 A 
ATOM     52  N   UNL A   1      45.037  29.114  30.274  1.00  0.00    -0.354 N 
ATOM     53  N   UNL A   1      44.483  26.488  29.100  1.00  0.00    -0.248 NA
ATOM     54  C   UNL A   1      45.220  24.393  28.378  1.00  0.00     0.031 C 
ATOM     55  C   UNL A   1      47.091  29.524  31.019  1.00  0.00     0.029 A 
ATOM     56  C   UNL A   1      46.300  28.561  30.414  1.00  0.00     0.049 A 
ATOM     57  H   UNL A   1      44.263  28.660  29.870  1.00  0.00     0.167 HD
ATOM     58  C   UNL A   1      45.831  26.348  29.402  1.00  0.00     0.074 A 
ATOM     59  C   UNL A   1      46.226  25.026  28.964  1.00  0.00     0.031 C 
ATOM     60  C   UNL A   1      46.668  27.236  29.990  1.00  0.00     0.037 A 
BRANCH  47  61
ATOM     61  C   UNL A   1      44.059  32.663  31.319  1.00  0.00     0.057 A 
ATOM     62  C   UNL A   1      44.396  33.725  30.472  1.00  0.00     0.134 A 
ATOM     63  C   UNL A   1      43.834  32.956  32.669  1.00  0.00     0.134 A 
ATOM     64  F   UNL A   1      44.637  33.507  29.170  1.00  0.00    -0.206 F 
ATOM     65  C   UNL A   1      44.518  35.030  30.952  1.00  0.00     0.040 A 
ATOM     66  C   UNL A   1      43.930  34.260  33.157  1.00  0.00     0.040 A 
ATOM     67  F   UNL A   1      43.504  31.983  33.532  1.00  0.00    -0.206 F 
ATOM     68  C   UNL A   1      44.275  35.301  32.298  1.00  0.00     0.006 A 
ENDBRANCH  47  61
BRANCH  48  69
ATOM     69  C   UNL A   1      42.587  23.613  27.394  1.00  0.00     0.057 A 
ATOM     70  C   UNL A   1      42.269  22.489  28.167  1.00  0.00     0.134 A 
ATOM     71  C   UNL A   1      42.756  23.423  26.018  1.00  0.00     0.134 A 
ATOM     72  F   UNL A   1      42.114  22.605  29.494  1.00  0.00    -0.206 F 
ATOM     73  C   UNL A   1      42.154  21.220  27.599  1.00  0.00     0.040 A 
ATOM     74  C   UNL A   1      42.620  22.163  25.433  1.00  0.00     0.040 A 
ATOM     75  F   UNL A   1      43.055  24.461  25.223  1.00  0.00    -0.206 F 
ATOM     76  C   UNL A   1      42.329  21.055  26.225  1.00  0.00     0.006 A 
ENDBRANCH  48  69
BRANCH  60  77
ATOM     77  C   UNL A   1      48.080  26.794  30.230  1.00  0.00     0.057 A 
ATOM     78  C   UNL A   1      49.117  27.134  29.353  1.00  0.00     0.134 A 
ATOM     79  C   UNL A   1      48.409  26.055  31.373  1.00  0.00     0.134 A 
ATOM     80  F   UNL A   1      48.863  27.828  28.234  1.00  0.00    -0.206 F 
ATOM     81  C   UNL A   1      50.433  26.737  29.598  1.00  0.00     0.040 A 
ATOM     82  C   UNL A   1      49.723  25.674  31.640  1.00  0.00     0.040 A 
ATOM     83  F   UNL A   1      47.460  25.707  32.256  1.00  0.00    -0.206 F 
ATOM     84  C   UNL A   1      50.740  26.011  30.748  1.00  0.00     0.006 A 
ENDBRANCH  60  77
ENDBRANCH  34  35
ENDBRANCH  26  29
ENDBRANCH  24  25
ENDBRANCH  23  24
ENDBRANCH   1  23
TORSDOF 14
ENDMDL
MODEL 2
REMARK VINA RESULT:     -11.0      3.350      6.585
REMARK SMILES CCc1cccc(-c2ccc([C@@H](C)C(=O)NCCCCNC(=O)c3ccc(-c4c5nc(c(-c6c(F)cccc6F)c6ccc([nH]6)c(-c6c(F)cccc6F)c6nc(c(-c7c(F)cccc7F)c7ccc4[nH]7)C=C6)C=C5)cc3)cc2)c1
REMARK SMILES IDX 18 1 17 2 16 3 14 4 15 5 12 7 13 8 11 9 8 10 9 11 79 12
REMARK SMILES IDX 10 13 78 14 7 15 3 16 4 17 80 18 5 19 6 20 2 21 1 22 19 23
REMARK SMILES IDX 20 24 21 25 22 26 23 28 24 29 25 30 77 31 26 32 76 33 27 34
REMARK SMILES IDX 28 35 29 36 70 37 30 38 75 39 69 40 71 41 31 42 74 43 68 44
REMARK SMILES IDX 67 45 32 47 58 48 41 49 57 50 42 51 45 52 56 53 72 54 43 55
REMARK SMILES IDX 44 56 55 58 73 59 46 60 33 61 34 62 39 63 35 64 36 65 38 66
REMARK SMILES IDX 40 67 37 68 59 69 60 70 65 71 61 72 62 73 64 74 66 75 63 76
REMARK SMILES IDX 47 77 48 78 53 79 49 80 50 81 52 82 54 83 51 84
REMARK H PARENT 16 6 21 27 71 46 45 57
REMARK Flexibility Score: inf
ROOT
ATOM      1  C   UNL A   1      34.123  35.165  28.846  1.00  0.00     0.023 C 
ENDROOT
BRANCH   1   2
ATOM      2  C   UNL A   1      33.123  36.321  28.889  1.00  0.00     0.116 C 
BRANCH   2   3
ATOM      3  N   UNL A   1      33.349  37.199  30.017  1.00  0.00    -0.356 N 
ATOM      4  C   UNL A   1      33.120  37.030  31.349  1.00  0.00     0.227 C 
ATOM      5  O   UNL A   1      33.356  38.004  32.074  1.00  0.00    -0.274 OA
ATOM      6  H   UNL A   1      33.737  38.072  29.780  1.00  0.00     0.163 HD
BRANCH   4   7
ATOM      7  C   UNL A   1      32.614  35.717  31.970  1.00  0.00     0.105 C 
ATOM      8  C   UNL A   1      31.380  35.891  32.858  1.00  0.00     0.023 C 
BRANCH   7   9
ATOM      9  C   UNL A   1      33.726  34.843  32.527  1.00  0.00    -0.036 A 
ATOM     10  C   UNL A   1      35.913  33.200  33.383  1.00  0.00    -0.018 A 
ATOM     11  C   UNL A   1      35.666  34.464  33.947  1.00  0.00     0.009 A 
ATOM     12  C   UNL A   1      35.006  32.765  32.403  1.00  0.00     0.009 A 
ATOM     13  C   UNL A   1      34.576  35.252  33.555  1.00  0.00     0.005 A 
ATOM     14  C   UNL A   1      33.948  33.577  31.968  1.00  0.00     0.005 A 
BRANCH  10  15
ATOM     15  C   UNL A   1      37.081  32.382  33.803  1.00  0.00    -0.018 A 
ATOM     16  C   UNL A   1      39.148  32.100  35.128  1.00  0.00    -0.048 A 
ATOM     17  C   UNL A   1      39.270  30.794  34.649  1.00  0.00     0.004 A 
ATOM     18  C   UNL A   1      38.038  32.866  34.719  1.00  0.00     0.012 A 
ATOM     19  C   UNL A   1      38.342  30.288  33.743  1.00  0.00     0.001 A 
ATOM     20  C   UNL A   1      37.274  31.078  33.316  1.00  0.00     0.009 A 
BRANCH  16  21
ATOM     21  C   UNL A   1      40.132  32.697  36.111  1.00  0.00     0.032 C 
ATOM     22  C   UNL A   1      40.056  34.211  36.273  1.00  0.00     0.009 C 
ENDBRANCH  16  21
ENDBRANCH  10  15
ENDBRANCH   7   9
ENDBRANCH   4   7
ENDBRANCH   2   3
ENDBRANCH   1   2
BRANCH   1  23
ATOM     23  C   UNL A   1      33.607  33.886  28.187  1.00  0.00     0.023 C 
BRANCH  23  24
ATOM     24  C   UNL A   1      34.515  32.669  28.323  1.00  0.00     0.116 C 
BRANCH  24  25
ATOM     25  N   UNL A   1      33.877  31.406  27.977  1.00  0.00    -0.352 N 
ATOM     26  C   UNL A   1      34.431  30.146  27.971  1.00  0.00     0.251 C 
ATOM     27  H   UNL A   1      32.930  31.461  27.713  1.00  0.00     0.163 HD
ATOM     28  O   UNL A   1      33.783  29.180  27.589  1.00  0.00    -0.269 OA
BRANCH  26  29
ATOM     29  C   UNL A   1      35.841  29.981  28.386  1.00  0.00     0.039 A 
ATOM     30  C   UNL A   1      36.114  29.575  29.694  1.00  0.00     0.014 A 
ATOM     31  C   UNL A   1      36.878  30.162  27.469  1.00  0.00     0.014 A 
ATOM     32  C   UNL A   1      37.426  29.267  30.060  1.00  0.00     0.010 A 
ATOM     33  C   UNL A   1      38.173  29.787  27.813  1.00  0.00     0.010 A 
ATOM     34  C   UNL A   1      38.457  29.328  29.109  1.00  0.00    -0.014 A 
BRANCH  34  35
ATOM     35  C   UNL A   1      39.841  28.904  29.440  1.00  0.00     0.031 A 
ATOM     36  C   UNL A   1      40.733  29.810  30.243  1.00  0.00     0.074 A 
ATOM     37  C   UNL A   1      40.322  27.747  28.944  1.00  0.00     0.049 A 
ATOM     38  N   UNL A   1      41.997  29.666  30.547  1.00  0.00    -0.248 NA
ATOM     39  C   UNL A   1      40.133  31.058  30.743  1.00  0.00     0.031 C 
ATOM     40  C   UNL A   1      39.577  26.810  28.099  1.00  0.00     0.029 A 
ATOM     41  N   UNL A   1      41.561  27.170  29.064  1.00  0.00    -0.354 N 
ATOM     42  C   UNL A   1      42.350  30.815  31.246  1.00  0.00     0.074 A 
ATOM     43  C   UNL A   1      41.179  31.662  31.288  1.00  0.00     0.031 C 
ATOM     44  C   UNL A   1      40.369  25.770  27.791  1.00  0.00     0.029 A 
ATOM     45  C   UNL A   1      41.685  25.980  28.387  1.00  0.00     0.049 A 
ATOM     46  H   UNL A   1      42.294  27.569  29.586  1.00  0.00     0.167 HD
ATOM     47  C   UNL A   1      43.537  31.123  31.818  1.00  0.00     0.037 A 
ATOM     48  C   UNL A   1      42.741  25.155  28.258  1.00  0.00     0.037 A 
ATOM     49  C   UNL A   1      44.684  30.256  31.822  1.00  0.00     0.049 A 
ATOM     50  C   UNL A   1      44.035  25.508  28.937  1.00  0.00     0.074 A 
ATOM     51  C   UNL A   1      45.903  30.443  32.451  1.00  0.00     0.029 A 
ATOM     52  N   UNL A   1      44.751  29.034  31.171  1.00  0.00    -0.354 N 
ATOM     53  N   UNL A   1      44.328  26.559  29.663  1.00  0.00    -0.248 NA
ATOM     54  C   UNL A   1      45.144  24.554  28.787  1.00  0.00     0.031 C 
ATOM     55  C   UNL A   1      46.719  29.347  32.156  1.00  0.00     0.029 A 
ATOM     56  C   UNL A   1      45.996  28.462  31.373  1.00  0.00     0.049 A 
ATOM     57  H   UNL A   1      44.022  28.633  30.645  1.00  0.00     0.167 HD
ATOM     58  C   UNL A   1      45.641  26.379  30.078  1.00  0.00     0.074 A 
ATOM     59  C   UNL A   1      46.084  25.112  29.536  1.00  0.00     0.031 C 
ATOM     60  C   UNL A   1      46.412  27.191  30.841  1.00  0.00     0.037 A 
BRANCH  47  61
ATOM     61  C   UNL A   1      43.655  32.450  32.505  1.00  0.00     0.057 A 
ATOM     62  C   UNL A   1      44.059  33.600  31.817  1.00  0.00     0.134 A 
ATOM     63  C   UNL A   1      43.306  32.589  33.854  1.00  0.00     0.134 A 
ATOM     64  F   UNL A   1      44.420  33.530  30.527  1.00  0.00    -0.206 F 
ATOM     65  C   UNL A   1      44.126  34.842  32.451  1.00  0.00     0.040 A 
ATOM     66  C   UNL A   1      43.347  33.830  34.492  1.00  0.00     0.040 A 
ATOM     67  F   UNL A   1      42.907  31.526  34.568  1.00  0.00    -0.206 F 
ATOM     68  C   UNL A   1      43.760  34.961  33.790  1.00  0.00     0.006 A 
ENDBRANCH  47  61
BRANCH  48  69
ATOM     69  C   UNL A   1      42.625  23.904  27.468  1.00  0.00     0.057 A 
ATOM     70  C   UNL A   1      42.336  22.684  28.091  1.00  0.00     0.134 A 
ATOM     71  C   UNL A   1      42.833  23.888  26.084  1.00  0.00     0.134 A 
ATOM     72  F   UNL A   1      42.147  22.632  29.417  1.00  0.00    -0.206 F 
ATOM     73  C   UNL A   1      42.287  21.489  27.372  1.00  0.00     0.040 A 
ATOM     74  C   UNL A   1      42.763  22.704  25.348  1.00  0.00     0.040 A 
ATOM     75  F   UNL A   1      43.107  25.026  25.427  1.00  0.00    -0.206 F 
ATOM     76  C   UNL A   1      42.500  21.498  25.994  1.00  0.00     0.006 A 
ENDBRANCH  48  69
BRANCH  60  77
ATOM     77  C   UNL A   1      47.795  26.716  31.168  1.00  0.00     0.057 A 
ATOM     78  C   UNL A   1      48.901  27.076  30.388  1.00  0.00     0.134 A 
ATOM     79  C   UNL A   1      48.027  25.925  32.300  1.00  0.00     0.134 A 
ATOM     80  F   UNL A   1      48.741  27.820  29.284  1.00  0.00    -0.206 F 
ATOM     81  C   UNL A   1      50.188  26.649  30.714  1.00  0.00     0.040 A 
ATOM     82  C   UNL A   1      49.312  25.512  32.649  1.00  0.00     0.040 A 
ATOM     83  F   UNL A   1      47.009  25.556  33.092  1.00  0.00    -0.206 F 
ATOM     84  C   UNL A   1      50.397  25.870  31.851  1.00  0.00     0.006 A 
ENDBRANCH  60  77
ENDBRANCH  34  35
ENDBRANCH  26  29
ENDBRANCH  24  25
ENDBRANCH  23  24
ENDBRANCH   1  23
TORSDOF 14
ENDMDL
MODEL 3
REMARK VINA RESULT:     -11.0      2.704      8.044
REMARK SMILES CCc1cccc(-c2ccc([C@@H](C)C(=O)NCCCCNC(=O)c3ccc(-c4c5nc(c(-c6c(F)cccc6F)c6ccc([nH]6)c(-c6c(F)cccc6F)c6nc(c(-c7c(F)cccc7F)c7ccc4[nH]7)C=C6)C=C5)cc3)cc2)c1
REMARK SMILES IDX 18 1 17 2 16 3 14 4 15 5 12 7 13 8 11 9 8 10 9 11 79 12
REMARK SMILES IDX 10 13 78 14 7 15 3 16 4 17 80 18 5 19 6 20 2 21 1 22 19 23
REMARK SMILES IDX 20 24 21 25 22 26 23 28 24 29 25 30 77 31 26 32 76 33 27 34
REMARK SMILES IDX 28 35 29 36 70 37 30 38 75 39 69 40 71 41 31 42 74 43 68 44
REMARK SMILES IDX 67 45 32 47 58 48 41 49 57 50 42 51 45 52 56 53 72 54 43 55
REMARK SMILES IDX 44 56 55 58 73 59 46 60 33 61 34 62 39 63 35 64 36 65 38 66
REMARK SMILES IDX 40 67 37 68 59 69 60 70 65 71 61 72 62 73 64 74 66 75 63 76
REMARK SMILES IDX 47 77 48 78 53 79 49 80 50 81 52 82 54 83 51 84
REMARK H PARENT 16 6 21 27 71 46 45 57
REMARK Flexibility Score: inf
ROOT
ATOM      1  C   UNL A   1      38.823  22.686  26.301  1.00  0.00     0.023 C 
ENDROOT
BRANCH   1   2
ATOM      2  C   UNL A   1      37.674  23.553  25.783  1.00  0.00     0.116 C 
BRANCH   2   3
ATOM      3  N   UNL A   1      37.439  23.364  24.368  1.00  0.00    -0.356 N 
ATOM      4  C   UNL A   1      36.292  23.141  23.669  1.00  0.00     0.227 C 
ATOM      5  O   UNL A   1      36.420  22.947  22.453  1.00  0.00    -0.274 OA
ATOM      6  H   UNL A   1      38.251  23.404  23.813  1.00  0.00     0.163 HD
BRANCH   4   7
ATOM      7  C   UNL A   1      34.891  23.136  24.302  1.00  0.00     0.105 C 
ATOM      8  C   UNL A   1      33.939  22.108  23.688  1.00  0.00     0.023 C 
BRANCH   7   9
ATOM      9  C   UNL A   1      34.323  24.529  24.525  1.00  0.00    -0.036 A 
ATOM     10  C   UNL A   1      33.078  27.090  24.844  1.00  0.00    -0.018 A 
ATOM     11  C   UNL A   1      33.437  26.295  25.946  1.00  0.00     0.009 A 
ATOM     12  C   UNL A   1      33.398  26.581  23.575  1.00  0.00     0.009 A 
ATOM     13  C   UNL A   1      34.079  25.060  25.792  1.00  0.00     0.005 A 
ATOM     14  C   UNL A   1      33.988  25.319  23.417  1.00  0.00     0.005 A 
BRANCH  10  15
ATOM     15  C   UNL A   1      32.386  28.394  25.025  1.00  0.00    -0.018 A 
ATOM     16  C   UNL A   1      30.609  29.995  24.400  1.00  0.00    -0.048 A 
ATOM     17  C   UNL A   1      31.032  30.851  25.419  1.00  0.00     0.004 A 
ATOM     18  C   UNL A   1      31.276  28.764  24.237  1.00  0.00     0.012 A 
ATOM     19  C   UNL A   1      32.125  30.515  26.213  1.00  0.00     0.001 A 
ATOM     20  C   UNL A   1      32.799  29.311  26.006  1.00  0.00     0.009 A 
BRANCH  16  21
ATOM     21  C   UNL A   1      29.430  30.316  23.509  1.00  0.00     0.032 C 
ATOM     22  C   UNL A   1      29.639  30.040  22.024  1.00  0.00     0.009 C 
ENDBRANCH  16  21
ENDBRANCH  10  15
ENDBRANCH   7   9
ENDBRANCH   4   7
ENDBRANCH   2   3
ENDBRANCH   1   2
BRANCH   1  23
ATOM     23  C   UNL A   1      38.969  21.328  25.616  1.00  0.00     0.023 C 
BRANCH  23  24
ATOM     24  C   UNL A   1      39.473  20.198  26.507  1.00  0.00     0.116 C 
BRANCH  24  25
ATOM     25  N   UNL A   1      40.555  19.416  25.926  1.00  0.00    -0.352 N 
ATOM     26  C   UNL A   1      41.888  19.745  25.830  1.00  0.00     0.251 C 
ATOM     27  H   UNL A   1      40.300  18.541  25.552  1.00  0.00     0.163 HD
ATOM     28  O   UNL A   1      42.674  19.008  25.249  1.00  0.00    -0.269 OA
BRANCH  26  29
ATOM     29  C   UNL A   1      42.351  21.030  26.396  1.00  0.00     0.039 A 
ATOM     30  C   UNL A   1      42.750  22.045  25.524  1.00  0.00     0.014 A 
ATOM     31  C   UNL A   1      42.327  21.250  27.775  1.00  0.00     0.014 A 
ATOM     32  C   UNL A   1      43.045  23.312  26.030  1.00  0.00     0.010 A 
ATOM     33  C   UNL A   1      42.551  22.531  28.271  1.00  0.00     0.010 A 
ATOM     34  C   UNL A   1      42.904  23.576  27.402  1.00  0.00    -0.014 A 
BRANCH  34  35
ATOM     35  C   UNL A   1      43.105  24.940  27.953  1.00  0.00     0.031 A 
ATOM     36  C   UNL A   1      44.467  25.365  28.426  1.00  0.00     0.074 A 
ATOM     37  C   UNL A   1      42.047  25.760  28.110  1.00  0.00     0.049 A 
ATOM     38  N   UNL A   1      44.824  26.470  29.028  1.00  0.00    -0.248 NA
ATOM     39  C   UNL A   1      45.568  24.408  28.225  1.00  0.00     0.031 C 
ATOM     40  C   UNL A   1      40.664  25.440  27.749  1.00  0.00     0.029 A 
ATOM     41  N   UNL A   1      41.968  27.026  28.631  1.00  0.00    -0.354 N 
ATOM     42  C   UNL A   1      46.179  26.330  29.303  1.00  0.00     0.074 A 
ATOM     43  C   UNL A   1      46.572  25.019  28.837  1.00  0.00     0.031 C 
ATOM     44  C   UNL A   1      39.878  26.489  28.045  1.00  0.00     0.029 A 
ATOM     45  C   UNL A   1      40.693  27.540  28.645  1.00  0.00     0.049 A 
ATOM     46  H   UNL A   1      42.751  27.523  28.964  1.00  0.00     0.167 HD
ATOM     47  C   UNL A   1      47.021  27.223  29.873  1.00  0.00     0.037 A 
ATOM     48  C   UNL A   1      40.234  28.722  29.098  1.00  0.00     0.037 A 
ATOM     49  C   UNL A   1      46.641  28.546  30.286  1.00  0.00     0.049 A 
ATOM     50  C   UNL A   1      41.202  29.708  29.691  1.00  0.00     0.074 A 
ATOM     51  C   UNL A   1      47.443  29.555  30.792  1.00  0.00     0.029 A 
ATOM     52  N   UNL A   1      45.350  29.048  30.233  1.00  0.00    -0.354 N 
ATOM     53  N   UNL A   1      42.495  29.592  29.869  1.00  0.00    -0.248 NA
ATOM     54  C   UNL A   1      40.647  30.994  30.138  1.00  0.00     0.031 C 
ATOM     55  C   UNL A   1      46.632  30.658  31.074  1.00  0.00     0.029 A 
ATOM     56  C   UNL A   1      45.331  30.348  30.710  1.00  0.00     0.049 A 
ATOM     57  H   UNL A   1      44.564  28.554  29.905  1.00  0.00     0.167 HD
ATOM     58  C   UNL A   1      42.912  30.796  30.420  1.00  0.00     0.074 A 
ATOM     59  C   UNL A   1      41.737  31.635  30.535  1.00  0.00     0.031 C 
ATOM     60  C   UNL A   1      44.156  31.174  30.798  1.00  0.00     0.037 A 
BRANCH  47  61
ATOM     61  C   UNL A   1      48.448  26.807  30.070  1.00  0.00     0.057 A 
ATOM     62  C   UNL A   1      48.860  26.117  31.217  1.00  0.00     0.134 A 
ATOM     63  C   UNL A   1      49.406  27.047  29.078  1.00  0.00     0.134 A 
ATOM     64  F   UNL A   1      47.993  25.867  32.209  1.00  0.00    -0.206 F 
ATOM     65  C   UNL A   1      50.180  25.693  31.376  1.00  0.00     0.040 A 
ATOM     66  C   UNL A   1      50.723  26.608  29.216  1.00  0.00     0.040 A 
ATOM     67  F   UNL A   1      49.074  27.701  27.954  1.00  0.00    -0.206 F 
ATOM     68  C   UNL A   1      51.114  25.931  30.370  1.00  0.00     0.006 A 
ENDBRANCH  47  61
BRANCH  48  69
ATOM     69  C   UNL A   1      38.791  29.055  28.996  1.00  0.00     0.057 A 
ATOM     70  C   UNL A   1      38.244  29.527  27.796  1.00  0.00     0.134 A 
ATOM     71  C   UNL A   1      37.934  28.947  30.097  1.00  0.00     0.134 A 
ATOM     72  F   UNL A   1      39.020  29.671  26.712  1.00  0.00    -0.206 F 
ATOM     73  C   UNL A   1      36.904  29.905  27.702  1.00  0.00     0.040 A 
ATOM     74  C   UNL A   1      36.586  29.299  30.011  1.00  0.00     0.040 A 
ATOM     75  F   UNL A   1      38.396  28.496  31.273  1.00  0.00    -0.206 F 
ATOM     76  C   UNL A   1      36.070  29.790  28.813  1.00  0.00     0.006 A 
ENDBRANCH  48  69
BRANCH  60  77
ATOM     77  C   UNL A   1      44.319  32.565  31.331  1.00  0.00     0.057 A 
ATOM     78  C   UNL A   1      44.247  32.842  32.701  1.00  0.00     0.134 A 
ATOM     79  C   UNL A   1      44.593  33.631  30.465  1.00  0.00     0.134 A 
ATOM     80  F   UNL A   1      43.974  31.866  33.579  1.00  0.00    -0.206 F 
ATOM     81  C   UNL A   1      44.424  34.137  33.190  1.00  0.00     0.040 A 
ATOM     82  C   UNL A   1      44.795  34.925  30.944  1.00  0.00     0.040 A 
ATOM     83  F   UNL A   1      44.683  33.427  29.142  1.00  0.00    -0.206 F 
ATOM     84  C   UNL A   1      44.705  35.182  32.311  1.00  0.00     0.006 A 
ENDBRANCH  60  77
ENDBRANCH  34  35
ENDBRANCH  26  29
ENDBRANCH  24  25
ENDBRANCH  23  24
ENDBRANCH   1  23
TORSDOF 14
ENDMDL
