MODEL 1
REMARK VINA RESULT:     -12.0      0.000      0.000
REMARK SMILES COc1ccc(C2=NN(C(=O)CCC(=O)NCCCCNC(=O)c3ccc(-c4c5nc(c(-c6c(F)cccc6F)c6ccc([nH]6)c(-c6c(F)cccc6F)c6nc(c(-c7c(F)cccc7F)c7ccc4[nH]7)C=C6)C=C5)cc3)[C@H](c3ccc(Cl)cc3Cl)C2)cc1
REMARK SMILES IDX 17 1 16 2 14 3 15 4 13 6 12 7 10 8 11 9 9 10 7 11 8 12 87 13
REMARK SMILES IDX 78 14 6 15 3 16 4 17 89 18 5 19 88 20 2 21 1 22 79 23 80 24
REMARK SMILES IDX 85 25 81 26 84 27 86 28 82 29 83 30 18 31 19 32 20 33 21 34
REMARK SMILES IDX 22 35 23 37 24 38 25 39 77 40 26 41 76 42 27 43 28 44 29 45
REMARK SMILES IDX 70 46 30 47 75 48 69 49 71 50 31 51 74 52 68 53 67 54 32 56
REMARK SMILES IDX 58 57 41 58 57 59 42 60 45 61 56 62 72 63 43 64 44 65 55 67
REMARK SMILES IDX 73 68 46 69 33 70 34 71 39 72 35 73 36 74 38 75 40 76 37 77
REMARK SMILES IDX 59 78 60 79 65 80 61 81 62 82 64 83 66 84 63 85 47 86 48 87
REMARK SMILES IDX 53 88 49 89 50 90 52 91 54 92 51 93
REMARK H PARENT 16 5 21 36 71 55 45 66
REMARK Flexibility Score: inf
ROOT
ATOM      1  C   UNL A   1      45.761  43.195  32.119  1.00  0.00     0.116 C 
ENDROOT
BRANCH   1   2
ATOM      2  N   UNL A   1      44.976  44.285  31.374  1.00  0.00    -0.356 N 
ATOM      3  C   UNL A   1      44.488  44.410  30.105  1.00  0.00     0.220 C 
ATOM      4  O   UNL A   1      43.746  45.385  29.927  1.00  0.00    -0.275 OA
ATOM      5  H   UNL A   1      44.781  45.068  31.937  1.00  0.00     0.163 HD
BRANCH   3   6
ATOM      6  C   UNL A   1      44.741  43.439  28.951  1.00  0.00     0.110 C 
BRANCH   6   7
ATOM      7  C   UNL A   1      45.945  43.565  28.026  1.00  0.00     0.112 C 
BRANCH   7   8
ATOM      8  C   UNL A   1      45.669  44.617  27.008  1.00  0.00     0.243 C 
ATOM      9  O   UNL A   1      45.575  45.807  27.278  1.00  0.00    -0.273 OA
BRANCH   8  10
ATOM     10  N   UNL A   1      45.422  44.037  25.785  1.00  0.00    -0.225 N 
ATOM     11  C   UNL A   1      45.784  44.107  22.874  1.00  0.00     0.071 C 
ATOM     12  N   UNL A   1      46.403  44.699  24.250  1.00  0.00    -0.174 NA
ATOM     13  C   UNL A   1      44.106  43.152  23.149  1.00  0.00     0.091 C 
ATOM     14  C   UNL A   1      43.931  42.959  25.090  1.00  0.00     0.149 C 
BRANCH  11  15
ATOM     15  C   UNL A   1      46.409  43.731  21.602  1.00  0.00    -0.002 A 
ATOM     16  C   UNL A   1      48.251  43.595  19.693  1.00  0.00     0.118 A 
ATOM     17  C   UNL A   1      48.249  42.564  20.605  1.00  0.00     0.047 A 
ATOM     18  C   UNL A   1      47.022  44.229  19.418  1.00  0.00     0.047 A 
ATOM     19  C   UNL A   1      47.254  42.603  21.552  1.00  0.00     0.014 A 
ATOM     20  C   UNL A   1      46.139  44.426  20.459  1.00  0.00     0.014 A 
BRANCH  16  21
ATOM     21  O   UNL A   1      49.573  44.127  19.500  1.00  0.00    -0.497 OA
ATOM     22  C   UNL A   1      51.499  44.485  19.886  1.00  0.00     0.278 C 
ENDBRANCH  16  21
ENDBRANCH  11  15
BRANCH  14  23
ATOM     23  C   UNL A   1      43.454  41.512  25.472  1.00  0.00    -0.004 A 
ATOM     24  C   UNL A   1      42.110  41.318  25.878  1.00  0.00     0.009 A 
ATOM     25  C   UNL A   1      44.363  40.508  25.917  1.00  0.00     0.047 A 
ATOM     26  C   UNL A   1      41.714  40.250  26.700  1.00  0.00     0.021 A 
ATOM     27  C   UNL A   1      43.941  39.384  26.647  1.00  0.00     0.041 A 
ATOM     28  Cl  UNL A   1      46.090  40.655  25.886  1.00  0.00    -0.084 Cl
ATOM     29  C   UNL A   1      42.628  39.277  27.066  1.00  0.00     0.042 A 
ATOM     30  Cl  UNL A   1      42.159  37.992  28.105  1.00  0.00    -0.084 Cl
ENDBRANCH  14  23
ENDBRANCH   8  10
ENDBRANCH   7   8
ENDBRANCH   6   7
ENDBRANCH   3   6
ENDBRANCH   1   2
BRANCH   1  31
ATOM     31  C   UNL A   1      47.043  41.445  31.561  1.00  0.00     0.023 C 
BRANCH  31  32
ATOM     32  C   UNL A   1      46.311  39.728  31.092  1.00  0.00     0.023 C 
BRANCH  32  33
ATOM     33  C   UNL A   1      46.051  39.224  29.527  1.00  0.00     0.116 C 
BRANCH  33  34
ATOM     34  N   UNL A   1      47.150  38.883  28.626  1.00  0.00    -0.352 N 
ATOM     35  C   UNL A   1      47.174  37.817  27.724  1.00  0.00     0.251 C 
ATOM     36  H   UNL A   1      47.948  39.460  28.658  1.00  0.00     0.163 HD
ATOM     37  O   UNL A   1      47.795  37.910  26.665  1.00  0.00    -0.269 OA
BRANCH  35  38
ATOM     38  C   UNL A   1      46.611  36.481  28.035  1.00  0.00     0.039 A 
ATOM     39  C   UNL A   1      45.310  35.921  26.922  1.00  0.00     0.014 A 
ATOM     40  C   UNL A   1      47.066  35.479  29.455  1.00  0.00     0.014 A 
ATOM     41  C   UNL A   1      44.525  34.323  27.154  1.00  0.00     0.010 A 
ATOM     42  C   UNL A   1      46.255  33.857  29.724  1.00  0.00     0.010 A 
ATOM     43  C   UNL A   1      45.024  33.241  28.523  1.00  0.00    -0.014 A 
BRANCH  43  44
ATOM     44  C   UNL A   1      44.547  31.829  28.510  1.00  0.00     0.031 A 
ATOM     45  C   UNL A   1      43.254  31.492  29.180  1.00  0.00     0.074 A 
ATOM     46  C   UNL A   1      45.282  30.850  27.928  1.00  0.00     0.049 A 
ATOM     47  N   UNL A   1      42.621  30.350  29.232  1.00  0.00    -0.248 NA
ATOM     48  C   UNL A   1      42.590  32.574  29.920  1.00  0.00     0.031 C 
ATOM     49  C   UNL A   1      46.616  31.001  27.335  1.00  0.00     0.029 A 
ATOM     50  N   UNL A   1      45.013  29.511  27.728  1.00  0.00    -0.354 N 
ATOM     51  C   UNL A   1      41.488  30.594  29.996  1.00  0.00     0.074 A 
ATOM     52  C   UNL A   1      41.594  31.937  30.507  1.00  0.00     0.031 C 
ATOM     53  C   UNL A   1      47.018  29.838  26.798  1.00  0.00     0.029 A 
ATOM     54  C   UNL A   1      45.988  28.837  27.022  1.00  0.00     0.049 A 
ATOM     55  H   UNL A   1      44.195  29.075  28.062  1.00  0.00     0.167 HD
ATOM     56  C   UNL A   1      40.409  29.805  30.186  1.00  0.00     0.037 A 
ATOM     57  C   UNL A   1      46.039  27.562  26.584  1.00  0.00     0.037 A 
ATOM     58  C   UNL A   1      40.304  28.475  29.662  1.00  0.00     0.049 A 
ATOM     59  C   UNL A   1      44.849  26.678  26.847  1.00  0.00     0.074 A 
ATOM     60  C   UNL A   1      39.252  27.588  29.766  1.00  0.00     0.029 A 
ATOM     61  N   UNL A   1      41.308  27.839  28.944  1.00  0.00    -0.354 N 
ATOM     62  N   UNL A   1      43.727  26.966  27.465  1.00  0.00    -0.248 NA
ATOM     63  C   UNL A   1      44.915  25.300  26.340  1.00  0.00     0.031 C 
ATOM     64  C   UNL A   1      39.649  26.384  29.175  1.00  0.00     0.029 A 
ATOM     65  C   UNL A   1      40.916  26.551  28.634  1.00  0.00     0.049 A 
ATOM     66  H   UNL A   1      42.169  28.245  28.694  1.00  0.00     0.167 HD
ATOM     67  C   UNL A   1      42.944  25.824  27.390  1.00  0.00     0.074 A 
ATOM     68  C   UNL A   1      43.711  24.843  26.650  1.00  0.00     0.031 C 
ATOM     69  C   UNL A   1      41.702  25.602  27.888  1.00  0.00     0.037 A 
BRANCH  56  70
ATOM     70  C   UNL A   1      39.278  30.385  30.985  1.00  0.00     0.057 A 
ATOM     71  C   UNL A   1      39.183  30.202  32.373  1.00  0.00     0.134 A 
ATOM     72  C   UNL A   1      38.251  31.093  30.355  1.00  0.00     0.134 A 
ATOM     73  F   UNL A   1      40.122  29.508  33.035  1.00  0.00    -0.206 F 
ATOM     74  C   UNL A   1      38.082  30.661  33.097  1.00  0.00     0.040 A 
ATOM     75  C   UNL A   1      37.162  31.589  31.075  1.00  0.00     0.040 A 
ATOM     76  F   UNL A   1      38.275  31.300  29.030  1.00  0.00    -0.206 F 
ATOM     77  C   UNL A   1      37.070  31.361  32.447  1.00  0.00     0.006 A 
ENDBRANCH  56  70
BRANCH  57  78
ATOM     78  C   UNL A   1      47.215  27.048  25.819  1.00  0.00     0.057 A 
ATOM     79  C   UNL A   1      48.267  26.373  26.455  1.00  0.00     0.134 A 
ATOM     80  C   UNL A   1      47.343  27.256  24.439  1.00  0.00     0.134 A 
ATOM     81  F   UNL A   1      48.223  26.153  27.777  1.00  0.00    -0.206 F 
ATOM     82  C   UNL A   1      49.407  25.957  25.762  1.00  0.00     0.040 A 
ATOM     83  C   UNL A   1      48.464  26.818  23.727  1.00  0.00     0.040 A 
ATOM     84  F   UNL A   1      46.376  27.887  23.757  1.00  0.00    -0.206 F 
ATOM     85  C   UNL A   1      49.508  26.178  24.391  1.00  0.00     0.006 A 
ENDBRANCH  57  78
BRANCH  69  86
ATOM     86  C   UNL A   1      41.084  24.262  27.622  1.00  0.00     0.057 A 
ATOM     87  C   UNL A   1      40.104  24.079  26.640  1.00  0.00     0.134 A 
ATOM     88  C   UNL A   1      41.534  23.128  28.311  1.00  0.00     0.134 A 
ATOM     89  F   UNL A   1      39.626  25.127  25.951  1.00  0.00    -0.206 F 
ATOM     90  C   UNL A   1      39.575  22.818  26.369  1.00  0.00     0.040 A 
ATOM     91  C   UNL A   1      41.041  21.857  28.022  1.00  0.00     0.040 A 
ATOM     92  F   UNL A   1      42.484  23.234  29.253  1.00  0.00    -0.206 F 
ATOM     93  C   UNL A   1      40.053  21.702  27.053  1.00  0.00     0.006 A 
ENDBRANCH  69  86
ENDBRANCH  43  44
ENDBRANCH  35  38
ENDBRANCH  33  34
ENDBRANCH  32  33
ENDBRANCH  31  32
ENDBRANCH   1  31
TORSDOF 17
ENDMDL
MODEL 2
REMARK VINA RESULT:     -11.8      9.042     13.726
REMARK SMILES COc1ccc(C2=NN(C(=O)CCC(=O)NCCCCNC(=O)c3ccc(-c4c5nc(c(-c6c(F)cccc6F)c6ccc([nH]6)c(-c6c(F)cccc6F)c6nc(c(-c7c(F)cccc7F)c7ccc4[nH]7)C=C6)C=C5)cc3)[C@H](c3ccc(Cl)cc3Cl)C2)cc1
REMARK SMILES IDX 17 1 16 2 14 3 15 4 13 6 12 7 10 8 11 9 9 10 7 11 8 12 87 13
REMARK SMILES IDX 78 14 6 15 3 16 4 17 89 18 5 19 88 20 2 21 1 22 79 23 80 24
REMARK SMILES IDX 85 25 81 26 84 27 86 28 82 29 83 30 18 31 19 32 20 33 21 34
REMARK SMILES IDX 22 35 23 37 24 38 25 39 77 40 26 41 76 42 27 43 28 44 29 45
REMARK SMILES IDX 70 46 30 47 75 48 69 49 71 50 31 51 74 52 68 53 67 54 32 56
REMARK SMILES IDX 58 57 41 58 57 59 42 60 45 61 56 62 72 63 43 64 44 65 55 67
REMARK SMILES IDX 73 68 46 69 33 70 34 71 39 72 35 73 36 74 38 75 40 76 37 77
REMARK SMILES IDX 59 78 60 79 65 80 61 81 62 82 64 83 66 84 63 85 47 86 48 87
REMARK SMILES IDX 53 88 49 89 50 90 52 91 54 92 51 93
REMARK H PARENT 16 5 21 36 71 55 45 66
REMARK Flexibility Score: inf
ROOT
ATOM      1  C   UNL A   1      48.632  22.417  35.761  1.00  0.00     0.116 C 
ENDROOT
BRANCH   1   2
ATOM      2  N   UNL A   1      47.157  22.022  35.928  1.00  0.00    -0.356 N 
ATOM      3  C   UNL A   1      45.968  22.618  35.616  1.00  0.00     0.220 C 
ATOM      4  O   UNL A   1      44.973  21.897  35.755  1.00  0.00    -0.275 OA
ATOM      5  H   UNL A   1      47.043  21.142  36.354  1.00  0.00     0.163 HD
BRANCH   3   6
ATOM      6  C   UNL A   1      45.796  24.040  35.079  1.00  0.00     0.110 C 
BRANCH   6   7
ATOM      7  C   UNL A   1      46.016  24.393  33.613  1.00  0.00     0.112 C 
BRANCH   7   8
ATOM      8  C   UNL A   1      44.730  24.866  33.028  1.00  0.00     0.243 C 
ATOM      9  O   UNL A   1      43.756  25.172  33.703  1.00  0.00    -0.273 OA
BRANCH   8  10
ATOM     10  N   UNL A   1      44.777  24.784  31.656  1.00  0.00    -0.225 N 
ATOM     11  C   UNL A   1      44.142  23.269  29.226  1.00  0.00     0.071 C 
ATOM     12  N   UNL A   1      43.745  23.391  30.791  1.00  0.00    -0.174 NA
ATOM     13  C   UNL A   1      45.700  24.345  28.755  1.00  0.00     0.091 C 
ATOM     14  C   UNL A   1      46.038  25.478  30.316  1.00  0.00     0.149 C 
BRANCH  11  15
ATOM     15  C   UNL A   1      43.352  22.929  28.039  1.00  0.00    -0.002 A 
ATOM     16  C   UNL A   1      42.536  21.552  25.918  1.00  0.00     0.118 A 
ATOM     17  C   UNL A   1      41.856  21.313  27.091  1.00  0.00     0.047 A 
ATOM     18  C   UNL A   1      43.093  22.834  25.732  1.00  0.00     0.047 A 
ATOM     19  C   UNL A   1      42.236  22.075  28.170  1.00  0.00     0.014 A 
ATOM     20  C   UNL A   1      43.649  23.471  26.822  1.00  0.00     0.014 A 
BRANCH  16  21
ATOM     21  O   UNL A   1      42.926  20.327  25.276  1.00  0.00    -0.497 OA
ATOM     22  C   UNL A   1      44.105  18.799  24.762  1.00  0.00     0.278 C 
ENDBRANCH  16  21
ENDBRANCH  11  15
BRANCH  14  23
ATOM     23  C   UNL A   1      46.357  26.955  29.883  1.00  0.00    -0.004 A 
ATOM     24  C   UNL A   1      47.084  27.787  30.769  1.00  0.00     0.009 A 
ATOM     25  C   UNL A   1      45.562  27.650  28.925  1.00  0.00     0.047 A 
ATOM     26  C   UNL A   1      46.987  29.188  30.743  1.00  0.00     0.021 A 
ATOM     27  C   UNL A   1      45.556  29.053  28.834  1.00  0.00     0.041 A 
ATOM     28  Cl  UNL A   1      44.314  26.927  27.964  1.00  0.00    -0.084 Cl
ATOM     29  C   UNL A   1      46.237  29.816  29.763  1.00  0.00     0.042 A 
ATOM     30  Cl  UNL A   1      46.081  31.526  29.751  1.00  0.00    -0.084 Cl
ENDBRANCH  14  23
ENDBRANCH   8  10
ENDBRANCH   7   8
ENDBRANCH   6   7
ENDBRANCH   3   6
ENDBRANCH   1   2
BRANCH   1  31
ATOM     31  C   UNL A   1      50.008  22.884  34.057  1.00  0.00     0.023 C 
BRANCH  31  32
ATOM     32  C   UNL A   1      50.153  24.641  33.288  1.00  0.00     0.023 C 
BRANCH  32  33
ATOM     33  C   UNL A   1      49.186  25.927  33.719  1.00  0.00     0.116 C 
BRANCH  33  34
ATOM     34  N   UNL A   1      49.690  27.051  34.505  1.00  0.00    -0.352 N 
ATOM     35  C   UNL A   1      48.949  27.830  35.396  1.00  0.00     0.251 C 
ATOM     36  H   UNL A   1      50.642  27.280  34.396  1.00  0.00     0.163 HD
ATOM     37  O   UNL A   1      49.485  28.324  36.388  1.00  0.00    -0.269 OA
BRANCH  35  38
ATOM     38  C   UNL A   1      47.548  28.244  35.138  1.00  0.00     0.039 A 
ATOM     39  C   UNL A   1      47.362  29.733  34.142  1.00  0.00     0.014 A 
ATOM     40  C   UNL A   1      46.095  27.434  35.816  1.00  0.00     0.014 A 
ATOM     41  C   UNL A   1      45.734  30.368  33.730  1.00  0.00     0.010 A 
ATOM     42  C   UNL A   1      44.425  28.084  35.430  1.00  0.00     0.010 A 
ATOM     43  C   UNL A   1      44.239  29.523  34.319  1.00  0.00    -0.014 A 
BRANCH  43  44
ATOM     44  C   UNL A   1      42.930  29.921  33.728  1.00  0.00     0.031 A 
ATOM     45  C   UNL A   1      42.131  30.996  34.391  1.00  0.00     0.074 A 
ATOM     46  C   UNL A   1      42.447  29.304  32.622  1.00  0.00     0.049 A 
ATOM     47  N   UNL A   1      41.005  31.543  34.015  1.00  0.00    -0.248 NA
ATOM     48  C   UNL A   1      42.645  31.511  35.668  1.00  0.00     0.031 C 
ATOM     49  C   UNL A   1      43.055  28.163  31.928  1.00  0.00     0.029 A 
ATOM     50  N   UNL A   1      41.319  29.550  31.867  1.00  0.00    -0.354 N 
ATOM     51  C   UNL A   1      40.699  32.467  35.004  1.00  0.00     0.074 A 
ATOM     52  C   UNL A   1      41.665  32.303  36.061  1.00  0.00     0.031 C 
ATOM     53  C   UNL A   1      42.338  27.848  30.838  1.00  0.00     0.029 A 
ATOM     54  C   UNL A   1      41.196  28.745  30.753  1.00  0.00     0.049 A 
ATOM     55  H   UNL A   1      40.657  30.241  32.103  1.00  0.00     0.167 HD
ATOM     56  C   UNL A   1      39.752  33.429  35.000  1.00  0.00     0.037 A 
ATOM     57  C   UNL A   1      40.281  28.741  29.761  1.00  0.00     0.037 A 
ATOM     58  C   UNL A   1      38.803  33.595  33.938  1.00  0.00     0.049 A 
ATOM     59  C   UNL A   1      39.201  29.790  29.795  1.00  0.00     0.074 A 
ATOM     60  C   UNL A   1      37.813  34.548  33.808  1.00  0.00     0.029 A 
ATOM     61  N   UNL A   1      38.724  32.767  32.828  1.00  0.00    -0.354 N 
ATOM     62  N   UNL A   1      39.001  30.740  30.679  1.00  0.00    -0.248 NA
ATOM     63  C   UNL A   1      38.229  29.783  28.693  1.00  0.00     0.031 C 
ATOM     64  C   UNL A   1      37.084  34.249  32.653  1.00  0.00     0.029 A 
ATOM     65  C   UNL A   1      37.671  33.161  32.025  1.00  0.00     0.049 A 
ATOM     66  H   UNL A   1      39.327  32.012  32.640  1.00  0.00     0.167 HD
ATOM     67  C   UNL A   1      37.909  31.463  30.222  1.00  0.00     0.074 A 
ATOM     68  C   UNL A   1      37.500  30.854  28.973  1.00  0.00     0.031 C 
ATOM     69  C   UNL A   1      37.296  32.535  30.783  1.00  0.00     0.037 A 
BRANCH  56  70
ATOM     70  C   UNL A   1      39.725  34.358  36.178  1.00  0.00     0.057 A 
ATOM     71  C   UNL A   1      39.019  34.047  37.351  1.00  0.00     0.134 A 
ATOM     72  C   UNL A   1      40.373  35.596  36.125  1.00  0.00     0.134 A 
ATOM     73  F   UNL A   1      38.351  32.887  37.457  1.00  0.00    -0.206 F 
ATOM     74  C   UNL A   1      38.917  34.954  38.406  1.00  0.00     0.040 A 
ATOM     75  C   UNL A   1      40.309  36.497  37.190  1.00  0.00     0.040 A 
ATOM     76  F   UNL A   1      41.062  35.960  35.033  1.00  0.00    -0.206 F 
ATOM     77  C   UNL A   1      39.568  36.182  38.327  1.00  0.00     0.006 A 
ENDBRANCH  56  70
BRANCH  57  78
ATOM     78  C   UNL A   1      40.359  27.763  28.634  1.00  0.00     0.057 A 
ATOM     79  C   UNL A   1      39.755  26.500  28.717  1.00  0.00     0.134 A 
ATOM     80  C   UNL A   1      41.073  28.045  27.462  1.00  0.00     0.134 A 
ATOM     81  F   UNL A   1      39.068  26.152  29.815  1.00  0.00    -0.206 F 
ATOM     82  C   UNL A   1      39.886  25.548  27.701  1.00  0.00     0.040 A 
ATOM     83  C   UNL A   1      41.187  27.114  26.425  1.00  0.00     0.040 A 
ATOM     84  F   UNL A   1      41.672  29.235  27.304  1.00  0.00    -0.206 F 
ATOM     85  C   UNL A   1      40.604  25.856  26.548  1.00  0.00     0.006 A 
ENDBRANCH  57  78
BRANCH  69  86
ATOM     86  C   UNL A   1      36.142  33.136  30.036  1.00  0.00     0.057 A 
ATOM     87  C   UNL A   1      34.814  32.825  30.348  1.00  0.00     0.134 A 
ATOM     88  C   UNL A   1      36.370  34.096  29.040  1.00  0.00     0.134 A 
ATOM     89  F   UNL A   1      34.532  31.908  31.287  1.00  0.00    -0.206 F 
ATOM     90  C   UNL A   1      33.751  33.430  29.678  1.00  0.00     0.040 A 
ATOM     91  C   UNL A   1      35.315  34.735  28.392  1.00  0.00     0.040 A 
ATOM     92  F   UNL A   1      37.620  34.450  28.706  1.00  0.00    -0.206 F 
ATOM     93  C   UNL A   1      34.001  34.396  28.706  1.00  0.00     0.006 A 
ENDBRANCH  69  86
ENDBRANCH  43  44
ENDBRANCH  35  38
ENDBRANCH  33  34
ENDBRANCH  32  33
ENDBRANCH  31  32
ENDBRANCH   1  31
TORSDOF 17
ENDMDL
MODEL 3
REMARK VINA RESULT:     -11.8      6.841     13.310
REMARK SMILES COc1ccc(C2=NN(C(=O)CCC(=O)NCCCCNC(=O)c3ccc(-c4c5nc(c(-c6c(F)cccc6F)c6ccc([nH]6)c(-c6c(F)cccc6F)c6nc(c(-c7c(F)cccc7F)c7ccc4[nH]7)C=C6)C=C5)cc3)[C@H](c3ccc(Cl)cc3Cl)C2)cc1
REMARK SMILES IDX 17 1 16 2 14 3 15 4 13 6 12 7 10 8 11 9 9 10 7 11 8 12 87 13
REMARK SMILES IDX 78 14 6 15 3 16 4 17 89 18 5 19 88 20 2 21 1 22 79 23 80 24
REMARK SMILES IDX 85 25 81 26 84 27 86 28 82 29 83 30 18 31 19 32 20 33 21 34
REMARK SMILES IDX 22 35 23 37 24 38 25 39 77 40 26 41 76 42 27 43 28 44 29 45
REMARK SMILES IDX 70 46 30 47 75 48 69 49 71 50 31 51 74 52 68 53 67 54 32 56
REMARK SMILES IDX 58 57 41 58 57 59 42 60 45 61 56 62 72 63 43 64 44 65 55 67
REMARK SMILES IDX 73 68 46 69 33 70 34 71 39 72 35 73 36 74 38 75 40 76 37 77
REMARK SMILES IDX 59 78 60 79 65 80 61 81 62 82 64 83 66 84 63 85 47 86 48 87
REMARK SMILES IDX 53 88 49 89 50 90 52 91 54 92 51 93
REMARK H PARENT 16 5 21 36 71 55 45 66
REMARK Flexibility Score: inf
ROOT
ATOM      1  C   UNL A   1      44.135  25.119  38.084  1.00  0.00     0.116 C 
ENDROOT
BRANCH   1   2
ATOM      2  N   UNL A   1      42.651  25.400  37.806  1.00  0.00    -0.356 N 
ATOM      3  C   UNL A   1      41.978  26.346  37.087  1.00  0.00     0.220 C 
ATOM      4  O   UNL A   1      40.765  26.137  36.960  1.00  0.00    -0.275 OA
ATOM      5  H   UNL A   1      42.051  24.754  38.243  1.00  0.00     0.163 HD
BRANCH   3   6
ATOM      6  C   UNL A   1      42.604  27.567  36.411  1.00  0.00     0.110 C 
BRANCH   6   7
ATOM      7  C   UNL A   1      42.161  28.059  35.038  1.00  0.00     0.112 C 
BRANCH   7   8
ATOM      8  C   UNL A   1      41.131  29.121  35.211  1.00  0.00     0.243 C 
ATOM      9  O   UNL A   1      40.607  29.382  36.285  1.00  0.00    -0.273 OA
BRANCH   8  10
ATOM     10  N   UNL A   1      40.790  29.651  33.988  1.00  0.00    -0.225 N 
ATOM     11  C   UNL A   1      39.867  29.192  31.242  1.00  0.00     0.071 C 
ATOM     12  N   UNL A   1      39.931  28.487  32.699  1.00  0.00    -0.174 NA
ATOM     13  C   UNL A   1      40.896  30.847  31.156  1.00  0.00     0.091 C 
ATOM     14  C   UNL A   1      41.385  31.250  33.009  1.00  0.00     0.149 C 
BRANCH  11  15
ATOM     15  C   UNL A   1      38.872  29.127  30.166  1.00  0.00    -0.002 A 
ATOM     16  C   UNL A   1      37.145  29.978  28.337  1.00  0.00     0.118 A 
ATOM     17  C   UNL A   1      38.423  29.727  27.890  1.00  0.00     0.047 A 
ATOM     18  C   UNL A   1      36.672  29.224  29.429  1.00  0.00     0.047 A 
ATOM     19  C   UNL A   1      39.296  29.224  28.824  1.00  0.00     0.014 A 
ATOM     20  C   UNL A   1      37.553  28.919  30.446  1.00  0.00     0.014 A 
BRANCH  16  21
ATOM     21  O   UNL A   1      36.672  31.259  27.887  1.00  0.00    -0.497 OA
ATOM     22  C   UNL A   1      36.048  33.152  28.015  1.00  0.00     0.278 C 
ENDBRANCH  16  21
ENDBRANCH  11  15
BRANCH  14  23
ATOM     23  C   UNL A   1      41.183  32.775  33.327  1.00  0.00    -0.004 A 
ATOM     24  C   UNL A   1      42.225  33.484  33.973  1.00  0.00     0.009 A 
ATOM     25  C   UNL A   1      39.887  33.352  33.471  1.00  0.00     0.047 A 
ATOM     26  C   UNL A   1      41.993  34.636  34.742  1.00  0.00     0.021 A 
ATOM     27  C   UNL A   1      39.679  34.566  34.149  1.00  0.00     0.041 A 
ATOM     28  Cl  UNL A   1      38.399  32.544  33.106  1.00  0.00    -0.084 Cl
ATOM     29  C   UNL A   1      40.723  35.183  34.812  1.00  0.00     0.042 A 
ATOM     30  Cl  UNL A   1      40.425  36.567  35.784  1.00  0.00    -0.084 Cl
ENDBRANCH  14  23
ENDBRANCH   8  10
ENDBRANCH   7   8
ENDBRANCH   6   7
ENDBRANCH   3   6
ENDBRANCH   1   2
BRANCH   1  31
ATOM     31  C   UNL A   1      45.339  23.441  38.949  1.00  0.00     0.023 C 
BRANCH  31  32
ATOM     32  C   UNL A   1      46.894  22.718  38.076  1.00  0.00     0.023 C 
BRANCH  32  33
ATOM     33  C   UNL A   1      47.098  21.103  37.727  1.00  0.00     0.116 C 
BRANCH  33  34
ATOM     34  N   UNL A   1      46.105  20.336  36.979  1.00  0.00    -0.352 N 
ATOM     35  C   UNL A   1      45.671  20.599  35.678  1.00  0.00     0.251 C 
ATOM     36  H   UNL A   1      45.704  19.560  37.436  1.00  0.00     0.163 HD
ATOM     37  O   UNL A   1      45.324  19.678  34.938  1.00  0.00    -0.269 OA
BRANCH  35  38
ATOM     38  C   UNL A   1      45.447  21.971  35.162  1.00  0.00     0.039 A 
ATOM     39  C   UNL A   1      46.932  22.841  34.633  1.00  0.00     0.014 A 
ATOM     40  C   UNL A   1      43.859  22.811  35.129  1.00  0.00     0.014 A 
ATOM     41  C   UNL A   1      46.838  24.510  33.977  1.00  0.00     0.010 A 
ATOM     42  C   UNL A   1      43.747  24.524  34.488  1.00  0.00     0.010 A 
ATOM     43  C   UNL A   1      45.239  25.357  33.840  1.00  0.00    -0.014 A 
BRANCH  43  44
ATOM     44  C   UNL A   1      45.177  26.615  33.043  1.00  0.00     0.031 A 
ATOM     45  C   UNL A   1      44.776  26.545  31.605  1.00  0.00     0.074 A 
ATOM     46  C   UNL A   1      45.507  27.808  33.596  1.00  0.00     0.049 A 
ATOM     47  N   UNL A   1      44.593  27.514  30.748  1.00  0.00    -0.248 NA
ATOM     48  C   UNL A   1      44.583  25.204  31.036  1.00  0.00     0.031 C 
ATOM     49  C   UNL A   1      46.025  28.024  34.952  1.00  0.00     0.029 A 
ATOM     50  N   UNL A   1      45.452  29.089  33.087  1.00  0.00    -0.354 N 
ATOM     51  C   UNL A   1      44.252  26.890  29.557  1.00  0.00     0.074 A 
ATOM     52  C   UNL A   1      44.400  25.471  29.756  1.00  0.00     0.031 C 
ATOM     53  C   UNL A   1      46.185  29.336  35.183  1.00  0.00     0.029 A 
ATOM     54  C   UNL A   1      45.807  30.072  33.987  1.00  0.00     0.049 A 
ATOM     55  H   UNL A   1      45.184  29.285  32.159  1.00  0.00     0.167 HD
ATOM     56  C   UNL A   1      43.773  27.439  28.420  1.00  0.00     0.037 A 
ATOM     57  C   UNL A   1      45.807  31.417  33.874  1.00  0.00     0.037 A 
ATOM     58  C   UNL A   1      43.615  28.851  28.234  1.00  0.00     0.049 A 
ATOM     59  C   UNL A   1      45.316  32.015  32.581  1.00  0.00     0.074 A 
ATOM     60  C   UNL A   1      43.117  29.526  27.138  1.00  0.00     0.029 A 
ATOM     61  N   UNL A   1      43.975  29.806  29.174  1.00  0.00    -0.354 N 
ATOM     62  N   UNL A   1      44.876  31.406  31.505  1.00  0.00    -0.248 NA
ATOM     63  C   UNL A   1      45.302  33.481  32.487  1.00  0.00     0.031 C 
ATOM     64  C   UNL A   1      43.245  30.896  27.386  1.00  0.00     0.029 A 
ATOM     65  C   UNL A   1      43.748  31.071  28.666  1.00  0.00     0.049 A 
ATOM     66  H   UNL A   1      44.336  29.612  30.069  1.00  0.00     0.167 HD
ATOM     67  C   UNL A   1      44.501  32.409  30.624  1.00  0.00     0.074 A 
ATOM     68  C   UNL A   1      44.746  33.667  31.299  1.00  0.00     0.031 C 
ATOM     69  C   UNL A   1      43.998  32.304  29.369  1.00  0.00     0.037 A 
BRANCH  56  70
ATOM     70  C   UNL A   1      43.389  26.492  27.321  1.00  0.00     0.057 A 
ATOM     71  C   UNL A   1      42.111  25.916  27.253  1.00  0.00     0.134 A 
ATOM     72  C   UNL A   1      44.318  26.116  26.346  1.00  0.00     0.134 A 
ATOM     73  F   UNL A   1      41.180  26.212  28.174  1.00  0.00    -0.206 F 
ATOM     74  C   UNL A   1      41.788  24.963  26.286  1.00  0.00     0.040 A 
ATOM     75  C   UNL A   1      43.995  25.192  25.351  1.00  0.00     0.040 A 
ATOM     76  F   UNL A   1      45.560  26.624  26.355  1.00  0.00    -0.206 F 
ATOM     77  C   UNL A   1      42.732  24.603  25.329  1.00  0.00     0.006 A 
ENDBRANCH  56  70
BRANCH  57  78
ATOM     78  C   UNL A   1      46.232  32.294  35.006  1.00  0.00     0.057 A 
ATOM     79  C   UNL A   1      45.356  32.614  36.054  1.00  0.00     0.134 A 
ATOM     80  C   UNL A   1      47.508  32.871  35.052  1.00  0.00     0.134 A 
ATOM     81  F   UNL A   1      44.112  32.113  36.069  1.00  0.00    -0.206 F 
ATOM     82  C   UNL A   1      45.717  33.495  37.078  1.00  0.00     0.040 A 
ATOM     83  C   UNL A   1      47.893  33.730  36.086  1.00  0.00     0.040 A 
ATOM     84  F   UNL A   1      48.405  32.607  34.091  1.00  0.00    -0.206 F 
ATOM     85  C   UNL A   1      46.992  34.056  37.097  1.00  0.00     0.006 A 
ENDBRANCH  57  78
BRANCH  69  86
ATOM     86  C   UNL A   1      43.650  33.578  28.658  1.00  0.00     0.057 A 
ATOM     87  C   UNL A   1      42.489  34.301  28.956  1.00  0.00     0.134 A 
ATOM     88  C   UNL A   1      44.533  34.122  27.715  1.00  0.00     0.134 A 
ATOM     89  F   UNL A   1      41.602  33.827  29.844  1.00  0.00    -0.206 F 
ATOM     90  C   UNL A   1      42.205  35.510  28.322  1.00  0.00     0.040 A 
ATOM     91  C   UNL A   1      44.278  35.349  27.105  1.00  0.00     0.040 A 
ATOM     92  F   UNL A   1      45.671  33.487  27.398  1.00  0.00    -0.206 F 
ATOM     93  C   UNL A   1      43.107  36.042  27.403  1.00  0.00     0.006 A 
ENDBRANCH  69  86
ENDBRANCH  43  44
ENDBRANCH  35  38
ENDBRANCH  33  34
ENDBRANCH  32  33
ENDBRANCH  31  32
ENDBRANCH   1  31
TORSDOF 17
ENDMDL
