MODEL 1
REMARK VINA RESULT:     -10.0      0.000      0.000
REMARK SMILES Nc1ccc([C@H]([NH3+])C(=O)NCCCCNC(=O)c2ccc(-c3c4nc(c(-c5c(F)cccc5F)c5ccc([nH]5)c(-c5c(F)cccc5F)c5nc(c(-c6c(F)cccc6F)c6ccc3[nH]6)C=C5)C=C4)cc2)cc1C(F)(F)F
REMARK SMILES IDX 12 1 11 2 10 3 8 4 9 5 6 7 5 8 2 9 3 10 73 11 4 12 72 13
REMARK SMILES IDX 1 14 74 17 75 18 76 19 77 20 7 21 13 25 14 26 15 27 16 28
REMARK SMILES IDX 17 30 18 31 19 32 71 33 20 34 70 35 21 36 22 37 23 38 64 39
REMARK SMILES IDX 24 40 69 41 63 42 65 43 25 44 68 45 62 46 61 47 26 49 52 50
REMARK SMILES IDX 35 51 51 52 36 53 39 54 50 55 66 56 37 57 38 58 49 60 67 61
REMARK SMILES IDX 40 62 27 63 28 64 33 65 29 66 30 67 32 68 34 69 31 70 53 71
REMARK SMILES IDX 54 72 59 73 55 74 56 75 58 76 60 77 57 78 41 79 42 80 47 81
REMARK SMILES IDX 43 82 44 83 46 84 48 85 45 86
REMARK H PARENT 10 6 1 15 1 16 7 22 7 23 7 24 15 29 65 48 39 59
REMARK Flexibility Score: inf
ROOT
ATOM      1  C   UNL A   1      33.885  37.331  32.178  1.00  0.00     0.023 C 
ENDROOT
BRANCH   1   2
ATOM      2  C   UNL A   1      34.045  36.425  33.391  1.00  0.00     0.116 C 
BRANCH   2   3
ATOM      3  N   UNL A   1      33.957  35.007  33.074  1.00  0.00    -0.351 N 
ATOM      4  C   UNL A   1      34.641  33.944  33.605  1.00  0.00     0.283 C 
ATOM      5  O   UNL A   1      34.270  32.815  33.263  1.00  0.00    -0.268 OA
ATOM      6  H   UNL A   1      33.308  34.777  32.370  1.00  0.00     0.163 HD
BRANCH   4   7
ATOM      7  C   UNL A   1      35.822  34.116  34.600  1.00  0.00     0.302 C 
BRANCH   7   8
ATOM      8  C   UNL A   1      36.913  33.056  34.548  1.00  0.00     0.020 A 
ATOM      9  C   UNL A   1      38.683  30.832  34.745  1.00  0.00     0.044 A 
ATOM     10  C   UNL A   1      38.715  31.875  35.680  1.00  0.00     0.026 A 
ATOM     11  C   UNL A   1      37.762  30.912  33.697  1.00  0.00     0.079 A 
ATOM     12  C   UNL A   1      37.836  32.961  35.597  1.00  0.00     0.012 A 
ATOM     13  C   UNL A   1      36.960  32.063  33.570  1.00  0.00     0.025 A 
BRANCH   9  14
ATOM     14  N   UNL A   1      39.465  29.711  34.969  1.00  0.00    -0.398 N 
ATOM     15  H   UNL A   1      39.201  29.055  35.654  1.00  0.00     0.156 HD
ATOM     16  H   UNL A   1      40.286  29.570  34.442  1.00  0.00     0.156 HD
ENDBRANCH   9  14
BRANCH  11  17
ATOM     17  C   UNL A   1      37.480  29.786  32.733  1.00  0.00     0.418 C 
ATOM     18  F   UNL A   1      38.587  29.463  32.002  1.00  0.00    -0.166 F 
ATOM     19  F   UNL A   1      37.122  28.631  33.367  1.00  0.00    -0.166 F 
ATOM     20  F   UNL A   1      36.493  30.031  31.826  1.00  0.00    -0.166 F 
ENDBRANCH  11  17
ENDBRANCH   7   8
BRANCH   7  21
ATOM     21  N   UNL A   1      35.315  34.272  35.982  1.00  0.00    -0.343 N 
ATOM     22  H   UNL A   1      36.093  34.474  36.609  1.00  0.00     0.345 HD
ATOM     23  H   UNL A   1      34.857  33.409  36.277  1.00  0.00     0.345 HD
ATOM     24  H   UNL A   1      34.645  35.041  36.014  1.00  0.00     0.345 HD
ENDBRANCH   7  21
ENDBRANCH   4   7
ENDBRANCH   2   3
ENDBRANCH   1   2
BRANCH   1  25
ATOM     25  C   UNL A   1      32.924  36.813  31.107  1.00  0.00     0.023 C 
BRANCH  25  26
ATOM     26  C   UNL A   1      33.528  36.551  29.730  1.00  0.00     0.116 C 
BRANCH  26  27
ATOM     27  N   UNL A   1      32.729  35.659  28.906  1.00  0.00    -0.352 N 
ATOM     28  C   UNL A   1      33.051  34.434  28.371  1.00  0.00     0.251 C 
ATOM     29  H   UNL A   1      31.821  35.980  28.701  1.00  0.00     0.163 HD
ATOM     30  O   UNL A   1      32.286  33.885  27.588  1.00  0.00    -0.269 OA
BRANCH  28  31
ATOM     31  C   UNL A   1      34.338  33.786  28.714  1.00  0.00     0.039 A 
ATOM     32  C   UNL A   1      35.468  34.091  27.951  1.00  0.00     0.014 A 
ATOM     33  C   UNL A   1      34.433  32.875  29.768  1.00  0.00     0.014 A 
ATOM     34  C   UNL A   1      36.701  33.523  28.279  1.00  0.00     0.010 A 
ATOM     35  C   UNL A   1      35.679  32.380  30.149  1.00  0.00     0.010 A 
ATOM     36  C   UNL A   1      36.823  32.683  29.398  1.00  0.00    -0.014 A 
BRANCH  36  37
ATOM     37  C   UNL A   1      38.136  32.087  29.764  1.00  0.00     0.031 A 
ATOM     38  C   UNL A   1      39.083  32.839  30.663  1.00  0.00     0.074 A 
ATOM     39  C   UNL A   1      38.492  30.886  29.269  1.00  0.00     0.049 A 
ATOM     40  N   UNL A   1      40.272  32.491  31.088  1.00  0.00    -0.248 NA
ATOM     41  C   UNL A   1      38.652  34.170  31.120  1.00  0.00     0.031 C 
ATOM     42  C   UNL A   1      37.692  30.080  28.344  1.00  0.00     0.029 A 
ATOM     43  N   UNL A   1      39.621  30.133  29.473  1.00  0.00    -0.354 N 
ATOM     44  C   UNL A   1      40.730  33.561  31.849  1.00  0.00     0.074 A 
ATOM     45  C   UNL A   1      39.722  34.594  31.774  1.00  0.00     0.031 C 
ATOM     46  C   UNL A   1      38.340  28.932  28.088  1.00  0.00     0.029 A 
ATOM     47  C   UNL A   1      39.613  28.933  28.803  1.00  0.00     0.049 A 
ATOM     48  H   UNL A   1      40.367  30.424  30.046  1.00  0.00     0.167 HD
ATOM     49  C   UNL A   1      41.871  33.663  32.572  1.00  0.00     0.037 A 
ATOM     50  C   UNL A   1      40.527  27.944  28.772  1.00  0.00     0.037 A 
ATOM     51  C   UNL A   1      42.862  32.624  32.669  1.00  0.00     0.049 A 
ATOM     52  C   UNL A   1      41.780  28.076  29.596  1.00  0.00     0.074 A 
ATOM     53  C   UNL A   1      44.028  32.611  33.415  1.00  0.00     0.029 A 
ATOM     54  N   UNL A   1      42.803  31.413  31.997  1.00  0.00    -0.354 N 
ATOM     55  N   UNL A   1      42.164  29.063  30.368  1.00  0.00    -0.248 NA
ATOM     56  C   UNL A   1      42.718  26.946  29.555  1.00  0.00     0.031 C 
ATOM     57  C   UNL A   1      44.697  31.410  33.159  1.00  0.00     0.029 A 
ATOM     58  C   UNL A   1      43.919  30.650  32.301  1.00  0.00     0.049 A 
ATOM     59  H   UNL A   1      42.077  31.135  31.394  1.00  0.00     0.167 HD
ATOM     60  C   UNL A   1      43.365  28.656  30.936  1.00  0.00     0.074 A 
ATOM     61  C   UNL A   1      43.636  27.327  30.431  1.00  0.00     0.031 C 
ATOM     62  C   UNL A   1      44.170  29.322  31.802  1.00  0.00     0.037 A 
BRANCH  49  63
ATOM     63  C   UNL A   1      42.104  34.944  33.322  1.00  0.00     0.057 A 
ATOM     64  C   UNL A   1      41.590  35.152  34.610  1.00  0.00     0.134 A 
ATOM     65  C   UNL A   1      42.880  35.969  32.765  1.00  0.00     0.134 A 
ATOM     66  F   UNL A   1      40.828  34.217  35.197  1.00  0.00    -0.206 F 
ATOM     67  C   UNL A   1      41.816  36.343  35.304  1.00  0.00     0.040 A 
ATOM     68  C   UNL A   1      43.137  37.151  33.462  1.00  0.00     0.040 A 
ATOM     69  F   UNL A   1      43.407  35.836  31.539  1.00  0.00    -0.206 F 
ATOM     70  C   UNL A   1      42.599  37.343  34.732  1.00  0.00     0.006 A 
ENDBRANCH  49  63
BRANCH  50  71
ATOM     71  C   UNL A   1      40.282  26.721  27.962  1.00  0.00     0.057 A 
ATOM     72  C   UNL A   1      39.498  25.671  28.455  1.00  0.00     0.134 A 
ATOM     73  C   UNL A   1      40.849  26.560  26.694  1.00  0.00     0.134 A 
ATOM     74  F   UNL A   1      38.942  25.756  29.673  1.00  0.00    -0.206 F 
ATOM     75  C   UNL A   1      39.314  24.492  27.730  1.00  0.00     0.040 A 
ATOM     76  C   UNL A   1      40.648  25.400  25.945  1.00  0.00     0.040 A 
ATOM     77  F   UNL A   1      41.603  27.533  26.159  1.00  0.00    -0.206 F 
ATOM     78  C   UNL A   1      39.888  24.356  26.468  1.00  0.00     0.006 A 
ENDBRANCH  50  71
BRANCH  62  79
ATOM     79  C   UNL A   1      45.387  28.596  32.302  1.00  0.00     0.057 A 
ATOM     80  C   UNL A   1      46.627  28.682  31.657  1.00  0.00     0.134 A 
ATOM     81  C   UNL A   1      45.314  27.807  33.458  1.00  0.00     0.134 A 
ATOM     82  F   UNL A   1      46.764  29.412  30.539  1.00  0.00    -0.206 F 
ATOM     83  C   UNL A   1      47.739  27.975  32.118  1.00  0.00     0.040 A 
ATOM     84  C   UNL A   1      46.427  27.124  33.949  1.00  0.00     0.040 A 
ATOM     85  F   UNL A   1      44.160  27.692  34.134  1.00  0.00    -0.206 F 
ATOM     86  C   UNL A   1      47.641  27.197  33.270  1.00  0.00     0.006 A 
ENDBRANCH  62  79
ENDBRANCH  36  37
ENDBRANCH  28  31
ENDBRANCH  26  27
ENDBRANCH  25  26
ENDBRANCH   1  25
TORSDOF 15
ENDMDL
MODEL 2
REMARK VINA RESULT:      -9.9      4.779      7.125
REMARK SMILES Nc1ccc([C@H]([NH3+])C(=O)NCCCCNC(=O)c2ccc(-c3c4nc(c(-c5c(F)cccc5F)c5ccc([nH]5)c(-c5c(F)cccc5F)c5nc(c(-c6c(F)cccc6F)c6ccc3[nH]6)C=C5)C=C4)cc2)cc1C(F)(F)F
REMARK SMILES IDX 12 1 11 2 10 3 8 4 9 5 6 7 5 8 2 9 3 10 73 11 4 12 72 13
REMARK SMILES IDX 1 14 74 17 75 18 76 19 77 20 7 21 13 25 14 26 15 27 16 28
REMARK SMILES IDX 17 30 18 31 19 32 71 33 20 34 70 35 21 36 22 37 23 38 64 39
REMARK SMILES IDX 24 40 69 41 63 42 65 43 25 44 68 45 62 46 61 47 26 49 52 50
REMARK SMILES IDX 35 51 51 52 36 53 39 54 50 55 66 56 37 57 38 58 49 60 67 61
REMARK SMILES IDX 40 62 27 63 28 64 33 65 29 66 30 67 32 68 34 69 31 70 53 71
REMARK SMILES IDX 54 72 59 73 55 74 56 75 58 76 60 77 57 78 41 79 42 80 47 81
REMARK SMILES IDX 43 82 44 83 46 84 48 85 45 86
REMARK H PARENT 10 6 1 15 1 16 7 22 7 23 7 24 15 29 65 48 39 59
REMARK Flexibility Score: inf
ROOT
ATOM      1  C   UNL A   1      31.117  30.805  25.536  1.00  0.00     0.023 C 
ENDROOT
BRANCH   1   2
ATOM      2  C   UNL A   1      32.251  29.809  25.738  1.00  0.00     0.116 C 
BRANCH   2   3
ATOM      3  N   UNL A   1      33.137  29.695  24.589  1.00  0.00    -0.351 N 
ATOM      4  C   UNL A   1      33.174  28.747  23.599  1.00  0.00     0.283 C 
ATOM      5  O   UNL A   1      33.936  28.963  22.648  1.00  0.00    -0.268 OA
ATOM      6  H   UNL A   1      33.813  30.407  24.512  1.00  0.00     0.163 HD
BRANCH   4   7
ATOM      7  C   UNL A   1      32.307  27.459  23.635  1.00  0.00     0.302 C 
BRANCH   7   8
ATOM      8  C   UNL A   1      30.827  27.630  23.321  1.00  0.00     0.020 A 
ATOM      9  C   UNL A   1      28.027  28.134  23.163  1.00  0.00     0.044 A 
ATOM     10  C   UNL A   1      28.525  26.962  23.748  1.00  0.00     0.026 A 
ATOM     11  C   UNL A   1      28.942  29.054  22.644  1.00  0.00     0.079 A 
ATOM     12  C   UNL A   1      29.900  26.718  23.844  1.00  0.00     0.012 A 
ATOM     13  C   UNL A   1      30.315  28.741  22.652  1.00  0.00     0.025 A 
BRANCH   9  14
ATOM     14  N   UNL A   1      26.669  28.393  23.240  1.00  0.00    -0.398 N 
ATOM     15  H   UNL A   1      26.293  29.189  22.798  1.00  0.00     0.156 HD
ATOM     16  H   UNL A   1      26.078  27.782  23.738  1.00  0.00     0.156 HD
ENDBRANCH   9  14
BRANCH  11  17
ATOM     17  C   UNL A   1      28.570  30.434  22.162  1.00  0.00     0.418 C 
ATOM     18  F   UNL A   1      27.813  30.382  21.026  1.00  0.00    -0.166 F 
ATOM     19  F   UNL A   1      27.809  31.118  23.066  1.00  0.00    -0.166 F 
ATOM     20  F   UNL A   1      29.621  31.251  21.871  1.00  0.00    -0.166 F 
ENDBRANCH  11  17
ENDBRANCH   7   8
BRANCH   7  21
ATOM     21  N   UNL A   1      32.487  26.750  24.922  1.00  0.00    -0.343 N 
ATOM     22  H   UNL A   1      33.229  26.056  24.826  1.00  0.00     0.345 HD
ATOM     23  H   UNL A   1      31.617  26.283  25.179  1.00  0.00     0.345 HD
ATOM     24  H   UNL A   1      32.741  27.420  25.647  1.00  0.00     0.345 HD
ENDBRANCH   7  21
ENDBRANCH   4   7
ENDBRANCH   2   3
ENDBRANCH   1   2
BRANCH   1  25
ATOM     25  C   UNL A   1      31.065  31.942  26.557  1.00  0.00     0.023 C 
BRANCH  25  26
ATOM     26  C   UNL A   1      32.410  32.520  26.989  1.00  0.00     0.116 C 
BRANCH  26  27
ATOM     27  N   UNL A   1      32.325  33.891  27.464  1.00  0.00    -0.352 N 
ATOM     28  C   UNL A   1      33.093  34.544  28.400  1.00  0.00     0.251 C 
ATOM     29  H   UNL A   1      31.613  34.433  27.055  1.00  0.00     0.163 HD
ATOM     30  O   UNL A   1      32.787  35.672  28.768  1.00  0.00    -0.269 OA
BRANCH  28  31
ATOM     31  C   UNL A   1      34.275  33.877  28.992  1.00  0.00     0.039 A 
ATOM     32  C   UNL A   1      34.077  32.779  29.831  1.00  0.00     0.014 A 
ATOM     33  C   UNL A   1      35.570  34.334  28.735  1.00  0.00     0.014 A 
ATOM     34  C   UNL A   1      35.178  32.108  30.370  1.00  0.00     0.010 A 
ATOM     35  C   UNL A   1      36.667  33.611  29.199  1.00  0.00     0.010 A 
ATOM     36  C   UNL A   1      36.484  32.502  30.037  1.00  0.00    -0.014 A 
BRANCH  36  37
ATOM     37  C   UNL A   1      37.663  31.783  30.592  1.00  0.00     0.031 A 
ATOM     38  C   UNL A   1      38.126  32.065  31.998  1.00  0.00     0.074 A 
ATOM     39  C   UNL A   1      38.334  30.900  29.827  1.00  0.00     0.049 A 
ATOM     40  N   UNL A   1      39.133  31.548  32.655  1.00  0.00    -0.248 NA
ATOM     41  C   UNL A   1      37.378  33.082  32.753  1.00  0.00     0.031 C 
ATOM     42  C   UNL A   1      38.024  30.578  28.433  1.00  0.00     0.029 A 
ATOM     43  N   UNL A   1      39.420  30.112  30.116  1.00  0.00    -0.354 N 
ATOM     44  C   UNL A   1      39.145  32.184  33.891  1.00  0.00     0.074 A 
ATOM     45  C   UNL A   1      38.087  33.170  33.869  1.00  0.00     0.031 C 
ATOM     46  C   UNL A   1      38.877  29.637  27.999  1.00  0.00     0.029 A 
ATOM     47  C   UNL A   1      39.814  29.311  29.070  1.00  0.00     0.049 A 
ATOM     48  H   UNL A   1      39.874  30.119  30.990  1.00  0.00     0.167 HD
ATOM     49  C   UNL A   1      39.941  31.949  34.961  1.00  0.00     0.037 A 
ATOM     50  C   UNL A   1      40.814  28.413  28.987  1.00  0.00     0.037 A 
ATOM     51  C   UNL A   1      40.977  30.950  34.994  1.00  0.00     0.049 A 
ATOM     52  C   UNL A   1      41.676  28.160  30.196  1.00  0.00     0.074 A 
ATOM     53  C   UNL A   1      41.805  30.601  36.047  1.00  0.00     0.029 A 
ATOM     54  N   UNL A   1      41.326  30.141  33.925  1.00  0.00    -0.354 N 
ATOM     55  N   UNL A   1      41.627  28.718  31.381  1.00  0.00    -0.248 NA
ATOM     56  C   UNL A   1      42.723  27.138  30.057  1.00  0.00     0.031 C 
ATOM     57  C   UNL A   1      42.686  29.611  35.599  1.00  0.00     0.029 A 
ATOM     58  C   UNL A   1      42.366  29.301  34.287  1.00  0.00     0.049 A 
ATOM     59  H   UNL A   1      40.898  30.159  33.038  1.00  0.00     0.167 HD
ATOM     60  C   UNL A   1      42.605  28.087  32.139  1.00  0.00     0.074 A 
ATOM     61  C   UNL A   1      43.220  27.095  31.284  1.00  0.00     0.031 C 
ATOM     62  C   UNL A   1      42.960  28.307  33.430  1.00  0.00     0.037 A 
BRANCH  49  63
ATOM     63  C   UNL A   1      39.718  32.785  36.189  1.00  0.00     0.057 A 
ATOM     64  C   UNL A   1      40.430  33.972  36.418  1.00  0.00     0.134 A 
ATOM     65  C   UNL A   1      38.757  32.419  37.140  1.00  0.00     0.134 A 
ATOM     66  F   UNL A   1      41.374  34.375  35.554  1.00  0.00    -0.206 F 
ATOM     67  C   UNL A   1      40.213  34.748  37.558  1.00  0.00     0.040 A 
ATOM     68  C   UNL A   1      38.510  33.202  38.269  1.00  0.00     0.040 A 
ATOM     69  F   UNL A   1      38.035  31.299  36.984  1.00  0.00    -0.206 F 
ATOM     70  C   UNL A   1      39.244  34.367  38.484  1.00  0.00     0.006 A 
ENDBRANCH  49  63
BRANCH  50  71
ATOM     71  C   UNL A   1      41.039  27.655  27.729  1.00  0.00     0.057 A 
ATOM     72  C   UNL A   1      40.480  26.386  27.537  1.00  0.00     0.134 A 
ATOM     73  C   UNL A   1      41.842  28.166  26.703  1.00  0.00     0.134 A 
ATOM     74  F   UNL A   1      39.717  25.833  28.492  1.00  0.00    -0.206 F 
ATOM     75  C   UNL A   1      40.737  25.638  26.386  1.00  0.00     0.040 A 
ATOM     76  C   UNL A   1      42.081  27.443  25.533  1.00  0.00     0.040 A 
ATOM     77  F   UNL A   1      42.399  29.381  26.819  1.00  0.00    -0.206 F 
ATOM     78  C   UNL A   1      41.538  26.169  25.378  1.00  0.00     0.006 A 
ENDBRANCH  50  71
BRANCH  62  79
ATOM     79  C   UNL A   1      44.022  27.416  34.010  1.00  0.00     0.057 A 
ATOM     80  C   UNL A   1      45.382  27.744  33.962  1.00  0.00     0.134 A 
ATOM     81  C   UNL A   1      43.671  26.213  34.637  1.00  0.00     0.134 A 
ATOM     82  F   UNL A   1      45.789  28.877  33.367  1.00  0.00    -0.206 F 
ATOM     83  C   UNL A   1      46.358  26.889  34.478  1.00  0.00     0.040 A 
ATOM     84  C   UNL A   1      44.633  25.366  35.187  1.00  0.00     0.040 A 
ATOM     85  F   UNL A   1      42.383  25.843  34.730  1.00  0.00    -0.206 F 
ATOM     86  C   UNL A   1      45.983  25.698  35.097  1.00  0.00     0.006 A 
ENDBRANCH  62  79
ENDBRANCH  36  37
ENDBRANCH  28  31
ENDBRANCH  26  27
ENDBRANCH  25  26
ENDBRANCH   1  25
TORSDOF 15
ENDMDL
MODEL 3
REMARK VINA RESULT:      -9.8      4.791      7.234
REMARK SMILES Nc1ccc([C@H]([NH3+])C(=O)NCCCCNC(=O)c2ccc(-c3c4nc(c(-c5c(F)cccc5F)c5ccc([nH]5)c(-c5c(F)cccc5F)c5nc(c(-c6c(F)cccc6F)c6ccc3[nH]6)C=C5)C=C4)cc2)cc1C(F)(F)F
REMARK SMILES IDX 12 1 11 2 10 3 8 4 9 5 6 7 5 8 2 9 3 10 73 11 4 12 72 13
REMARK SMILES IDX 1 14 74 17 75 18 76 19 77 20 7 21 13 25 14 26 15 27 16 28
REMARK SMILES IDX 17 30 18 31 19 32 71 33 20 34 70 35 21 36 22 37 23 38 64 39
REMARK SMILES IDX 24 40 69 41 63 42 65 43 25 44 68 45 62 46 61 47 26 49 52 50
REMARK SMILES IDX 35 51 51 52 36 53 39 54 50 55 66 56 37 57 38 58 49 60 67 61
REMARK SMILES IDX 40 62 27 63 28 64 33 65 29 66 30 67 32 68 34 69 31 70 53 71
REMARK SMILES IDX 54 72 59 73 55 74 56 75 58 76 60 77 57 78 41 79 42 80 47 81
REMARK SMILES IDX 43 82 44 83 46 84 48 85 45 86
REMARK H PARENT 10 6 1 15 1 16 7 22 7 23 7 24 15 29 65 48 39 59
REMARK Flexibility Score: inf
ROOT
ATOM      1  C   UNL A   1      31.595  30.477  26.166  1.00  0.00     0.023 C 
ENDROOT
BRANCH   1   2
ATOM      2  C   UNL A   1      33.036  30.070  25.892  1.00  0.00     0.116 C 
BRANCH   2   3
ATOM      3  N   UNL A   1      33.198  28.649  25.619  1.00  0.00    -0.351 N 
ATOM      4  C   UNL A   1      33.076  27.963  24.438  1.00  0.00     0.283 C 
ATOM      5  O   UNL A   1      33.412  26.772  24.448  1.00  0.00    -0.268 OA
ATOM      6  H   UNL A   1      33.428  28.097  26.401  1.00  0.00     0.163 HD
BRANCH   4   7
ATOM      7  C   UNL A   1      32.555  28.623  23.131  1.00  0.00     0.302 C 
BRANCH   7   8
ATOM      8  C   UNL A   1      31.054  28.551  22.888  1.00  0.00     0.020 A 
ATOM      9  C   UNL A   1      28.206  28.580  22.868  1.00  0.00     0.044 A 
ATOM     10  C   UNL A   1      28.920  27.491  23.384  1.00  0.00     0.026 A 
ATOM     11  C   UNL A   1      28.927  29.657  22.349  1.00  0.00     0.079 A 
ATOM     12  C   UNL A   1      30.319  27.479  23.412  1.00  0.00     0.012 A 
ATOM     13  C   UNL A   1      30.332  29.581  22.287  1.00  0.00     0.025 A 
BRANCH   9  14
ATOM     14  N   UNL A   1      26.828  28.603  23.014  1.00  0.00    -0.398 N 
ATOM     15  H   UNL A   1      26.298  29.307  22.574  1.00  0.00     0.156 HD
ATOM     16  H   UNL A   1      26.379  27.915  23.557  1.00  0.00     0.156 HD
ENDBRANCH   9  14
BRANCH  11  17
ATOM     17  C   UNL A   1      28.307  30.970  21.939  1.00  0.00     0.418 C 
ATOM     18  F   UNL A   1      27.681  30.873  20.728  1.00  0.00    -0.166 F 
ATOM     19  F   UNL A   1      27.339  31.386  22.807  1.00  0.00    -0.166 F 
ATOM     20  F   UNL A   1      29.175  32.014  21.826  1.00  0.00    -0.166 F 
ENDBRANCH  11  17
ENDBRANCH   7   8
BRANCH   7  21
ATOM     21  N   UNL A   1      33.297  28.105  21.960  1.00  0.00    -0.343 N 
ATOM     22  H   UNL A   1      33.436  27.099  22.062  1.00  0.00     0.345 HD
ATOM     23  H   UNL A   1      34.204  28.568  21.898  1.00  0.00     0.345 HD
ATOM     24  H   UNL A   1      32.763  28.289  21.110  1.00  0.00     0.345 HD
ENDBRANCH   7  21
ENDBRANCH   4   7
ENDBRANCH   2   3
ENDBRANCH   1   2
BRANCH   1  25
ATOM     25  C   UNL A   1      31.407  31.926  26.619  1.00  0.00     0.023 C 
BRANCH  25  26
ATOM     26  C   UNL A   1      32.684  32.715  26.896  1.00  0.00     0.116 C 
BRANCH  26  27
ATOM     27  N   UNL A   1      32.446  33.992  27.548  1.00  0.00    -0.352 N 
ATOM     28  C   UNL A   1      33.096  34.568  28.615  1.00  0.00     0.251 C 
ATOM     29  H   UNL A   1      31.709  34.525  27.169  1.00  0.00     0.163 HD
ATOM     30  O   UNL A   1      32.666  35.602  29.112  1.00  0.00    -0.269 OA
BRANCH  28  31
ATOM     31  C   UNL A   1      34.301  33.925  29.188  1.00  0.00     0.039 A 
ATOM     32  C   UNL A   1      34.135  32.895  30.116  1.00  0.00     0.014 A 
ATOM     33  C   UNL A   1      35.585  34.340  28.827  1.00  0.00     0.014 A 
ATOM     34  C   UNL A   1      35.256  32.247  30.642  1.00  0.00     0.010 A 
ATOM     35  C   UNL A   1      36.697  33.635  29.283  1.00  0.00     0.010 A 
ATOM     36  C   UNL A   1      36.546  32.593  30.209  1.00  0.00    -0.014 A 
BRANCH  36  37
ATOM     37  C   UNL A   1      37.745  31.897  30.751  1.00  0.00     0.031 A 
ATOM     38  C   UNL A   1      38.261  32.240  32.124  1.00  0.00     0.074 A 
ATOM     39  C   UNL A   1      38.386  30.979  30.001  1.00  0.00     0.049 A 
ATOM     40  N   UNL A   1      39.292  31.750  32.765  1.00  0.00    -0.248 NA
ATOM     41  C   UNL A   1      37.544  33.291  32.862  1.00  0.00     0.031 C 
ATOM     42  C   UNL A   1      38.023  30.596  28.636  1.00  0.00     0.029 A 
ATOM     43  N   UNL A   1      39.482  30.202  30.283  1.00  0.00    -0.354 N 
ATOM     44  C   UNL A   1      39.351  32.440  33.971  1.00  0.00     0.074 A 
ATOM     45  C   UNL A   1      38.294  33.426  33.944  1.00  0.00     0.031 C 
ATOM     46  C   UNL A   1      38.859  29.635  28.212  1.00  0.00     0.029 A 
ATOM     47  C   UNL A   1      39.835  29.355  29.260  1.00  0.00     0.049 A 
ATOM     48  H   UNL A   1      39.968  30.247  31.138  1.00  0.00     0.167 HD
ATOM     49  C   UNL A   1      40.188  32.251  35.019  1.00  0.00     0.037 A 
ATOM     50  C   UNL A   1      40.831  28.451  29.179  1.00  0.00     0.037 A 
ATOM     51  C   UNL A   1      41.223  31.252  35.057  1.00  0.00     0.049 A 
ATOM     52  C   UNL A   1      41.737  28.251  30.364  1.00  0.00     0.074 A 
ATOM     53  C   UNL A   1      42.091  30.947  36.092  1.00  0.00     0.029 A 
ATOM     54  N   UNL A   1      41.531  30.395  34.012  1.00  0.00    -0.354 N 
ATOM     55  N   UNL A   1      41.734  28.861  31.524  1.00  0.00    -0.248 NA
ATOM     56  C   UNL A   1      42.778  27.221  30.231  1.00  0.00     0.031 C 
ATOM     57  C   UNL A   1      42.953  29.936  35.656  1.00  0.00     0.029 A 
ATOM     58  C   UNL A   1      42.583  29.569  34.372  1.00  0.00     0.049 A 
ATOM     59  H   UNL A   1      41.069  30.375  33.142  1.00  0.00     0.167 HD
ATOM     60  C   UNL A   1      42.739  28.261  32.272  1.00  0.00     0.074 A 
ATOM     61  C   UNL A   1      43.321  27.230  31.439  1.00  0.00     0.031 C 
ATOM     62  C   UNL A   1      43.144  28.537  33.537  1.00  0.00     0.037 A 
BRANCH  49  63
ATOM     63  C   UNL A   1      40.011  33.141  36.217  1.00  0.00     0.057 A 
ATOM     64  C   UNL A   1      40.709  34.351  36.350  1.00  0.00     0.134 A 
ATOM     65  C   UNL A   1      39.110  32.803  37.234  1.00  0.00     0.134 A 
ATOM     66  F   UNL A   1      41.597  34.730  35.418  1.00  0.00    -0.206 F 
ATOM     67  C   UNL A   1      40.536  35.177  37.462  1.00  0.00     0.040 A 
ATOM     68  C   UNL A   1      38.907  33.635  38.336  1.00  0.00     0.040 A 
ATOM     69  F   UNL A   1      38.406  31.663  37.170  1.00  0.00    -0.206 F 
ATOM     70  C   UNL A   1      39.625  34.822  38.456  1.00  0.00     0.006 A 
ENDBRANCH  49  63
BRANCH  50  71
ATOM     71  C   UNL A   1      41.007  27.638  27.947  1.00  0.00     0.057 A 
ATOM     72  C   UNL A   1      41.779  28.105  26.876  1.00  0.00     0.134 A 
ATOM     73  C   UNL A   1      40.386  26.394  27.799  1.00  0.00     0.134 A 
ATOM     74  F   UNL A   1      42.384  29.300  26.949  1.00  0.00    -0.206 F 
ATOM     75  C   UNL A   1      41.900  27.379  25.690  1.00  0.00     0.040 A 
ATOM     76  C   UNL A   1      40.524  25.643  26.630  1.00  0.00     0.040 A 
ATOM     77  F   UNL A   1      39.641  25.884  28.791  1.00  0.00    -0.206 F 
ATOM     78  C   UNL A   1      41.274  26.141  25.566  1.00  0.00     0.006 A 
ENDBRANCH  50  71
BRANCH  62  79
ATOM     79  C   UNL A   1      44.226  27.670  34.116  1.00  0.00     0.057 A 
ATOM     80  C   UNL A   1      43.949  26.460  34.763  1.00  0.00     0.134 A 
ATOM     81  C   UNL A   1      45.570  28.054  34.013  1.00  0.00     0.134 A 
ATOM     82  F   UNL A   1      42.683  26.038  34.906  1.00  0.00    -0.206 F 
ATOM     83  C   UNL A   1      44.965  25.683  35.323  1.00  0.00     0.040 A 
ATOM     84  C   UNL A   1      46.597  27.269  34.538  1.00  0.00     0.040 A 
ATOM     85  F   UNL A   1      45.908  29.196  33.393  1.00  0.00    -0.206 F 
ATOM     86  C   UNL A   1      46.294  26.085  35.207  1.00  0.00     0.006 A 
ENDBRANCH  62  79
ENDBRANCH  36  37
ENDBRANCH  28  31
ENDBRANCH  26  27
ENDBRANCH  25  26
ENDBRANCH   1  25
TORSDOF 15
ENDMDL
