MODEL 1
REMARK VINA RESULT:     -11.9      0.000      0.000
REMARK SMILES O=C(NCCCCNC(=O)[C@@H]1C=C[C@H](NS(=O)(=O)c2ccc(Cl)cc2)C1)c1ccc(-c2c3nc(c(-c4c(F)cccc4F)c4ccc([nH]4)c(-c4c(F)cccc4F)c4nc(c(-c5c(F)cccc5F)c5ccc2[nH]5)C=C4)C=C3)cc1
REMARK SMILES IDX 6 1 5 2 4 3 3 4 1 5 2 6 27 8 28 9 80 10 29 11 79 12 30 13
REMARK SMILES IDX 31 14 32 15 73 16 33 17 78 18 72 19 74 20 34 21 77 22 71 23
REMARK SMILES IDX 70 24 35 26 61 27 44 28 60 29 45 30 48 31 59 32 75 33 46 34
REMARK SMILES IDX 47 35 58 37 76 38 49 39 36 40 37 41 42 42 38 43 39 44 41 45
REMARK SMILES IDX 43 46 40 47 62 48 63 49 68 50 64 51 65 52 67 53 69 54 66 55
REMARK SMILES IDX 50 56 51 57 56 58 52 59 53 60 55 61 57 62 54 63 7 64 8 65
REMARK SMILES IDX 9 66 10 68 11 69 12 70 26 71 13 72 14 73 15 74 16 76 17 77
REMARK SMILES IDX 18 78 19 79 20 80 25 81 21 82 24 83 22 84 23 85
REMARK H PARENT 3 7 74 25 48 36 8 67 15 75
REMARK Flexibility Score: inf
ROOT
ATOM      1  C   UNL A   1      31.630  30.676  26.236  1.00  0.00     0.023 C 
ENDROOT
BRANCH   1   2
ATOM      2  C   UNL A   1      31.443  32.165  26.551  1.00  0.00     0.023 C 
BRANCH   2   3
ATOM      3  C   UNL A   1      32.625  32.828  27.247  1.00  0.00     0.116 C 
BRANCH   3   4
ATOM      4  N   UNL A   1      32.344  34.198  27.652  1.00  0.00    -0.352 N 
ATOM      5  O   UNL A   1      32.486  36.061  28.912  1.00  0.00    -0.269 OA
ATOM      6  C   UNL A   1      32.961  34.974  28.601  1.00  0.00     0.251 C 
ATOM      7  H   UNL A   1      31.599  34.631  27.175  1.00  0.00     0.163 HD
BRANCH   6   8
ATOM      8  C   UNL A   1      34.183  34.480  29.266  1.00  0.00     0.039 A 
ATOM      9  C   UNL A   1      35.431  34.635  28.660  1.00  0.00     0.014 A 
ATOM     10  C   UNL A   1      34.073  33.833  30.500  1.00  0.00     0.014 A 
ATOM     11  C   UNL A   1      36.540  34.000  29.203  1.00  0.00     0.010 A 
ATOM     12  C   UNL A   1      35.208  33.274  31.091  1.00  0.00     0.010 A 
ATOM     13  C   UNL A   1      36.443  33.313  30.424  1.00  0.00    -0.014 A 
BRANCH  13  14
ATOM     14  C   UNL A   1      37.652  32.663  30.989  1.00  0.00     0.031 A 
ATOM     15  C   UNL A   1      38.234  33.113  32.301  1.00  0.00     0.074 A 
ATOM     16  C   UNL A   1      38.202  31.629  30.324  1.00  0.00     0.049 A 
ATOM     17  N   UNL A   1      39.260  32.630  32.955  1.00  0.00    -0.248 NA
ATOM     18  C   UNL A   1      37.588  34.258  32.961  1.00  0.00     0.031 C 
ATOM     19  C   UNL A   1      37.731  31.107  29.040  1.00  0.00     0.029 A 
ATOM     20  N   UNL A   1      39.258  30.817  30.645  1.00  0.00    -0.354 N 
ATOM     21  C   UNL A   1      39.400  33.425  34.087  1.00  0.00     0.074 A 
ATOM     22  C   UNL A   1      38.369  34.438  34.017  1.00  0.00     0.031 C 
ATOM     23  C   UNL A   1      38.457  30.028  28.710  1.00  0.00     0.029 A 
ATOM     24  C   UNL A   1      39.482  29.821  29.726  1.00  0.00     0.049 A 
ATOM     25  H   UNL A   1      39.804  30.935  31.457  1.00  0.00     0.167 HD
ATOM     26  C   UNL A   1      40.301  33.315  35.093  1.00  0.00     0.037 A 
ATOM     27  C   UNL A   1      40.414  28.852  29.699  1.00  0.00     0.037 A 
ATOM     28  C   UNL A   1      41.311  32.290  35.168  1.00  0.00     0.049 A 
ATOM     29  C   UNL A   1      41.408  28.763  30.819  1.00  0.00     0.074 A 
ATOM     30  C   UNL A   1      42.243  32.067  36.169  1.00  0.00     0.029 A 
ATOM     31  N   UNL A   1      41.525  31.317  34.202  1.00  0.00    -0.354 N 
ATOM     32  N   UNL A   1      41.504  29.499  31.899  1.00  0.00    -0.248 NA
ATOM     33  C   UNL A   1      42.425  27.709  30.714  1.00  0.00     0.031 C 
ATOM     34  C   UNL A   1      43.050  30.992  35.784  1.00  0.00     0.029 A 
ATOM     35  C   UNL A   1      42.588  30.508  34.572  1.00  0.00     0.049 A 
ATOM     36  H   UNL A   1      41.000  31.217  33.375  1.00  0.00     0.167 HD
ATOM     37  C   UNL A   1      42.571  28.978  32.620  1.00  0.00     0.074 A 
ATOM     38  C   UNL A   1      43.081  27.857  31.856  1.00  0.00     0.031 C 
ATOM     39  C   UNL A   1      43.079  29.389  33.807  1.00  0.00     0.037 A 
BRANCH  26  40
ATOM     40  C   UNL A   1      40.254  34.347  36.184  1.00  0.00     0.057 A 
ATOM     41  C   UNL A   1      40.930  35.570  36.085  1.00  0.00     0.134 A 
ATOM     42  C   UNL A   1      39.491  34.126  37.338  1.00  0.00     0.134 A 
ATOM     43  F   UNL A   1      41.689  35.843  35.011  1.00  0.00    -0.206 F 
ATOM     44  C   UNL A   1      40.872  36.522  37.105  1.00  0.00     0.040 A 
ATOM     45  C   UNL A   1      39.403  35.082  38.352  1.00  0.00     0.040 A 
ATOM     46  F   UNL A   1      38.810  32.981  37.496  1.00  0.00    -0.206 F 
ATOM     47  C   UNL A   1      40.101  36.282  38.240  1.00  0.00     0.006 A 
ENDBRANCH  26  40
BRANCH  27  48
ATOM     48  C   UNL A   1      40.437  27.882  28.578  1.00  0.00     0.057 A 
ATOM     49  C   UNL A   1      41.160  28.146  27.409  1.00  0.00     0.134 A 
ATOM     50  C   UNL A   1      39.747  26.666  28.650  1.00  0.00     0.134 A 
ATOM     51  F   UNL A   1      41.830  29.300  27.276  1.00  0.00    -0.206 F 
ATOM     52  C   UNL A   1      41.185  27.243  26.346  1.00  0.00     0.040 A 
ATOM     53  C   UNL A   1      39.784  25.741  27.606  1.00  0.00     0.040 A 
ATOM     54  F   UNL A   1      39.043  26.350  29.747  1.00  0.00    -0.206 F 
ATOM     55  C   UNL A   1      40.500  26.033  26.445  1.00  0.00     0.006 A 
ENDBRANCH  27  48
BRANCH  39  56
ATOM     56  C   UNL A   1      44.215  28.588  34.375  1.00  0.00     0.057 A 
ATOM     57  C   UNL A   1      45.553  28.910  34.120  1.00  0.00     0.134 A 
ATOM     58  C   UNL A   1      43.960  27.487  35.202  1.00  0.00     0.134 A 
ATOM     59  F   UNL A   1      45.864  29.944  33.323  1.00  0.00    -0.206 F 
ATOM     60  C   UNL A   1      46.599  28.146  34.643  1.00  0.00     0.040 A 
ATOM     61  C   UNL A   1      44.996  26.734  35.754  1.00  0.00     0.040 A 
ATOM     62  F   UNL A   1      42.699  27.130  35.493  1.00  0.00    -0.206 F 
ATOM     63  C   UNL A   1      46.320  27.058  35.467  1.00  0.00     0.006 A 
ENDBRANCH  39  56
ENDBRANCH  13  14
ENDBRANCH   6   8
ENDBRANCH   3   4
ENDBRANCH   2   3
ENDBRANCH   1   2
BRANCH   1  64
ATOM     64  C   UNL A   1      32.640  29.964  27.140  1.00  0.00     0.116 C 
BRANCH  64  65
ATOM     65  N   UNL A   1      32.111  28.684  27.554  1.00  0.00    -0.356 N 
ATOM     66  C   UNL A   1      32.059  27.554  26.791  1.00  0.00     0.226 C 
ATOM     67  H   UNL A   1      31.756  28.623  28.470  1.00  0.00     0.163 HD
ATOM     68  O   UNL A   1      31.067  26.840  26.945  1.00  0.00    -0.274 OA
BRANCH  66  69
ATOM     69  C   UNL A   1      33.212  27.225  25.828  1.00  0.00     0.103 C 
ATOM     70  C   UNL A   1      32.718  27.363  24.421  1.00  0.00    -0.016 C 
ATOM     71  C   UNL A   1      33.644  25.742  25.845  1.00  0.00     0.042 C 
ATOM     72  C   UNL A   1      32.447  26.165  23.884  1.00  0.00    -0.011 C 
ATOM     73  C   UNL A   1      32.760  25.027  24.818  1.00  0.00     0.093 C 
BRANCH  73  74
ATOM     74  N   UNL A   1      31.508  24.542  25.399  1.00  0.00    -0.204 NA
ATOM     75  H   UNL A   1      30.868  24.383  24.622  1.00  0.00     0.142 HD
BRANCH  74  76
ATOM     76  S   UNL A   1      31.487  23.147  26.336  1.00  0.00     0.241 S 
ATOM     77  O   UNL A   1      31.603  23.595  27.703  1.00  0.00    -0.207 OA
ATOM     78  O   UNL A   1      30.388  22.312  25.891  1.00  0.00    -0.207 OA
BRANCH  76  79
ATOM     79  C   UNL A   1      32.990  22.264  25.963  1.00  0.00     0.082 A 
ATOM     80  C   UNL A   1      34.112  22.363  26.777  1.00  0.00     0.023 A 
ATOM     81  C   UNL A   1      33.044  21.457  24.823  1.00  0.00     0.023 A 
ATOM     82  C   UNL A   1      35.308  21.732  26.447  1.00  0.00     0.022 A 
ATOM     83  C   UNL A   1      34.239  20.803  24.494  1.00  0.00     0.022 A 
ATOM     84  C   UNL A   1      35.370  20.956  25.298  1.00  0.00     0.041 A 
ATOM     85  Cl  UNL A   1      36.850  20.190  24.877  1.00  0.00    -0.084 Cl
ENDBRANCH  76  79
ENDBRANCH  74  76
ENDBRANCH  73  74
ENDBRANCH  66  69
ENDBRANCH  64  65
ENDBRANCH   1  64
TORSDOF 14
ENDMDL
MODEL 2
REMARK VINA RESULT:     -11.9      5.189     10.274
REMARK SMILES O=C(NCCCCNC(=O)[C@@H]1C=C[C@H](NS(=O)(=O)c2ccc(Cl)cc2)C1)c1ccc(-c2c3nc(c(-c4c(F)cccc4F)c4ccc([nH]4)c(-c4c(F)cccc4F)c4nc(c(-c5c(F)cccc5F)c5ccc2[nH]5)C=C4)C=C3)cc1
REMARK SMILES IDX 6 1 5 2 4 3 3 4 1 5 2 6 27 8 28 9 80 10 29 11 79 12 30 13
REMARK SMILES IDX 31 14 32 15 73 16 33 17 78 18 72 19 74 20 34 21 77 22 71 23
REMARK SMILES IDX 70 24 35 26 61 27 44 28 60 29 45 30 48 31 59 32 75 33 46 34
REMARK SMILES IDX 47 35 58 37 76 38 49 39 36 40 37 41 42 42 38 43 39 44 41 45
REMARK SMILES IDX 43 46 40 47 62 48 63 49 68 50 64 51 65 52 67 53 69 54 66 55
REMARK SMILES IDX 50 56 51 57 56 58 52 59 53 60 55 61 57 62 54 63 7 64 8 65
REMARK SMILES IDX 9 66 10 68 11 69 12 70 26 71 13 72 14 73 15 74 16 76 17 77
REMARK SMILES IDX 18 78 19 79 20 80 25 81 21 82 24 83 22 84 23 85
REMARK H PARENT 3 7 74 25 48 36 8 67 15 75
REMARK Flexibility Score: inf
ROOT
ATOM      1  C   UNL A   1      36.754  20.981  24.782  1.00  0.00     0.023 C 
ENDROOT
BRANCH   1   2
ATOM      2  C   UNL A   1      37.780  19.857  24.974  1.00  0.00     0.023 C 
BRANCH   2   3
ATOM      3  C   UNL A   1      39.011  20.243  25.786  1.00  0.00     0.116 C 
BRANCH   3   4
ATOM      4  N   UNL A   1      40.024  19.198  25.804  1.00  0.00    -0.352 N 
ATOM      5  O   UNL A   1      42.100  18.318  25.821  1.00  0.00    -0.269 OA
ATOM      6  C   UNL A   1      41.381  19.297  25.990  1.00  0.00     0.251 C 
ATOM      7  H   UNL A   1      39.686  18.284  25.660  1.00  0.00     0.163 HD
BRANCH   6   8
ATOM      8  C   UNL A   1      41.972  20.596  26.367  1.00  0.00     0.039 A 
ATOM      9  C   UNL A   1      42.194  20.912  27.708  1.00  0.00     0.014 A 
ATOM     10  C   UNL A   1      42.288  21.517  25.363  1.00  0.00     0.014 A 
ATOM     11  C   UNL A   1      42.570  22.203  28.056  1.00  0.00     0.010 A 
ATOM     12  C   UNL A   1      42.755  22.786  25.713  1.00  0.00     0.010 A 
ATOM     13  C   UNL A   1      42.856  23.155  27.063  1.00  0.00    -0.014 A 
BRANCH  13  14
ATOM     14  C   UNL A   1      43.276  24.519  27.467  1.00  0.00     0.031 A 
ATOM     15  C   UNL A   1      44.716  24.946  27.379  1.00  0.00     0.074 A 
ATOM     16  C   UNL A   1      42.337  25.392  27.879  1.00  0.00     0.049 A 
ATOM     17  N   UNL A   1      45.248  26.110  27.654  1.00  0.00    -0.248 NA
ATOM     18  C   UNL A   1      45.687  23.934  26.935  1.00  0.00     0.031 C 
ATOM     19  C   UNL A   1      40.909  25.093  28.012  1.00  0.00     0.029 A 
ATOM     20  N   UNL A   1      42.434  26.711  28.237  1.00  0.00    -0.354 N 
ATOM     21  C   UNL A   1      46.615  25.965  27.442  1.00  0.00     0.074 A 
ATOM     22  C   UNL A   1      46.833  24.592  27.041  1.00  0.00     0.031 C 
ATOM     23  C   UNL A   1      40.257  26.209  28.366  1.00  0.00     0.029 A 
ATOM     24  C   UNL A   1      41.224  27.285  28.546  1.00  0.00     0.049 A 
ATOM     25  H   UNL A   1      43.288  27.201  28.269  1.00  0.00     0.167 HD
ATOM     26  C   UNL A   1      47.593  26.894  27.566  1.00  0.00     0.037 A 
ATOM     27  C   UNL A   1      40.927  28.536  28.937  1.00  0.00     0.037 A 
ATOM     28  C   UNL A   1      47.367  28.266  27.943  1.00  0.00     0.049 A 
ATOM     29  C   UNL A   1      42.033  29.540  29.079  1.00  0.00     0.074 A 
ATOM     30  C   UNL A   1      48.288  29.295  28.053  1.00  0.00     0.029 A 
ATOM     31  N   UNL A   1      46.131  28.801  28.277  1.00  0.00    -0.354 N 
ATOM     32  N   UNL A   1      43.314  29.397  28.840  1.00  0.00    -0.248 NA
ATOM     33  C   UNL A   1      41.652  30.878  29.546  1.00  0.00     0.031 C 
ATOM     34  C   UNL A   1      47.616  30.438  28.501  1.00  0.00     0.029 A 
ATOM     35  C   UNL A   1      46.269  30.138  28.616  1.00  0.00     0.049 A 
ATOM     36  H   UNL A   1      45.281  28.304  28.275  1.00  0.00     0.167 HD
ATOM     37  C   UNL A   1      43.888  30.636  29.098  1.00  0.00     0.074 A 
ATOM     38  C   UNL A   1      42.811  31.518  29.500  1.00  0.00     0.031 C 
ATOM     39  C   UNL A   1      45.188  31.008  29.005  1.00  0.00     0.037 A 
BRANCH  26  40
ATOM     40  C   UNL A   1      49.007  26.451  27.315  1.00  0.00     0.057 A 
ATOM     41  C   UNL A   1      49.841  25.994  28.345  1.00  0.00     0.134 A 
ATOM     42  C   UNL A   1      49.531  26.448  26.016  1.00  0.00     0.134 A 
ATOM     43  F   UNL A   1      49.407  25.981  29.616  1.00  0.00    -0.206 F 
ATOM     44  C   UNL A   1      51.151  25.580  28.096  1.00  0.00     0.040 A 
ATOM     45  C   UNL A   1      50.830  26.010  25.750  1.00  0.00     0.040 A 
ATOM     46  F   UNL A   1      48.786  26.863  24.980  1.00  0.00    -0.206 F 
ATOM     47  C   UNL A   1      51.647  25.581  26.794  1.00  0.00     0.006 A 
ENDBRANCH  26  40
BRANCH  27  48
ATOM     48  C   UNL A   1      39.517  28.910  29.206  1.00  0.00     0.057 A 
ATOM     49  C   UNL A   1      38.682  29.364  28.179  1.00  0.00     0.134 A 
ATOM     50  C   UNL A   1      38.968  28.812  30.490  1.00  0.00     0.134 A 
ATOM     51  F   UNL A   1      39.156  29.492  26.931  1.00  0.00    -0.206 F 
ATOM     52  C   UNL A   1      37.356  29.723  28.422  1.00  0.00     0.040 A 
ATOM     53  C   UNL A   1      37.636  29.141  30.743  1.00  0.00     0.040 A 
ATOM     54  F   UNL A   1      39.714  28.374  31.516  1.00  0.00    -0.206 F 
ATOM     55  C   UNL A   1      36.827  29.606  29.706  1.00  0.00     0.006 A 
ENDBRANCH  27  48
BRANCH  39  56
ATOM     56  C   UNL A   1      45.507  32.445  29.297  1.00  0.00     0.057 A 
ATOM     57  C   UNL A   1      45.560  33.415  28.289  1.00  0.00     0.134 A 
ATOM     58  C   UNL A   1      45.750  32.864  30.611  1.00  0.00     0.134 A 
ATOM     59  F   UNL A   1      45.351  33.076  27.007  1.00  0.00    -0.206 F 
ATOM     60  C   UNL A   1      45.874  34.746  28.574  1.00  0.00     0.040 A 
ATOM     61  C   UNL A   1      46.036  34.195  30.912  1.00  0.00     0.040 A 
ATOM     62  F   UNL A   1      45.708  31.985  31.626  1.00  0.00    -0.206 F 
ATOM     63  C   UNL A   1      46.107  35.139  29.890  1.00  0.00     0.006 A 
ENDBRANCH  39  56
ENDBRANCH  13  14
ENDBRANCH   6   8
ENDBRANCH   3   4
ENDBRANCH   2   3
ENDBRANCH   1   2
BRANCH   1  64
ATOM     64  C   UNL A   1      35.305  20.558  25.035  1.00  0.00     0.116 C 
BRANCH  64  65
ATOM     65  N   UNL A   1      34.411  21.382  24.252  1.00  0.00    -0.356 N 
ATOM     66  C   UNL A   1      33.594  22.362  24.736  1.00  0.00     0.226 C 
ATOM     67  H   UNL A   1      34.391  21.221  23.281  1.00  0.00     0.163 HD
ATOM     68  O   UNL A   1      32.497  22.475  24.187  1.00  0.00    -0.274 OA
BRANCH  66  69
ATOM     69  C   UNL A   1      34.075  23.263  25.886  1.00  0.00     0.103 C 
ATOM     70  C   UNL A   1      32.885  23.923  26.509  1.00  0.00    -0.016 C 
ATOM     71  C   UNL A   1      34.887  24.493  25.426  1.00  0.00     0.042 C 
ATOM     72  C   UNL A   1      32.759  25.190  26.090  1.00  0.00    -0.011 C 
ATOM     73  C   UNL A   1      33.868  25.605  25.160  1.00  0.00     0.093 C 
BRANCH  73  74
ATOM     74  N   UNL A   1      33.359  25.581  23.789  1.00  0.00    -0.204 NA
ATOM     75  H   UNL A   1      32.411  25.210  23.835  1.00  0.00     0.142 HD
BRANCH  74  76
ATOM     76  S   UNL A   1      33.282  26.993  22.883  1.00  0.00     0.241 S 
ATOM     77  O   UNL A   1      34.012  27.982  23.639  1.00  0.00    -0.207 OA
ATOM     78  O   UNL A   1      33.616  26.676  21.508  1.00  0.00    -0.207 OA
BRANCH  76  79
ATOM     79  C   UNL A   1      31.575  27.509  22.893  1.00  0.00     0.082 A 
ATOM     80  C   UNL A   1      31.184  28.738  22.376  1.00  0.00     0.023 A 
ATOM     81  C   UNL A   1      30.608  26.660  23.439  1.00  0.00     0.023 A 
ATOM     82  C   UNL A   1      29.863  29.172  22.450  1.00  0.00     0.022 A 
ATOM     83  C   UNL A   1      29.272  27.081  23.500  1.00  0.00     0.022 A 
ATOM     84  C   UNL A   1      28.909  28.341  23.021  1.00  0.00     0.041 A 
ATOM     85  Cl  UNL A   1      27.280  28.880  23.131  1.00  0.00    -0.084 Cl
ENDBRANCH  76  79
ENDBRANCH  74  76
ENDBRANCH  73  74
ENDBRANCH  66  69
ENDBRANCH  64  65
ENDBRANCH   1  64
TORSDOF 14
ENDMDL
MODEL 3
REMARK VINA RESULT:     -11.9      5.334     10.373
REMARK SMILES O=C(NCCCCNC(=O)[C@@H]1C=C[C@H](NS(=O)(=O)c2ccc(Cl)cc2)C1)c1ccc(-c2c3nc(c(-c4c(F)cccc4F)c4ccc([nH]4)c(-c4c(F)cccc4F)c4nc(c(-c5c(F)cccc5F)c5ccc2[nH]5)C=C4)C=C3)cc1
REMARK SMILES IDX 6 1 5 2 4 3 3 4 1 5 2 6 27 8 28 9 80 10 29 11 79 12 30 13
REMARK SMILES IDX 31 14 32 15 73 16 33 17 78 18 72 19 74 20 34 21 77 22 71 23
REMARK SMILES IDX 70 24 35 26 61 27 44 28 60 29 45 30 48 31 59 32 75 33 46 34
REMARK SMILES IDX 47 35 58 37 76 38 49 39 36 40 37 41 42 42 38 43 39 44 41 45
REMARK SMILES IDX 43 46 40 47 62 48 63 49 68 50 64 51 65 52 67 53 69 54 66 55
REMARK SMILES IDX 50 56 51 57 56 58 52 59 53 60 55 61 57 62 54 63 7 64 8 65
REMARK SMILES IDX 9 66 10 68 11 69 12 70 26 71 13 72 14 73 15 74 16 76 17 77
REMARK SMILES IDX 18 78 19 79 20 80 25 81 21 82 24 83 22 84 23 85
REMARK H PARENT 3 7 74 25 48 36 8 67 15 75
REMARK Flexibility Score: inf
ROOT
ATOM      1  C   UNL A   1      37.059  20.642  24.904  1.00  0.00     0.023 C 
ENDROOT
BRANCH   1   2
ATOM      2  C   UNL A   1      38.150  19.569  25.009  1.00  0.00     0.023 C 
BRANCH   2   3
ATOM      3  C   UNL A   1      39.352  19.956  25.863  1.00  0.00     0.116 C 
BRANCH   3   4
ATOM      4  N   UNL A   1      40.389  18.934  25.872  1.00  0.00    -0.352 N 
ATOM      5  O   UNL A   1      42.483  18.101  25.882  1.00  0.00    -0.269 OA
ATOM      6  C   UNL A   1      41.743  19.062  26.059  1.00  0.00     0.251 C 
ATOM      7  H   UNL A   1      40.071  18.014  25.722  1.00  0.00     0.163 HD
BRANCH   6   8
ATOM      8  C   UNL A   1      42.305  20.372  26.444  1.00  0.00     0.039 A 
ATOM      9  C   UNL A   1      42.259  20.799  27.772  1.00  0.00     0.014 A 
ATOM     10  C   UNL A   1      42.865  21.189  25.458  1.00  0.00     0.014 A 
ATOM     11  C   UNL A   1      42.616  22.104  28.085  1.00  0.00     0.010 A 
ATOM     12  C   UNL A   1      43.311  22.469  25.794  1.00  0.00     0.010 A 
ATOM     13  C   UNL A   1      43.147  22.954  27.101  1.00  0.00    -0.014 A 
BRANCH  13  14
ATOM     14  C   UNL A   1      43.540  24.336  27.473  1.00  0.00     0.031 A 
ATOM     15  C   UNL A   1      44.968  24.795  27.359  1.00  0.00     0.074 A 
ATOM     16  C   UNL A   1      42.585  25.195  27.878  1.00  0.00     0.049 A 
ATOM     17  N   UNL A   1      45.476  25.977  27.603  1.00  0.00    -0.248 NA
ATOM     18  C   UNL A   1      45.957  23.797  26.923  1.00  0.00     0.031 C 
ATOM     19  C   UNL A   1      41.166  24.865  28.034  1.00  0.00     0.029 A 
ATOM     20  N   UNL A   1      42.654  26.523  28.208  1.00  0.00    -0.354 N 
ATOM     21  C   UNL A   1      46.843  25.859  27.378  1.00  0.00     0.074 A 
ATOM     22  C   UNL A   1      47.089  24.483  27.002  1.00  0.00     0.031 C 
ATOM     23  C   UNL A   1      40.492  25.973  28.374  1.00  0.00     0.029 A 
ATOM     24  C   UNL A   1      41.436  27.074  28.520  1.00  0.00     0.049 A 
ATOM     25  H   UNL A   1      43.497  27.034  28.220  1.00  0.00     0.167 HD
ATOM     26  C   UNL A   1      47.800  26.813  27.471  1.00  0.00     0.037 A 
ATOM     27  C   UNL A   1      41.113  28.326  28.890  1.00  0.00     0.037 A 
ATOM     28  C   UNL A   1      47.546  28.187  27.823  1.00  0.00     0.049 A 
ATOM     29  C   UNL A   1      42.197  29.358  28.998  1.00  0.00     0.074 A 
ATOM     30  C   UNL A   1      48.443  29.239  27.901  1.00  0.00     0.029 A 
ATOM     31  N   UNL A   1      46.301  28.700  28.161  1.00  0.00    -0.354 N 
ATOM     32  N   UNL A   1      43.477  29.241  28.746  1.00  0.00    -0.248 NA
ATOM     33  C   UNL A   1      41.789  30.696  29.443  1.00  0.00     0.031 C 
ATOM     34  C   UNL A   1      47.750  30.375  28.334  1.00  0.00     0.029 A 
ATOM     35  C   UNL A   1      46.412  30.046  28.471  1.00  0.00     0.049 A 
ATOM     36  H   UNL A   1      45.463  28.182  28.179  1.00  0.00     0.167 HD
ATOM     37  C   UNL A   1      44.025  30.497  28.972  1.00  0.00     0.074 A 
ATOM     38  C   UNL A   1      42.932  31.362  29.370  1.00  0.00     0.031 C 
ATOM     39  C   UNL A   1      45.315  30.898  28.856  1.00  0.00     0.037 A 
BRANCH  26  40
ATOM     40  C   UNL A   1      49.221  26.398  27.212  1.00  0.00     0.057 A 
ATOM     41  C   UNL A   1      49.771  26.379  25.923  1.00  0.00     0.134 A 
ATOM     42  C   UNL A   1      50.063  26.045  28.275  1.00  0.00     0.134 A 
ATOM     43  F   UNL A   1      49.017  26.695  24.858  1.00  0.00    -0.206 F 
ATOM     44  C   UNL A   1      51.095  25.998  25.699  1.00  0.00     0.040 A 
ATOM     45  C   UNL A   1      51.397  25.689  28.066  1.00  0.00     0.040 A 
ATOM     46  F   UNL A   1      49.606  26.050  29.537  1.00  0.00    -0.206 F 
ATOM     47  C   UNL A   1      51.914  25.657  26.773  1.00  0.00     0.006 A 
ENDBRANCH  26  40
BRANCH  27  48
ATOM     48  C   UNL A   1      39.698  28.672  29.169  1.00  0.00     0.057 A 
ATOM     49  C   UNL A   1      38.868  29.181  28.163  1.00  0.00     0.134 A 
ATOM     50  C   UNL A   1      39.139  28.493  30.439  1.00  0.00     0.134 A 
ATOM     51  F   UNL A   1      39.352  29.388  26.929  1.00  0.00    -0.206 F 
ATOM     52  C   UNL A   1      37.537  29.514  28.415  1.00  0.00     0.040 A 
ATOM     53  C   UNL A   1      37.802  28.796  30.699  1.00  0.00     0.040 A 
ATOM     54  F   UNL A   1      39.880  27.999  31.443  1.00  0.00    -0.206 F 
ATOM     55  C   UNL A   1      36.998  29.316  29.685  1.00  0.00     0.006 A 
ENDBRANCH  27  48
BRANCH  39  56
ATOM     56  C   UNL A   1      45.603  32.348  29.116  1.00  0.00     0.057 A 
ATOM     57  C   UNL A   1      45.568  33.307  28.096  1.00  0.00     0.134 A 
ATOM     58  C   UNL A   1      45.905  32.790  30.409  1.00  0.00     0.134 A 
ATOM     59  F   UNL A   1      45.300  32.947  26.832  1.00  0.00    -0.206 F 
ATOM     60  C   UNL A   1      45.855  34.650  28.349  1.00  0.00     0.040 A 
ATOM     61  C   UNL A   1      46.164  34.133  30.680  1.00  0.00     0.040 A 
ATOM     62  F   UNL A   1      45.947  31.923  31.434  1.00  0.00    -0.206 F 
ATOM     63  C   UNL A   1      46.148  35.066  29.646  1.00  0.00     0.006 A 
ENDBRANCH  39  56
ENDBRANCH  13  14
ENDBRANCH   6   8
ENDBRANCH   3   4
ENDBRANCH   2   3
ENDBRANCH   1   2
BRANCH   1  64
ATOM     64  C   UNL A   1      37.585  22.079  24.949  1.00  0.00     0.116 C 
BRANCH  64  65
ATOM     65  N   UNL A   1      37.000  22.849  23.874  1.00  0.00    -0.356 N 
ATOM     66  C   UNL A   1      35.730  23.347  23.844  1.00  0.00     0.226 C 
ATOM     67  H   UNL A   1      37.570  23.031  23.093  1.00  0.00     0.163 HD
ATOM     68  O   UNL A   1      35.170  23.341  22.747  1.00  0.00    -0.274 OA
BRANCH  66  69
ATOM     69  C   UNL A   1      35.090  23.895  25.131  1.00  0.00     0.103 C 
ATOM     70  C   UNL A   1      33.922  23.032  25.493  1.00  0.00    -0.016 C 
ATOM     71  C   UNL A   1      34.402  25.266  24.959  1.00  0.00     0.042 C 
ATOM     72  C   UNL A   1      32.765  23.609  25.138  1.00  0.00    -0.011 C 
ATOM     73  C   UNL A   1      32.961  24.972  24.529  1.00  0.00     0.093 C 
BRANCH  73  74
ATOM     74  N   UNL A   1      32.824  24.857  23.077  1.00  0.00    -0.204 NA
ATOM     75  H   UNL A   1      32.006  24.273  22.905  1.00  0.00     0.142 HD
BRANCH  74  76
ATOM     76  S   UNL A   1      32.644  26.230  22.126  1.00  0.00     0.241 S 
ATOM     77  O   UNL A   1      33.936  26.459  21.525  1.00  0.00    -0.207 OA
ATOM     78  O   UNL A   1      31.440  26.085  21.331  1.00  0.00    -0.207 OA
BRANCH  76  79
ATOM     79  C   UNL A   1      32.361  27.588  23.247  1.00  0.00     0.082 A 
ATOM     80  C   UNL A   1      33.406  28.378  23.710  1.00  0.00     0.023 A 
ATOM     81  C   UNL A   1      31.058  27.860  23.675  1.00  0.00     0.023 A 
ATOM     82  C   UNL A   1      33.195  29.391  24.642  1.00  0.00     0.022 A 
ATOM     83  C   UNL A   1      30.835  28.892  24.597  1.00  0.00     0.022 A 
ATOM     84  C   UNL A   1      31.905  29.641  25.089  1.00  0.00     0.041 A 
ATOM     85  Cl  UNL A   1      31.642  30.878  26.253  1.00  0.00    -0.084 Cl
ENDBRANCH  76  79
ENDBRANCH  74  76
ENDBRANCH  73  74
ENDBRANCH  66  69
ENDBRANCH  64  65
ENDBRANCH   1  64
TORSDOF 14
ENDMDL
