MODEL 1
REMARK VINA RESULT:     -12.6      0.000      0.000
REMARK SMILES CC(C)c1ccc(-c2cnc([C@@H]3[NH2+][C@H](C(=O)NCCCCNC(=O)c4ccc(-c5c6nc(c(-c7c(F)cccc7F)c7ccc([nH]7)c(-c7c(F)cccc7F)c7nc(c(-c8c(F)cccc8F)c8ccc5[nH]8)C=C7)C=C6)cc4)C(C)(C)S3)s2)cc1
REMARK SMILES IDX 19 1 18 2 17 3 15 4 16 5 14 7 12 8 13 9 82 10 79 13 80 14
REMARK SMILES IDX 81 15 11 16 8 17 9 18 83 19 10 20 7 21 4 22 5 23 85 24 6 25
REMARK SMILES IDX 84 26 2 27 1 28 3 29 20 30 21 31 22 32 23 33 24 35 25 36
REMARK SMILES IDX 26 37 78 38 27 39 77 40 28 41 29 42 30 43 71 44 31 45 76 46
REMARK SMILES IDX 70 47 72 48 32 49 75 50 69 51 68 52 33 54 59 55 42 56 58 57
REMARK SMILES IDX 43 58 46 59 57 60 73 61 44 62 45 63 56 65 74 66 47 67 34 68
REMARK SMILES IDX 35 69 40 70 36 71 37 72 39 73 41 74 38 75 60 76 61 77 66 78
REMARK SMILES IDX 62 79 63 80 65 81 67 82 64 83 48 84 49 85 54 86 50 87 51 88
REMARK SMILES IDX 53 89 55 90 52 91
REMARK H PARENT 17 6 13 11 13 12 22 34 72 53 46 64
REMARK Flexibility Score: inf
ROOT
ATOM      1  C   UNL A   1      31.497  30.555  26.698  1.00  0.00     0.023 C 
ENDROOT
BRANCH   1   2
ATOM      2  C   UNL A   1      32.914  29.979  26.586  1.00  0.00     0.116 C 
BRANCH   2   3
ATOM      3  N   UNL A   1      32.874  28.556  26.326  1.00  0.00    -0.351 N 
ATOM      4  C   UNL A   1      32.162  27.932  25.338  1.00  0.00     0.279 C 
ATOM      5  O   UNL A   1      31.524  26.946  25.692  1.00  0.00    -0.268 OA
ATOM      6  H   UNL A   1      33.412  27.981  26.917  1.00  0.00     0.163 HD
BRANCH   4   7
ATOM      7  C   UNL A   1      32.245  28.479  23.893  1.00  0.00     0.289 C 
ATOM      8  C   UNL A   1      33.134  26.733  22.458  1.00  0.00     0.304 C 
ATOM      9  N   UNL A   1      33.472  27.971  23.199  1.00  0.00    -0.318 N 
ATOM     10  S   UNL A   1      31.374  26.786  22.007  1.00  0.00    -0.079 SA
ATOM     11  H   UNL A   1      33.812  28.676  22.546  1.00  0.00     0.348 HD
ATOM     12  H   UNL A   1      34.197  27.771  23.887  1.00  0.00     0.348 HD
ATOM     13  C   UNL A   1      31.010  28.275  22.990  1.00  0.00     0.078 C 
ATOM     14  C   UNL A   1      30.881  29.444  21.995  1.00  0.00     0.030 C 
ATOM     15  C   UNL A   1      29.684  28.107  23.729  1.00  0.00     0.030 C 
BRANCH   8  16
ATOM     16  C   UNL A   1      33.510  25.449  23.171  1.00  0.00     0.162 A 
ATOM     17  C   UNL A   1      33.772  23.124  23.875  1.00  0.00     0.055 A 
ATOM     18  C   UNL A   1      34.434  24.074  24.629  1.00  0.00     0.132 A 
ATOM     19  S   UNL A   1      32.961  23.916  22.583  1.00  0.00    -0.112 S 
ATOM     20  N   UNL A   1      34.217  25.379  24.279  1.00  0.00    -0.242 NA
BRANCH  17  21
ATOM     21  C   UNL A   1      33.705  21.679  24.114  1.00  0.00    -0.007 A 
ATOM     22  C   UNL A   1      33.738  18.867  24.511  1.00  0.00    -0.045 A 
ATOM     23  C   UNL A   1      32.614  19.507  23.968  1.00  0.00     0.004 A 
ATOM     24  C   UNL A   1      34.838  19.657  24.866  1.00  0.00     0.004 A 
ATOM     25  C   UNL A   1      32.595  20.898  23.775  1.00  0.00     0.010 A 
ATOM     26  C   UNL A   1      34.821  21.038  24.669  1.00  0.00     0.010 A 
BRANCH  22  27
ATOM     27  C   UNL A   1      33.841  17.363  24.709  1.00  0.00     0.013 C 
ATOM     28  C   UNL A   1      32.656  16.721  25.434  1.00  0.00     0.012 C 
ATOM     29  C   UNL A   1      34.072  16.667  23.363  1.00  0.00     0.012 C 
ENDBRANCH  22  27
ENDBRANCH  17  21
ENDBRANCH   8  16
ENDBRANCH   4   7
ENDBRANCH   2   3
ENDBRANCH   1   2
BRANCH   1  30
ATOM     30  C   UNL A   1      31.407  32.086  26.718  1.00  0.00     0.023 C 
BRANCH  30  31
ATOM     31  C   UNL A   1      32.652  32.811  27.214  1.00  0.00     0.116 C 
BRANCH  31  32
ATOM     32  N   UNL A   1      32.381  34.180  27.613  1.00  0.00    -0.352 N 
ATOM     33  C   UNL A   1      32.994  34.949  28.567  1.00  0.00     0.251 C 
ATOM     34  H   UNL A   1      31.648  34.623  27.125  1.00  0.00     0.163 HD
ATOM     35  O   UNL A   1      32.531  36.055  28.850  1.00  0.00    -0.269 OA
BRANCH  33  36
ATOM     36  C   UNL A   1      34.187  34.450  29.283  1.00  0.00     0.039 A 
ATOM     37  C   UNL A   1      34.010  33.806  30.512  1.00  0.00     0.014 A 
ATOM     38  C   UNL A   1      35.474  34.621  28.762  1.00  0.00     0.014 A 
ATOM     39  C   UNL A   1      35.114  33.282  31.188  1.00  0.00     0.010 A 
ATOM     40  C   UNL A   1      36.565  34.039  29.404  1.00  0.00     0.010 A 
ATOM     41  C   UNL A   1      36.397  33.366  30.623  1.00  0.00    -0.014 A 
BRANCH  41  42
ATOM     42  C   UNL A   1      37.572  32.756  31.296  1.00  0.00     0.031 A 
ATOM     43  C   UNL A   1      38.254  31.561  30.691  1.00  0.00     0.074 A 
ATOM     44  C   UNL A   1      37.990  33.242  32.481  1.00  0.00     0.049 A 
ATOM     45  N   UNL A   1      39.243  30.845  31.164  1.00  0.00    -0.248 NA
ATOM     46  C   UNL A   1      37.743  31.094  29.393  1.00  0.00     0.031 C 
ATOM     47  C   UNL A   1      37.390  34.373  33.192  1.00  0.00     0.029 A 
ATOM     48  N   UNL A   1      39.013  32.838  33.303  1.00  0.00    -0.354 N 
ATOM     49  C   UNL A   1      39.462  29.839  30.232  1.00  0.00     0.074 A 
ATOM     50  C   UNL A   1      38.472  30.007  29.190  1.00  0.00     0.031 C 
ATOM     51  C   UNL A   1      38.068  34.584  34.332  1.00  0.00     0.029 A 
ATOM     52  C   UNL A   1      39.125  33.585  34.451  1.00  0.00     0.049 A 
ATOM     53  H   UNL A   1      39.610  32.086  33.089  1.00  0.00     0.167 HD
ATOM     54  C   UNL A   1      40.415  28.876  30.232  1.00  0.00     0.037 A 
ATOM     55  C   UNL A   1      39.977  33.469  35.486  1.00  0.00     0.037 A 
ATOM     56  C   UNL A   1      41.414  28.723  31.257  1.00  0.00     0.049 A 
ATOM     57  C   UNL A   1      41.018  32.384  35.467  1.00  0.00     0.074 A 
ATOM     58  C   UNL A   1      42.449  27.808  31.321  1.00  0.00     0.029 A 
ATOM     59  N   UNL A   1      41.502  29.509  32.395  1.00  0.00    -0.354 N 
ATOM     60  N   UNL A   1      41.246  31.474  34.552  1.00  0.00    -0.248 NA
ATOM     61  C   UNL A   1      41.921  32.313  36.624  1.00  0.00     0.031 C 
ATOM     62  C   UNL A   1      43.145  28.016  32.517  1.00  0.00     0.029 A 
ATOM     63  C   UNL A   1      42.567  29.089  33.176  1.00  0.00     0.049 A 
ATOM     64  H   UNL A   1      40.898  30.254  32.617  1.00  0.00     0.167 HD
ATOM     65  C   UNL A   1      42.336  30.743  35.008  1.00  0.00     0.074 A 
ATOM     66  C   UNL A   1      42.730  31.323  36.274  1.00  0.00     0.031 C 
ATOM     67  C   UNL A   1      42.955  29.686  34.428  1.00  0.00     0.037 A 
BRANCH  54  68
ATOM     68  C   UNL A   1      40.425  27.916  29.080  1.00  0.00     0.057 A 
ATOM     69  C   UNL A   1      41.222  28.133  27.948  1.00  0.00     0.134 A 
ATOM     70  C   UNL A   1      39.660  26.743  29.116  1.00  0.00     0.134 A 
ATOM     71  F   UNL A   1      41.968  29.243  27.846  1.00  0.00    -0.206 F 
ATOM     72  C   UNL A   1      41.240  27.231  26.883  1.00  0.00     0.040 A 
ATOM     73  C   UNL A   1      39.689  25.821  28.068  1.00  0.00     0.040 A 
ATOM     74  F   UNL A   1      38.879  26.471  30.173  1.00  0.00    -0.206 F 
ATOM     75  C   UNL A   1      40.476  26.067  26.945  1.00  0.00     0.006 A 
ENDBRANCH  54  68
BRANCH  55  76
ATOM     76  C   UNL A   1      39.902  34.420  36.623  1.00  0.00     0.057 A 
ATOM     77  C   UNL A   1      40.584  35.642  36.587  1.00  0.00     0.134 A 
ATOM     78  C   UNL A   1      39.167  34.125  37.778  1.00  0.00     0.134 A 
ATOM     79  F   UNL A   1      41.320  35.970  35.515  1.00  0.00    -0.206 F 
ATOM     80  C   UNL A   1      40.555  36.528  37.664  1.00  0.00     0.040 A 
ATOM     81  C   UNL A   1      39.110  35.013  38.853  1.00  0.00     0.040 A 
ATOM     82  F   UNL A   1      38.488  32.973  37.873  1.00  0.00    -0.206 F 
ATOM     83  C   UNL A   1      39.813  36.215  38.801  1.00  0.00     0.006 A 
ENDBRANCH  55  76
BRANCH  67  84
ATOM     84  C   UNL A   1      44.146  29.115  35.138  1.00  0.00     0.057 A 
ATOM     85  C   UNL A   1      44.024  28.083  36.076  1.00  0.00     0.134 A 
ATOM     86  C   UNL A   1      45.436  29.582  34.851  1.00  0.00     0.134 A 
ATOM     87  F   UNL A   1      42.815  27.603  36.405  1.00  0.00    -0.206 F 
ATOM     88  C   UNL A   1      45.141  27.549  36.720  1.00  0.00     0.040 A 
ATOM     89  C   UNL A   1      46.562  29.039  35.470  1.00  0.00     0.040 A 
ATOM     90  F   UNL A   1      45.622  30.564  33.957  1.00  0.00    -0.206 F 
ATOM     91  C   UNL A   1      46.416  28.023  36.412  1.00  0.00     0.006 A 
ENDBRANCH  67  84
ENDBRANCH  41  42
ENDBRANCH  33  36
ENDBRANCH  31  32
ENDBRANCH  30  31
ENDBRANCH   1  30
TORSDOF 14
ENDMDL
MODEL 2
REMARK VINA RESULT:     -12.6      4.478     10.057
REMARK SMILES CC(C)c1ccc(-c2cnc([C@@H]3[NH2+][C@H](C(=O)NCCCCNC(=O)c4ccc(-c5c6nc(c(-c7c(F)cccc7F)c7ccc([nH]7)c(-c7c(F)cccc7F)c7nc(c(-c8c(F)cccc8F)c8ccc5[nH]8)C=C7)C=C6)cc4)C(C)(C)S3)s2)cc1
REMARK SMILES IDX 19 1 18 2 17 3 15 4 16 5 14 7 12 8 13 9 82 10 79 13 80 14
REMARK SMILES IDX 81 15 11 16 8 17 9 18 83 19 10 20 7 21 4 22 5 23 85 24 6 25
REMARK SMILES IDX 84 26 2 27 1 28 3 29 20 30 21 31 22 32 23 33 24 35 25 36
REMARK SMILES IDX 26 37 78 38 27 39 77 40 28 41 29 42 30 43 71 44 31 45 76 46
REMARK SMILES IDX 70 47 72 48 32 49 75 50 69 51 68 52 33 54 59 55 42 56 58 57
REMARK SMILES IDX 43 58 46 59 57 60 73 61 44 62 45 63 56 65 74 66 47 67 34 68
REMARK SMILES IDX 35 69 40 70 36 71 37 72 39 73 41 74 38 75 60 76 61 77 66 78
REMARK SMILES IDX 62 79 63 80 65 81 67 82 64 83 48 84 49 85 54 86 50 87 51 88
REMARK SMILES IDX 53 89 55 90 52 91
REMARK H PARENT 17 6 13 11 13 12 22 34 72 53 46 64
REMARK Flexibility Score: inf
ROOT
ATOM      1  C   UNL A   1      37.056  21.499  24.201  1.00  0.00     0.023 C 
ENDROOT
BRANCH   1   2
ATOM      2  C   UNL A   1      37.193  22.711  25.130  1.00  0.00     0.116 C 
BRANCH   2   3
ATOM      3  N   UNL A   1      36.149  23.681  24.872  1.00  0.00    -0.351 N 
ATOM      4  C   UNL A   1      34.812  23.419  24.749  1.00  0.00     0.279 C 
ATOM      5  O   UNL A   1      34.259  23.947  23.790  1.00  0.00    -0.268 OA
ATOM      6  H   UNL A   1      36.429  24.620  24.776  1.00  0.00     0.163 HD
BRANCH   4   7
ATOM      7  C   UNL A   1      34.119  22.538  25.815  1.00  0.00     0.289 C 
ATOM      8  C   UNL A   1      32.172  23.725  26.650  1.00  0.00     0.304 C 
ATOM      9  N   UNL A   1      33.583  23.376  26.936  1.00  0.00    -0.318 N 
ATOM     10  S   UNL A   1      31.449  22.424  25.606  1.00  0.00    -0.079 SA
ATOM     11  H   UNL A   1      33.633  22.853  27.809  1.00  0.00     0.348 HD
ATOM     12  H   UNL A   1      34.136  24.229  27.021  1.00  0.00     0.348 HD
ATOM     13  C   UNL A   1      33.028  21.563  25.324  1.00  0.00     0.078 C 
ATOM     14  C   UNL A   1      33.009  20.299  26.205  1.00  0.00     0.030 C 
ATOM     15  C   UNL A   1      33.144  21.141  23.860  1.00  0.00     0.030 C 
BRANCH   8  16
ATOM     16  C   UNL A   1      31.971  25.111  26.069  1.00  0.00     0.162 A 
ATOM     17  C   UNL A   1      31.088  27.119  24.990  1.00  0.00     0.055 A 
ATOM     18  C   UNL A   1      32.371  27.205  25.496  1.00  0.00     0.132 A 
ATOM     19  S   UNL A   1      30.467  25.554  25.334  1.00  0.00    -0.112 S 
ATOM     20  N   UNL A   1      32.888  26.053  26.025  1.00  0.00    -0.242 NA
BRANCH  17  21
ATOM     21  C   UNL A   1      30.350  28.142  24.244  1.00  0.00    -0.007 A 
ATOM     22  C   UNL A   1      28.910  30.218  22.947  1.00  0.00    -0.045 A 
ATOM     23  C   UNL A   1      28.588  28.871  22.730  1.00  0.00     0.004 A 
ATOM     24  C   UNL A   1      29.973  30.510  23.811  1.00  0.00     0.004 A 
ATOM     25  C   UNL A   1      29.302  27.843  23.367  1.00  0.00     0.010 A 
ATOM     26  C   UNL A   1      30.678  29.490  24.449  1.00  0.00     0.010 A 
BRANCH  22  27
ATOM     27  C   UNL A   1      28.154  31.380  22.322  1.00  0.00     0.013 C 
ATOM     28  C   UNL A   1      28.715  32.767  22.645  1.00  0.00     0.012 C 
ATOM     29  C   UNL A   1      28.058  31.194  20.804  1.00  0.00     0.012 C 
ENDBRANCH  22  27
ENDBRANCH  17  21
ENDBRANCH   8  16
ENDBRANCH   4   7
ENDBRANCH   2   3
ENDBRANCH   1   2
BRANCH   1  30
ATOM     30  C   UNL A   1      37.798  20.236  24.652  1.00  0.00     0.023 C 
BRANCH  30  31
ATOM     31  C   UNL A   1      38.786  20.427  25.796  1.00  0.00     0.116 C 
BRANCH  31  32
ATOM     32  N   UNL A   1      39.876  19.468  25.761  1.00  0.00    -0.352 N 
ATOM     33  C   UNL A   1      41.200  19.641  26.068  1.00  0.00     0.251 C 
ATOM     34  H   UNL A   1      39.627  18.559  25.475  1.00  0.00     0.163 HD
ATOM     35  O   UNL A   1      42.001  18.731  25.849  1.00  0.00    -0.269 OA
BRANCH  33  36
ATOM     36  C   UNL A   1      41.682  20.921  26.628  1.00  0.00     0.039 A 
ATOM     37  C   UNL A   1      42.145  21.905  25.749  1.00  0.00     0.014 A 
ATOM     38  C   UNL A   1      41.692  21.155  28.007  1.00  0.00     0.014 A 
ATOM     39  C   UNL A   1      42.562  23.142  26.246  1.00  0.00     0.010 A 
ATOM     40  C   UNL A   1      42.043  22.411  28.495  1.00  0.00     0.010 A 
ATOM     41  C   UNL A   1      42.483  23.417  27.621  1.00  0.00    -0.014 A 
BRANCH  41  42
ATOM     42  C   UNL A   1      42.859  24.749  28.159  1.00  0.00     0.031 A 
ATOM     43  C   UNL A   1      41.807  25.800  28.378  1.00  0.00     0.074 A 
ATOM     44  C   UNL A   1      44.154  25.032  28.397  1.00  0.00     0.049 A 
ATOM     45  N   UNL A   1      41.947  27.042  28.768  1.00  0.00    -0.248 NA
ATOM     46  C   UNL A   1      40.415  25.411  28.102  1.00  0.00     0.031 C 
ATOM     47  C   UNL A   1      45.275  24.112  28.189  1.00  0.00     0.029 A 
ATOM     48  N   UNL A   1      44.749  26.181  28.856  1.00  0.00    -0.354 N 
ATOM     49  C   UNL A   1      40.668  27.585  28.769  1.00  0.00     0.074 A 
ATOM     50  C   UNL A   1      39.771  26.553  28.296  1.00  0.00     0.031 C 
ATOM     51  C   UNL A   1      46.417  24.726  28.539  1.00  0.00     0.029 A 
ATOM     52  C   UNL A   1      46.116  26.091  28.959  1.00  0.00     0.049 A 
ATOM     53  H   UNL A   1      44.243  26.993  29.089  1.00  0.00     0.167 HD
ATOM     54  C   UNL A   1      40.274  28.823  29.151  1.00  0.00     0.037 A 
ATOM     55  C   UNL A   1      47.024  27.008  29.340  1.00  0.00     0.037 A 
ATOM     56  C   UNL A   1      41.163  29.842  29.644  1.00  0.00     0.049 A 
ATOM     57  C   UNL A   1      46.561  28.379  29.748  1.00  0.00     0.074 A 
ATOM     58  C   UNL A   1      40.851  31.111  30.099  1.00  0.00     0.029 A 
ATOM     59  N   UNL A   1      42.538  29.706  29.747  1.00  0.00    -0.354 N 
ATOM     60  N   UNL A   1      45.342  28.860  29.795  1.00  0.00    -0.248 NA
ATOM     61  C   UNL A   1      47.600  29.334  30.159  1.00  0.00     0.031 C 
ATOM     62  C   UNL A   1      42.043  31.757  30.447  1.00  0.00     0.029 A 
ATOM     63  C   UNL A   1      43.092  30.874  30.246  1.00  0.00     0.049 A 
ATOM     64  H   UNL A   1      43.047  28.899  29.503  1.00  0.00     0.167 HD
ATOM     65  C   UNL A   1      45.465  30.160  30.269  1.00  0.00     0.074 A 
ATOM     66  C   UNL A   1      46.875  30.389  30.504  1.00  0.00     0.031 C 
ATOM     67  C   UNL A   1      44.496  31.081  30.489  1.00  0.00     0.037 A 
BRANCH  54  68
ATOM     68  C   UNL A   1      38.811  29.140  29.058  1.00  0.00     0.057 A 
ATOM     69  C   UNL A   1      37.964  29.044  30.171  1.00  0.00     0.134 A 
ATOM     70  C   UNL A   1      38.248  29.582  27.854  1.00  0.00     0.134 A 
ATOM     71  F   UNL A   1      38.440  28.615  31.350  1.00  0.00    -0.206 F 
ATOM     72  C   UNL A   1      36.606  29.353  30.084  1.00  0.00     0.040 A 
ATOM     73  C   UNL A   1      36.895  29.917  27.761  1.00  0.00     0.040 A 
ATOM     74  F   UNL A   1      39.003  29.702  26.752  1.00  0.00    -0.206 F 
ATOM     75  C   UNL A   1      36.069  29.797  28.877  1.00  0.00     0.006 A 
ENDBRANCH  54  68
BRANCH  55  76
ATOM     76  C   UNL A   1      48.466  26.659  29.378  1.00  0.00     0.057 A 
ATOM     77  C   UNL A   1      49.286  26.864  28.263  1.00  0.00     0.134 A 
ATOM     78  C   UNL A   1      49.054  26.096  30.517  1.00  0.00     0.134 A 
ATOM     79  F   UNL A   1      48.774  27.381  27.136  1.00  0.00    -0.206 F 
ATOM     80  C   UNL A   1      50.634  26.503  28.270  1.00  0.00     0.040 A 
ATOM     81  C   UNL A   1      50.406  25.753  30.546  1.00  0.00     0.040 A 
ATOM     82  F   UNL A   1      48.323  25.879  31.620  1.00  0.00    -0.206 F 
ATOM     83  C   UNL A   1      51.198  25.949  29.417  1.00  0.00     0.006 A 
ENDBRANCH  55  76
BRANCH  67  84
ATOM     84  C   UNL A   1      44.924  32.406  31.048  1.00  0.00     0.057 A 
ATOM     85  C   UNL A   1      45.242  33.490  30.221  1.00  0.00     0.134 A 
ATOM     86  C   UNL A   1      44.983  32.607  32.433  1.00  0.00     0.134 A 
ATOM     87  F   UNL A   1      45.218  33.357  28.886  1.00  0.00    -0.206 F 
ATOM     88  C   UNL A   1      45.624  34.723  30.752  1.00  0.00     0.040 A 
ATOM     89  C   UNL A   1      45.339  33.841  32.976  1.00  0.00     0.040 A 
ATOM     90  F   UNL A   1      44.683  31.611  33.280  1.00  0.00    -0.206 F 
ATOM     91  C   UNL A   1      45.667  34.903  32.134  1.00  0.00     0.006 A 
ENDBRANCH  67  84
ENDBRANCH  41  42
ENDBRANCH  33  36
ENDBRANCH  31  32
ENDBRANCH  30  31
ENDBRANCH   1  30
TORSDOF 14
ENDMDL
MODEL 3
REMARK VINA RESULT:     -12.6      4.408      9.751
REMARK SMILES CC(C)c1ccc(-c2cnc([C@@H]3[NH2+][C@H](C(=O)NCCCCNC(=O)c4ccc(-c5c6nc(c(-c7c(F)cccc7F)c7ccc([nH]7)c(-c7c(F)cccc7F)c7nc(c(-c8c(F)cccc8F)c8ccc5[nH]8)C=C7)C=C6)cc4)C(C)(C)S3)s2)cc1
REMARK SMILES IDX 19 1 18 2 17 3 15 4 16 5 14 7 12 8 13 9 82 10 79 13 80 14
REMARK SMILES IDX 81 15 11 16 8 17 9 18 83 19 10 20 7 21 4 22 5 23 85 24 6 25
REMARK SMILES IDX 84 26 2 27 1 28 3 29 20 30 21 31 22 32 23 33 24 35 25 36
REMARK SMILES IDX 26 37 78 38 27 39 77 40 28 41 29 42 30 43 71 44 31 45 76 46
REMARK SMILES IDX 70 47 72 48 32 49 75 50 69 51 68 52 33 54 59 55 42 56 58 57
REMARK SMILES IDX 43 58 46 59 57 60 73 61 44 62 45 63 56 65 74 66 47 67 34 68
REMARK SMILES IDX 35 69 40 70 36 71 37 72 39 73 41 74 38 75 60 76 61 77 66 78
REMARK SMILES IDX 62 79 63 80 65 81 67 82 64 83 48 84 49 85 54 86 50 87 51 88
REMARK SMILES IDX 53 89 55 90 52 91
REMARK H PARENT 17 6 13 11 13 12 22 34 72 53 46 64
REMARK Flexibility Score: inf
ROOT
ATOM      1  C   UNL A   1      37.032  20.795  24.452  1.00  0.00     0.023 C 
ENDROOT
BRANCH   1   2
ATOM      2  C   UNL A   1      37.305  22.163  25.089  1.00  0.00     0.116 C 
BRANCH   2   3
ATOM      3  N   UNL A   1      36.226  23.088  24.810  1.00  0.00    -0.351 N 
ATOM      4  C   UNL A   1      34.905  22.769  24.656  1.00  0.00     0.279 C 
ATOM      5  O   UNL A   1      34.351  23.276  23.687  1.00  0.00    -0.268 OA
ATOM      6  H   UNL A   1      36.468  24.038  24.722  1.00  0.00     0.163 HD
BRANCH   4   7
ATOM      7  C   UNL A   1      34.226  21.856  25.705  1.00  0.00     0.289 C 
ATOM      8  C   UNL A   1      32.359  23.061  26.684  1.00  0.00     0.304 C 
ATOM      9  N   UNL A   1      33.768  22.651  26.890  1.00  0.00    -0.318 N 
ATOM     10  S   UNL A   1      31.548  21.841  25.608  1.00  0.00    -0.079 SA
ATOM     11  H   UNL A   1      33.836  22.081  27.732  1.00  0.00     0.348 HD
ATOM     12  H   UNL A   1      34.354  23.479  26.994  1.00  0.00     0.348 HD
ATOM     13  C   UNL A   1      33.082  20.945  25.213  1.00  0.00     0.078 C 
ATOM     14  C   UNL A   1      33.056  19.638  26.027  1.00  0.00     0.030 C 
ATOM     15  C   UNL A   1      33.121  20.598  23.725  1.00  0.00     0.030 C 
BRANCH   8  16
ATOM     16  C   UNL A   1      32.183  24.482  26.184  1.00  0.00     0.162 A 
ATOM     17  C   UNL A   1      31.360  26.548  25.171  1.00  0.00     0.055 A 
ATOM     18  C   UNL A   1      32.589  26.616  25.797  1.00  0.00     0.132 A 
ATOM     19  S   UNL A   1      30.743  24.954  25.348  1.00  0.00    -0.112 S 
ATOM     20  N   UNL A   1      33.080  25.438  26.290  1.00  0.00    -0.242 NA
BRANCH  17  21
ATOM     21  C   UNL A   1      30.671  27.610  24.433  1.00  0.00    -0.007 A 
ATOM     22  C   UNL A   1      29.337  29.765  23.151  1.00  0.00    -0.045 A 
ATOM     23  C   UNL A   1      28.921  28.440  22.957  1.00  0.00     0.004 A 
ATOM     24  C   UNL A   1      30.439  29.994  23.984  1.00  0.00     0.004 A 
ATOM     25  C   UNL A   1      29.583  27.374  23.587  1.00  0.00     0.010 A 
ATOM     26  C   UNL A   1      31.093  28.936  24.614  1.00  0.00     0.010 A 
BRANCH  22  27
ATOM     27  C   UNL A   1      28.643  30.969  22.533  1.00  0.00     0.013 C 
ATOM     28  C   UNL A   1      28.048  30.732  21.143  1.00  0.00     0.012 C 
ATOM     29  C   UNL A   1      27.562  31.500  23.481  1.00  0.00     0.012 C 
ENDBRANCH  22  27
ENDBRANCH  17  21
ENDBRANCH   8  16
ENDBRANCH   4   7
ENDBRANCH   2   3
ENDBRANCH   1   2
BRANCH   1  30
ATOM     30  C   UNL A   1      38.010  19.680  24.841  1.00  0.00     0.023 C 
BRANCH  30  31
ATOM     31  C   UNL A   1      39.058  20.058  25.880  1.00  0.00     0.116 C 
BRANCH  31  32
ATOM     32  N   UNL A   1      40.221  19.189  25.845  1.00  0.00    -0.352 N 
ATOM     33  C   UNL A   1      41.532  19.473  26.123  1.00  0.00     0.251 C 
ATOM     34  H   UNL A   1      40.040  18.256  25.583  1.00  0.00     0.163 HD
ATOM     35  O   UNL A   1      42.398  18.624  25.908  1.00  0.00    -0.269 OA
BRANCH  33  36
ATOM     36  C   UNL A   1      41.919  20.800  26.646  1.00  0.00     0.039 A 
ATOM     37  C   UNL A   1      42.338  21.780  25.742  1.00  0.00     0.014 A 
ATOM     38  C   UNL A   1      41.885  21.080  28.016  1.00  0.00     0.014 A 
ATOM     39  C   UNL A   1      42.665  23.058  26.202  1.00  0.00     0.010 A 
ATOM     40  C   UNL A   1      42.145  22.373  28.465  1.00  0.00     0.010 A 
ATOM     41  C   UNL A   1      42.540  23.374  27.564  1.00  0.00    -0.014 A 
BRANCH  41  42
ATOM     42  C   UNL A   1      42.819  24.745  28.062  1.00  0.00     0.031 A 
ATOM     43  C   UNL A   1      44.217  25.139  28.449  1.00  0.00     0.074 A 
ATOM     44  C   UNL A   1      41.805  25.617  28.221  1.00  0.00     0.049 A 
ATOM     45  N   UNL A   1      44.646  26.259  28.973  1.00  0.00    -0.248 NA
ATOM     46  C   UNL A   1      45.270  24.132  28.240  1.00  0.00     0.031 C 
ATOM     47  C   UNL A   1      40.398  25.345  27.919  1.00  0.00     0.029 A 
ATOM     48  N   UNL A   1      41.801  26.909  28.687  1.00  0.00    -0.354 N 
ATOM     49  C   UNL A   1      46.011  26.087  29.169  1.00  0.00     0.074 A 
ATOM     50  C   UNL A   1      46.331  24.739  28.752  1.00  0.00     0.031 C 
ATOM     51  C   UNL A   1      39.672  26.443  28.188  1.00  0.00     0.029 A 
ATOM     52  C   UNL A   1      40.552  27.481  28.715  1.00  0.00     0.049 A 
ATOM     53  H   UNL A   1      42.616  27.380  28.974  1.00  0.00     0.167 HD
ATOM     54  C   UNL A   1      46.919  26.979  29.632  1.00  0.00     0.037 A 
ATOM     55  C   UNL A   1      40.161  28.700  29.128  1.00  0.00     0.037 A 
ATOM     56  C   UNL A   1      46.606  28.327  30.024  1.00  0.00     0.049 A 
ATOM     57  C   UNL A   1      41.188  29.667  29.649  1.00  0.00     0.074 A 
ATOM     58  C   UNL A   1      47.465  29.319  30.461  1.00  0.00     0.029 A 
ATOM     59  N   UNL A   1      45.332  28.873  30.023  1.00  0.00    -0.354 N 
ATOM     60  N   UNL A   1      42.483  29.508  29.777  1.00  0.00    -0.248 NA
ATOM     61  C   UNL A   1      40.699  30.984  30.079  1.00  0.00     0.031 C 
ATOM     62  C   UNL A   1      46.706  30.457  30.759  1.00  0.00     0.029 A 
ATOM     63  C   UNL A   1      45.380  30.185  30.467  1.00  0.00     0.049 A 
ATOM     64  H   UNL A   1      44.513  28.399  29.748  1.00  0.00     0.167 HD
ATOM     65  C   UNL A   1      42.965  30.712  30.273  1.00  0.00     0.074 A 
ATOM     66  C   UNL A   1      41.827  31.596  30.412  1.00  0.00     0.031 C 
ATOM     67  C   UNL A   1      44.238  31.055  30.585  1.00  0.00     0.037 A 
BRANCH  54  68
ATOM     68  C   UNL A   1      48.345  26.522  29.731  1.00  0.00     0.057 A 
ATOM     69  C   UNL A   1      48.825  25.847  30.861  1.00  0.00     0.134 A 
ATOM     70  C   UNL A   1      49.238  26.726  28.671  1.00  0.00     0.134 A 
ATOM     71  F   UNL A   1      48.022  25.631  31.914  1.00  0.00    -0.206 F 
ATOM     72  C   UNL A   1      50.148  25.411  30.944  1.00  0.00     0.040 A 
ATOM     73  C   UNL A   1      50.558  26.273  28.733  1.00  0.00     0.040 A 
ATOM     74  F   UNL A   1      48.843  27.361  27.558  1.00  0.00    -0.206 F 
ATOM     75  C   UNL A   1      51.017  25.619  29.875  1.00  0.00     0.006 A 
ENDBRANCH  54  68
BRANCH  55  76
ATOM     76  C   UNL A   1      38.732  29.092  29.047  1.00  0.00     0.057 A 
ATOM     77  C   UNL A   1      38.188  29.591  27.857  1.00  0.00     0.134 A 
ATOM     78  C   UNL A   1      37.882  28.998  30.155  1.00  0.00     0.134 A 
ATOM     79  F   UNL A   1      38.959  29.723  26.767  1.00  0.00    -0.206 F 
ATOM     80  C   UNL A   1      36.857  30.001  27.776  1.00  0.00     0.040 A 
ATOM     81  C   UNL A   1      36.542  29.382  30.081  1.00  0.00     0.040 A 
ATOM     82  F   UNL A   1      38.341  28.524  31.322  1.00  0.00    -0.206 F 
ATOM     83  C   UNL A   1      36.029  29.893  28.891  1.00  0.00     0.006 A 
ENDBRANCH  55  76
BRANCH  67  84
ATOM     84  C   UNL A   1      44.472  32.456  31.069  1.00  0.00     0.057 A 
ATOM     85  C   UNL A   1      44.720  33.513  30.185  1.00  0.00     0.134 A 
ATOM     86  C   UNL A   1      44.412  32.754  32.437  1.00  0.00     0.134 A 
ATOM     87  F   UNL A   1      44.804  33.289  28.865  1.00  0.00    -0.206 F 
ATOM     88  C   UNL A   1      44.922  34.815  30.645  1.00  0.00     0.040 A 
ATOM     89  C   UNL A   1      44.587  34.056  32.907  1.00  0.00     0.040 A 
ATOM     90  F   UNL A   1      44.171  31.789  33.336  1.00  0.00    -0.206 F 
ATOM     91  C   UNL A   1      44.848  35.091  32.010  1.00  0.00     0.006 A 
ENDBRANCH  67  84
ENDBRANCH  41  42
ENDBRANCH  33  36
ENDBRANCH  31  32
ENDBRANCH  30  31
ENDBRANCH   1  30
TORSDOF 14
ENDMDL
