MODEL 1
REMARK VINA RESULT:      -9.9      0.000      0.000
REMARK SMILES COC(=O)c1ccc2oc(=O)c([C@H]3N=c4ccc(C(=O)NCCCCNC(=O)c5ccc(-c6c7nc(c(-c8c(F)cccc8F)c8ccc([nH]8)c(-c8c(F)cccc8F)c8nc(c(-c9c(F)cccc9F)c9ccc6[nH]9)C=C8)C=C7)cc5)cc4=N3)cc2c1
REMARK SMILES IDX 23 1 22 2 21 3 19 4 20 5 18 7 13 8 14 9 85 10 15 11 84 12
REMARK SMILES IDX 16 13 83 14 17 15 12 16 5 17 6 18 88 19 7 20 87 21 8 22
REMARK SMILES IDX 86 23 9 24 10 25 11 26 3 27 4 28 2 29 1 30 24 31 25 32 26 33
REMARK SMILES IDX 27 34 28 36 29 37 30 38 82 39 31 40 81 41 32 42 33 43 34 44
REMARK SMILES IDX 75 45 35 46 80 47 74 48 76 49 36 50 79 51 73 52 72 53 37 55
REMARK SMILES IDX 63 56 46 57 62 58 47 59 50 60 61 61 77 62 48 63 49 64 60 66
REMARK SMILES IDX 78 67 51 68 38 69 39 70 44 71 40 72 41 73 43 74 45 75 42 76
REMARK SMILES IDX 64 77 65 78 70 79 66 80 67 81 69 82 71 83 68 84 52 85 53 86
REMARK SMILES IDX 58 87 54 88 55 89 57 90 59 91 56 92
REMARK H PARENT 21 6 26 35 76 54 50 65
REMARK Flexibility Score: inf
ROOT
ATOM      1  C   UNL A   1      41.566  19.828  26.683  1.00  0.00     0.023 C 
ENDROOT
BRANCH   1   2
ATOM      2  C   UNL A   1      42.670  20.855  26.955  1.00  0.00     0.116 C 
BRANCH   2   3
ATOM      3  N   UNL A   1      42.496  21.462  28.258  1.00  0.00    -0.352 N 
ATOM      4  C   UNL A   1      43.032  22.557  28.861  1.00  0.00     0.251 C 
ATOM      5  O   UNL A   1      42.653  22.777  30.015  1.00  0.00    -0.269 OA
ATOM      6  H   UNL A   1      41.854  20.980  28.828  1.00  0.00     0.163 HD
BRANCH   4   7
ATOM      7  C   UNL A   1      43.989  23.499  28.180  1.00  0.00     0.042 A 
ATOM      8  C   UNL A   1      45.188  26.819  25.373  1.00  0.00     0.260 C 
ATOM      9  N   UNL A   1      46.316  26.037  25.938  1.00  0.00    -0.251 NA
ATOM     10  N   UNL A   1      43.877  26.249  25.785  1.00  0.00    -0.251 NA
ATOM     11  C   UNL A   1      45.702  25.214  26.714  1.00  0.00     0.086 A 
ATOM     12  C   UNL A   1      44.233  25.311  26.594  1.00  0.00     0.087 A 
ATOM     13  C   UNL A   1      46.280  24.290  27.682  1.00  0.00     0.031 A 
ATOM     14  C   UNL A   1      43.393  24.369  27.338  1.00  0.00     0.044 A 
ATOM     15  C   UNL A   1      45.429  23.552  28.406  1.00  0.00     0.016 A 
BRANCH   8  16
ATOM     16  C   UNL A   1      45.330  28.261  25.779  1.00  0.00     0.085 A 
ATOM     17  C   UNL A   1      43.999  32.124  28.396  1.00  0.00     0.060 A 
ATOM     18  C   UNL A   1      44.942  32.912  27.720  1.00  0.00     0.019 A 
ATOM     19  C   UNL A   1      43.884  30.756  28.105  1.00  0.00     0.027 A 
ATOM     20  C   UNL A   1      45.753  32.337  26.741  1.00  0.00     0.049 A 
ATOM     21  C   UNL A   1      44.691  30.183  27.123  1.00  0.00     0.019 A 
ATOM     22  C   UNL A   1      45.605  30.982  26.450  1.00  0.00     0.138 A 
ATOM     23  C   UNL A   1      44.594  28.779  26.775  1.00  0.00     0.027 A 
ATOM     24  O   UNL A   1      46.403  30.444  25.427  1.00  0.00    -0.422 OA
ATOM     25  C   UNL A   1      46.267  29.121  25.003  1.00  0.00     0.343 A 
ATOM     26  O   UNL A   1      46.898  28.725  24.029  1.00  0.00    -0.246 OA
BRANCH  17  27
ATOM     27  C   UNL A   1      43.094  32.683  29.428  1.00  0.00     0.337 C 
ATOM     28  O   UNL A   1      42.101  32.108  29.833  1.00  0.00    -0.246 OA
BRANCH  27  29
ATOM     29  O   UNL A   1      43.496  33.934  29.764  1.00  0.00    -0.465 OA
ATOM     30  C   UNL A   1      42.418  34.858  29.922  1.00  0.00     0.282 C 
ENDBRANCH  27  29
ENDBRANCH  17  27
ENDBRANCH   8  16
ENDBRANCH   4   7
ENDBRANCH   2   3
ENDBRANCH   1   2
BRANCH   1  31
ATOM     31  C   UNL A   1      40.201  20.444  26.370  1.00  0.00     0.023 C 
BRANCH  31  32
ATOM     32  C   UNL A   1      40.195  21.963  26.258  1.00  0.00     0.116 C 
BRANCH  32  33
ATOM     33  N   UNL A   1      38.946  22.519  25.751  1.00  0.00    -0.352 N 
ATOM     34  C   UNL A   1      38.399  23.755  26.018  1.00  0.00     0.251 C 
ATOM     35  H   UNL A   1      38.430  21.940  25.144  1.00  0.00     0.163 HD
ATOM     36  O   UNL A   1      37.288  24.054  25.597  1.00  0.00    -0.269 OA
BRANCH  34  37
ATOM     37  C   UNL A   1      39.154  24.694  26.875  1.00  0.00     0.039 A 
ATOM     38  C   UNL A   1      38.923  24.723  28.249  1.00  0.00     0.014 A 
ATOM     39  C   UNL A   1      40.013  25.624  26.284  1.00  0.00     0.014 A 
ATOM     40  C   UNL A   1      39.362  25.810  28.991  1.00  0.00     0.010 A 
ATOM     41  C   UNL A   1      40.550  26.656  27.061  1.00  0.00     0.010 A 
ATOM     42  C   UNL A   1      40.168  26.801  28.405  1.00  0.00    -0.014 A 
BRANCH  42  43
ATOM     43  C   UNL A   1      40.545  27.991  29.216  1.00  0.00     0.031 A 
ATOM     44  C   UNL A   1      39.572  29.125  29.430  1.00  0.00     0.074 A 
ATOM     45  C   UNL A   1      41.736  28.006  29.847  1.00  0.00     0.049 A 
ATOM     46  N   UNL A   1      39.703  30.199  30.170  1.00  0.00    -0.248 NA
ATOM     47  C   UNL A   1      38.286  29.047  28.720  1.00  0.00     0.031 C 
ATOM     48  C   UNL A   1      42.764  26.968  29.735  1.00  0.00     0.029 A 
ATOM     49  N   UNL A   1      42.268  28.904  30.736  1.00  0.00    -0.354 N 
ATOM     50  C   UNL A   1      38.530  30.926  30.002  1.00  0.00     0.074 A 
ATOM     51  C   UNL A   1      37.717  30.195  29.054  1.00  0.00     0.031 C 
ATOM     52  C   UNL A   1      43.769  27.252  30.576  1.00  0.00     0.029 A 
ATOM     53  C   UNL A   1      43.492  28.525  31.231  1.00  0.00     0.049 A 
ATOM     54  H   UNL A   1      41.816  29.740  30.996  1.00  0.00     0.167 HD
ATOM     55  C   UNL A   1      38.153  32.087  30.594  1.00  0.00     0.037 A 
ATOM     56  C   UNL A   1      44.308  29.137  32.108  1.00  0.00     0.037 A 
ATOM     57  C   UNL A   1      38.958  32.816  31.541  1.00  0.00     0.049 A 
ATOM     58  C   UNL A   1      43.891  30.453  32.700  1.00  0.00     0.074 A 
ATOM     59  C   UNL A   1      38.664  34.000  32.197  1.00  0.00     0.029 A 
ATOM     60  N   UNL A   1      40.221  32.431  31.966  1.00  0.00    -0.354 N 
ATOM     61  N   UNL A   1      42.772  31.119  32.540  1.00  0.00    -0.248 NA
ATOM     62  C   UNL A   1      44.855  31.101  33.599  1.00  0.00     0.031 C 
ATOM     63  C   UNL A   1      39.769  34.356  32.978  1.00  0.00     0.029 A 
ATOM     64  C   UNL A   1      40.726  33.362  32.860  1.00  0.00     0.049 A 
ATOM     65  H   UNL A   1      40.690  31.615  31.675  1.00  0.00     0.167 HD
ATOM     66  C   UNL A   1      42.885  32.247  33.343  1.00  0.00     0.074 A 
ATOM     67  C   UNL A   1      44.171  32.160  34.005  1.00  0.00     0.031 C 
ATOM     68  C   UNL A   1      42.006  33.264  33.516  1.00  0.00     0.037 A 
BRANCH  55  69
ATOM     69  C   UNL A   1      36.812  32.651  30.211  1.00  0.00     0.057 A 
ATOM     70  C   UNL A   1      36.684  33.508  29.109  1.00  0.00     0.134 A 
ATOM     71  C   UNL A   1      35.646  32.360  30.935  1.00  0.00     0.134 A 
ATOM     72  F   UNL A   1      37.757  33.839  28.375  1.00  0.00    -0.206 F 
ATOM     73  C   UNL A   1      35.450  34.047  28.739  1.00  0.00     0.040 A 
ATOM     74  C   UNL A   1      34.402  32.868  30.556  1.00  0.00     0.040 A 
ATOM     75  F   UNL A   1      35.692  31.537  31.994  1.00  0.00    -0.206 F 
ATOM     76  C   UNL A   1      34.303  33.719  29.457  1.00  0.00     0.006 A 
ENDBRANCH  55  69
BRANCH  56  77
ATOM     77  C   UNL A   1      45.612  28.525  32.474  1.00  0.00     0.057 A 
ATOM     78  C   UNL A   1      45.717  27.617  33.533  1.00  0.00     0.134 A 
ATOM     79  C   UNL A   1      46.773  28.803  31.744  1.00  0.00     0.134 A 
ATOM     80  F   UNL A   1      44.644  27.313  34.277  1.00  0.00    -0.206 F 
ATOM     81  C   UNL A   1      46.930  27.005  33.854  1.00  0.00     0.040 A 
ATOM     82  C   UNL A   1      47.986  28.173  32.033  1.00  0.00     0.040 A 
ATOM     83  F   UNL A   1      46.734  29.652  30.707  1.00  0.00    -0.206 F 
ATOM     84  C   UNL A   1      48.065  27.273  33.093  1.00  0.00     0.006 A 
ENDBRANCH  56  77
BRANCH  68  85
ATOM     85  C   UNL A   1      42.389  34.330  34.505  1.00  0.00     0.057 A 
ATOM     86  C   UNL A   1      42.036  34.202  35.855  1.00  0.00     0.134 A 
ATOM     87  C   UNL A   1      43.117  35.467  34.135  1.00  0.00     0.134 A 
ATOM     88  F   UNL A   1      41.329  33.144  36.279  1.00  0.00    -0.206 F 
ATOM     89  C   UNL A   1      42.406  35.158  36.801  1.00  0.00     0.040 A 
ATOM     90  C   UNL A   1      43.524  36.414  35.078  1.00  0.00     0.040 A 
ATOM     91  F   UNL A   1      43.500  35.646  32.861  1.00  0.00    -0.206 F 
ATOM     92  C   UNL A   1      43.165  36.261  36.416  1.00  0.00     0.006 A 
ENDBRANCH  68  85
ENDBRANCH  42  43
ENDBRANCH  34  37
ENDBRANCH  32  33
ENDBRANCH  31  32
ENDBRANCH   1  31
TORSDOF 14
ENDMDL
MODEL 2
REMARK VINA RESULT:      -9.8      4.560     10.193
REMARK SMILES COC(=O)c1ccc2oc(=O)c([C@H]3N=c4ccc(C(=O)NCCCCNC(=O)c5ccc(-c6c7nc(c(-c8c(F)cccc8F)c8ccc([nH]8)c(-c8c(F)cccc8F)c8nc(c(-c9c(F)cccc9F)c9ccc6[nH]9)C=C8)C=C7)cc5)cc4=N3)cc2c1
REMARK SMILES IDX 23 1 22 2 21 3 19 4 20 5 18 7 13 8 14 9 85 10 15 11 84 12
REMARK SMILES IDX 16 13 83 14 17 15 12 16 5 17 6 18 88 19 7 20 87 21 8 22
REMARK SMILES IDX 86 23 9 24 10 25 11 26 3 27 4 28 2 29 1 30 24 31 25 32 26 33
REMARK SMILES IDX 27 34 28 36 29 37 30 38 82 39 31 40 81 41 32 42 33 43 34 44
REMARK SMILES IDX 75 45 35 46 80 47 74 48 76 49 36 50 79 51 73 52 72 53 37 55
REMARK SMILES IDX 63 56 46 57 62 58 47 59 50 60 61 61 77 62 48 63 49 64 60 66
REMARK SMILES IDX 78 67 51 68 38 69 39 70 44 71 40 72 41 73 43 74 45 75 42 76
REMARK SMILES IDX 64 77 65 78 70 79 66 80 67 81 69 82 71 83 68 84 52 85 53 86
REMARK SMILES IDX 58 87 54 88 55 89 57 90 59 91 56 92
REMARK H PARENT 21 6 26 35 76 54 50 65
REMARK Flexibility Score: inf
ROOT
ATOM      1  C   UNL A   1      36.590  20.489  25.116  1.00  0.00     0.023 C 
ENDROOT
BRANCH   1   2
ATOM      2  C   UNL A   1      35.410  21.125  25.859  1.00  0.00     0.116 C 
BRANCH   2   3
ATOM      3  N   UNL A   1      34.173  20.447  25.533  1.00  0.00    -0.352 N 
ATOM      4  C   UNL A   1      33.066  20.804  24.828  1.00  0.00     0.251 C 
ATOM      5  O   UNL A   1      32.173  19.955  24.760  1.00  0.00    -0.269 OA
ATOM      6  H   UNL A   1      34.123  19.534  25.898  1.00  0.00     0.163 HD
BRANCH   4   7
ATOM      7  C   UNL A   1      32.922  22.123  24.114  1.00  0.00     0.042 A 
ATOM      8  C   UNL A   1      30.806  25.895  22.839  1.00  0.00     0.260 C 
ATOM      9  N   UNL A   1      32.067  25.607  22.112  1.00  0.00    -0.251 NA
ATOM     10  N   UNL A   1      30.458  24.791  23.774  1.00  0.00    -0.251 NA
ATOM     11  C   UNL A   1      32.466  24.531  22.695  1.00  0.00     0.086 A 
ATOM     12  C   UNL A   1      31.480  24.014  23.667  1.00  0.00     0.087 A 
ATOM     13  C   UNL A   1      33.743  23.845  22.539  1.00  0.00     0.031 A 
ATOM     14  C   UNL A   1      31.743  22.739  24.340  1.00  0.00     0.044 A 
ATOM     15  C   UNL A   1      33.944  22.751  23.286  1.00  0.00     0.016 A 
BRANCH   8  16
ATOM     16  C   UNL A   1      30.931  27.216  23.548  1.00  0.00     0.085 A 
ATOM     17  C   UNL A   1      33.155  30.225  26.637  1.00  0.00     0.060 A 
ATOM     18  C   UNL A   1      32.150  31.182  26.436  1.00  0.00     0.019 A 
ATOM     19  C   UNL A   1      33.122  29.008  25.939  1.00  0.00     0.027 A 
ATOM     20  C   UNL A   1      31.103  30.913  25.553  1.00  0.00     0.049 A 
ATOM     21  C   UNL A   1      32.072  28.737  25.062  1.00  0.00     0.019 A 
ATOM     22  C   UNL A   1      31.075  29.688  24.890  1.00  0.00     0.138 A 
ATOM     23  C   UNL A   1      31.985  27.487  24.335  1.00  0.00     0.027 A 
ATOM     24  O   UNL A   1      29.983  29.429  24.045  1.00  0.00    -0.422 OA
ATOM     25  C   UNL A   1      29.820  28.199  23.405  1.00  0.00     0.343 A 
ATOM     26  O   UNL A   1      28.794  27.972  22.773  1.00  0.00    -0.246 OA
BRANCH  17  27
ATOM     27  C   UNL A   1      34.279  30.444  27.578  1.00  0.00     0.337 C 
ATOM     28  O   UNL A   1      35.048  29.565  27.922  1.00  0.00    -0.246 OA
BRANCH  27  29
ATOM     29  O   UNL A   1      34.250  31.718  28.042  1.00  0.00    -0.465 OA
ATOM     30  C   UNL A   1      35.491  32.409  27.892  1.00  0.00     0.282 C 
ENDBRANCH  27  29
ENDBRANCH  17  27
ENDBRANCH   8  16
ENDBRANCH   4   7
ENDBRANCH   2   3
ENDBRANCH   1   2
BRANCH   1  31
ATOM     31  C   UNL A   1      37.787  21.424  24.924  1.00  0.00     0.023 C 
BRANCH  31  32
ATOM     32  C   UNL A   1      38.878  21.288  25.978  1.00  0.00     0.116 C 
BRANCH  32  33
ATOM     33  N   UNL A   1      39.634  20.044  25.897  1.00  0.00    -0.352 N 
ATOM     34  C   UNL A   1      40.993  19.867  26.042  1.00  0.00     0.251 C 
ATOM     35  H   UNL A   1      39.109  19.231  25.715  1.00  0.00     0.163 HD
ATOM     36  O   UNL A   1      41.507  18.771  25.851  1.00  0.00    -0.269 OA
BRANCH  34  37
ATOM     37  C   UNL A   1      41.828  21.040  26.375  1.00  0.00     0.039 A 
ATOM     38  C   UNL A   1      42.119  21.332  27.706  1.00  0.00     0.014 A 
ATOM     39  C   UNL A   1      42.227  21.911  25.358  1.00  0.00     0.014 A 
ATOM     40  C   UNL A   1      42.598  22.591  28.038  1.00  0.00     0.010 A 
ATOM     41  C   UNL A   1      42.817  23.135  25.692  1.00  0.00     0.010 A 
ATOM     42  C   UNL A   1      42.938  23.518  27.038  1.00  0.00    -0.014 A 
BRANCH  42  43
ATOM     43  C   UNL A   1      43.367  24.884  27.442  1.00  0.00     0.031 A 
ATOM     44  C   UNL A   1      44.738  25.405  27.084  1.00  0.00     0.074 A 
ATOM     45  C   UNL A   1      42.481  25.699  28.048  1.00  0.00     0.049 A 
ATOM     46  N   UNL A   1      45.249  26.595  27.286  1.00  0.00    -0.248 NA
ATOM     47  C   UNL A   1      45.657  24.470  26.418  1.00  0.00     0.031 C 
ATOM     48  C   UNL A   1      41.120  25.324  28.438  1.00  0.00     0.029 A 
ATOM     49  N   UNL A   1      42.577  27.019  28.406  1.00  0.00    -0.354 N 
ATOM     50  C   UNL A   1      46.546  26.546  26.788  1.00  0.00     0.074 A 
ATOM     51  C   UNL A   1      46.761  25.195  26.316  1.00  0.00     0.031 C 
ATOM     52  C   UNL A   1      40.486  26.405  28.916  1.00  0.00     0.029 A 
ATOM     53  C   UNL A   1      41.415  27.529  28.934  1.00  0.00     0.049 A 
ATOM     54  H   UNL A   1      43.398  27.551  28.295  1.00  0.00     0.167 HD
ATOM     55  C   UNL A   1      47.470  27.536  26.712  1.00  0.00     0.037 A 
ATOM     56  C   UNL A   1      41.130  28.761  29.392  1.00  0.00     0.037 A 
ATOM     57  C   UNL A   1      47.259  28.883  27.177  1.00  0.00     0.049 A 
ATOM     58  C   UNL A   1      42.194  29.821  29.352  1.00  0.00     0.074 A 
ATOM     59  C   UNL A   1      48.132  29.957  27.144  1.00  0.00     0.029 A 
ATOM     60  N   UNL A   1      46.090  29.341  27.767  1.00  0.00    -0.354 N 
ATOM     61  N   UNL A   1      43.410  29.759  28.865  1.00  0.00    -0.248 NA
ATOM     62  C   UNL A   1      41.840  31.125  29.927  1.00  0.00     0.031 C 
ATOM     63  C   UNL A   1      47.509  31.050  27.758  1.00  0.00     0.029 A 
ATOM     64  C   UNL A   1      46.225  30.676  28.117  1.00  0.00     0.049 A 
ATOM     65  H   UNL A   1      45.282  28.798  27.914  1.00  0.00     0.167 HD
ATOM     66  C   UNL A   1      43.955  31.025  29.045  1.00  0.00     0.074 A 
ATOM     67  C   UNL A   1      42.926  31.836  29.665  1.00  0.00     0.031 C 
ATOM     68  C   UNL A   1      45.193  31.475  28.729  1.00  0.00     0.037 A 
BRANCH  55  69
ATOM     69  C   UNL A   1      48.808  27.185  26.120  1.00  0.00     0.057 A 
ATOM     70  C   UNL A   1      49.862  26.756  26.938  1.00  0.00     0.134 A 
ATOM     71  C   UNL A   1      49.063  27.281  24.744  1.00  0.00     0.134 A 
ATOM     72  F   UNL A   1      49.695  26.649  28.265  1.00  0.00    -0.206 F 
ATOM     73  C   UNL A   1      51.113  26.430  26.411  1.00  0.00     0.040 A 
ATOM     74  C   UNL A   1      50.300  26.929  24.202  1.00  0.00     0.040 A 
ATOM     75  F   UNL A   1      48.097  27.674  23.900  1.00  0.00    -0.206 F 
ATOM     76  C   UNL A   1      51.332  26.506  25.038  1.00  0.00     0.006 A 
ENDBRANCH  55  69
BRANCH  56  77
ATOM     77  C   UNL A   1      39.784  29.065  29.943  1.00  0.00     0.057 A 
ATOM     78  C   UNL A   1      38.769  29.589  29.136  1.00  0.00     0.134 A 
ATOM     79  C   UNL A   1      39.471  28.796  31.280  1.00  0.00     0.134 A 
ATOM     80  F   UNL A   1      39.006  29.878  27.847  1.00  0.00    -0.206 F 
ATOM     81  C   UNL A   1      37.490  29.835  29.637  1.00  0.00     0.040 A 
ATOM     82  C   UNL A   1      38.186  29.006  31.786  1.00  0.00     0.040 A 
ATOM     83  F   UNL A   1      40.396  28.277  32.100  1.00  0.00    -0.206 F 
ATOM     84  C   UNL A   1      37.193  29.530  30.962  1.00  0.00     0.006 A 
ENDBRANCH  56  77
BRANCH  68  85
ATOM     85  C   UNL A   1      45.476  32.927  28.997  1.00  0.00     0.057 A 
ATOM     86  C   UNL A   1      45.144  33.900  28.046  1.00  0.00     0.134 A 
ATOM     87  C   UNL A   1      46.054  33.368  30.195  1.00  0.00     0.134 A 
ATOM     88  F   UNL A   1      44.597  33.549  26.873  1.00  0.00    -0.206 F 
ATOM     89  C   UNL A   1      45.364  35.258  28.281  1.00  0.00     0.040 A 
ATOM     90  C   UNL A   1      46.247  34.726  30.457  1.00  0.00     0.040 A 
ATOM     91  F   UNL A   1      46.384  32.491  31.155  1.00  0.00    -0.206 F 
ATOM     92  C   UNL A   1      45.903  35.675  29.496  1.00  0.00     0.006 A 
ENDBRANCH  68  85
ENDBRANCH  42  43
ENDBRANCH  34  37
ENDBRANCH  32  33
ENDBRANCH  31  32
ENDBRANCH   1  31
TORSDOF 14
ENDMDL
MODEL 3
REMARK VINA RESULT:      -9.8      1.692      2.302
REMARK SMILES COC(=O)c1ccc2oc(=O)c([C@H]3N=c4ccc(C(=O)NCCCCNC(=O)c5ccc(-c6c7nc(c(-c8c(F)cccc8F)c8ccc([nH]8)c(-c8c(F)cccc8F)c8nc(c(-c9c(F)cccc9F)c9ccc6[nH]9)C=C8)C=C7)cc5)cc4=N3)cc2c1
REMARK SMILES IDX 23 1 22 2 21 3 19 4 20 5 18 7 13 8 14 9 85 10 15 11 84 12
REMARK SMILES IDX 16 13 83 14 17 15 12 16 5 17 6 18 88 19 7 20 87 21 8 22
REMARK SMILES IDX 86 23 9 24 10 25 11 26 3 27 4 28 2 29 1 30 24 31 25 32 26 33
REMARK SMILES IDX 27 34 28 36 29 37 30 38 82 39 31 40 81 41 32 42 33 43 34 44
REMARK SMILES IDX 75 45 35 46 80 47 74 48 76 49 36 50 79 51 73 52 72 53 37 55
REMARK SMILES IDX 63 56 46 57 62 58 47 59 50 60 61 61 77 62 48 63 49 64 60 66
REMARK SMILES IDX 78 67 51 68 38 69 39 70 44 71 40 72 41 73 43 74 45 75 42 76
REMARK SMILES IDX 64 77 65 78 70 79 66 80 67 81 69 82 71 83 68 84 52 85 53 86
REMARK SMILES IDX 58 87 54 88 55 89 57 90 59 91 56 92
REMARK H PARENT 21 6 26 35 76 54 50 65
REMARK Flexibility Score: inf
ROOT
ATOM      1  C   UNL A   1      41.439  19.530  26.125  1.00  0.00     0.023 C 
ENDROOT
BRANCH   1   2
ATOM      2  C   UNL A   1      42.933  19.827  26.285  1.00  0.00     0.116 C 
BRANCH   2   3
ATOM      3  N   UNL A   1      43.466  20.445  25.089  1.00  0.00    -0.352 N 
ATOM      4  C   UNL A   1      44.152  21.595  24.854  1.00  0.00     0.251 C 
ATOM      5  O   UNL A   1      44.445  21.818  23.677  1.00  0.00    -0.269 OA
ATOM      6  H   UNL A   1      43.295  19.922  24.273  1.00  0.00     0.163 HD
BRANCH   4   7
ATOM      7  C   UNL A   1      44.594  22.539  25.942  1.00  0.00     0.042 A 
ATOM      8  C   UNL A   1      47.526  25.096  28.221  1.00  0.00     0.260 C 
ATOM      9  N   UNL A   1      46.221  24.886  28.896  1.00  0.00    -0.251 NA
ATOM     10  N   UNL A   1      47.617  24.308  26.963  1.00  0.00    -0.251 NA
ATOM     11  C   UNL A   1      45.587  24.181  28.026  1.00  0.00     0.086 A 
ATOM     12  C   UNL A   1      46.437  23.796  26.880  1.00  0.00     0.087 A 
ATOM     13  C   UNL A   1      44.181  23.795  28.034  1.00  0.00     0.031 A 
ATOM     14  C   UNL A   1      45.889  22.907  25.853  1.00  0.00     0.044 A 
ATOM     15  C   UNL A   1      43.737  23.081  26.990  1.00  0.00     0.016 A 
BRANCH   8  16
ATOM     16  C   UNL A   1      47.730  26.568  27.982  1.00  0.00     0.085 A 
ATOM     17  C   UNL A   1      46.085  30.994  26.864  1.00  0.00     0.060 A 
ATOM     18  C   UNL A   1      47.393  31.496  26.908  1.00  0.00     0.019 A 
ATOM     19  C   UNL A   1      45.836  29.644  27.155  1.00  0.00     0.027 A 
ATOM     20  C   UNL A   1      48.453  30.645  27.225  1.00  0.00     0.049 A 
ATOM     21  C   UNL A   1      46.896  28.792  27.465  1.00  0.00     0.019 A 
ATOM     22  C   UNL A   1      48.188  29.302  27.486  1.00  0.00     0.138 A 
ATOM     23  C   UNL A   1      46.691  27.386  27.754  1.00  0.00     0.027 A 
ATOM     24  O   UNL A   1      49.281  28.462  27.754  1.00  0.00    -0.422 OA
ATOM     25  C   UNL A   1      49.126  27.087  27.941  1.00  0.00     0.343 A 
ATOM     26  O   UNL A   1      50.116  26.372  28.055  1.00  0.00    -0.246 OA
BRANCH  17  27
ATOM     27  C   UNL A   1      44.922  31.842  26.512  1.00  0.00     0.337 C 
ATOM     28  O   UNL A   1      43.875  31.837  27.132  1.00  0.00    -0.246 OA
BRANCH  27  29
ATOM     29  O   UNL A   1      45.183  32.531  25.372  1.00  0.00    -0.465 OA
ATOM     30  C   UNL A   1      44.282  33.615  25.141  1.00  0.00     0.282 C 
ENDBRANCH  27  29
ENDBRANCH  17  27
ENDBRANCH   8  16
ENDBRANCH   4   7
ENDBRANCH   2   3
ENDBRANCH   1   2
BRANCH   1  31
ATOM     31  C   UNL A   1      40.522  20.529  26.836  1.00  0.00     0.023 C 
BRANCH  31  32
ATOM     32  C   UNL A   1      40.537  21.936  26.254  1.00  0.00     0.116 C 
BRANCH  32  33
ATOM     33  N   UNL A   1      39.231  22.417  25.822  1.00  0.00    -0.352 N 
ATOM     34  C   UNL A   1      38.644  23.635  26.090  1.00  0.00     0.251 C 
ATOM     35  H   UNL A   1      38.702  21.795  25.272  1.00  0.00     0.163 HD
ATOM     36  O   UNL A   1      37.493  23.868  25.741  1.00  0.00    -0.269 OA
BRANCH  34  37
ATOM     37  C   UNL A   1      39.412  24.636  26.861  1.00  0.00     0.039 A 
ATOM     38  C   UNL A   1      39.273  24.704  28.246  1.00  0.00     0.014 A 
ATOM     39  C   UNL A   1      40.185  25.581  26.182  1.00  0.00     0.014 A 
ATOM     40  C   UNL A   1      39.711  25.835  28.919  1.00  0.00     0.010 A 
ATOM     41  C   UNL A   1      40.725  26.662  26.886  1.00  0.00     0.010 A 
ATOM     42  C   UNL A   1      40.429  26.839  28.247  1.00  0.00    -0.014 A 
BRANCH  42  43
ATOM     43  C   UNL A   1      40.805  28.072  28.991  1.00  0.00     0.031 A 
ATOM     44  C   UNL A   1      39.796  29.167  29.240  1.00  0.00     0.074 A 
ATOM     45  C   UNL A   1      42.036  28.165  29.532  1.00  0.00     0.049 A 
ATOM     46  N   UNL A   1      39.927  30.271  29.933  1.00  0.00    -0.248 NA
ATOM     47  C   UNL A   1      38.468  29.005  28.628  1.00  0.00     0.031 C 
ATOM     48  C   UNL A   1      43.102  27.172  29.378  1.00  0.00     0.029 A 
ATOM     49  N   UNL A   1      42.586  29.116  30.351  1.00  0.00    -0.354 N 
ATOM     50  C   UNL A   1      38.711  30.937  29.829  1.00  0.00     0.074 A 
ATOM     51  C   UNL A   1      37.869  30.137  28.967  1.00  0.00     0.031 C 
ATOM     52  C   UNL A   1      44.149  27.530  30.134  1.00  0.00     0.029 A 
ATOM     53  C   UNL A   1      43.859  28.811  30.767  1.00  0.00     0.049 A 
ATOM     54  H   UNL A   1      42.113  29.939  30.617  1.00  0.00     0.167 HD
ATOM     55  C   UNL A   1      38.322  32.099  30.410  1.00  0.00     0.037 A 
ATOM     56  C   UNL A   1      44.705  29.491  31.562  1.00  0.00     0.037 A 
ATOM     57  C   UNL A   1      39.156  32.897  31.272  1.00  0.00     0.049 A 
ATOM     58  C   UNL A   1      44.268  30.806  32.142  1.00  0.00     0.074 A 
ATOM     59  C   UNL A   1      38.853  34.088  31.910  1.00  0.00     0.029 A 
ATOM     60  N   UNL A   1      40.463  32.586  31.615  1.00  0.00    -0.354 N 
ATOM     61  N   UNL A   1      43.110  31.413  32.043  1.00  0.00    -0.248 NA
ATOM     62  C   UNL A   1      45.261  31.529  32.946  1.00  0.00     0.031 C 
ATOM     63  C   UNL A   1      39.992  34.522  32.597  1.00  0.00     0.029 A 
ATOM     64  C   UNL A   1      40.986  33.570  32.441  1.00  0.00     0.049 A 
ATOM     65  H   UNL A   1      40.950  31.783  31.317  1.00  0.00     0.167 HD
ATOM     66  C   UNL A   1      43.225  32.573  32.799  1.00  0.00     0.074 A 
ATOM     67  C   UNL A   1      44.558  32.568  33.368  1.00  0.00     0.031 C 
ATOM     68  C   UNL A   1      42.312  33.554  33.005  1.00  0.00     0.037 A 
BRANCH  55  69
ATOM     69  C   UNL A   1      36.931  32.588  30.109  1.00  0.00     0.057 A 
ATOM     70  C   UNL A   1      36.685  33.408  28.999  1.00  0.00     0.134 A 
ATOM     71  C   UNL A   1      35.834  32.259  30.918  1.00  0.00     0.134 A 
ATOM     72  F   UNL A   1      37.688  33.772  28.186  1.00  0.00    -0.206 F 
ATOM     73  C   UNL A   1      35.404  33.877  28.704  1.00  0.00     0.040 A 
ATOM     74  C   UNL A   1      34.543  32.696  30.616  1.00  0.00     0.040 A 
ATOM     75  F   UNL A   1      35.993  31.467  31.990  1.00  0.00    -0.206 F 
ATOM     76  C   UNL A   1      34.326  33.512  29.507  1.00  0.00     0.006 A 
ENDBRANCH  55  69
BRANCH  56  77
ATOM     77  C   UNL A   1      46.060  28.953  31.851  1.00  0.00     0.057 A 
ATOM     78  C   UNL A   1      46.254  27.939  32.796  1.00  0.00     0.134 A 
ATOM     79  C   UNL A   1      47.185  29.411  31.157  1.00  0.00     0.134 A 
ATOM     80  F   UNL A   1      45.218  27.461  33.502  1.00  0.00    -0.206 F 
ATOM     81  C   UNL A   1      47.517  27.399  33.040  1.00  0.00     0.040 A 
ATOM     82  C   UNL A   1      48.449  28.857  31.367  1.00  0.00     0.040 A 
ATOM     83  F   UNL A   1      47.062  30.370  30.227  1.00  0.00    -0.206 F 
ATOM     84  C   UNL A   1      48.617  27.849  32.314  1.00  0.00     0.006 A 
ENDBRANCH  56  77
BRANCH  68  85
ATOM     85  C   UNL A   1      42.713  34.670  33.929  1.00  0.00     0.057 A 
ATOM     86  C   UNL A   1      43.272  35.847  33.416  1.00  0.00     0.134 A 
ATOM     87  C   UNL A   1      42.531  34.594  35.316  1.00  0.00     0.134 A 
ATOM     88  F   UNL A   1      43.485  35.985  32.099  1.00  0.00    -0.206 F 
ATOM     89  C   UNL A   1      43.622  36.913  34.246  1.00  0.00     0.040 A 
ATOM     90  C   UNL A   1      42.844  35.667  36.154  1.00  0.00     0.040 A 
ATOM     91  F   UNL A   1      41.987  33.501  35.873  1.00  0.00    -0.206 F 
ATOM     92  C   UNL A   1      43.394  36.830  35.618  1.00  0.00     0.006 A 
ENDBRANCH  68  85
ENDBRANCH  42  43
ENDBRANCH  34  37
ENDBRANCH  32  33
ENDBRANCH  31  32
ENDBRANCH   1  31
TORSDOF 14
ENDMDL
