MODEL 1
REMARK VINA RESULT:     -12.4      0.000      0.000
REMARK SMILES CC(C)COc1cccc(C(=O)Nc2ccc(O)c(C(=O)NCCCCNC(=O)c3ccc(-c4c5nc(c(-c6c(F)cccc6F)c6ccc([nH]6)c(-c6c(F)cccc6F)c6nc(c(-c7c(F)cccc7F)c7ccc4[nH]7)C=C6)C=C5)cc3)c2)c1
REMARK SMILES IDX 23 1 22 2 20 3 21 4 19 6 14 7 15 8 84 9 16 10 17 11 13 12
REMARK SMILES IDX 11 13 12 14 10 16 6 17 7 18 85 19 8 20 9 21 5 22 4 23 2 24
REMARK SMILES IDX 1 25 3 26 18 27 24 29 25 30 26 31 27 32 28 33 29 35 30 36
REMARK SMILES IDX 31 37 83 38 32 39 82 40 33 41 34 42 35 43 76 44 36 45 81 46
REMARK SMILES IDX 75 47 77 48 37 49 80 50 74 51 73 52 38 54 64 55 47 56 63 57
REMARK SMILES IDX 48 58 51 59 62 60 78 61 49 62 50 63 61 65 79 66 52 67 39 68
REMARK SMILES IDX 40 69 45 70 41 71 42 72 44 73 46 74 43 75 65 76 66 77 71 78
REMARK SMILES IDX 67 79 68 80 70 81 72 82 69 83 53 84 54 85 59 86 55 87 56 88
REMARK SMILES IDX 58 89 60 90 57 91
REMARK H PARENT 22 5 13 15 18 28 27 34 77 53 51 64
REMARK Flexibility Score: inf
ROOT
ATOM      1  C   UNL A   1      32.948  30.128  26.705  1.00  0.00     0.116 C 
ENDROOT
BRANCH   1   2
ATOM      2  N   UNL A   1      33.652  29.695  25.519  1.00  0.00    -0.352 N 
ATOM      3  C   UNL A   1      33.340  28.777  24.550  1.00  0.00     0.255 C 
ATOM      4  O   UNL A   1      34.105  28.702  23.584  1.00  0.00    -0.269 OA
ATOM      5  H   UNL A   1      34.518  30.143  25.382  1.00  0.00     0.163 HD
BRANCH   3   6
ATOM      6  C   UNL A   1      32.114  27.920  24.545  1.00  0.00     0.083 A 
ATOM      7  C   UNL A   1      30.680  26.170  25.460  1.00  0.00     0.042 A 
ATOM      8  C   UNL A   1      29.682  26.483  24.540  1.00  0.00     0.030 A 
ATOM      9  C   UNL A   1      31.923  26.810  25.378  1.00  0.00     0.043 A 
ATOM     10  C   UNL A   1      29.872  27.539  23.651  1.00  0.00     0.049 A 
ATOM     11  C   UNL A   1      31.062  28.268  23.676  1.00  0.00     0.128 A 
BRANCH   7  12
ATOM     12  N   UNL A   1      30.376  25.254  26.481  1.00  0.00    -0.322 N 
ATOM     13  C   UNL A   1      30.528  23.877  26.559  1.00  0.00     0.255 C 
ATOM     14  O   UNL A   1      29.910  23.275  27.440  1.00  0.00    -0.269 OA
ATOM     15  H   UNL A   1      29.985  25.663  27.287  1.00  0.00     0.170 HD
BRANCH  13  16
ATOM     16  C   UNL A   1      31.506  23.098  25.727  1.00  0.00     0.043 A 
ATOM     17  C   UNL A   1      33.579  21.825  25.468  1.00  0.00     0.120 A 
ATOM     18  C   UNL A   1      33.320  21.660  24.113  1.00  0.00     0.046 A 
ATOM     19  C   UNL A   1      32.654  22.509  26.258  1.00  0.00     0.060 A 
ATOM     20  C   UNL A   1      32.133  22.161  23.569  1.00  0.00     0.005 A 
ATOM     21  C   UNL A   1      31.237  22.884  24.368  1.00  0.00     0.014 A 
BRANCH  17  22
ATOM     22  O   UNL A   1      34.844  21.561  25.922  1.00  0.00    -0.493 OA
BRANCH  22  23
ATOM     23  C   UNL A   1      35.872  21.300  24.948  1.00  0.00     0.232 C 
BRANCH  23  24
ATOM     24  C   UNL A   1      36.781  22.507  24.648  1.00  0.00     0.020 C 
ATOM     25  C   UNL A   1      36.652  22.939  23.180  1.00  0.00     0.011 C 
ATOM     26  C   UNL A   1      36.492  23.712  25.543  1.00  0.00     0.011 C 
ENDBRANCH  23  24
ENDBRANCH  22  23
ENDBRANCH  17  22
ENDBRANCH  13  16
ENDBRANCH   7  12
BRANCH  11  27
ATOM     27  O   UNL A   1      31.104  29.346  22.828  1.00  0.00    -0.507 OA
ATOM     28  H   UNL A   1      30.326  29.839  22.658  1.00  0.00     0.293 HD
ENDBRANCH  11  27
ENDBRANCH   3   6
ENDBRANCH   1   2
BRANCH   1  29
ATOM     29  C   UNL A   1      31.544  30.628  26.370  1.00  0.00     0.023 C 
BRANCH  29  30
ATOM     30  C   UNL A   1      31.399  32.141  26.494  1.00  0.00     0.023 C 
BRANCH  30  31
ATOM     31  C   UNL A   1      32.537  32.817  27.248  1.00  0.00     0.116 C 
BRANCH  31  32
ATOM     32  N   UNL A   1      32.252  34.194  27.626  1.00  0.00    -0.352 N 
ATOM     33  C   UNL A   1      32.928  34.968  28.539  1.00  0.00     0.251 C 
ATOM     34  H   UNL A   1      31.488  34.619  27.176  1.00  0.00     0.163 HD
ATOM     35  O   UNL A   1      32.534  36.091  28.833  1.00  0.00    -0.269 OA
BRANCH  33  36
ATOM     36  C   UNL A   1      34.128  34.403  29.186  1.00  0.00     0.039 A 
ATOM     37  C   UNL A   1      33.977  33.628  30.337  1.00  0.00     0.014 A 
ATOM     38  C   UNL A   1      35.385  34.580  28.602  1.00  0.00     0.014 A 
ATOM     39  C   UNL A   1      35.090  32.980  30.874  1.00  0.00     0.010 A 
ATOM     40  C   UNL A   1      36.473  33.866  29.089  1.00  0.00     0.010 A 
ATOM     41  C   UNL A   1      36.340  33.070  30.237  1.00  0.00    -0.014 A 
BRANCH  41  42
ATOM     42  C   UNL A   1      37.531  32.371  30.776  1.00  0.00     0.031 A 
ATOM     43  C   UNL A   1      38.183  32.876  32.033  1.00  0.00     0.074 A 
ATOM     44  C   UNL A   1      38.055  31.322  30.113  1.00  0.00     0.049 A 
ATOM     45  N   UNL A   1      39.261  32.446  32.637  1.00  0.00    -0.248 NA
ATOM     46  C   UNL A   1      37.558  34.041  32.681  1.00  0.00     0.031 C 
ATOM     47  C   UNL A   1      37.545  30.769  28.857  1.00  0.00     0.029 A 
ATOM     48  N   UNL A   1      39.140  30.535  30.405  1.00  0.00    -0.354 N 
ATOM     49  C   UNL A   1      39.448  33.293  33.721  1.00  0.00     0.074 A 
ATOM     50  C   UNL A   1      38.413  34.301  33.656  1.00  0.00     0.031 C 
ATOM     51  C   UNL A   1      38.298  29.714  28.503  1.00  0.00     0.029 A 
ATOM     52  C   UNL A   1      39.359  29.534  29.489  1.00  0.00     0.049 A 
ATOM     53  H   UNL A   1      39.708  30.673  31.197  1.00  0.00     0.167 HD
ATOM     54  C   UNL A   1      40.377  33.221  34.704  1.00  0.00     0.037 A 
ATOM     55  C   UNL A   1      40.309  28.581  29.453  1.00  0.00     0.037 A 
ATOM     56  C   UNL A   1      41.386  32.200  34.784  1.00  0.00     0.049 A 
ATOM     57  C   UNL A   1      41.325  28.516  30.561  1.00  0.00     0.074 A 
ATOM     58  C   UNL A   1      42.348  32.011  35.760  1.00  0.00     0.029 A 
ATOM     59  N   UNL A   1      41.555  31.186  33.853  1.00  0.00    -0.354 N 
ATOM     60  N   UNL A   1      41.454  29.290  31.612  1.00  0.00    -0.248 NA
ATOM     61  C   UNL A   1      42.320  27.438  30.483  1.00  0.00     0.031 C 
ATOM     62  C   UNL A   1      43.121  30.901  35.404  1.00  0.00     0.029 A 
ATOM     63  C   UNL A   1      42.610  30.373  34.229  1.00  0.00     0.049 A 
ATOM     64  H   UNL A   1      41.007  31.063  33.045  1.00  0.00     0.167 HD
ATOM     65  C   UNL A   1      42.517  28.769  32.339  1.00  0.00     0.074 A 
ATOM     66  C   UNL A   1      42.992  27.609  31.612  1.00  0.00     0.031 C 
ATOM     67  C   UNL A   1      43.052  29.210  33.504  1.00  0.00     0.037 A 
BRANCH  54  68
ATOM     68  C   UNL A   1      40.328  34.270  35.775  1.00  0.00     0.057 A 
ATOM     69  C   UNL A   1      39.576  34.092  36.944  1.00  0.00     0.134 A 
ATOM     70  C   UNL A   1      41.054  35.460  35.651  1.00  0.00     0.134 A 
ATOM     71  F   UNL A   1      38.843  32.981  37.120  1.00  0.00    -0.206 F 
ATOM     72  C   UNL A   1      39.525  35.071  37.938  1.00  0.00     0.040 A 
ATOM     73  C   UNL A   1      41.035  36.435  36.649  1.00  0.00     0.040 A 
ATOM     74  F   UNL A   1      41.798  35.693  34.558  1.00  0.00    -0.206 F 
ATOM     75  C   UNL A   1      40.263  36.244  37.793  1.00  0.00     0.006 A 
ENDBRANCH  54  68
BRANCH  55  76
ATOM     76  C   UNL A   1      40.324  27.580  28.356  1.00  0.00     0.057 A 
ATOM     77  C   UNL A   1      39.618  26.376  28.471  1.00  0.00     0.134 A 
ATOM     78  C   UNL A   1      41.061  27.786  27.184  1.00  0.00     0.134 A 
ATOM     79  F   UNL A   1      38.909  26.114  29.579  1.00  0.00    -0.206 F 
ATOM     80  C   UNL A   1      39.665  25.401  27.474  1.00  0.00     0.040 A 
ATOM     81  C   UNL A   1      41.096  26.830  26.167  1.00  0.00     0.040 A 
ATOM     82  F   UNL A   1      41.752  28.921  27.009  1.00  0.00    -0.206 F 
ATOM     83  C   UNL A   1      40.404  25.630  26.315  1.00  0.00     0.006 A 
ENDBRANCH  55  76
BRANCH  67  84
ATOM     84  C   UNL A   1      44.172  28.403  34.092  1.00  0.00     0.057 A 
ATOM     85  C   UNL A   1      43.936  27.313  34.939  1.00  0.00     0.134 A 
ATOM     86  C   UNL A   1      45.503  28.702  33.773  1.00  0.00     0.134 A 
ATOM     87  F   UNL A   1      42.684  26.983  35.290  1.00  0.00    -0.206 F 
ATOM     88  C   UNL A   1      44.988  26.566  35.472  1.00  0.00     0.040 A 
ATOM     89  C   UNL A   1      46.561  27.945  34.279  1.00  0.00     0.040 A 
ATOM     90  F   UNL A   1      45.796  29.727  32.960  1.00  0.00    -0.206 F 
ATOM     91  C   UNL A   1      46.304  26.878  35.137  1.00  0.00     0.006 A 
ENDBRANCH  67  84
ENDBRANCH  41  42
ENDBRANCH  33  36
ENDBRANCH  31  32
ENDBRANCH  30  31
ENDBRANCH  29  30
ENDBRANCH   1  29
TORSDOF 17
ENDMDL
MODEL 2
REMARK VINA RESULT:     -12.4      1.357      2.273
REMARK SMILES CC(C)COc1cccc(C(=O)Nc2ccc(O)c(C(=O)NCCCCNC(=O)c3ccc(-c4c5nc(c(-c6c(F)cccc6F)c6ccc([nH]6)c(-c6c(F)cccc6F)c6nc(c(-c7c(F)cccc7F)c7ccc4[nH]7)C=C6)C=C5)cc3)c2)c1
REMARK SMILES IDX 23 1 22 2 20 3 21 4 19 6 14 7 15 8 84 9 16 10 17 11 13 12
REMARK SMILES IDX 11 13 12 14 10 16 6 17 7 18 85 19 8 20 9 21 5 22 4 23 2 24
REMARK SMILES IDX 1 25 3 26 18 27 24 29 25 30 26 31 27 32 28 33 29 35 30 36
REMARK SMILES IDX 31 37 83 38 32 39 82 40 33 41 34 42 35 43 76 44 36 45 81 46
REMARK SMILES IDX 75 47 77 48 37 49 80 50 74 51 73 52 38 54 64 55 47 56 63 57
REMARK SMILES IDX 48 58 51 59 62 60 78 61 49 62 50 63 61 65 79 66 52 67 39 68
REMARK SMILES IDX 40 69 45 70 41 71 42 72 44 73 46 74 43 75 65 76 66 77 71 78
REMARK SMILES IDX 67 79 68 80 70 81 72 82 69 83 53 84 54 85 59 86 55 87 56 88
REMARK SMILES IDX 58 89 60 90 57 91
REMARK H PARENT 22 5 13 15 18 28 27 34 77 53 51 64
REMARK Flexibility Score: inf
ROOT
ATOM      1  C   UNL A   1      32.224  29.855  25.605  1.00  0.00     0.116 C 
ENDROOT
BRANCH   1   2
ATOM      2  N   UNL A   1      31.192  29.998  24.601  1.00  0.00    -0.352 N 
ATOM      3  C   UNL A   1      30.459  29.077  23.901  1.00  0.00     0.255 C 
ATOM      4  O   UNL A   1      29.560  29.513  23.175  1.00  0.00    -0.269 OA
ATOM      5  H   UNL A   1      30.978  30.934  24.380  1.00  0.00     0.163 HD
BRANCH   3   6
ATOM      6  C   UNL A   1      30.622  27.594  24.004  1.00  0.00     0.083 A 
ATOM      7  C   UNL A   1      30.454  25.465  25.187  1.00  0.00     0.042 A 
ATOM      8  C   UNL A   1      30.800  24.774  24.027  1.00  0.00     0.030 A 
ATOM      9  C   UNL A   1      30.481  26.864  25.193  1.00  0.00     0.043 A 
ATOM     10  C   UNL A   1      31.014  25.479  22.844  1.00  0.00     0.049 A 
ATOM     11  C   UNL A   1      30.894  26.870  22.827  1.00  0.00     0.128 A 
BRANCH   7  12
ATOM     12  N   UNL A   1      30.031  24.719  26.300  1.00  0.00    -0.322 N 
ATOM     13  C   UNL A   1      30.400  23.464  26.762  1.00  0.00     0.255 C 
ATOM     14  O   UNL A   1      29.669  22.913  27.587  1.00  0.00    -0.269 OA
ATOM     15  H   UNL A   1      29.352  25.168  26.852  1.00  0.00     0.170 HD
BRANCH  13  16
ATOM     16  C   UNL A   1      31.705  22.801  26.423  1.00  0.00     0.043 A 
ATOM     17  C   UNL A   1      33.030  21.166  25.176  1.00  0.00     0.120 A 
ATOM     18  C   UNL A   1      34.179  21.577  25.840  1.00  0.00     0.046 A 
ATOM     19  C   UNL A   1      31.821  21.806  25.451  1.00  0.00     0.060 A 
ATOM     20  C   UNL A   1      34.111  22.632  26.753  1.00  0.00     0.005 A 
ATOM     21  C   UNL A   1      32.881  23.234  27.051  1.00  0.00     0.014 A 
BRANCH  17  22
ATOM     22  O   UNL A   1      33.066  19.981  24.491  1.00  0.00    -0.493 OA
BRANCH  22  23
ATOM     23  C   UNL A   1      34.200  19.115  24.695  1.00  0.00     0.232 C 
BRANCH  23  24
ATOM     24  C   UNL A   1      33.881  17.613  24.571  1.00  0.00     0.020 C 
ATOM     25  C   UNL A   1      32.527  17.286  25.220  1.00  0.00     0.011 C 
ATOM     26  C   UNL A   1      33.865  17.121  23.124  1.00  0.00     0.011 C 
ENDBRANCH  23  24
ENDBRANCH  22  23
ENDBRANCH  17  22
ENDBRANCH  13  16
ENDBRANCH   7  12
BRANCH  11  27
ATOM     27  O   UNL A   1      31.027  27.453  21.593  1.00  0.00    -0.507 OA
ATOM     28  H   UNL A   1      30.266  27.657  21.087  1.00  0.00     0.293 HD
ENDBRANCH  11  27
ENDBRANCH   3   6
ENDBRANCH   1   2
BRANCH   1  29
ATOM     29  C   UNL A   1      31.802  30.482  26.931  1.00  0.00     0.023 C 
BRANCH  29  30
ATOM     30  C   UNL A   1      31.574  31.988  26.839  1.00  0.00     0.023 C 
BRANCH  30  31
ATOM     31  C   UNL A   1      32.810  32.826  27.140  1.00  0.00     0.116 C 
BRANCH  31  32
ATOM     32  N   UNL A   1      32.506  34.162  27.632  1.00  0.00    -0.352 N 
ATOM     33  C   UNL A   1      33.119  34.835  28.662  1.00  0.00     0.251 C 
ATOM     34  H   UNL A   1      31.778  34.639  27.173  1.00  0.00     0.163 HD
ATOM     35  O   UNL A   1      32.711  35.928  29.037  1.00  0.00    -0.269 OA
BRANCH  33  36
ATOM     36  C   UNL A   1      34.267  34.194  29.332  1.00  0.00     0.039 A 
ATOM     37  C   UNL A   1      34.029  33.260  30.342  1.00  0.00     0.014 A 
ATOM     38  C   UNL A   1      35.568  34.465  28.901  1.00  0.00     0.014 A 
ATOM     39  C   UNL A   1      35.102  32.552  30.884  1.00  0.00     0.010 A 
ATOM     40  C   UNL A   1      36.623  33.700  29.383  1.00  0.00     0.010 A 
ATOM     41  C   UNL A   1      36.403  32.745  30.388  1.00  0.00    -0.014 A 
BRANCH  41  42
ATOM     42  C   UNL A   1      37.555  31.987  30.932  1.00  0.00     0.031 A 
ATOM     43  C   UNL A   1      38.048  32.282  32.322  1.00  0.00     0.074 A 
ATOM     44  C   UNL A   1      38.187  31.078  30.166  1.00  0.00     0.049 A 
ATOM     45  N   UNL A   1      39.070  31.776  32.962  1.00  0.00    -0.248 NA
ATOM     46  C   UNL A   1      37.312  33.306  33.082  1.00  0.00     0.031 C 
ATOM     47  C   UNL A   1      37.837  30.740  28.785  1.00  0.00     0.029 A 
ATOM     48  N   UNL A   1      39.265  30.274  30.442  1.00  0.00    -0.354 N 
ATOM     49  C   UNL A   1      39.107  32.428  34.188  1.00  0.00     0.074 A 
ATOM     50  C   UNL A   1      38.047  33.411  34.177  1.00  0.00     0.031 C 
ATOM     51  C   UNL A   1      38.665  29.775  28.345  1.00  0.00     0.029 A 
ATOM     52  C   UNL A   1      39.620  29.450  29.400  1.00  0.00     0.049 A 
ATOM     53  H   UNL A   1      39.738  30.286  31.304  1.00  0.00     0.167 HD
ATOM     54  C   UNL A   1      39.926  32.206  35.243  1.00  0.00     0.037 A 
ATOM     55  C   UNL A   1      40.604  28.536  29.312  1.00  0.00     0.037 A 
ATOM     56  C   UNL A   1      40.959  31.206  35.263  1.00  0.00     0.049 A 
ATOM     57  C   UNL A   1      41.496  28.302  30.500  1.00  0.00     0.074 A 
ATOM     58  C   UNL A   1      41.818  30.872  36.296  1.00  0.00     0.029 A 
ATOM     59  N   UNL A   1      41.267  30.371  34.199  1.00  0.00    -0.354 N 
ATOM     60  N   UNL A   1      41.481  28.886  31.674  1.00  0.00    -0.248 NA
ATOM     61  C   UNL A   1      42.535  27.273  30.354  1.00  0.00     0.031 C 
ATOM     62  C   UNL A   1      42.666  29.855  35.847  1.00  0.00     0.029 A 
ATOM     63  C   UNL A   1      42.306  29.526  34.550  1.00  0.00     0.049 A 
ATOM     64  H   UNL A   1      40.814  30.378  33.326  1.00  0.00     0.167 HD
ATOM     65  C   UNL A   1      42.479  28.269  32.418  1.00  0.00     0.074 A 
ATOM     66  C   UNL A   1      43.074  27.261  31.565  1.00  0.00     0.031 C 
ATOM     67  C   UNL A   1      42.868  28.514  33.693  1.00  0.00     0.037 A 
BRANCH  54  68
ATOM     68  C   UNL A   1      39.722  33.054  36.463  1.00  0.00     0.057 A 
ATOM     69  C   UNL A   1      40.450  34.234  36.668  1.00  0.00     0.134 A 
ATOM     70  C   UNL A   1      38.776  32.703  37.434  1.00  0.00     0.134 A 
ATOM     71  F   UNL A   1      41.384  34.620  35.784  1.00  0.00    -0.206 F 
ATOM     72  C   UNL A   1      40.264  35.020  37.807  1.00  0.00     0.040 A 
ATOM     73  C   UNL A   1      38.561  33.495  38.563  1.00  0.00     0.040 A 
ATOM     74  F   UNL A   1      38.044  31.587  37.299  1.00  0.00    -0.206 F 
ATOM     75  C   UNL A   1      39.312  34.653  38.755  1.00  0.00     0.006 A 
ENDBRANCH  54  68
BRANCH  55  76
ATOM     76  C   UNL A   1      40.776  27.739  28.071  1.00  0.00     0.057 A 
ATOM     77  C   UNL A   1      40.160  26.490  27.928  1.00  0.00     0.134 A 
ATOM     78  C   UNL A   1      41.576  28.188  27.014  1.00  0.00     0.134 A 
ATOM     79  F   UNL A   1      39.396  25.997  28.913  1.00  0.00    -0.206 F 
ATOM     80  C   UNL A   1      40.354  25.703  26.791  1.00  0.00     0.040 A 
ATOM     81  C   UNL A   1      41.759  27.423  25.861  1.00  0.00     0.040 A 
ATOM     82  F   UNL A   1      42.187  29.379  27.086  1.00  0.00    -0.206 F 
ATOM     83  C   UNL A   1      41.153  26.172  25.751  1.00  0.00     0.006 A 
ENDBRANCH  55  76
BRANCH  67  84
ATOM     84  C   UNL A   1      43.948  27.640  34.260  1.00  0.00     0.057 A 
ATOM     85  C   UNL A   1      45.297  28.015  34.234  1.00  0.00     0.134 A 
ATOM     86  C   UNL A   1      43.624  26.423  34.873  1.00  0.00     0.134 A 
ATOM     87  F   UNL A   1      45.672  29.164  33.652  1.00  0.00    -0.206 F 
ATOM     88  C   UNL A   1      46.290  27.195  34.774  1.00  0.00     0.040 A 
ATOM     89  C   UNL A   1      44.605  25.607  35.438  1.00  0.00     0.040 A 
ATOM     90  F   UNL A   1      42.350  26.010  34.939  1.00  0.00    -0.206 F 
ATOM     91  C   UNL A   1      45.944  25.991  35.383  1.00  0.00     0.006 A 
ENDBRANCH  67  84
ENDBRANCH  41  42
ENDBRANCH  33  36
ENDBRANCH  31  32
ENDBRANCH  30  31
ENDBRANCH  29  30
ENDBRANCH   1  29
TORSDOF 17
ENDMDL
MODEL 3
REMARK VINA RESULT:     -12.3      0.132      1.558
REMARK SMILES CC(C)COc1cccc(C(=O)Nc2ccc(O)c(C(=O)NCCCCNC(=O)c3ccc(-c4c5nc(c(-c6c(F)cccc6F)c6ccc([nH]6)c(-c6c(F)cccc6F)c6nc(c(-c7c(F)cccc7F)c7ccc4[nH]7)C=C6)C=C5)cc3)c2)c1
REMARK SMILES IDX 23 1 22 2 20 3 21 4 19 6 14 7 15 8 84 9 16 10 17 11 13 12
REMARK SMILES IDX 11 13 12 14 10 16 6 17 7 18 85 19 8 20 9 21 5 22 4 23 2 24
REMARK SMILES IDX 1 25 3 26 18 27 24 29 25 30 26 31 27 32 28 33 29 35 30 36
REMARK SMILES IDX 31 37 83 38 32 39 82 40 33 41 34 42 35 43 76 44 36 45 81 46
REMARK SMILES IDX 75 47 77 48 37 49 80 50 74 51 73 52 38 54 64 55 47 56 63 57
REMARK SMILES IDX 48 58 51 59 62 60 78 61 49 62 50 63 61 65 79 66 52 67 39 68
REMARK SMILES IDX 40 69 45 70 41 71 42 72 44 73 46 74 43 75 65 76 66 77 71 78
REMARK SMILES IDX 67 79 68 80 70 81 72 82 69 83 53 84 54 85 59 86 55 87 56 88
REMARK SMILES IDX 58 89 60 90 57 91
REMARK H PARENT 22 5 13 15 18 28 27 34 77 53 51 64
REMARK Flexibility Score: inf
ROOT
ATOM      1  C   UNL A   1      33.041  30.063  26.503  1.00  0.00     0.116 C 
ENDROOT
BRANCH   1   2
ATOM      2  N   UNL A   1      33.671  29.696  25.255  1.00  0.00    -0.352 N 
ATOM      3  C   UNL A   1      33.309  28.818  24.267  1.00  0.00     0.255 C 
ATOM      4  O   UNL A   1      34.011  28.799  23.251  1.00  0.00    -0.269 OA
ATOM      5  H   UNL A   1      34.520  30.164  25.083  1.00  0.00     0.163 HD
BRANCH   3   6
ATOM      6  C   UNL A   1      32.097  27.941  24.301  1.00  0.00     0.083 A 
ATOM      7  C   UNL A   1      30.693  26.210  25.295  1.00  0.00     0.042 A 
ATOM      8  C   UNL A   1      29.689  26.467  24.364  1.00  0.00     0.030 A 
ATOM      9  C   UNL A   1      31.924  26.866  25.184  1.00  0.00     0.043 A 
ATOM     10  C   UNL A   1      29.861  27.485  23.428  1.00  0.00     0.049 A 
ATOM     11  C   UNL A   1      31.039  28.234  23.419  1.00  0.00     0.128 A 
BRANCH   7  12
ATOM     12  N   UNL A   1      30.404  25.336  26.357  1.00  0.00    -0.322 N 
ATOM     13  C   UNL A   1      30.571  23.965  26.492  1.00  0.00     0.255 C 
ATOM     14  O   UNL A   1      29.965  23.396  27.402  1.00  0.00    -0.269 OA
ATOM     15  H   UNL A   1      30.013  25.775  27.146  1.00  0.00     0.170 HD
BRANCH  13  16
ATOM     16  C   UNL A   1      31.552  23.161  25.687  1.00  0.00     0.043 A 
ATOM     17  C   UNL A   1      33.610  21.855  25.483  1.00  0.00     0.120 A 
ATOM     18  C   UNL A   1      33.374  21.677  24.126  1.00  0.00     0.046 A 
ATOM     19  C   UNL A   1      32.681  22.562  26.248  1.00  0.00     0.060 A 
ATOM     20  C   UNL A   1      32.206  22.189  23.554  1.00  0.00     0.005 A 
ATOM     21  C   UNL A   1      31.306  22.936  24.326  1.00  0.00     0.014 A 
BRANCH  17  22
ATOM     22  O   UNL A   1      34.862  21.576  25.964  1.00  0.00    -0.493 OA
BRANCH  22  23
ATOM     23  C   UNL A   1      35.906  21.296  25.013  1.00  0.00     0.232 C 
BRANCH  23  24
ATOM     24  C   UNL A   1      36.819  22.497  24.701  1.00  0.00     0.020 C 
ATOM     25  C   UNL A   1      36.649  22.949  23.243  1.00  0.00     0.011 C 
ATOM     26  C   UNL A   1      36.570  23.693  25.620  1.00  0.00     0.011 C 
ENDBRANCH  23  24
ENDBRANCH  22  23
ENDBRANCH  17  22
ENDBRANCH  13  16
ENDBRANCH   7  12
BRANCH  11  27
ATOM     27  O   UNL A   1      31.063  29.273  22.525  1.00  0.00    -0.507 OA
ATOM     28  H   UNL A   1      30.271  29.552  22.108  1.00  0.00     0.293 HD
ENDBRANCH  11  27
ENDBRANCH   3   6
ENDBRANCH   1   2
BRANCH   1  29
ATOM     29  C   UNL A   1      31.589  30.487  26.291  1.00  0.00     0.023 C 
BRANCH  29  30
ATOM     30  C   UNL A   1      31.349  31.969  26.562  1.00  0.00     0.023 C 
BRANCH  30  31
ATOM     31  C   UNL A   1      32.515  32.675  27.240  1.00  0.00     0.116 C 
BRANCH  31  32
ATOM     32  N   UNL A   1      32.239  34.062  27.588  1.00  0.00    -0.352 N 
ATOM     33  C   UNL A   1      32.916  34.851  28.486  1.00  0.00     0.251 C 
ATOM     34  H   UNL A   1      31.478  34.482  27.125  1.00  0.00     0.163 HD
ATOM     35  O   UNL A   1      32.528  35.983  28.754  1.00  0.00    -0.269 OA
BRANCH  33  36
ATOM     36  C   UNL A   1      34.109  34.293  29.150  1.00  0.00     0.039 A 
ATOM     37  C   UNL A   1      33.942  33.441  30.243  1.00  0.00     0.014 A 
ATOM     38  C   UNL A   1      35.382  34.555  28.635  1.00  0.00     0.014 A 
ATOM     39  C   UNL A   1      35.057  32.803  30.788  1.00  0.00     0.010 A 
ATOM     40  C   UNL A   1      36.476  33.854  29.125  1.00  0.00     0.010 A 
ATOM     41  C   UNL A   1      36.327  32.982  30.215  1.00  0.00    -0.014 A 
BRANCH  41  42
ATOM     42  C   UNL A   1      37.522  32.296  30.762  1.00  0.00     0.031 A 
ATOM     43  C   UNL A   1      38.160  32.808  32.024  1.00  0.00     0.074 A 
ATOM     44  C   UNL A   1      38.063  31.253  30.103  1.00  0.00     0.049 A 
ATOM     45  N   UNL A   1      39.238  32.390  32.636  1.00  0.00    -0.248 NA
ATOM     46  C   UNL A   1      37.516  33.965  32.668  1.00  0.00     0.031 C 
ATOM     47  C   UNL A   1      37.569  30.695  28.843  1.00  0.00     0.029 A 
ATOM     48  N   UNL A   1      39.155  30.478  30.403  1.00  0.00    -0.354 N 
ATOM     49  C   UNL A   1      39.408  33.239  33.722  1.00  0.00     0.074 A 
ATOM     50  C   UNL A   1      38.362  34.235  33.650  1.00  0.00     0.031 C 
ATOM     51  C   UNL A   1      38.336  29.648  28.495  1.00  0.00     0.029 A 
ATOM     52  C   UNL A   1      39.392  29.480  29.488  1.00  0.00     0.049 A 
ATOM     53  H   UNL A   1      39.716  30.622  31.199  1.00  0.00     0.167 HD
ATOM     54  C   UNL A   1      40.330  33.176  34.712  1.00  0.00     0.037 A 
ATOM     55  C   UNL A   1      40.353  28.537  29.459  1.00  0.00     0.037 A 
ATOM     56  C   UNL A   1      41.349  32.167  34.799  1.00  0.00     0.049 A 
ATOM     57  C   UNL A   1      41.361  28.484  30.575  1.00  0.00     0.074 A 
ATOM     58  C   UNL A   1      42.307  31.989  35.782  1.00  0.00     0.029 A 
ATOM     59  N   UNL A   1      41.537  31.155  33.869  1.00  0.00    -0.354 N 
ATOM     60  N   UNL A   1      41.474  29.259  31.627  1.00  0.00    -0.248 NA
ATOM     61  C   UNL A   1      42.369  27.418  30.503  1.00  0.00     0.031 C 
ATOM     62  C   UNL A   1      43.094  30.888  35.431  1.00  0.00     0.029 A 
ATOM     63  C   UNL A   1      42.598  30.354  34.252  1.00  0.00     0.049 A 
ATOM     64  H   UNL A   1      40.996  31.027  33.057  1.00  0.00     0.167 HD
ATOM     65  C   UNL A   1      42.537  28.750  32.361  1.00  0.00     0.074 A 
ATOM     66  C   UNL A   1      43.031  27.596  31.638  1.00  0.00     0.031 C 
ATOM     67  C   UNL A   1      43.059  29.197  33.530  1.00  0.00     0.037 A 
BRANCH  54  68
ATOM     68  C   UNL A   1      40.261  34.225  35.783  1.00  0.00     0.057 A 
ATOM     69  C   UNL A   1      40.912  35.458  35.646  1.00  0.00     0.134 A 
ATOM     70  C   UNL A   1      39.523  34.011  36.953  1.00  0.00     0.134 A 
ATOM     71  F   UNL A   1      41.651  35.721  34.557  1.00  0.00    -0.206 F 
ATOM     72  C   UNL A   1      40.854  36.431  36.647  1.00  0.00     0.040 A 
ATOM     73  C   UNL A   1      39.433  34.986  37.948  1.00  0.00     0.040 A 
ATOM     74  F   UNL A   1      38.873  32.853  37.146  1.00  0.00    -0.206 F 
ATOM     75  C   UNL A   1      40.106  36.196  37.799  1.00  0.00     0.006 A 
ENDBRANCH  54  68
BRANCH  55  76
ATOM     76  C   UNL A   1      40.388  27.538  28.362  1.00  0.00     0.057 A 
ATOM     77  C   UNL A   1      41.114  27.782  27.190  1.00  0.00     0.134 A 
ATOM     78  C   UNL A   1      39.680  26.333  28.443  1.00  0.00     0.134 A 
ATOM     79  F   UNL A   1      41.797  28.926  27.046  1.00  0.00    -0.206 F 
ATOM     80  C   UNL A   1      41.114  26.877  26.127  1.00  0.00     0.040 A 
ATOM     81  C   UNL A   1      39.692  25.408  27.397  1.00  0.00     0.040 A 
ATOM     82  F   UNL A   1      38.972  26.036  29.542  1.00  0.00    -0.206 F 
ATOM     83  C   UNL A   1      40.403  25.684  26.232  1.00  0.00     0.006 A 
ENDBRANCH  55  76
BRANCH  67  84
ATOM     84  C   UNL A   1      44.183  28.402  34.127  1.00  0.00     0.057 A 
ATOM     85  C   UNL A   1      45.526  28.714  33.881  1.00  0.00     0.134 A 
ATOM     86  C   UNL A   1      43.913  27.331  34.989  1.00  0.00     0.134 A 
ATOM     87  F   UNL A   1      45.849  29.721  33.056  1.00  0.00    -0.206 F 
ATOM     88  C   UNL A   1      46.561  27.972  34.451  1.00  0.00     0.040 A 
ATOM     89  C   UNL A   1      44.940  26.598  35.585  1.00  0.00     0.040 A 
ATOM     90  F   UNL A   1      42.649  26.987  35.273  1.00  0.00    -0.206 F 
ATOM     91  C   UNL A   1      46.269  26.914  35.310  1.00  0.00     0.006 A 
ENDBRANCH  67  84
ENDBRANCH  41  42
ENDBRANCH  33  36
ENDBRANCH  31  32
ENDBRANCH  30  31
ENDBRANCH  29  30
ENDBRANCH   1  29
TORSDOF 17
ENDMDL
