MODEL 1
REMARK VINA RESULT:     -11.9      0.000      0.000
REMARK SMILES O=C(NCCCCNC(=O)c1ccccc1NC(=O)c1ccncc1)c1ccc(-c2c3nc(c(-c4c(F)cccc4F)c4ccc([nH]4)c(-c4c(F)cccc4F)c4nc(c(-c5c(F)cccc5F)c5ccc2[nH]5)C=C4)C=C3)cc1
REMARK SMILES IDX 5 1 4 2 3 3 1 4 2 5 26 7 27 8 79 9 28 10 78 11 29 12 30 13
REMARK SMILES IDX 31 14 72 15 32 16 77 17 71 18 73 19 33 20 76 21 70 22 69 23
REMARK SMILES IDX 34 25 60 26 43 27 59 28 44 29 47 30 58 31 74 32 45 33 46 34
REMARK SMILES IDX 57 36 75 37 48 38 35 39 36 40 41 41 37 42 38 43 40 44 42 45
REMARK SMILES IDX 39 46 61 47 62 48 67 49 63 50 64 51 66 52 68 53 65 54 49 55
REMARK SMILES IDX 50 56 55 57 51 58 52 59 54 60 56 61 53 62 6 63 7 64 8 65
REMARK SMILES IDX 9 66 10 68 11 69 12 70 16 71 13 72 15 73 14 74 17 75 18 76
REMARK SMILES IDX 19 78 20 79 21 80 25 81 22 82 24 83 23 84
REMARK H PARENT 3 6 73 24 47 35 8 67 17 77
REMARK Flexibility Score: inf
ROOT
ATOM      1  C   UNL A   1      31.420  32.053  26.846  1.00  0.00     0.023 C 
ENDROOT
BRANCH   1   2
ATOM      2  C   UNL A   1      32.659  32.861  27.208  1.00  0.00     0.116 C 
BRANCH   2   3
ATOM      3  N   UNL A   1      32.357  34.209  27.660  1.00  0.00    -0.352 N 
ATOM      4  O   UNL A   1      32.514  36.047  28.964  1.00  0.00    -0.269 OA
ATOM      5  C   UNL A   1      32.986  34.966  28.623  1.00  0.00     0.251 C 
ATOM      6  H   UNL A   1      31.594  34.643  27.215  1.00  0.00     0.163 HD
BRANCH   5   7
ATOM      7  C   UNL A   1      34.214  34.457  29.274  1.00  0.00     0.039 A 
ATOM      8  C   UNL A   1      35.463  34.655  28.684  1.00  0.00     0.014 A 
ATOM      9  C   UNL A   1      34.113  33.760  30.482  1.00  0.00     0.014 A 
ATOM     10  C   UNL A   1      36.578  34.010  29.204  1.00  0.00     0.010 A 
ATOM     11  C   UNL A   1      35.255  33.196  31.059  1.00  0.00     0.010 A 
ATOM     12  C   UNL A   1      36.493  33.284  30.404  1.00  0.00    -0.014 A 
BRANCH  12  13
ATOM     13  C   UNL A   1      37.734  32.689  30.964  1.00  0.00     0.031 A 
ATOM     14  C   UNL A   1      38.314  33.152  32.272  1.00  0.00     0.074 A 
ATOM     15  C   UNL A   1      38.297  31.656  30.304  1.00  0.00     0.049 A 
ATOM     16  N   UNL A   1      39.339  32.672  32.931  1.00  0.00    -0.248 NA
ATOM     17  C   UNL A   1      37.672  34.304  32.924  1.00  0.00     0.031 C 
ATOM     18  C   UNL A   1      37.840  31.135  29.014  1.00  0.00     0.029 A 
ATOM     19  N   UNL A   1      39.344  30.838  30.640  1.00  0.00    -0.354 N 
ATOM     20  C   UNL A   1      39.473  33.465  34.064  1.00  0.00     0.074 A 
ATOM     21  C   UNL A   1      38.440  34.477  33.992  1.00  0.00     0.031 C 
ATOM     22  C   UNL A   1      38.554  30.046  28.701  1.00  0.00     0.029 A 
ATOM     23  C   UNL A   1      39.557  29.827  29.735  1.00  0.00     0.049 A 
ATOM     24  H   UNL A   1      39.890  30.963  31.450  1.00  0.00     0.167 HD
ATOM     25  C   UNL A   1      40.369  33.352  35.074  1.00  0.00     0.037 A 
ATOM     26  C   UNL A   1      40.462  28.831  29.733  1.00  0.00     0.037 A 
ATOM     27  C   UNL A   1      41.389  32.335  35.151  1.00  0.00     0.049 A 
ATOM     28  C   UNL A   1      41.429  28.723  30.873  1.00  0.00     0.074 A 
ATOM     29  C   UNL A   1      42.337  32.135  36.140  1.00  0.00     0.029 A 
ATOM     30  N   UNL A   1      41.588  31.343  34.203  1.00  0.00    -0.354 N 
ATOM     31  N   UNL A   1      41.531  29.475  31.942  1.00  0.00    -0.248 NA
ATOM     32  C   UNL A   1      42.410  27.633  30.805  1.00  0.00     0.031 C 
ATOM     33  C   UNL A   1      43.129  31.041  35.776  1.00  0.00     0.029 A 
ATOM     34  C   UNL A   1      42.649  30.536  34.579  1.00  0.00     0.049 A 
ATOM     35  H   UNL A   1      41.054  31.228  33.384  1.00  0.00     0.167 HD
ATOM     36  C   UNL A   1      42.588  28.952  32.672  1.00  0.00     0.074 A 
ATOM     37  C   UNL A   1      43.068  27.796  31.943  1.00  0.00     0.031 C 
ATOM     38  C   UNL A   1      43.122  29.398  33.834  1.00  0.00     0.037 A 
BRANCH  25  39
ATOM     39  C   UNL A   1      40.296  34.356  36.188  1.00  0.00     0.057 A 
ATOM     40  C   UNL A   1      41.008  35.561  36.140  1.00  0.00     0.134 A 
ATOM     41  C   UNL A   1      39.453  34.147  37.287  1.00  0.00     0.134 A 
ATOM     42  F   UNL A   1      41.840  35.818  35.120  1.00  0.00    -0.206 F 
ATOM     43  C   UNL A   1      40.892  36.519  37.150  1.00  0.00     0.040 A 
ATOM     44  C   UNL A   1      39.313  35.106  38.293  1.00  0.00     0.040 A 
ATOM     45  F   UNL A   1      38.737  33.017  37.392  1.00  0.00    -0.206 F 
ATOM     46  C   UNL A   1      40.036  36.296  38.227  1.00  0.00     0.006 A 
ENDBRANCH  25  39
BRANCH  26  47
ATOM     47  C   UNL A   1      40.494  27.867  28.607  1.00  0.00     0.057 A 
ATOM     48  C   UNL A   1      39.771  26.671  28.652  1.00  0.00     0.134 A 
ATOM     49  C   UNL A   1      41.241  28.128  27.451  1.00  0.00     0.134 A 
ATOM     50  F   UNL A   1      39.051  26.358  29.740  1.00  0.00    -0.206 F 
ATOM     51  C   UNL A   1      39.800  25.760  27.596  1.00  0.00     0.040 A 
ATOM     52  C   UNL A   1      41.257  27.240  26.376  1.00  0.00     0.040 A 
ATOM     53  F   UNL A   1      41.947  29.263  27.344  1.00  0.00    -0.206 F 
ATOM     54  C   UNL A   1      40.540  26.048  26.450  1.00  0.00     0.006 A 
ENDBRANCH  26  47
BRANCH  38  55
ATOM     55  C   UNL A   1      44.286  28.625  34.377  1.00  0.00     0.057 A 
ATOM     56  C   UNL A   1      44.103  27.531  35.233  1.00  0.00     0.134 A 
ATOM     57  C   UNL A   1      45.599  28.978  34.046  1.00  0.00     0.134 A 
ATOM     58  F   UNL A   1      42.868  27.155  35.600  1.00  0.00    -0.206 F 
ATOM     59  C   UNL A   1      45.187  26.834  35.766  1.00  0.00     0.040 A 
ATOM     60  C   UNL A   1      46.691  28.274  34.554  1.00  0.00     0.040 A 
ATOM     61  F   UNL A   1      45.841  30.012  33.227  1.00  0.00    -0.206 F 
ATOM     62  C   UNL A   1      46.486  27.204  35.423  1.00  0.00     0.006 A 
ENDBRANCH  38  55
ENDBRANCH  12  13
ENDBRANCH   5   7
ENDBRANCH   2   3
ENDBRANCH   1   2
BRANCH   1  63
ATOM     63  C   UNL A   1      31.683  30.716  26.155  1.00  0.00     0.023 C 
BRANCH  63  64
ATOM     64  C   UNL A   1      31.895  29.525  27.085  1.00  0.00     0.116 C 
BRANCH  64  65
ATOM     65  N   UNL A   1      32.918  28.611  26.604  1.00  0.00    -0.352 N 
ATOM     66  C   UNL A   1      32.818  27.569  25.721  1.00  0.00     0.253 C 
ATOM     67  H   UNL A   1      33.819  28.764  26.970  1.00  0.00     0.163 HD
ATOM     68  O   UNL A   1      33.783  26.835  25.534  1.00  0.00    -0.269 OA
BRANCH  66  69
ATOM     69  C   UNL A   1      31.561  27.317  24.988  1.00  0.00     0.063 A 
ATOM     70  C   UNL A   1      31.301  28.174  23.908  1.00  0.00     0.016 A 
ATOM     71  C   UNL A   1      30.640  26.316  25.360  1.00  0.00     0.054 A 
ATOM     72  C   UNL A   1      30.125  28.038  23.177  1.00  0.00     0.001 A 
ATOM     73  C   UNL A   1      29.437  26.243  24.650  1.00  0.00     0.027 A 
ATOM     74  C   UNL A   1      29.190  27.081  23.557  1.00  0.00     0.002 A 
BRANCH  71  75
ATOM     75  N   UNL A   1      30.943  25.459  26.443  1.00  0.00    -0.321 N 
ATOM     76  C   UNL A   1      31.486  24.197  26.517  1.00  0.00     0.255 C 
ATOM     77  H   UNL A   1      30.720  25.841  27.322  1.00  0.00     0.170 HD
ATOM     78  O   UNL A   1      31.529  23.615  27.600  1.00  0.00    -0.269 OA
BRANCH  76  79
ATOM     79  C   UNL A   1      32.097  23.534  25.351  1.00  0.00     0.043 A 
ATOM     80  C   UNL A   1      31.321  23.018  24.314  1.00  0.00     0.034 A 
ATOM     81  C   UNL A   1      33.487  23.464  25.291  1.00  0.00     0.034 A 
ATOM     82  C   UNL A   1      31.979  22.368  23.288  1.00  0.00     0.112 A 
ATOM     83  C   UNL A   1      34.048  22.804  24.217  1.00  0.00     0.112 A 
ATOM     84  N   UNL A   1      33.323  22.238  23.226  1.00  0.00    -0.265 NA
ENDBRANCH  76  79
ENDBRANCH  71  75
ENDBRANCH  66  69
ENDBRANCH  64  65
ENDBRANCH  63  64
ENDBRANCH   1  63
TORSDOF 13
ENDMDL
MODEL 2
REMARK VINA RESULT:     -11.9      0.173      1.326
REMARK SMILES O=C(NCCCCNC(=O)c1ccccc1NC(=O)c1ccncc1)c1ccc(-c2c3nc(c(-c4c(F)cccc4F)c4ccc([nH]4)c(-c4c(F)cccc4F)c4nc(c(-c5c(F)cccc5F)c5ccc2[nH]5)C=C4)C=C3)cc1
REMARK SMILES IDX 5 1 4 2 3 3 1 4 2 5 26 7 27 8 79 9 28 10 78 11 29 12 30 13
REMARK SMILES IDX 31 14 72 15 32 16 77 17 71 18 73 19 33 20 76 21 70 22 69 23
REMARK SMILES IDX 34 25 60 26 43 27 59 28 44 29 47 30 58 31 74 32 45 33 46 34
REMARK SMILES IDX 57 36 75 37 48 38 35 39 36 40 41 41 37 42 38 43 40 44 42 45
REMARK SMILES IDX 39 46 61 47 62 48 67 49 63 50 64 51 66 52 68 53 65 54 49 55
REMARK SMILES IDX 50 56 55 57 51 58 52 59 54 60 56 61 53 62 6 63 7 64 8 65
REMARK SMILES IDX 9 66 10 68 11 69 12 70 16 71 13 72 15 73 14 74 17 75 18 76
REMARK SMILES IDX 19 78 20 79 21 80 25 81 22 82 24 83 23 84
REMARK H PARENT 3 6 73 24 47 35 8 67 17 77
REMARK Flexibility Score: inf
ROOT
ATOM      1  C   UNL A   1      31.390  32.093  26.796  1.00  0.00     0.023 C 
ENDROOT
BRANCH   1   2
ATOM      2  C   UNL A   1      32.630  32.851  27.246  1.00  0.00     0.116 C 
BRANCH   2   3
ATOM      3  N   UNL A   1      32.350  34.208  27.688  1.00  0.00    -0.352 N 
ATOM      4  O   UNL A   1      32.533  36.053  28.979  1.00  0.00    -0.269 OA
ATOM      5  C   UNL A   1      32.987  34.961  28.648  1.00  0.00     0.251 C 
ATOM      6  H   UNL A   1      31.596  34.651  27.236  1.00  0.00     0.163 HD
BRANCH   5   7
ATOM      7  C   UNL A   1      34.204  34.436  29.308  1.00  0.00     0.039 A 
ATOM      8  C   UNL A   1      35.454  34.575  28.704  1.00  0.00     0.014 A 
ATOM      9  C   UNL A   1      34.090  33.784  30.540  1.00  0.00     0.014 A 
ATOM     10  C   UNL A   1      36.552  33.913  29.238  1.00  0.00     0.010 A 
ATOM     11  C   UNL A   1      35.218  33.204  31.129  1.00  0.00     0.010 A 
ATOM     12  C   UNL A   1      36.454  33.231  30.463  1.00  0.00    -0.014 A 
BRANCH  12  13
ATOM     13  C   UNL A   1      37.679  32.617  31.036  1.00  0.00     0.031 A 
ATOM     14  C   UNL A   1      38.254  33.072  32.348  1.00  0.00     0.074 A 
ATOM     15  C   UNL A   1      38.231  31.574  30.382  1.00  0.00     0.049 A 
ATOM     16  N   UNL A   1      39.266  32.576  33.017  1.00  0.00    -0.248 NA
ATOM     17  C   UNL A   1      37.626  34.236  32.992  1.00  0.00     0.031 C 
ATOM     18  C   UNL A   1      37.777  31.058  29.089  1.00  0.00     0.029 A 
ATOM     19  N   UNL A   1      39.262  30.739  30.729  1.00  0.00    -0.354 N 
ATOM     20  C   UNL A   1      39.403  33.369  34.150  1.00  0.00     0.074 A 
ATOM     21  C   UNL A   1      38.387  34.398  34.067  1.00  0.00     0.031 C 
ATOM     22  C   UNL A   1      38.477  29.957  28.784  1.00  0.00     0.029 A 
ATOM     23  C   UNL A   1      39.466  29.724  29.828  1.00  0.00     0.049 A 
ATOM     24  H   UNL A   1      39.802  30.856  31.543  1.00  0.00     0.167 HD
ATOM     25  C   UNL A   1      40.287  33.243  35.169  1.00  0.00     0.037 A 
ATOM     26  C   UNL A   1      40.355  28.713  29.835  1.00  0.00     0.037 A 
ATOM     27  C   UNL A   1      41.289  32.210  35.256  1.00  0.00     0.049 A 
ATOM     28  C   UNL A   1      41.310  28.591  30.983  1.00  0.00     0.074 A 
ATOM     29  C   UNL A   1      42.225  31.996  36.254  1.00  0.00     0.029 A 
ATOM     30  N   UNL A   1      41.481  31.213  34.312  1.00  0.00    -0.354 N 
ATOM     31  N   UNL A   1      41.414  29.343  32.052  1.00  0.00    -0.248 NA
ATOM     32  C   UNL A   1      42.273  27.484  30.927  1.00  0.00     0.031 C 
ATOM     33  C   UNL A   1      43.002  30.888  35.899  1.00  0.00     0.029 A 
ATOM     34  C   UNL A   1      42.525  30.389  34.698  1.00  0.00     0.049 A 
ATOM     35  H   UNL A   1      40.952  31.106  33.488  1.00  0.00     0.167 HD
ATOM     36  C   UNL A   1      42.456  28.804  32.793  1.00  0.00     0.074 A 
ATOM     37  C   UNL A   1      42.924  27.639  32.070  1.00  0.00     0.031 C 
ATOM     38  C   UNL A   1      42.986  29.242  33.960  1.00  0.00     0.037 A 
BRANCH  25  39
ATOM     39  C   UNL A   1      40.221  34.250  36.280  1.00  0.00     0.057 A 
ATOM     40  C   UNL A   1      40.877  35.484  36.196  1.00  0.00     0.134 A 
ATOM     41  C   UNL A   1      39.437  34.012  37.417  1.00  0.00     0.134 A 
ATOM     42  F   UNL A   1      41.651  35.770  35.138  1.00  0.00    -0.206 F 
ATOM     43  C   UNL A   1      40.764  36.442  37.205  1.00  0.00     0.040 A 
ATOM     44  C   UNL A   1      39.300  34.970  38.424  1.00  0.00     0.040 A 
ATOM     45  F   UNL A   1      38.776  32.853  37.558  1.00  0.00    -0.206 F 
ATOM     46  C   UNL A   1      39.967  36.189  38.321  1.00  0.00     0.006 A 
ENDBRANCH  25  39
BRANCH  26  47
ATOM     47  C   UNL A   1      40.381  27.746  28.711  1.00  0.00     0.057 A 
ATOM     48  C   UNL A   1      41.134  27.992  27.557  1.00  0.00     0.134 A 
ATOM     49  C   UNL A   1      39.663  26.545  28.771  1.00  0.00     0.134 A 
ATOM     50  F   UNL A   1      41.828  29.133  27.435  1.00  0.00    -0.206 F 
ATOM     51  C   UNL A   1      41.159  27.086  26.497  1.00  0.00     0.040 A 
ATOM     52  C   UNL A   1      39.703  25.618  27.730  1.00  0.00     0.040 A 
ATOM     53  F   UNL A   1      38.932  26.248  29.855  1.00  0.00    -0.206 F 
ATOM     54  C   UNL A   1      40.447  25.892  26.585  1.00  0.00     0.006 A 
ENDBRANCH  26  47
BRANCH  38  55
ATOM     55  C   UNL A   1      44.132  28.451  34.514  1.00  0.00     0.057 A 
ATOM     56  C   UNL A   1      45.458  28.739  34.164  1.00  0.00     0.134 A 
ATOM     57  C   UNL A   1      43.910  27.392  35.401  1.00  0.00     0.134 A 
ATOM     58  F   UNL A   1      45.733  29.733  33.305  1.00  0.00    -0.206 F 
ATOM     59  C   UNL A   1      46.521  27.981  34.653  1.00  0.00     0.040 A 
ATOM     60  C   UNL A   1      44.968  26.640  35.915  1.00  0.00     0.040 A 
ATOM     61  F   UNL A   1      42.665  27.069  35.779  1.00  0.00    -0.206 F 
ATOM     62  C   UNL A   1      46.277  26.929  35.534  1.00  0.00     0.006 A 
ENDBRANCH  38  55
ENDBRANCH  12  13
ENDBRANCH   5   7
ENDBRANCH   2   3
ENDBRANCH   1   2
BRANCH   1  63
ATOM     63  C   UNL A   1      31.648  30.746  26.124  1.00  0.00     0.023 C 
BRANCH  63  64
ATOM     64  C   UNL A   1      31.858  29.567  27.070  1.00  0.00     0.116 C 
BRANCH  64  65
ATOM     65  N   UNL A   1      32.885  28.649  26.605  1.00  0.00    -0.352 N 
ATOM     66  C   UNL A   1      32.795  27.606  25.722  1.00  0.00     0.253 C 
ATOM     67  H   UNL A   1      33.781  28.800  26.984  1.00  0.00     0.163 HD
ATOM     68  O   UNL A   1      33.761  26.868  25.551  1.00  0.00    -0.269 OA
BRANCH  66  69
ATOM     69  C   UNL A   1      31.548  27.355  24.973  1.00  0.00     0.063 A 
ATOM     70  C   UNL A   1      31.313  28.202  23.878  1.00  0.00     0.016 A 
ATOM     71  C   UNL A   1      30.612  26.367  25.341  1.00  0.00     0.054 A 
ATOM     72  C   UNL A   1      30.147  28.068  23.130  1.00  0.00     0.001 A 
ATOM     73  C   UNL A   1      29.420  26.296  24.612  1.00  0.00     0.027 A 
ATOM     74  C   UNL A   1      29.198  27.123  23.506  1.00  0.00     0.002 A 
BRANCH  71  75
ATOM     75  N   UNL A   1      30.890  25.520  26.438  1.00  0.00    -0.321 N 
ATOM     76  C   UNL A   1      31.423  24.255  26.535  1.00  0.00     0.255 C 
ATOM     77  H   UNL A   1      30.655  25.913  27.309  1.00  0.00     0.170 HD
ATOM     78  O   UNL A   1      31.443  23.685  27.625  1.00  0.00    -0.269 OA
BRANCH  76  79
ATOM     79  C   UNL A   1      32.047  23.574  25.387  1.00  0.00     0.043 A 
ATOM     80  C   UNL A   1      31.285  23.052  24.343  1.00  0.00     0.034 A 
ATOM     81  C   UNL A   1      33.438  23.493  25.351  1.00  0.00     0.034 A 
ATOM     82  C   UNL A   1      31.956  22.386  23.335  1.00  0.00     0.112 A 
ATOM     83  C   UNL A   1      34.011  22.816  24.294  1.00  0.00     0.112 A 
ATOM     84  N   UNL A   1      33.299  22.245  23.297  1.00  0.00    -0.265 NA
ENDBRANCH  76  79
ENDBRANCH  71  75
ENDBRANCH  66  69
ENDBRANCH  64  65
ENDBRANCH  63  64
ENDBRANCH   1  63
TORSDOF 13
ENDMDL
MODEL 3
REMARK VINA RESULT:     -11.7      2.545      7.615
REMARK SMILES O=C(NCCCCNC(=O)c1ccccc1NC(=O)c1ccncc1)c1ccc(-c2c3nc(c(-c4c(F)cccc4F)c4ccc([nH]4)c(-c4c(F)cccc4F)c4nc(c(-c5c(F)cccc5F)c5ccc2[nH]5)C=C4)C=C3)cc1
REMARK SMILES IDX 5 1 4 2 3 3 1 4 2 5 26 7 27 8 79 9 28 10 78 11 29 12 30 13
REMARK SMILES IDX 31 14 72 15 32 16 77 17 71 18 73 19 33 20 76 21 70 22 69 23
REMARK SMILES IDX 34 25 60 26 43 27 59 28 44 29 47 30 58 31 74 32 45 33 46 34
REMARK SMILES IDX 57 36 75 37 48 38 35 39 36 40 41 41 37 42 38 43 40 44 42 45
REMARK SMILES IDX 39 46 61 47 62 48 67 49 63 50 64 51 66 52 68 53 65 54 49 55
REMARK SMILES IDX 50 56 55 57 51 58 52 59 54 60 56 61 53 62 6 63 7 64 8 65
REMARK SMILES IDX 9 66 10 68 11 69 12 70 16 71 13 72 15 73 14 74 17 75 18 76
REMARK SMILES IDX 19 78 20 79 21 80 25 81 22 82 24 83 23 84
REMARK H PARENT 3 6 73 24 47 35 8 67 17 77
REMARK Flexibility Score: inf
ROOT
ATOM      1  C   UNL A   1      35.591  23.582  25.746  1.00  0.00     0.023 C 
ENDROOT
BRANCH   1   2
ATOM      2  C   UNL A   1      36.995  24.071  25.417  1.00  0.00     0.116 C 
BRANCH   2   3
ATOM      3  N   UNL A   1      38.012  23.042  25.559  1.00  0.00    -0.352 N 
ATOM      4  O   UNL A   1      40.023  22.169  26.104  1.00  0.00    -0.269 OA
ATOM      5  C   UNL A   1      39.233  23.105  26.192  1.00  0.00     0.251 C 
ATOM      6  H   UNL A   1      37.798  22.176  25.141  1.00  0.00     0.163 HD
BRANCH   5   7
ATOM      7  C   UNL A   1      39.607  24.320  26.951  1.00  0.00     0.039 A 
ATOM      8  C   UNL A   1      39.257  24.452  28.295  1.00  0.00     0.014 A 
ATOM      9  C   UNL A   1      40.303  25.346  26.305  1.00  0.00     0.014 A 
ATOM     10  C   UNL A   1      39.444  25.669  28.937  1.00  0.00     0.010 A 
ATOM     11  C   UNL A   1      40.582  26.536  26.985  1.00  0.00     0.010 A 
ATOM     12  C   UNL A   1      40.120  26.722  28.297  1.00  0.00    -0.014 A 
BRANCH  12  13
ATOM     13  C   UNL A   1      40.374  27.972  29.060  1.00  0.00     0.031 A 
ATOM     14  C   UNL A   1      39.347  29.066  29.148  1.00  0.00     0.074 A 
ATOM     15  C   UNL A   1      41.531  28.075  29.744  1.00  0.00     0.049 A 
ATOM     16  N   UNL A   1      39.387  30.175  29.845  1.00  0.00    -0.248 NA
ATOM     17  C   UNL A   1      38.121  28.908  28.351  1.00  0.00     0.031 C 
ATOM     18  C   UNL A   1      42.614  27.090  29.715  1.00  0.00     0.029 A 
ATOM     19  N   UNL A   1      41.974  29.029  30.624  1.00  0.00    -0.354 N 
ATOM     20  C   UNL A   1      38.206  30.849  29.564  1.00  0.00     0.074 A 
ATOM     21  C   UNL A   1      37.477  30.038  28.611  1.00  0.00     0.031 C 
ATOM     22  C   UNL A   1      43.564  27.453  30.588  1.00  0.00     0.029 A 
ATOM     23  C   UNL A   1      43.186  28.724  31.193  1.00  0.00     0.049 A 
ATOM     24  H   UNL A   1      41.473  29.851  30.826  1.00  0.00     0.167 HD
ATOM     25  C   UNL A   1      37.766  32.030  30.063  1.00  0.00     0.037 A 
ATOM     26  C   UNL A   1      43.918  29.392  32.102  1.00  0.00     0.037 A 
ATOM     27  C   UNL A   1      38.487  32.830  31.022  1.00  0.00     0.049 A 
ATOM     28  C   UNL A   1      43.398  30.687  32.647  1.00  0.00     0.074 A 
ATOM     29  C   UNL A   1      38.117  34.036  31.593  1.00  0.00     0.029 A 
ATOM     30  N   UNL A   1      39.722  32.499  31.558  1.00  0.00    -0.354 N 
ATOM     31  N   UNL A   1      42.271  31.301  32.379  1.00  0.00    -0.248 NA
ATOM     32  C   UNL A   1      44.251  31.386  33.617  1.00  0.00     0.031 C 
ATOM     33  C   UNL A   1      39.143  34.451  32.450  1.00  0.00     0.029 A 
ATOM     34  C   UNL A   1      40.133  33.482  32.443  1.00  0.00     0.049 A 
ATOM     35  H   UNL A   1      40.232  31.684  31.342  1.00  0.00     0.167 HD
ATOM     36  C   UNL A   1      42.281  32.459  33.143  1.00  0.00     0.074 A 
ATOM     37  C   UNL A   1      43.507  32.441  33.914  1.00  0.00     0.031 C 
ATOM     38  C   UNL A   1      41.363  33.454  33.191  1.00  0.00     0.037 A 
BRANCH  25  39
ATOM     39  C   UNL A   1      36.439  32.541  29.582  1.00  0.00     0.057 A 
ATOM     40  C   UNL A   1      35.259  32.320  30.304  1.00  0.00     0.134 A 
ATOM     41  C   UNL A   1      36.349  33.319  28.420  1.00  0.00     0.134 A 
ATOM     42  F   UNL A   1      35.274  31.574  31.418  1.00  0.00    -0.206 F 
ATOM     43  C   UNL A   1      34.036  32.847  29.883  1.00  0.00     0.040 A 
ATOM     44  C   UNL A   1      35.136  33.869  28.000  1.00  0.00     0.040 A 
ATOM     45  F   UNL A   1      37.443  33.575  27.686  1.00  0.00    -0.206 F 
ATOM     46  C   UNL A   1      33.973  33.632  28.732  1.00  0.00     0.006 A 
ENDBRANCH  25  39
BRANCH  26  47
ATOM     47  C   UNL A   1      45.225  28.846  32.542  1.00  0.00     0.057 A 
ATOM     48  C   UNL A   1      46.409  29.156  31.865  1.00  0.00     0.134 A 
ATOM     49  C   UNL A   1      45.320  28.009  33.661  1.00  0.00     0.134 A 
ATOM     50  F   UNL A   1      46.378  29.939  30.777  1.00  0.00    -0.206 F 
ATOM     51  C   UNL A   1      47.640  28.642  32.275  1.00  0.00     0.040 A 
ATOM     52  C   UNL A   1      46.547  27.511  34.098  1.00  0.00     0.040 A 
ATOM     53  F   UNL A   1      44.222  27.683  34.358  1.00  0.00    -0.206 F 
ATOM     54  C   UNL A   1      47.711  27.822  33.400  1.00  0.00     0.006 A 
ENDBRANCH  26  47
BRANCH  38  55
ATOM     55  C   UNL A   1      41.664  34.599  34.110  1.00  0.00     0.057 A 
ATOM     56  C   UNL A   1      41.246  34.594  35.447  1.00  0.00     0.134 A 
ATOM     57  C   UNL A   1      42.372  35.717  33.655  1.00  0.00     0.134 A 
ATOM     58  F   UNL A   1      40.548  33.558  35.936  1.00  0.00    -0.206 F 
ATOM     59  C   UNL A   1      41.496  35.675  36.292  1.00  0.00     0.040 A 
ATOM     60  C   UNL A   1      42.648  36.795  34.497  1.00  0.00     0.040 A 
ATOM     61  F   UNL A   1      42.804  35.781  32.387  1.00  0.00    -0.206 F 
ATOM     62  C   UNL A   1      42.202  36.779  35.817  1.00  0.00     0.006 A 
ENDBRANCH  38  55
ENDBRANCH  12  13
ENDBRANCH   5   7
ENDBRANCH   2   3
ENDBRANCH   1   2
BRANCH   1  63
ATOM     63  C   UNL A   1      34.450  24.395  25.137  1.00  0.00     0.023 C 
BRANCH  63  64
ATOM     64  C   UNL A   1      33.614  25.202  26.127  1.00  0.00     0.116 C 
BRANCH  64  65
ATOM     65  N   UNL A   1      32.185  25.080  25.887  1.00  0.00    -0.352 N 
ATOM     66  C   UNL A   1      31.211  26.042  25.886  1.00  0.00     0.253 C 
ATOM     67  H   UNL A   1      31.871  24.166  25.699  1.00  0.00     0.163 HD
ATOM     68  O   UNL A   1      30.033  25.716  25.779  1.00  0.00    -0.269 OA
BRANCH  66  69
ATOM     69  C   UNL A   1      31.560  27.471  26.013  1.00  0.00     0.063 A 
ATOM     70  C   UNL A   1      31.595  27.977  27.321  1.00  0.00     0.016 A 
ATOM     71  C   UNL A   1      31.797  28.308  24.903  1.00  0.00     0.054 A 
ATOM     72  C   UNL A   1      31.879  29.322  27.542  1.00  0.00     0.001 A 
ATOM     73  C   UNL A   1      32.016  29.668  25.149  1.00  0.00     0.027 A 
ATOM     74  C   UNL A   1      32.078  30.167  26.455  1.00  0.00     0.002 A 
BRANCH  71  75
ATOM     75  N   UNL A   1      31.771  27.760  23.600  1.00  0.00    -0.321 N 
ATOM     76  C   UNL A   1      30.820  27.748  22.606  1.00  0.00     0.255 C 
ATOM     77  H   UNL A   1      32.601  27.292  23.353  1.00  0.00     0.170 HD
ATOM     78  O   UNL A   1      31.009  27.079  21.591  1.00  0.00    -0.269 OA
BRANCH  76  79
ATOM     79  C   UNL A   1      29.601  28.573  22.674  1.00  0.00     0.043 A 
ATOM     80  C   UNL A   1      29.597  29.907  22.270  1.00  0.00     0.034 A 
ATOM     81  C   UNL A   1      28.428  27.972  23.126  1.00  0.00     0.034 A 
ATOM     82  C   UNL A   1      28.421  30.615  22.419  1.00  0.00     0.112 A 
ATOM     83  C   UNL A   1      27.303  28.764  23.228  1.00  0.00     0.112 A 
ATOM     84  N   UNL A   1      27.280  30.076  22.902  1.00  0.00    -0.265 NA
ENDBRANCH  76  79
ENDBRANCH  71  75
ENDBRANCH  66  69
ENDBRANCH  64  65
ENDBRANCH  63  64
ENDBRANCH   1  63
TORSDOF 13
ENDMDL
