MODEL 1
REMARK VINA RESULT:     -12.3      0.000      0.000
REMARK SMILES Cc1cc2c(c(C)c1Cl)C=C(C(=O)NCCCCNC(=O)c1ccc(-c3c4nc(c(-c5c(F)cccc5F)c5ccc([nH]5)c(-c5c(F)cccc5F)c5nc(c(-c6c(F)cccc6F)c6ccc3[nH]6)C=C5)C=C4)cc1)[C@@H](C(F)(F)F)O2
REMARK SMILES IDX 17 1 16 2 15 3 14 4 12 5 13 6 11 8 1 9 2 10 3 11 8 12 4 13
REMARK SMILES IDX 6 14 9 15 5 16 81 17 7 18 10 19 76 20 77 21 78 22 79 23
REMARK SMILES IDX 80 24 18 25 19 26 20 27 21 29 22 30 23 31 75 32 24 33 74 34
REMARK SMILES IDX 25 35 26 36 27 37 68 38 28 39 73 40 67 41 69 42 29 43 72 44
REMARK SMILES IDX 66 45 65 46 30 48 56 49 39 50 55 51 40 52 43 53 54 54 70 55
REMARK SMILES IDX 41 56 42 57 53 59 71 60 44 61 31 62 32 63 37 64 33 65 34 66
REMARK SMILES IDX 36 67 38 68 35 69 57 70 58 71 63 72 59 73 60 74 62 75 64 76
REMARK SMILES IDX 61 77 45 78 46 79 51 80 47 81 48 82 50 83 52 84 49 85
REMARK H PARENT 14 7 19 28 69 47 43 58
REMARK Flexibility Score: inf
ROOT
ATOM      1  C   UNL A   1      37.436  20.715  24.862  1.00  0.00     0.023 C 
ENDROOT
BRANCH   1   2
ATOM      2  C   UNL A   1      36.918  21.996  24.205  1.00  0.00     0.023 C 
BRANCH   2   3
ATOM      3  C   UNL A   1      36.792  23.179  25.161  1.00  0.00     0.116 C 
BRANCH   3   4
ATOM      4  N   UNL A   1      35.943  22.869  26.297  1.00  0.00    -0.352 N 
ATOM      5  C   UNL A   1      34.673  23.134  26.682  1.00  0.00     0.251 C 
ATOM      6  O   UNL A   1      34.351  22.661  27.778  1.00  0.00    -0.270 OA
ATOM      7  H   UNL A   1      36.418  22.320  26.964  1.00  0.00     0.163 HD
BRANCH   5   8
ATOM      8  C   UNL A   1      33.680  23.926  25.898  1.00  0.00     0.067 C 
ATOM      9  C   UNL A   1      30.022  28.466  22.993  1.00  0.00     0.046 C 
ATOM     10  C   UNL A   1      30.942  27.684  23.891  1.00  0.00    -0.028 A 
ATOM     11  C   UNL A   1      31.147  26.333  23.597  1.00  0.00     0.052 A 
ATOM     12  C   UNL A   1      31.654  28.261  24.962  1.00  0.00     0.047 A 
ATOM     13  C   UNL A   1      32.018  25.565  24.361  1.00  0.00     0.128 A 
ATOM     14  C   UNL A   1      32.530  27.483  25.763  1.00  0.00    -0.021 A 
ATOM     15  Cl  UNL A   1      31.465  29.962  25.267  1.00  0.00    -0.084 Cl
ATOM     16  C   UNL A   1      32.722  26.120  25.434  1.00  0.00     0.022 A 
ATOM     17  O   UNL A   1      32.167  24.271  23.954  1.00  0.00    -0.475 OA
ATOM     18  C   UNL A   1      33.280  28.081  26.930  1.00  0.00     0.047 C 
ATOM     19  C   UNL A   1      33.679  25.253  26.132  1.00  0.00     0.026 C 
ATOM     20  C   UNL A   1      32.699  23.338  24.931  1.00  0.00     0.314 C 
BRANCH  20  21
ATOM     21  C   UNL A   1      31.535  22.610  25.628  1.00  0.00     0.429 C 
ATOM     22  F   UNL A   1      31.753  21.272  25.639  1.00  0.00    -0.167 F 
ATOM     23  F   UNL A   1      31.393  22.984  26.922  1.00  0.00    -0.167 F 
ATOM     24  F   UNL A   1      30.347  22.825  25.023  1.00  0.00    -0.167 F 
ENDBRANCH  20  21
ENDBRANCH   5   8
ENDBRANCH   3   4
ENDBRANCH   2   3
ENDBRANCH   1   2
BRANCH   1  25
ATOM     25  C   UNL A   1      38.690  20.880  25.718  1.00  0.00     0.116 C 
BRANCH  25  26
ATOM     26  N   UNL A   1      39.635  19.777  25.601  1.00  0.00    -0.352 N 
ATOM     27  C   UNL A   1      40.960  19.759  25.965  1.00  0.00     0.251 C 
ATOM     28  H   UNL A   1      39.280  18.942  25.215  1.00  0.00     0.163 HD
ATOM     29  O   UNL A   1      41.662  18.776  25.755  1.00  0.00    -0.269 OA
BRANCH  27  30
ATOM     30  C   UNL A   1      41.533  20.974  26.569  1.00  0.00     0.039 A 
ATOM     31  C   UNL A   1      42.069  21.950  25.729  1.00  0.00     0.014 A 
ATOM     32  C   UNL A   1      41.436  21.182  27.947  1.00  0.00     0.014 A 
ATOM     33  C   UNL A   1      42.439  23.181  26.267  1.00  0.00     0.010 A 
ATOM     34  C   UNL A   1      41.747  22.431  28.472  1.00  0.00     0.010 A 
ATOM     35  C   UNL A   1      42.240  23.442  27.633  1.00  0.00    -0.014 A 
BRANCH  35  36
ATOM     36  C   UNL A   1      42.537  24.779  28.195  1.00  0.00     0.031 A 
ATOM     37  C   UNL A   1      43.940  25.131  28.592  1.00  0.00     0.074 A 
ATOM     38  C   UNL A   1      41.534  25.657  28.384  1.00  0.00     0.049 A 
ATOM     39  N   UNL A   1      44.395  26.244  29.105  1.00  0.00    -0.248 NA
ATOM     40  C   UNL A   1      44.962  24.088  28.410  1.00  0.00     0.031 C 
ATOM     41  C   UNL A   1      40.123  25.409  28.083  1.00  0.00     0.029 A 
ATOM     42  N   UNL A   1      41.550  26.940  28.869  1.00  0.00    -0.354 N 
ATOM     43  C   UNL A   1      45.753  26.035  29.308  1.00  0.00     0.074 A 
ATOM     44  C   UNL A   1      46.036  24.671  28.920  1.00  0.00     0.031 C 
ATOM     45  C   UNL A   1      39.415  26.518  28.351  1.00  0.00     0.029 A 
ATOM     46  C   UNL A   1      40.316  27.546  28.863  1.00  0.00     0.049 A 
ATOM     47  H   UNL A   1      42.366  27.386  29.190  1.00  0.00     0.167 HD
ATOM     48  C   UNL A   1      46.684  26.911  29.747  1.00  0.00     0.037 A 
ATOM     49  C   UNL A   1      39.959  28.794  29.218  1.00  0.00     0.037 A 
ATOM     50  C   UNL A   1      46.405  28.275  30.102  1.00  0.00     0.049 A 
ATOM     51  C   UNL A   1      41.011  29.747  29.711  1.00  0.00     0.074 A 
ATOM     52  C   UNL A   1      47.291  29.260  30.503  1.00  0.00     0.029 A 
ATOM     53  N   UNL A   1      45.143  28.847  30.097  1.00  0.00    -0.354 N 
ATOM     54  N   UNL A   1      42.301  29.555  29.841  1.00  0.00    -0.248 NA
ATOM     55  C   UNL A   1      40.558  31.088  30.108  1.00  0.00     0.031 C 
ATOM     56  C   UNL A   1      46.559  30.422  30.764  1.00  0.00     0.029 A 
ATOM     57  C   UNL A   1      45.222  30.168  30.501  1.00  0.00     0.049 A 
ATOM     58  H   UNL A   1      44.312  28.383  29.842  1.00  0.00     0.167 HD
ATOM     59  C   UNL A   1      42.817  30.752  30.315  1.00  0.00     0.074 A 
ATOM     60  C   UNL A   1      41.704  31.668  30.444  1.00  0.00     0.031 C 
ATOM     61  C   UNL A   1      44.101  31.063  30.618  1.00  0.00     0.037 A 
BRANCH  48  62
ATOM     62  C   UNL A   1      48.096  26.422  29.838  1.00  0.00     0.057 A 
ATOM     63  C   UNL A   1      48.982  26.547  28.760  1.00  0.00     0.134 A 
ATOM     64  C   UNL A   1      48.583  25.843  31.016  1.00  0.00     0.134 A 
ATOM     65  F   UNL A   1      48.569  27.079  27.600  1.00  0.00    -0.206 F 
ATOM     66  C   UNL A   1      50.299  26.094  28.843  1.00  0.00     0.040 A 
ATOM     67  C   UNL A   1      49.904  25.404  31.117  1.00  0.00     0.040 A 
ATOM     68  F   UNL A   1      47.785  25.695  32.083  1.00  0.00    -0.206 F 
ATOM     69  C   UNL A   1      50.764  25.526  30.027  1.00  0.00     0.006 A 
ENDBRANCH  48  62
BRANCH  49  70
ATOM     70  C   UNL A   1      38.551  29.230  29.067  1.00  0.00     0.057 A 
ATOM     71  C   UNL A   1      37.677  29.211  30.160  1.00  0.00     0.134 A 
ATOM     72  C   UNL A   1      38.050  29.690  27.845  1.00  0.00     0.134 A 
ATOM     73  F   UNL A   1      38.099  28.767  31.353  1.00  0.00    -0.206 F 
ATOM     74  C   UNL A   1      36.350  29.626  30.042  1.00  0.00     0.040 A 
ATOM     75  C   UNL A   1      36.728  30.123  27.715  1.00  0.00     0.040 A 
ATOM     76  F   UNL A   1      38.841  29.738  26.763  1.00  0.00    -0.206 F 
ATOM     77  C   UNL A   1      35.874  30.088  28.817  1.00  0.00     0.006 A 
ENDBRANCH  49  70
BRANCH  61  78
ATOM     78  C   UNL A   1      44.378  32.450  31.109  1.00  0.00     0.057 A 
ATOM     79  C   UNL A   1      44.617  33.503  30.220  1.00  0.00     0.134 A 
ATOM     80  C   UNL A   1      44.319  32.749  32.475  1.00  0.00     0.134 A 
ATOM     81  F   UNL A   1      44.694  33.274  28.900  1.00  0.00    -0.206 F 
ATOM     82  C   UNL A   1      44.789  34.811  30.674  1.00  0.00     0.040 A 
ATOM     83  C   UNL A   1      44.472  34.055  32.939  1.00  0.00     0.040 A 
ATOM     84  F   UNL A   1      44.086  31.782  33.375  1.00  0.00    -0.206 F 
ATOM     85  C   UNL A   1      44.706  35.091  32.037  1.00  0.00     0.006 A 
ENDBRANCH  61  78
ENDBRANCH  35  36
ENDBRANCH  27  30
ENDBRANCH  25  26
ENDBRANCH   1  25
TORSDOF 12
ENDMDL
MODEL 2
REMARK VINA RESULT:     -12.2      4.079      8.117
REMARK SMILES Cc1cc2c(c(C)c1Cl)C=C(C(=O)NCCCCNC(=O)c1ccc(-c3c4nc(c(-c5c(F)cccc5F)c5ccc([nH]5)c(-c5c(F)cccc5F)c5nc(c(-c6c(F)cccc6F)c6ccc3[nH]6)C=C5)C=C4)cc1)[C@@H](C(F)(F)F)O2
REMARK SMILES IDX 17 1 16 2 15 3 14 4 12 5 13 6 11 8 1 9 2 10 3 11 8 12 4 13
REMARK SMILES IDX 6 14 9 15 5 16 81 17 7 18 10 19 76 20 77 21 78 22 79 23
REMARK SMILES IDX 80 24 18 25 19 26 20 27 21 29 22 30 23 31 75 32 24 33 74 34
REMARK SMILES IDX 25 35 26 36 27 37 68 38 28 39 73 40 67 41 69 42 29 43 72 44
REMARK SMILES IDX 66 45 65 46 30 48 56 49 39 50 55 51 40 52 43 53 54 54 70 55
REMARK SMILES IDX 41 56 42 57 53 59 71 60 44 61 31 62 32 63 37 64 33 65 34 66
REMARK SMILES IDX 36 67 38 68 35 69 57 70 58 71 63 72 59 73 60 74 62 75 64 76
REMARK SMILES IDX 61 77 45 78 46 79 51 80 47 81 48 82 50 83 52 84 49 85
REMARK H PARENT 14 7 19 28 69 47 43 58
REMARK Flexibility Score: inf
ROOT
ATOM      1  C   UNL A   1      36.910  23.704  24.978  1.00  0.00     0.023 C 
ENDROOT
BRANCH   1   2
ATOM      2  C   UNL A   1      37.017  22.262  24.476  1.00  0.00     0.023 C 
BRANCH   2   3
ATOM      3  C   UNL A   1      36.752  21.209  25.549  1.00  0.00     0.116 C 
BRANCH   3   4
ATOM      4  N   UNL A   1      35.813  20.200  25.096  1.00  0.00    -0.352 N 
ATOM      5  C   UNL A   1      34.483  20.127  24.853  1.00  0.00     0.251 C 
ATOM      6  O   UNL A   1      34.082  19.022  24.475  1.00  0.00    -0.270 OA
ATOM      7  H   UNL A   1      36.261  19.341  24.921  1.00  0.00     0.163 HD
BRANCH   5   8
ATOM      8  C   UNL A   1      33.514  21.253  25.004  1.00  0.00     0.067 C 
ATOM      9  C   UNL A   1      29.507  26.343  24.319  1.00  0.00     0.046 C 
ATOM     10  C   UNL A   1      30.584  25.301  24.181  1.00  0.00    -0.028 A 
ATOM     11  C   UNL A   1      30.650  24.299  25.154  1.00  0.00     0.052 A 
ATOM     12  C   UNL A   1      31.475  25.247  23.090  1.00  0.00     0.047 A 
ATOM     13  C   UNL A   1      31.593  23.281  25.063  1.00  0.00     0.128 A 
ATOM     14  C   UNL A   1      32.456  24.226  22.996  1.00  0.00    -0.021 A 
ATOM     15  Cl  UNL A   1      31.329  26.442  21.836  1.00  0.00    -0.084 Cl
ATOM     16  C   UNL A   1      32.492  23.222  23.993  1.00  0.00     0.022 A 
ATOM     17  O   UNL A   1      31.535  22.340  26.049  1.00  0.00    -0.475 OA
ATOM     18  C   UNL A   1      33.435  24.170  21.846  1.00  0.00     0.047 C 
ATOM     19  C   UNL A   1      33.397  22.068  23.939  1.00  0.00     0.026 C 
ATOM     20  C   UNL A   1      32.723  21.530  26.246  1.00  0.00     0.314 C 
BRANCH  20  21
ATOM     21  C   UNL A   1      33.576  22.143  27.373  1.00  0.00     0.429 C 
ATOM     22  F   UNL A   1      34.451  21.226  27.855  1.00  0.00    -0.167 F 
ATOM     23  F   UNL A   1      34.319  23.191  26.947  1.00  0.00    -0.167 F 
ATOM     24  F   UNL A   1      32.833  22.581  28.411  1.00  0.00    -0.167 F 
ENDBRANCH  20  21
ENDBRANCH   5   8
ENDBRANCH   3   4
ENDBRANCH   2   3
ENDBRANCH   1   2
BRANCH   1  25
ATOM     25  C   UNL A   1      37.797  24.049  26.172  1.00  0.00     0.116 C 
BRANCH  25  26
ATOM     26  N   UNL A   1      39.210  23.765  25.959  1.00  0.00    -0.352 N 
ATOM     27  C   UNL A   1      40.293  24.438  26.474  1.00  0.00     0.251 C 
ATOM     28  H   UNL A   1      39.415  22.998  25.377  1.00  0.00     0.163 HD
ATOM     29  O   UNL A   1      41.437  24.129  26.165  1.00  0.00    -0.269 OA
BRANCH  27  30
ATOM     30  C   UNL A   1      40.041  25.579  27.371  1.00  0.00     0.039 A 
ATOM     31  C   UNL A   1      39.301  25.366  28.534  1.00  0.00     0.014 A 
ATOM     32  C   UNL A   1      40.630  26.819  27.107  1.00  0.00     0.014 A 
ATOM     33  C   UNL A   1      39.216  26.384  29.481  1.00  0.00     0.010 A 
ATOM     34  C   UNL A   1      40.597  27.810  28.081  1.00  0.00     0.010 A 
ATOM     35  C   UNL A   1      39.899  27.595  29.279  1.00  0.00    -0.014 A 
BRANCH  35  36
ATOM     36  C   UNL A   1      39.897  28.645  30.323  1.00  0.00     0.031 A 
ATOM     37  C   UNL A   1      38.923  29.783  30.242  1.00  0.00     0.074 A 
ATOM     38  C   UNL A   1      40.800  28.590  31.321  1.00  0.00     0.049 A 
ATOM     39  N   UNL A   1      38.772  30.796  31.054  1.00  0.00    -0.248 NA
ATOM     40  C   UNL A   1      38.016  29.796  29.083  1.00  0.00     0.031 C 
ATOM     41  C   UNL A   1      41.828  27.559  31.477  1.00  0.00     0.029 A 
ATOM     42  N   UNL A   1      40.994  29.419  32.396  1.00  0.00    -0.354 N 
ATOM     43  C   UNL A   1      37.756  31.567  30.505  1.00  0.00     0.074 A 
ATOM     44  C   UNL A   1      37.368  30.938  29.261  1.00  0.00     0.031 C 
ATOM     45  C   UNL A   1      42.517  27.793  32.605  1.00  0.00     0.029 A 
ATOM     46  C   UNL A   1      41.996  29.001  33.239  1.00  0.00     0.049 A 
ATOM     47  H   UNL A   1      40.466  30.234  32.551  1.00  0.00     0.167 HD
ATOM     48  C   UNL A   1      37.177  32.680  31.008  1.00  0.00     0.037 A 
ATOM     49  C   UNL A   1      42.432  29.528  34.398  1.00  0.00     0.037 A 
ATOM     50  C   UNL A   1      37.543  33.285  32.259  1.00  0.00     0.049 A 
ATOM     51  C   UNL A   1      41.779  30.770  34.933  1.00  0.00     0.074 A 
ATOM     52  C   UNL A   1      36.976  34.381  32.885  1.00  0.00     0.029 A 
ATOM     53  N   UNL A   1      38.571  32.842  33.076  1.00  0.00    -0.354 N 
ATOM     54  N   UNL A   1      40.778  31.454  34.435  1.00  0.00    -0.248 NA
ATOM     55  C   UNL A   1      42.314  31.314  36.190  1.00  0.00     0.031 C 
ATOM     56  C   UNL A   1      37.678  34.616  34.070  1.00  0.00     0.029 A 
ATOM     57  C   UNL A   1      38.666  33.651  34.195  1.00  0.00     0.049 A 
ATOM     58  H   UNL A   1      39.148  32.065  32.889  1.00  0.00     0.167 HD
ATOM     59  C   UNL A   1      40.551  32.496  35.322  1.00  0.00     0.074 A 
ATOM     60  C   UNL A   1      41.512  32.351  36.395  1.00  0.00     0.031 C 
ATOM     61  C   UNL A   1      39.628  33.486  35.253  1.00  0.00     0.037 A 
BRANCH  48  62
ATOM     62  C   UNL A   1      36.066  33.294  30.213  1.00  0.00     0.057 A 
ATOM     63  C   UNL A   1      36.327  34.081  29.084  1.00  0.00     0.134 A 
ATOM     64  C   UNL A   1      34.728  33.082  30.563  1.00  0.00     0.134 A 
ATOM     65  F   UNL A   1      37.589  34.333  28.709  1.00  0.00    -0.206 F 
ATOM     66  C   UNL A   1      35.294  34.653  28.341  1.00  0.00     0.040 A 
ATOM     67  C   UNL A   1      33.686  33.632  29.816  1.00  0.00     0.040 A 
ATOM     68  F   UNL A   1      34.413  32.337  31.634  1.00  0.00    -0.206 F 
ATOM     69  C   UNL A   1      33.968  34.424  28.704  1.00  0.00     0.006 A 
ENDBRANCH  48  62
BRANCH  49  70
ATOM     70  C   UNL A   1      43.509  28.850  35.157  1.00  0.00     0.057 A 
ATOM     71  C   UNL A   1      44.855  29.138  34.901  1.00  0.00     0.134 A 
ATOM     72  C   UNL A   1      43.227  27.918  36.162  1.00  0.00     0.134 A 
ATOM     73  F   UNL A   1      45.184  30.013  33.939  1.00  0.00    -0.206 F 
ATOM     74  C   UNL A   1      45.884  28.518  35.610  1.00  0.00     0.040 A 
ATOM     75  C   UNL A   1      44.246  27.301  36.892  1.00  0.00     0.040 A 
ATOM     76  F   UNL A   1      41.957  27.605  36.459  1.00  0.00    -0.206 F 
ATOM     77  C   UNL A   1      45.580  27.600  36.613  1.00  0.00     0.006 A 
ENDBRANCH  49  70
BRANCH  61  78
ATOM     78  C   UNL A   1      39.602  34.485  36.367  1.00  0.00     0.057 A 
ATOM     79  C   UNL A   1      38.909  34.232  37.555  1.00  0.00     0.134 A 
ATOM     80  C   UNL A   1      40.346  35.667  36.283  1.00  0.00     0.134 A 
ATOM     81  F   UNL A   1      38.171  33.120  37.688  1.00  0.00    -0.206 F 
ATOM     82  C   UNL A   1      38.956  35.125  38.626  1.00  0.00     0.040 A 
ATOM     83  C   UNL A   1      40.414  36.559  37.353  1.00  0.00     0.040 A 
ATOM     84  F   UNL A   1      41.037  35.961  35.172  1.00  0.00    -0.206 F 
ATOM     85  C   UNL A   1      39.719  36.288  38.530  1.00  0.00     0.006 A 
ENDBRANCH  61  78
ENDBRANCH  35  36
ENDBRANCH  27  30
ENDBRANCH  25  26
ENDBRANCH   1  25
TORSDOF 12
ENDMDL
MODEL 3
REMARK VINA RESULT:     -12.1      2.454      7.389
REMARK SMILES Cc1cc2c(c(C)c1Cl)C=C(C(=O)NCCCCNC(=O)c1ccc(-c3c4nc(c(-c5c(F)cccc5F)c5ccc([nH]5)c(-c5c(F)cccc5F)c5nc(c(-c6c(F)cccc6F)c6ccc3[nH]6)C=C5)C=C4)cc1)[C@@H](C(F)(F)F)O2
REMARK SMILES IDX 17 1 16 2 15 3 14 4 12 5 13 6 11 8 1 9 2 10 3 11 8 12 4 13
REMARK SMILES IDX 6 14 9 15 5 16 81 17 7 18 10 19 76 20 77 21 78 22 79 23
REMARK SMILES IDX 80 24 18 25 19 26 20 27 21 29 22 30 23 31 75 32 24 33 74 34
REMARK SMILES IDX 25 35 26 36 27 37 68 38 28 39 73 40 67 41 69 42 29 43 72 44
REMARK SMILES IDX 66 45 65 46 30 48 56 49 39 50 55 51 40 52 43 53 54 54 70 55
REMARK SMILES IDX 41 56 42 57 53 59 71 60 44 61 31 62 32 63 37 64 33 65 34 66
REMARK SMILES IDX 36 67 38 68 35 69 57 70 58 71 63 72 59 73 60 74 62 75 64 76
REMARK SMILES IDX 61 77 45 78 46 79 51 80 47 81 48 82 50 83 52 84 49 85
REMARK H PARENT 14 7 19 28 69 47 43 58
REMARK Flexibility Score: inf
ROOT
ATOM      1  C   UNL A   1      33.336  28.568  25.827  1.00  0.00     0.023 C 
ENDROOT
BRANCH   1   2
ATOM      2  C   UNL A   1      33.578  27.262  25.066  1.00  0.00     0.023 C 
BRANCH   2   3
ATOM      3  C   UNL A   1      32.300  26.548  24.634  1.00  0.00     0.116 C 
BRANCH   3   4
ATOM      4  N   UNL A   1      31.683  25.829  25.733  1.00  0.00    -0.352 N 
ATOM      5  C   UNL A   1      31.795  24.604  26.298  1.00  0.00     0.251 C 
ATOM      6  O   UNL A   1      31.036  24.397  27.250  1.00  0.00    -0.270 OA
ATOM      7  H   UNL A   1      31.003  26.377  26.188  1.00  0.00     0.163 HD
BRANCH   5   8
ATOM      8  C   UNL A   1      32.741  23.533  25.861  1.00  0.00     0.067 C 
ATOM      9  C   UNL A   1      37.761  19.532  24.760  1.00  0.00     0.046 C 
ATOM     10  C   UNL A   1      36.860  20.688  25.101  1.00  0.00    -0.028 A 
ATOM     11  C   UNL A   1      35.482  20.507  24.953  1.00  0.00     0.052 A 
ATOM     12  C   UNL A   1      37.331  21.909  25.625  1.00  0.00     0.047 A 
ATOM     13  C   UNL A   1      34.592  21.520  25.291  1.00  0.00     0.128 A 
ATOM     14  C   UNL A   1      36.436  22.959  25.955  1.00  0.00    -0.021 A 
ATOM     15  Cl  UNL A   1      39.039  22.095  25.894  1.00  0.00    -0.084 Cl
ATOM     16  C   UNL A   1      35.045  22.741  25.800  1.00  0.00     0.022 A 
ATOM     17  O   UNL A   1      33.271  21.213  25.140  1.00  0.00    -0.475 OA
ATOM     18  C   UNL A   1      36.927  24.282  26.493  1.00  0.00     0.047 C 
ATOM     19  C   UNL A   1      34.030  23.720  26.204  1.00  0.00     0.026 C 
ATOM     20  C   UNL A   1      32.348  22.330  25.060  1.00  0.00     0.314 C 
BRANCH  20  21
ATOM     21  C   UNL A   1      32.073  22.660  23.581  1.00  0.00     0.429 C 
ATOM     22  F   UNL A   1      32.240  21.556  22.812  1.00  0.00    -0.167 F 
ATOM     23  F   UNL A   1      30.803  23.081  23.373  1.00  0.00    -0.167 F 
ATOM     24  F   UNL A   1      32.891  23.620  23.100  1.00  0.00    -0.167 F 
ENDBRANCH  20  21
ENDBRANCH   5   8
ENDBRANCH   3   4
ENDBRANCH   2   3
ENDBRANCH   1   2
BRANCH   1  25
ATOM     25  C   UNL A   1      33.927  28.624  27.234  1.00  0.00     0.116 C 
BRANCH  25  26
ATOM     26  N   UNL A   1      33.899  29.952  27.834  1.00  0.00    -0.352 N 
ATOM     27  C   UNL A   1      34.934  30.630  28.431  1.00  0.00     0.251 C 
ATOM     28  H   UNL A   1      33.033  30.420  27.808  1.00  0.00     0.163 HD
ATOM     29  O   UNL A   1      34.758  31.725  28.953  1.00  0.00    -0.269 OA
BRANCH  27  30
ATOM     30  C   UNL A   1      36.257  29.983  28.475  1.00  0.00     0.039 A 
ATOM     31  C   UNL A   1      37.110  30.129  27.380  1.00  0.00     0.014 A 
ATOM     32  C   UNL A   1      36.680  29.334  29.638  1.00  0.00     0.014 A 
ATOM     33  C   UNL A   1      38.427  29.688  27.483  1.00  0.00     0.010 A 
ATOM     34  C   UNL A   1      38.011  28.953  29.760  1.00  0.00     0.010 A 
ATOM     35  C   UNL A   1      38.896  29.137  28.687  1.00  0.00    -0.014 A 
BRANCH  35  36
ATOM     36  C   UNL A   1      40.319  28.756  28.838  1.00  0.00     0.031 A 
ATOM     37  C   UNL A   1      41.293  29.721  29.446  1.00  0.00     0.074 A 
ATOM     38  C   UNL A   1      40.736  27.556  28.391  1.00  0.00     0.049 A 
ATOM     39  N   UNL A   1      42.574  29.573  29.657  1.00  0.00    -0.248 NA
ATOM     40  C   UNL A   1      40.762  31.034  29.847  1.00  0.00     0.031 C 
ATOM     41  C   UNL A   1      39.890  26.555  27.738  1.00  0.00     0.029 A 
ATOM     42  N   UNL A   1      41.977  26.973  28.425  1.00  0.00    -0.354 N 
ATOM     43  C   UNL A   1      43.002  30.771  30.214  1.00  0.00     0.074 A 
ATOM     44  C   UNL A   1      41.859  31.656  30.252  1.00  0.00     0.031 C 
ATOM     45  C   UNL A   1      40.628  25.465  27.470  1.00  0.00     0.029 A 
ATOM     46  C   UNL A   1      42.000  25.699  27.911  1.00  0.00     0.049 A 
ATOM     47  H   UNL A   1      42.775  27.423  28.783  1.00  0.00     0.167 HD
ATOM     48  C   UNL A   1      44.230  31.093  30.680  1.00  0.00     0.037 A 
ATOM     49  C   UNL A   1      43.012  24.817  27.819  1.00  0.00     0.037 A 
ATOM     50  C   UNL A   1      45.357  30.201  30.669  1.00  0.00     0.049 A 
ATOM     51  C   UNL A   1      44.369  25.201  28.337  1.00  0.00     0.074 A 
ATOM     52  C   UNL A   1      46.628  30.412  31.172  1.00  0.00     0.029 A 
ATOM     53  N   UNL A   1      45.345  28.925  30.128  1.00  0.00    -0.354 N 
ATOM     54  N   UNL A   1      44.746  26.314  28.916  1.00  0.00    -0.248 NA
ATOM     55  C   UNL A   1      45.443  24.206  28.188  1.00  0.00     0.031 C 
ATOM     56  C   UNL A   1      47.394  29.271  30.912  1.00  0.00     0.029 A 
ATOM     57  C   UNL A   1      46.591  28.341  30.270  1.00  0.00     0.049 A 
ATOM     58  H   UNL A   1      44.565  28.497  29.705  1.00  0.00     0.167 HD
ATOM     59  C   UNL A   1      46.090  26.150  29.217  1.00  0.00     0.074 A 
ATOM     60  C   UNL A   1      46.464  24.827  28.764  1.00  0.00     0.031 C 
ATOM     61  C   UNL A   1      46.940  27.021  29.816  1.00  0.00     0.037 A 
BRANCH  48  62
ATOM     62  C   UNL A   1      44.404  32.459  31.267  1.00  0.00     0.057 A 
ATOM     63  C   UNL A   1      44.799  33.547  30.478  1.00  0.00     0.134 A 
ATOM     64  C   UNL A   1      44.155  32.696  32.624  1.00  0.00     0.134 A 
ATOM     65  F   UNL A   1      45.068  33.378  29.175  1.00  0.00    -0.206 F 
ATOM     66  C   UNL A   1      44.960  34.821  31.022  1.00  0.00     0.040 A 
ATOM     67  C   UNL A   1      44.294  33.971  33.175  1.00  0.00     0.040 A 
ATOM     68  F   UNL A   1      43.774  31.696  33.432  1.00  0.00    -0.206 F 
ATOM     69  C   UNL A   1      44.702  35.036  32.374  1.00  0.00     0.006 A 
ENDBRANCH  48  62
BRANCH  49  70
ATOM     70  C   UNL A   1      42.766  23.465  27.264  1.00  0.00     0.057 A 
ATOM     71  C   UNL A   1      42.373  22.412  28.097  1.00  0.00     0.134 A 
ATOM     72  C   UNL A   1      42.898  23.197  25.897  1.00  0.00     0.134 A 
ATOM     73  F   UNL A   1      42.245  22.609  29.417  1.00  0.00    -0.206 F 
ATOM     74  C   UNL A   1      42.128  21.134  27.592  1.00  0.00     0.040 A 
ATOM     75  C   UNL A   1      42.640  21.926  25.376  1.00  0.00     0.040 A 
ATOM     76  F   UNL A   1      43.264  24.168  25.047  1.00  0.00    -0.206 F 
ATOM     77  C   UNL A   1      42.257  20.890  26.227  1.00  0.00     0.006 A 
ENDBRANCH  49  70
BRANCH  61  78
ATOM     78  C   UNL A   1      48.353  26.572  30.025  1.00  0.00     0.057 A 
ATOM     79  C   UNL A   1      49.357  26.876  29.100  1.00  0.00     0.134 A 
ATOM     80  C   UNL A   1      48.725  25.909  31.200  1.00  0.00     0.134 A 
ATOM     81  F   UNL A   1      49.058  27.501  27.952  1.00  0.00    -0.206 F 
ATOM     82  C   UNL A   1      50.688  26.533  29.337  1.00  0.00     0.040 A 
ATOM     83  C   UNL A   1      50.055  25.577  31.456  1.00  0.00     0.040 A 
ATOM     84  F   UNL A   1      47.806  25.599  32.127  1.00  0.00    -0.206 F 
ATOM     85  C   UNL A   1      51.042  25.890  30.523  1.00  0.00     0.006 A 
ENDBRANCH  61  78
ENDBRANCH  35  36
ENDBRANCH  27  30
ENDBRANCH  25  26
ENDBRANCH   1  25
TORSDOF 12
ENDMDL
