MODEL 1
REMARK VINA RESULT:     -12.4      0.000      0.000
REMARK SMILES Cc1ccc(C(=O)Nc2cccc(F)c2C(=O)NCCCCNC(=O)c2ccc(-c3c4nc(c(-c5c(F)cccc5F)c5ccc([nH]5)c(-c5c(F)cccc5F)c5nc(c(-c6c(F)cccc6F)c6ccc3[nH]6)C=C5)C=C4)cc2)c(F)c1
REMARK SMILES IDX 20 1 19 2 18 3 16 4 17 5 15 7 9 8 10 9 11 10 13 11 12 12
REMARK SMILES IDX 14 13 8 14 6 15 7 16 5 18 1 19 2 20 3 21 82 22 4 23 80 24
REMARK SMILES IDX 81 25 21 26 22 27 23 28 24 29 25 31 26 32 27 33 79 34 28 35
REMARK SMILES IDX 78 36 29 37 30 38 31 39 72 40 32 41 77 42 71 43 73 44 33 45
REMARK SMILES IDX 76 46 70 47 69 48 34 50 60 51 43 52 59 53 44 54 47 55 58 56
REMARK SMILES IDX 74 57 45 58 46 59 57 61 75 62 48 63 35 64 36 65 41 66 37 67
REMARK SMILES IDX 38 68 40 69 42 70 39 71 61 72 62 73 67 74 63 75 64 76 66 77
REMARK SMILES IDX 68 78 65 79 49 80 50 81 55 82 51 83 52 84 54 85 56 86 53 87
REMARK H PARENT 18 6 8 17 23 30 73 49 47 60
REMARK Flexibility Score: inf
ROOT
ATOM      1  C   UNL A   1      31.630  30.606  26.128  1.00  0.00     0.023 C 
ENDROOT
BRANCH   1   2
ATOM      2  C   UNL A   1      33.010  30.013  26.380  1.00  0.00     0.116 C 
BRANCH   2   3
ATOM      3  N   UNL A   1      33.627  29.401  25.218  1.00  0.00    -0.352 N 
ATOM      4  C   UNL A   1      33.363  28.228  24.549  1.00  0.00     0.256 C 
ATOM      5  O   UNL A   1      34.061  27.991  23.561  1.00  0.00    -0.269 OA
ATOM      6  H   UNL A   1      34.370  29.923  24.837  1.00  0.00     0.163 HD
BRANCH   4   7
ATOM      7  C   UNL A   1      32.372  27.211  25.008  1.00  0.00     0.099 A 
ATOM      8  C   UNL A   1      32.794  26.077  25.738  1.00  0.00     0.057 A 
ATOM      9  C   UNL A   1      31.850  25.240  26.358  1.00  0.00     0.027 A 
ATOM     10  C   UNL A   1      30.490  25.419  26.126  1.00  0.00     0.005 A 
ATOM     11  C   UNL A   1      31.024  27.248  24.648  1.00  0.00     0.138 A 
ATOM     12  C   UNL A   1      30.084  26.386  25.217  1.00  0.00     0.040 A 
ATOM     13  F   UNL A   1      30.589  28.047  23.663  1.00  0.00    -0.206 F 
BRANCH   8  14
ATOM     14  N   UNL A   1      34.152  25.692  25.735  1.00  0.00    -0.321 N 
ATOM     15  C   UNL A   1      34.715  24.511  25.268  1.00  0.00     0.258 C 
ATOM     16  O   UNL A   1      35.911  24.297  25.457  1.00  0.00    -0.269 OA
ATOM     17  H   UNL A   1      34.783  26.348  26.114  1.00  0.00     0.170 HD
BRANCH  15  18
ATOM     18  C   UNL A   1      33.932  23.566  24.416  1.00  0.00     0.075 A 
ATOM     19  C   UNL A   1      31.778  20.817  21.863  1.00  0.00     0.044 C 
ATOM     20  C   UNL A   1      32.512  21.777  22.751  1.00  0.00    -0.048 A 
ATOM     21  C   UNL A   1      32.757  21.454  24.087  1.00  0.00     0.004 A 
ATOM     22  C   UNL A   1      32.905  23.035  22.280  1.00  0.00     0.043 A 
ATOM     23  C   UNL A   1      33.426  22.356  24.919  1.00  0.00     0.017 A 
ATOM     24  C   UNL A   1      33.619  23.912  23.103  1.00  0.00     0.136 A 
ATOM     25  F   UNL A   1      34.005  25.084  22.580  1.00  0.00    -0.206 F 
ENDBRANCH  15  18
ENDBRANCH   8  14
ENDBRANCH   4   7
ENDBRANCH   2   3
ENDBRANCH   1   2
BRANCH   1  26
ATOM     26  C   UNL A   1      31.421  32.064  26.523  1.00  0.00     0.023 C 
BRANCH  26  27
ATOM     27  C   UNL A   1      32.576  32.741  27.251  1.00  0.00     0.116 C 
BRANCH  27  28
ATOM     28  N   UNL A   1      32.312  34.121  27.626  1.00  0.00    -0.352 N 
ATOM     29  C   UNL A   1      32.957  34.937  28.530  1.00  0.00     0.251 C 
ATOM     30  H   UNL A   1      31.550  34.538  27.160  1.00  0.00     0.163 HD
ATOM     31  O   UNL A   1      32.533  36.058  28.757  1.00  0.00    -0.269 OA
BRANCH  29  32
ATOM     32  C   UNL A   1      34.141  34.434  29.264  1.00  0.00     0.039 A 
ATOM     33  C   UNL A   1      33.948  33.813  30.501  1.00  0.00     0.014 A 
ATOM     34  C   UNL A   1      35.426  34.547  28.730  1.00  0.00     0.014 A 
ATOM     35  C   UNL A   1      35.029  33.214  31.153  1.00  0.00     0.010 A 
ATOM     36  C   UNL A   1      36.488  33.884  29.341  1.00  0.00     0.010 A 
ATOM     37  C   UNL A   1      36.297  33.198  30.550  1.00  0.00    -0.014 A 
BRANCH  37  38
ATOM     38  C   UNL A   1      37.433  32.451  31.149  1.00  0.00     0.031 A 
ATOM     39  C   UNL A   1      38.057  32.926  32.431  1.00  0.00     0.074 A 
ATOM     40  C   UNL A   1      37.961  31.397  30.492  1.00  0.00     0.049 A 
ATOM     41  N   UNL A   1      39.133  32.491  33.036  1.00  0.00    -0.248 NA
ATOM     42  C   UNL A   1      37.403  34.057  33.109  1.00  0.00     0.031 C 
ATOM     43  C   UNL A   1      37.478  30.864  29.217  1.00  0.00     0.029 A 
ATOM     44  N   UNL A   1      39.034  30.597  30.800  1.00  0.00    -0.354 N 
ATOM     45  C   UNL A   1      39.297  33.308  34.147  1.00  0.00     0.074 A 
ATOM     46  C   UNL A   1      38.234  34.289  34.115  1.00  0.00     0.031 C 
ATOM     47  C   UNL A   1      38.240  29.817  28.860  1.00  0.00     0.029 A 
ATOM     48  C   UNL A   1      39.289  29.629  29.857  1.00  0.00     0.049 A 
ATOM     49  H   UNL A   1      39.570  30.706  31.618  1.00  0.00     0.167 HD
ATOM     50  C   UNL A   1      40.238  33.234  35.117  1.00  0.00     0.037 A 
ATOM     51  C   UNL A   1      40.266  28.703  29.794  1.00  0.00     0.037 A 
ATOM     52  C   UNL A   1      41.265  32.229  35.175  1.00  0.00     0.049 A 
ATOM     53  C   UNL A   1      41.288  28.633  30.894  1.00  0.00     0.074 A 
ATOM     54  C   UNL A   1      42.222  32.036  36.157  1.00  0.00     0.029 A 
ATOM     55  N   UNL A   1      41.465  31.246  34.219  1.00  0.00    -0.354 N 
ATOM     56  N   UNL A   1      41.400  29.382  31.963  1.00  0.00    -0.248 NA
ATOM     57  C   UNL A   1      42.319  27.590  30.781  1.00  0.00     0.031 C 
ATOM     58  C   UNL A   1      43.020  30.953  35.781  1.00  0.00     0.029 A 
ATOM     59  C   UNL A   1      42.537  30.449  34.584  1.00  0.00     0.049 A 
ATOM     60  H   UNL A   1      40.926  31.132  33.404  1.00  0.00     0.167 HD
ATOM     61  C   UNL A   1      42.494  28.888  32.661  1.00  0.00     0.074 A 
ATOM     62  C   UNL A   1      43.008  27.769  31.901  1.00  0.00     0.031 C 
ATOM     63  C   UNL A   1      43.025  29.327  33.827  1.00  0.00     0.037 A 
BRANCH  50  64
ATOM     64  C   UNL A   1      40.195  34.251  36.215  1.00  0.00     0.057 A 
ATOM     65  C   UNL A   1      39.396  34.049  37.348  1.00  0.00     0.134 A 
ATOM     66  C   UNL A   1      40.874  35.472  36.109  1.00  0.00     0.134 A 
ATOM     67  F   UNL A   1      38.716  32.904  37.505  1.00  0.00    -0.206 F 
ATOM     68  C   UNL A   1      39.263  35.031  38.330  1.00  0.00     0.040 A 
ATOM     69  C   UNL A   1      40.765  36.453  37.094  1.00  0.00     0.040 A 
ATOM     70  F   UNL A   1      41.662  35.721  35.052  1.00  0.00    -0.206 F 
ATOM     71  C   UNL A   1      39.948  36.239  38.203  1.00  0.00     0.006 A 
ENDBRANCH  50  64
BRANCH  51  72
ATOM     72  C   UNL A   1      40.314  27.753  28.655  1.00  0.00     0.057 A 
ATOM     73  C   UNL A   1      41.057  28.028  27.501  1.00  0.00     0.134 A 
ATOM     74  C   UNL A   1      39.616  26.541  28.699  1.00  0.00     0.134 A 
ATOM     75  F   UNL A   1      41.742  29.176  27.394  1.00  0.00    -0.206 F 
ATOM     76  C   UNL A   1      41.095  27.137  26.427  1.00  0.00     0.040 A 
ATOM     77  C   UNL A   1      39.664  25.629  27.643  1.00  0.00     0.040 A 
ATOM     78  F   UNL A   1      38.903  26.212  29.787  1.00  0.00    -0.206 F 
ATOM     79  C   UNL A   1      40.403  25.930  26.500  1.00  0.00     0.006 A 
ENDBRANCH  51  72
BRANCH  63  80
ATOM     80  C   UNL A   1      44.203  28.584  34.381  1.00  0.00     0.057 A 
ATOM     81  C   UNL A   1      45.506  28.946  34.018  1.00  0.00     0.134 A 
ATOM     82  C   UNL A   1      44.043  27.456  35.193  1.00  0.00     0.134 A 
ATOM     83  F   UNL A   1      45.723  30.012  33.232  1.00  0.00    -0.206 F 
ATOM     84  C   UNL A   1      46.611  28.201  34.430  1.00  0.00     0.040 A 
ATOM     85  C   UNL A   1      45.142  26.714  35.630  1.00  0.00     0.040 A 
ATOM     86  F   UNL A   1      42.820  27.065  35.580  1.00  0.00    -0.206 F 
ATOM     87  C   UNL A   1      46.429  27.081  35.239  1.00  0.00     0.006 A 
ENDBRANCH  63  80
ENDBRANCH  37  38
ENDBRANCH  29  32
ENDBRANCH  27  28
ENDBRANCH  26  27
ENDBRANCH   1  26
TORSDOF 13
ENDMDL
MODEL 2
REMARK VINA RESULT:     -12.3      4.192      9.256
REMARK SMILES Cc1ccc(C(=O)Nc2cccc(F)c2C(=O)NCCCCNC(=O)c2ccc(-c3c4nc(c(-c5c(F)cccc5F)c5ccc([nH]5)c(-c5c(F)cccc5F)c5nc(c(-c6c(F)cccc6F)c6ccc3[nH]6)C=C5)C=C4)cc2)c(F)c1
REMARK SMILES IDX 20 1 19 2 18 3 16 4 17 5 15 7 9 8 10 9 11 10 13 11 12 12
REMARK SMILES IDX 14 13 8 14 6 15 7 16 5 18 1 19 2 20 3 21 82 22 4 23 80 24
REMARK SMILES IDX 81 25 21 26 22 27 23 28 24 29 25 31 26 32 27 33 79 34 28 35
REMARK SMILES IDX 78 36 29 37 30 38 31 39 72 40 32 41 77 42 71 43 73 44 33 45
REMARK SMILES IDX 76 46 70 47 69 48 34 50 60 51 43 52 59 53 44 54 47 55 58 56
REMARK SMILES IDX 74 57 45 58 46 59 57 61 75 62 48 63 35 64 36 65 41 66 37 67
REMARK SMILES IDX 38 68 40 69 42 70 39 71 61 72 62 73 67 74 63 75 64 76 66 77
REMARK SMILES IDX 68 78 65 79 49 80 50 81 55 82 51 83 52 84 54 85 56 86 53 87
REMARK H PARENT 18 6 8 17 23 30 73 49 47 60
REMARK Flexibility Score: inf
ROOT
ATOM      1  C   UNL A   1      36.424  19.774  25.001  1.00  0.00     0.023 C 
ENDROOT
BRANCH   1   2
ATOM      2  C   UNL A   1      35.282  20.782  25.011  1.00  0.00     0.116 C 
BRANCH   2   3
ATOM      3  N   UNL A   1      35.700  22.170  24.940  1.00  0.00    -0.352 N 
ATOM      4  C   UNL A   1      35.007  23.347  25.101  1.00  0.00     0.256 C 
ATOM      5  O   UNL A   1      35.660  24.387  25.001  1.00  0.00    -0.269 OA
ATOM      6  H   UNL A   1      36.656  22.291  24.740  1.00  0.00     0.163 HD
BRANCH   4   7
ATOM      7  C   UNL A   1      33.527  23.426  25.285  1.00  0.00     0.099 A 
ATOM      8  C   UNL A   1      32.692  23.817  24.214  1.00  0.00     0.057 A 
ATOM      9  C   UNL A   1      31.296  23.678  24.315  1.00  0.00     0.027 A 
ATOM     10  C   UNL A   1      30.711  23.314  25.523  1.00  0.00     0.005 A 
ATOM     11  C   UNL A   1      32.905  23.247  26.521  1.00  0.00     0.138 A 
ATOM     12  C   UNL A   1      31.516  23.161  26.643  1.00  0.00     0.040 A 
ATOM     13  F   UNL A   1      33.610  23.250  27.662  1.00  0.00    -0.206 F 
BRANCH   8  14
ATOM     14  N   UNL A   1      33.235  24.478  23.091  1.00  0.00    -0.321 N 
ATOM     15  C   UNL A   1      33.278  25.842  22.830  1.00  0.00     0.258 C 
ATOM     16  O   UNL A   1      33.686  26.234  21.738  1.00  0.00    -0.269 OA
ATOM     17  H   UNL A   1      33.635  23.897  22.404  1.00  0.00     0.170 HD
BRANCH  15  18
ATOM     18  C   UNL A   1      32.979  26.844  23.897  1.00  0.00     0.075 A 
ATOM     19  C   UNL A   1      32.021  29.653  27.045  1.00  0.00     0.044 C 
ATOM     20  C   UNL A   1      32.355  28.690  25.944  1.00  0.00    -0.048 A 
ATOM     21  C   UNL A   1      33.658  28.212  25.798  1.00  0.00     0.004 A 
ATOM     22  C   UNL A   1      31.389  28.306  25.007  1.00  0.00     0.043 A 
ATOM     23  C   UNL A   1      33.974  27.328  24.762  1.00  0.00     0.017 A 
ATOM     24  C   UNL A   1      31.697  27.382  24.004  1.00  0.00     0.136 A 
ATOM     25  F   UNL A   1      30.718  27.021  23.164  1.00  0.00    -0.206 F 
ENDBRANCH  15  18
ENDBRANCH   8  14
ENDBRANCH   4   7
ENDBRANCH   2   3
ENDBRANCH   1   2
BRANCH   1  26
ATOM     26  C   UNL A   1      37.806  20.298  24.632  1.00  0.00     0.023 C 
BRANCH  26  27
ATOM     27  C   UNL A   1      38.808  20.429  25.773  1.00  0.00     0.116 C 
BRANCH  27  28
ATOM     28  N   UNL A   1      39.849  19.413  25.767  1.00  0.00    -0.352 N 
ATOM     29  C   UNL A   1      41.179  19.499  26.116  1.00  0.00     0.251 C 
ATOM     30  H   UNL A   1      39.556  18.522  25.465  1.00  0.00     0.163 HD
ATOM     31  O   UNL A   1      41.915  18.538  25.972  1.00  0.00    -0.269 OA
BRANCH  29  32
ATOM     32  C   UNL A   1      41.728  20.778  26.622  1.00  0.00     0.039 A 
ATOM     33  C   UNL A   1      42.259  21.689  25.704  1.00  0.00     0.014 A 
ATOM     34  C   UNL A   1      41.695  21.093  27.981  1.00  0.00     0.014 A 
ATOM     35  C   UNL A   1      42.663  22.955  26.137  1.00  0.00     0.010 A 
ATOM     36  C   UNL A   1      42.025  22.380  28.400  1.00  0.00     0.010 A 
ATOM     37  C   UNL A   1      42.498  23.329  27.480  1.00  0.00    -0.014 A 
BRANCH  37  38
ATOM     38  C   UNL A   1      42.786  24.710  27.944  1.00  0.00     0.031 A 
ATOM     39  C   UNL A   1      44.184  25.098  28.337  1.00  0.00     0.074 A 
ATOM     40  C   UNL A   1      41.774  25.589  28.096  1.00  0.00     0.049 A 
ATOM     41  N   UNL A   1      44.608  26.206  28.890  1.00  0.00    -0.248 NA
ATOM     42  C   UNL A   1      45.240  24.099  28.108  1.00  0.00     0.031 C 
ATOM     43  C   UNL A   1      40.367  25.323  27.794  1.00  0.00     0.029 A 
ATOM     44  N   UNL A   1      41.773  26.882  28.561  1.00  0.00    -0.354 N 
ATOM     45  C   UNL A   1      45.970  26.028  29.094  1.00  0.00     0.074 A 
ATOM     46  C   UNL A   1      46.297  24.693  28.643  1.00  0.00     0.031 C 
ATOM     47  C   UNL A   1      39.642  26.421  28.065  1.00  0.00     0.029 A 
ATOM     48  C   UNL A   1      40.524  27.454  28.599  1.00  0.00     0.049 A 
ATOM     49  H   UNL A   1      42.591  27.353  28.842  1.00  0.00     0.167 HD
ATOM     50  C   UNL A   1      46.869  26.906  29.595  1.00  0.00     0.037 A 
ATOM     51  C   UNL A   1      40.129  28.669  29.028  1.00  0.00     0.037 A 
ATOM     52  C   UNL A   1      46.554  28.251  29.998  1.00  0.00     0.049 A 
ATOM     53  C   UNL A   1      41.153  29.631  29.563  1.00  0.00     0.074 A 
ATOM     54  C   UNL A   1      47.414  29.234  30.454  1.00  0.00     0.029 A 
ATOM     55  N   UNL A   1      45.283  28.801  29.985  1.00  0.00    -0.354 N 
ATOM     56  N   UNL A   1      42.445  29.464  29.704  1.00  0.00    -0.248 NA
ATOM     57  C   UNL A   1      40.667  30.949  29.999  1.00  0.00     0.031 C 
ATOM     58  C   UNL A   1      46.659  30.372  30.746  1.00  0.00     0.029 A 
ATOM     59  C   UNL A   1      45.335  30.109  30.435  1.00  0.00     0.049 A 
ATOM     60  H   UNL A   1      44.465  28.334  29.698  1.00  0.00     0.167 HD
ATOM     61  C   UNL A   1      42.928  30.659  30.220  1.00  0.00     0.074 A 
ATOM     62  C   UNL A   1      41.795  31.548  30.358  1.00  0.00     0.031 C 
ATOM     63  C   UNL A   1      44.200  30.988  30.550  1.00  0.00     0.037 A 
BRANCH  50  64
ATOM     64  C   UNL A   1      48.294  26.459  29.718  1.00  0.00     0.057 A 
ATOM     65  C   UNL A   1      48.747  25.824  30.881  1.00  0.00     0.134 A 
ATOM     66  C   UNL A   1      49.238  26.739  28.722  1.00  0.00     0.134 A 
ATOM     67  F   UNL A   1      47.893  25.534  31.875  1.00  0.00    -0.206 F 
ATOM     68  C   UNL A   1      50.091  25.495  31.055  1.00  0.00     0.040 A 
ATOM     69  C   UNL A   1      50.581  26.397  28.875  1.00  0.00     0.040 A 
ATOM     70  F   UNL A   1      48.864  27.337  27.580  1.00  0.00    -0.206 F 
ATOM     71  C   UNL A   1      51.014  25.783  30.050  1.00  0.00     0.006 A 
ENDBRANCH  50  64
BRANCH  51  72
ATOM     72  C   UNL A   1      38.698  29.054  28.951  1.00  0.00     0.057 A 
ATOM     73  C   UNL A   1      37.849  28.949  30.059  1.00  0.00     0.134 A 
ATOM     74  C   UNL A   1      38.146  29.539  27.760  1.00  0.00     0.134 A 
ATOM     75  F   UNL A   1      38.316  28.484  31.228  1.00  0.00    -0.206 F 
ATOM     76  C   UNL A   1      36.502  29.304  29.984  1.00  0.00     0.040 A 
ATOM     77  C   UNL A   1      36.805  29.920  27.676  1.00  0.00     0.040 A 
ATOM     78  F   UNL A   1      38.914  29.681  26.669  1.00  0.00    -0.206 F 
ATOM     79  C   UNL A   1      35.978  29.798  28.791  1.00  0.00     0.006 A 
ENDBRANCH  51  72
BRANCH  63  80
ATOM     80  C   UNL A   1      44.452  32.373  31.063  1.00  0.00     0.057 A 
ATOM     81  C   UNL A   1      44.775  33.411  30.180  1.00  0.00     0.134 A 
ATOM     82  C   UNL A   1      44.469  32.656  32.433  1.00  0.00     0.134 A 
ATOM     83  F   UNL A   1      44.786  33.200  28.855  1.00  0.00    -0.206 F 
ATOM     84  C   UNL A   1      45.123  34.680  30.643  1.00  0.00     0.040 A 
ATOM     85  C   UNL A   1      44.795  33.927  32.909  1.00  0.00     0.040 A 
ATOM     86  F   UNL A   1      44.160  31.704  33.328  1.00  0.00    -0.206 F 
ATOM     87  C   UNL A   1      45.134  34.940  32.013  1.00  0.00     0.006 A 
ENDBRANCH  63  80
ENDBRANCH  37  38
ENDBRANCH  29  32
ENDBRANCH  27  28
ENDBRANCH  26  27
ENDBRANCH   1  26
TORSDOF 13
ENDMDL
MODEL 3
REMARK VINA RESULT:     -12.3      4.833     10.055
REMARK SMILES Cc1ccc(C(=O)Nc2cccc(F)c2C(=O)NCCCCNC(=O)c2ccc(-c3c4nc(c(-c5c(F)cccc5F)c5ccc([nH]5)c(-c5c(F)cccc5F)c5nc(c(-c6c(F)cccc6F)c6ccc3[nH]6)C=C5)C=C4)cc2)c(F)c1
REMARK SMILES IDX 20 1 19 2 18 3 16 4 17 5 15 7 9 8 10 9 11 10 13 11 12 12
REMARK SMILES IDX 14 13 8 14 6 15 7 16 5 18 1 19 2 20 3 21 82 22 4 23 80 24
REMARK SMILES IDX 81 25 21 26 22 27 23 28 24 29 25 31 26 32 27 33 79 34 28 35
REMARK SMILES IDX 78 36 29 37 30 38 31 39 72 40 32 41 77 42 71 43 73 44 33 45
REMARK SMILES IDX 76 46 70 47 69 48 34 50 60 51 43 52 59 53 44 54 47 55 58 56
REMARK SMILES IDX 74 57 45 58 46 59 57 61 75 62 48 63 35 64 36 65 41 66 37 67
REMARK SMILES IDX 38 68 40 69 42 70 39 71 61 72 62 73 67 74 63 75 64 76 66 77
REMARK SMILES IDX 68 78 65 79 49 80 50 81 55 82 51 83 52 84 54 85 56 86 53 87
REMARK H PARENT 18 6 8 17 23 30 73 49 47 60
REMARK Flexibility Score: inf
ROOT
ATOM      1  C   UNL A   1      36.786  20.509  25.030  1.00  0.00     0.023 C 
ENDROOT
BRANCH   1   2
ATOM      2  C   UNL A   1      36.909  21.903  25.633  1.00  0.00     0.116 C 
BRANCH   2   3
ATOM      3  N   UNL A   1      35.822  22.276  26.519  1.00  0.00    -0.352 N 
ATOM      4  C   UNL A   1      34.541  22.711  26.269  1.00  0.00     0.256 C 
ATOM      5  O   UNL A   1      33.833  22.930  27.254  1.00  0.00    -0.269 OA
ATOM      6  H   UNL A   1      36.041  22.203  27.476  1.00  0.00     0.163 HD
BRANCH   4   7
ATOM      7  C   UNL A   1      34.016  23.020  24.906  1.00  0.00     0.099 A 
ATOM      8  C   UNL A   1      34.118  24.327  24.378  1.00  0.00     0.057 A 
ATOM      9  C   UNL A   1      33.831  24.570  23.023  1.00  0.00     0.027 A 
ATOM     10  C   UNL A   1      33.287  23.567  22.228  1.00  0.00     0.005 A 
ATOM     11  C   UNL A   1      33.301  22.098  24.140  1.00  0.00     0.138 A 
ATOM     12  C   UNL A   1      32.962  22.349  22.809  1.00  0.00     0.040 A 
ATOM     13  F   UNL A   1      32.818  20.971  24.682  1.00  0.00    -0.206 F 
BRANCH   8  14
ATOM     14  N   UNL A   1      34.371  25.423  25.231  1.00  0.00    -0.321 N 
ATOM     15  C   UNL A   1      33.568  26.529  25.478  1.00  0.00     0.258 C 
ATOM     16  O   UNL A   1      34.005  27.451  26.165  1.00  0.00    -0.269 OA
ATOM     17  H   UNL A   1      35.229  25.400  25.716  1.00  0.00     0.170 HD
BRANCH  15  18
ATOM     18  C   UNL A   1      32.137  26.557  25.049  1.00  0.00     0.075 A 
ATOM     19  C   UNL A   1      27.960  26.693  23.932  1.00  0.00     0.044 C 
ATOM     20  C   UNL A   1      29.410  26.633  24.311  1.00  0.00    -0.048 A 
ATOM     21  C   UNL A   1      30.358  27.360  23.588  1.00  0.00     0.004 A 
ATOM     22  C   UNL A   1      29.848  25.802  25.348  1.00  0.00     0.043 A 
ATOM     23  C   UNL A   1      31.711  27.292  23.930  1.00  0.00     0.017 A 
ATOM     24  C   UNL A   1      31.196  25.777  25.719  1.00  0.00     0.136 A 
ATOM     25  F   UNL A   1      31.547  24.994  26.749  1.00  0.00    -0.206 F 
ENDBRANCH  15  18
ENDBRANCH   8  14
ENDBRANCH   4   7
ENDBRANCH   2   3
ENDBRANCH   1   2
BRANCH   1  26
ATOM     26  C   UNL A   1      38.079  19.726  24.831  1.00  0.00     0.023 C 
BRANCH  26  27
ATOM     27  C   UNL A   1      39.228  20.065  25.772  1.00  0.00     0.116 C 
BRANCH  27  28
ATOM     28  N   UNL A   1      40.241  19.026  25.867  1.00  0.00    -0.352 N 
ATOM     29  C   UNL A   1      41.584  19.116  26.165  1.00  0.00     0.251 C 
ATOM     30  H   UNL A   1      39.916  18.113  25.691  1.00  0.00     0.163 HD
ATOM     31  O   UNL A   1      42.290  18.122  26.124  1.00  0.00    -0.269 OA
BRANCH  29  32
ATOM     32  C   UNL A   1      42.182  20.432  26.486  1.00  0.00     0.039 A 
ATOM     33  C   UNL A   1      42.665  21.222  25.439  1.00  0.00     0.014 A 
ATOM     34  C   UNL A   1      42.243  20.899  27.800  1.00  0.00     0.014 A 
ATOM     35  C   UNL A   1      43.113  22.520  25.698  1.00  0.00     0.010 A 
ATOM     36  C   UNL A   1      42.617  22.218  28.048  1.00  0.00     0.010 A 
ATOM     37  C   UNL A   1      43.041  23.047  26.997  1.00  0.00    -0.014 A 
BRANCH  37  38
ATOM     38  C   UNL A   1      43.377  24.465  27.282  1.00  0.00     0.031 A 
ATOM     39  C   UNL A   1      44.806  24.928  27.225  1.00  0.00     0.074 A 
ATOM     40  C   UNL A   1      42.408  25.316  27.678  1.00  0.00     0.049 A 
ATOM     41  N   UNL A   1      45.313  26.085  27.569  1.00  0.00    -0.248 NA
ATOM     42  C   UNL A   1      45.802  23.954  26.749  1.00  0.00     0.031 C 
ATOM     43  C   UNL A   1      40.990  24.980  27.818  1.00  0.00     0.029 A 
ATOM     44  N   UNL A   1      42.474  26.635  28.054  1.00  0.00    -0.354 N 
ATOM     45  C   UNL A   1      46.683  25.970  27.373  1.00  0.00     0.074 A 
ATOM     46  C   UNL A   1      46.935  24.620  26.917  1.00  0.00     0.031 C 
ATOM     47  C   UNL A   1      40.318  26.067  28.232  1.00  0.00     0.029 A 
ATOM     48  C   UNL A   1      41.261  27.164  28.426  1.00  0.00     0.049 A 
ATOM     49  H   UNL A   1      43.311  27.154  28.056  1.00  0.00     0.167 HD
ATOM     50  C   UNL A   1      47.641  26.910  27.539  1.00  0.00     0.037 A 
ATOM     51  C   UNL A   1      40.944  28.390  28.887  1.00  0.00     0.037 A 
ATOM     52  C   UNL A   1      47.385  28.266  27.945  1.00  0.00     0.049 A 
ATOM     53  C   UNL A   1      42.026  29.421  29.046  1.00  0.00     0.074 A 
ATOM     54  C   UNL A   1      48.287  29.308  28.075  1.00  0.00     0.029 A 
ATOM     55  N   UNL A   1      46.137  28.769  28.277  1.00  0.00    -0.354 N 
ATOM     56  N   UNL A   1      43.310  29.311  28.809  1.00  0.00    -0.248 NA
ATOM     57  C   UNL A   1      41.618  30.747  29.534  1.00  0.00     0.031 C 
ATOM     58  C   UNL A   1      47.590  30.436  28.515  1.00  0.00     0.029 A 
ATOM     59  C   UNL A   1      46.249  30.106  28.622  1.00  0.00     0.049 A 
ATOM     60  H   UNL A   1      45.299  28.255  28.269  1.00  0.00     0.167 HD
ATOM     61  C   UNL A   1      43.858  30.554  29.095  1.00  0.00     0.074 A 
ATOM     62  C   UNL A   1      42.768  31.409  29.514  1.00  0.00     0.031 C 
ATOM     63  C   UNL A   1      45.151  30.949  29.018  1.00  0.00     0.037 A 
BRANCH  50  64
ATOM     64  C   UNL A   1      49.061  26.523  27.261  1.00  0.00     0.057 A 
ATOM     65  C   UNL A   1      49.583  26.598  25.964  1.00  0.00     0.134 A 
ATOM     66  C   UNL A   1      49.883  25.988  28.261  1.00  0.00     0.134 A 
ATOM     67  F   UNL A   1      48.843  27.094  24.960  1.00  0.00    -0.206 F 
ATOM     68  C   UNL A   1      50.868  26.143  25.668  1.00  0.00     0.040 A 
ATOM     69  C   UNL A   1      51.177  25.549  27.982  1.00  0.00     0.040 A 
ATOM     70  F   UNL A   1      49.443  25.898  29.526  1.00  0.00    -0.206 F 
ATOM     71  C   UNL A   1      51.669  25.615  26.680  1.00  0.00     0.006 A 
ENDBRANCH  50  64
BRANCH  51  72
ATOM     72  C   UNL A   1      39.533  28.718  29.214  1.00  0.00     0.057 A 
ATOM     73  C   UNL A   1      39.009  28.503  30.494  1.00  0.00     0.134 A 
ATOM     74  C   UNL A   1      38.677  29.258  28.248  1.00  0.00     0.134 A 
ATOM     75  F   UNL A   1      39.777  27.981  31.462  1.00  0.00    -0.206 F 
ATOM     76  C   UNL A   1      37.680  28.804  30.799  1.00  0.00     0.040 A 
ATOM     77  C   UNL A   1      37.353  29.586  28.545  1.00  0.00     0.040 A 
ATOM     78  F   UNL A   1      39.129  29.505  27.009  1.00  0.00    -0.206 F 
ATOM     79  C   UNL A   1      36.851  29.354  29.824  1.00  0.00     0.006 A 
ENDBRANCH  51  72
BRANCH  63  80
ATOM     80  C   UNL A   1      45.467  32.373  29.361  1.00  0.00     0.057 A 
ATOM     81  C   UNL A   1      45.754  32.740  30.681  1.00  0.00     0.134 A 
ATOM     82  C   UNL A   1      45.395  33.391  28.404  1.00  0.00     0.134 A 
ATOM     83  F   UNL A   1      45.827  31.811  31.646  1.00  0.00    -0.206 F 
ATOM     84  C   UNL A   1      45.941  34.074  31.043  1.00  0.00     0.040 A 
ATOM     85  C   UNL A   1      45.600  34.728  28.749  1.00  0.00     0.040 A 
ATOM     86  F   UNL A   1      45.132  33.101  27.120  1.00  0.00    -0.206 F 
ATOM     87  C   UNL A   1      45.863  35.073  30.074  1.00  0.00     0.006 A 
ENDBRANCH  63  80
ENDBRANCH  37  38
ENDBRANCH  29  32
ENDBRANCH  27  28
ENDBRANCH  26  27
ENDBRANCH   1  26
TORSDOF 13
ENDMDL
