MODEL 1
REMARK VINA RESULT:     -11.9      0.000      0.000
REMARK SMILES O=C(NCCCCNC(=O)[C@H](CO)NC(=O)[C@H](Cc1ccc(O)cc1)NC(=O)c1ccc(F)cc1)c1ccc(-c2c3nc(c(-c4c(F)cccc4F)c4ccc([nH]4)c(-c4c(F)cccc4F)c4nc(c(-c5c(F)cccc5F)c5ccc2[nH]5)C=C4)C=C3)cc1
REMARK SMILES IDX 7 1 6 2 5 3 4 4 3 5 1 6 2 7 36 9 37 10 89 11 38 12 88 13
REMARK SMILES IDX 39 14 40 15 41 16 82 17 42 18 87 19 81 20 83 21 43 22 86 23
REMARK SMILES IDX 80 24 79 25 44 27 70 28 53 29 69 30 54 31 57 32 68 33 84 34
REMARK SMILES IDX 55 35 56 36 67 38 85 39 58 40 45 41 46 42 51 43 47 44 48 45
REMARK SMILES IDX 50 46 52 47 49 48 71 49 72 50 77 51 73 52 74 53 76 54 78 55
REMARK SMILES IDX 75 56 59 57 60 58 65 59 61 60 62 61 64 62 66 63 63 64 8 65
REMARK SMILES IDX 9 66 10 68 11 69 14 70 15 71 16 73 17 74 26 75 27 76 28 78
REMARK SMILES IDX 29 79 30 80 35 81 31 82 34 83 32 84 33 85 18 86 19 87 20 88
REMARK SMILES IDX 25 89 21 90 24 91 22 92 23 93 12 95 13 96
REMARK H PARENT 3 8 83 26 57 37 8 67 14 72 26 77 23 94 13 97
REMARK Flexibility Score: inf
ROOT
ATOM      1  C   UNL A   1      31.416  29.751  25.164  1.00  0.00     0.116 C 
ENDROOT
BRANCH   1   2
ATOM      2  C   UNL A   1      32.173  30.318  26.358  1.00  0.00     0.023 C 
BRANCH   2   3
ATOM      3  C   UNL A   1      31.727  31.687  26.844  1.00  0.00     0.023 C 
BRANCH   3   4
ATOM      4  C   UNL A   1      32.856  32.595  27.284  1.00  0.00     0.116 C 
BRANCH   4   5
ATOM      5  N   UNL A   1      32.441  33.952  27.613  1.00  0.00    -0.352 N 
ATOM      6  O   UNL A   1      32.558  35.906  28.763  1.00  0.00    -0.269 OA
ATOM      7  C   UNL A   1      33.021  34.806  28.528  1.00  0.00     0.251 C 
ATOM      8  H   UNL A   1      31.659  34.300  27.126  1.00  0.00     0.163 HD
BRANCH   7   9
ATOM      9  C   UNL A   1      34.204  34.310  29.258  1.00  0.00     0.039 A 
ATOM     10  C   UNL A   1      35.477  34.567  28.749  1.00  0.00     0.014 A 
ATOM     11  C   UNL A   1      34.022  33.470  30.357  1.00  0.00     0.014 A 
ATOM     12  C   UNL A   1      36.551  33.830  29.218  1.00  0.00     0.010 A 
ATOM     13  C   UNL A   1      35.129  32.826  30.910  1.00  0.00     0.010 A 
ATOM     14  C   UNL A   1      36.393  32.974  30.322  1.00  0.00    -0.014 A 
BRANCH  14  15
ATOM     15  C   UNL A   1      37.594  32.321  30.891  1.00  0.00     0.031 A 
ATOM     16  C   UNL A   1      38.264  31.166  30.206  1.00  0.00     0.074 A 
ATOM     17  C   UNL A   1      38.088  32.817  32.042  1.00  0.00     0.049 A 
ATOM     18  N   UNL A   1      39.303  30.473  30.601  1.00  0.00    -0.248 NA
ATOM     19  C   UNL A   1      37.699  30.720  28.924  1.00  0.00     0.031 C 
ATOM     20  C   UNL A   1      37.506  33.938  32.787  1.00  0.00     0.029 A 
ATOM     21  N   UNL A   1      39.192  32.472  32.772  1.00  0.00    -0.354 N 
ATOM     22  C   UNL A   1      39.490  29.487  29.642  1.00  0.00     0.074 A 
ATOM     23  C   UNL A   1      38.457  29.667  28.643  1.00  0.00     0.031 C 
ATOM     24  C   UNL A   1      38.294  34.230  33.828  1.00  0.00     0.029 A 
ATOM     25  C   UNL A   1      39.378  33.261  33.880  1.00  0.00     0.049 A 
ATOM     26  H   UNL A   1      39.794  31.733  32.527  1.00  0.00     0.167 HD
ATOM     27  C   UNL A   1      40.438  28.520  29.610  1.00  0.00     0.037 A 
ATOM     28  C   UNL A   1      40.299  33.194  34.857  1.00  0.00     0.037 A 
ATOM     29  C   UNL A   1      41.478  28.379  30.599  1.00  0.00     0.049 A 
ATOM     30  C   UNL A   1      41.327  32.110  34.803  1.00  0.00     0.074 A 
ATOM     31  C   UNL A   1      42.519  27.468  30.627  1.00  0.00     0.029 A 
ATOM     32  N   UNL A   1      41.605  29.169  31.733  1.00  0.00    -0.354 N 
ATOM     33  N   UNL A   1      41.496  31.188  33.887  1.00  0.00    -0.248 NA
ATOM     34  C   UNL A   1      42.275  32.040  35.919  1.00  0.00     0.031 C 
ATOM     35  C   UNL A   1      43.248  27.675  31.801  1.00  0.00     0.029 A 
ATOM     36  C   UNL A   1      42.691  28.747  32.483  1.00  0.00     0.049 A 
ATOM     37  H   UNL A   1      41.013  29.918  31.969  1.00  0.00     0.167 HD
ATOM     38  C   UNL A   1      42.567  30.421  34.315  1.00  0.00     0.074 A 
ATOM     39  C   UNL A   1      43.023  31.003  35.564  1.00  0.00     0.031 C 
ATOM     40  C   UNL A   1      43.118  29.331  33.730  1.00  0.00     0.037 A 
BRANCH  27  41
ATOM     41  C   UNL A   1      40.388  27.519  28.493  1.00  0.00     0.057 A 
ATOM     42  C   UNL A   1      39.649  26.336  28.635  1.00  0.00     0.134 A 
ATOM     43  C   UNL A   1      41.123  27.681  27.312  1.00  0.00     0.134 A 
ATOM     44  F   UNL A   1      38.930  26.114  29.745  1.00  0.00    -0.206 F 
ATOM     45  C   UNL A   1      39.650  25.349  27.648  1.00  0.00     0.040 A 
ATOM     46  C   UNL A   1      41.114  26.710  26.308  1.00  0.00     0.040 A 
ATOM     47  F   UNL A   1      41.845  28.793  27.107  1.00  0.00    -0.206 F 
ATOM     48  C   UNL A   1      40.383  25.535  26.480  1.00  0.00     0.006 A 
ENDBRANCH  27  41
BRANCH  28  49
ATOM     49  C   UNL A   1      40.243  34.183  35.958  1.00  0.00     0.057 A 
ATOM     50  C   UNL A   1      39.520  33.923  37.130  1.00  0.00     0.134 A 
ATOM     51  C   UNL A   1      40.813  35.451  35.816  1.00  0.00     0.134 A 
ATOM     52  F   UNL A   1      38.934  32.730  37.313  1.00  0.00    -0.206 F 
ATOM     53  C   UNL A   1      39.330  34.903  38.103  1.00  0.00     0.040 A 
ATOM     54  C   UNL A   1      40.652  36.435  36.794  1.00  0.00     0.040 A 
ATOM     55  F   UNL A   1      41.520  35.755  34.718  1.00  0.00    -0.206 F 
ATOM     56  C   UNL A   1      39.897  36.166  37.935  1.00  0.00     0.006 A 
ENDBRANCH  28  49
BRANCH  40  57
ATOM     57  C   UNL A   1      44.276  28.692  34.431  1.00  0.00     0.057 A 
ATOM     58  C   UNL A   1      45.587  29.104  34.166  1.00  0.00     0.134 A 
ATOM     59  C   UNL A   1      44.094  27.626  35.320  1.00  0.00     0.134 A 
ATOM     60  F   UNL A   1      45.826  30.116  33.320  1.00  0.00    -0.206 F 
ATOM     61  C   UNL A   1      46.681  28.464  34.748  1.00  0.00     0.040 A 
ATOM     62  C   UNL A   1      45.179  26.992  35.925  1.00  0.00     0.040 A 
ATOM     63  F   UNL A   1      42.859  27.198  35.624  1.00  0.00    -0.206 F 
ATOM     64  C   UNL A   1      46.477  27.405  35.631  1.00  0.00     0.006 A 
ENDBRANCH  40  57
ENDBRANCH  14  15
ENDBRANCH   7   9
ENDBRANCH   4   5
ENDBRANCH   3   4
ENDBRANCH   2   3
ENDBRANCH   1   2
BRANCH   1  65
ATOM     65  N   UNL A   1      32.322  29.347  24.114  1.00  0.00    -0.354 N 
ATOM     66  C   UNL A   1      32.123  28.517  23.058  1.00  0.00     0.244 C 
ATOM     67  H   UNL A   1      33.225  29.735  24.173  1.00  0.00     0.163 HD
ATOM     68  O   UNL A   1      33.139  28.136  22.466  1.00  0.00    -0.273 OA
BRANCH  66  69
ATOM     69  C   UNL A   1      30.733  27.916  22.733  1.00  0.00     0.197 C 
BRANCH  69  70
ATOM     70  N   UNL A   1      29.986  27.381  23.885  1.00  0.00    -0.340 N 
ATOM     71  C   UNL A   1      30.072  26.198  24.564  1.00  0.00     0.243 C 
ATOM     72  H   UNL A   1      29.295  27.991  24.230  1.00  0.00     0.164 HD
ATOM     73  O   UNL A   1      29.174  25.961  25.380  1.00  0.00    -0.273 OA
BRANCH  71  74
ATOM     74  C   UNL A   1      31.292  25.248  24.444  1.00  0.00     0.176 C 
BRANCH  74  75
ATOM     75  N   UNL A   1      32.418  26.058  24.952  1.00  0.00    -0.340 N 
ATOM     76  C   UNL A   1      33.698  25.843  25.378  1.00  0.00     0.251 C 
ATOM     77  H   UNL A   1      32.181  27.013  24.997  1.00  0.00     0.164 HD
ATOM     78  O   UNL A   1      34.245  26.800  25.932  1.00  0.00    -0.269 OA
BRANCH  76  79
ATOM     79  C   UNL A   1      34.501  24.597  25.187  1.00  0.00     0.040 A 
ATOM     80  C   UNL A   1      34.825  23.677  26.186  1.00  0.00     0.017 A 
ATOM     81  C   UNL A   1      34.828  24.256  23.856  1.00  0.00     0.017 A 
ATOM     82  C   UNL A   1      35.408  22.441  25.871  1.00  0.00     0.040 A 
ATOM     83  C   UNL A   1      35.420  23.029  23.539  1.00  0.00     0.040 A 
ATOM     84  C   UNL A   1      35.692  22.125  24.552  1.00  0.00     0.123 A 
ATOM     85  F   UNL A   1      36.210  20.926  24.257  1.00  0.00    -0.207 F 
ENDBRANCH  76  79
ENDBRANCH  74  75
BRANCH  74  86
ATOM     86  C   UNL A   1      31.114  23.982  25.319  1.00  0.00     0.070 C 
BRANCH  86  87
ATOM     87  C   UNL A   1      31.599  22.725  24.628  1.00  0.00    -0.045 A 
ATOM     88  C   UNL A   1      31.887  21.582  25.378  1.00  0.00     0.007 A 
ATOM     89  C   UNL A   1      31.763  22.662  23.240  1.00  0.00     0.007 A 
ATOM     90  C   UNL A   1      32.180  20.363  24.774  1.00  0.00     0.046 A 
ATOM     91  C   UNL A   1      32.107  21.453  22.626  1.00  0.00     0.046 A 
ATOM     92  C   UNL A   1      32.271  20.305  23.394  1.00  0.00     0.115 A 
BRANCH  92  93
ATOM     93  O   UNL A   1      32.527  19.129  22.755  1.00  0.00    -0.508 OA
ATOM     94  H   UNL A   1      32.436  19.072  21.824  1.00  0.00     0.293 HD
ENDBRANCH  92  93
ENDBRANCH  86  87
ENDBRANCH  74  86
ENDBRANCH  71  74
ENDBRANCH  69  70
BRANCH  69  95
ATOM     95  C   UNL A   1      29.912  29.057  22.082  1.00  0.00     0.191 C 
BRANCH  95  96
ATOM     96  O   UNL A   1      30.770  30.064  21.546  1.00  0.00    -0.394 OA
ATOM     97  H   UNL A   1      31.694  29.806  21.681  1.00  0.00     0.210 HD
ENDBRANCH  95  96
ENDBRANCH  69  95
ENDBRANCH  66  69
ENDBRANCH   1  65
TORSDOF 20
ENDMDL
MODEL 2
REMARK VINA RESULT:     -11.8      1.079      6.082
REMARK SMILES O=C(NCCCCNC(=O)[C@H](CO)NC(=O)[C@H](Cc1ccc(O)cc1)NC(=O)c1ccc(F)cc1)c1ccc(-c2c3nc(c(-c4c(F)cccc4F)c4ccc([nH]4)c(-c4c(F)cccc4F)c4nc(c(-c5c(F)cccc5F)c5ccc2[nH]5)C=C4)C=C3)cc1
REMARK SMILES IDX 7 1 6 2 5 3 4 4 3 5 1 6 2 7 36 9 37 10 89 11 38 12 88 13
REMARK SMILES IDX 39 14 40 15 41 16 82 17 42 18 87 19 81 20 83 21 43 22 86 23
REMARK SMILES IDX 80 24 79 25 44 27 70 28 53 29 69 30 54 31 57 32 68 33 84 34
REMARK SMILES IDX 55 35 56 36 67 38 85 39 58 40 45 41 46 42 51 43 47 44 48 45
REMARK SMILES IDX 50 46 52 47 49 48 71 49 72 50 77 51 73 52 74 53 76 54 78 55
REMARK SMILES IDX 75 56 59 57 60 58 65 59 61 60 62 61 64 62 66 63 63 64 8 65
REMARK SMILES IDX 9 66 10 68 11 69 14 70 15 71 16 73 17 74 26 75 27 76 28 78
REMARK SMILES IDX 29 79 30 80 35 81 31 82 34 83 32 84 33 85 18 86 19 87 20 88
REMARK SMILES IDX 25 89 21 90 24 91 22 92 23 93 12 95 13 96
REMARK H PARENT 3 8 83 26 57 37 8 67 14 72 26 77 23 94 13 97
REMARK Flexibility Score: inf
ROOT
ATOM      1  C   UNL A   1      32.139  29.938  25.514  1.00  0.00     0.116 C 
ENDROOT
BRANCH   1   2
ATOM      2  C   UNL A   1      31.816  30.542  26.874  1.00  0.00     0.023 C 
BRANCH   2   3
ATOM      3  C   UNL A   1      31.403  32.005  26.875  1.00  0.00     0.023 C 
BRANCH   3   4
ATOM      4  C   UNL A   1      32.559  32.982  26.851  1.00  0.00     0.116 C 
BRANCH   4   5
ATOM      5  N   UNL A   1      32.336  34.195  27.626  1.00  0.00    -0.352 N 
ATOM      6  O   UNL A   1      32.771  35.659  29.306  1.00  0.00    -0.269 OA
ATOM      7  C   UNL A   1      33.080  34.654  28.694  1.00  0.00     0.251 C 
ATOM      8  H   UNL A   1      31.569  34.751  27.357  1.00  0.00     0.163 HD
BRANCH   7   9
ATOM      9  C   UNL A   1      34.244  33.845  29.104  1.00  0.00     0.039 A 
ATOM     10  C   UNL A   1      34.055  32.766  29.968  1.00  0.00     0.014 A 
ATOM     11  C   UNL A   1      35.524  34.263  28.741  1.00  0.00     0.014 A 
ATOM     12  C   UNL A   1      35.149  32.228  30.622  1.00  0.00     0.010 A 
ATOM     13  C   UNL A   1      36.631  33.631  29.307  1.00  0.00     0.010 A 
ATOM     14  C   UNL A   1      36.450  32.635  30.278  1.00  0.00    -0.014 A 
BRANCH  14  15
ATOM     15  C   UNL A   1      37.600  31.929  30.888  1.00  0.00     0.031 A 
ATOM     16  C   UNL A   1      38.046  32.213  32.292  1.00  0.00     0.074 A 
ATOM     17  C   UNL A   1      38.224  30.995  30.144  1.00  0.00     0.049 A 
ATOM     18  N   UNL A   1      39.055  31.697  32.948  1.00  0.00    -0.248 NA
ATOM     19  C   UNL A   1      37.277  33.205  33.058  1.00  0.00     0.031 C 
ATOM     20  C   UNL A   1      37.867  30.648  28.765  1.00  0.00     0.029 A 
ATOM     21  N   UNL A   1      39.261  30.153  30.439  1.00  0.00    -0.354 N 
ATOM     22  C   UNL A   1      39.067  32.329  34.185  1.00  0.00     0.074 A 
ATOM     23  C   UNL A   1      37.966  33.268  34.191  1.00  0.00     0.031 C 
ATOM     24  C   UNL A   1      38.625  29.623  28.359  1.00  0.00     0.029 A 
ATOM     25  C   UNL A   1      39.583  29.306  29.408  1.00  0.00     0.049 A 
ATOM     26  H   UNL A   1      39.730  30.155  31.305  1.00  0.00     0.167 HD
ATOM     27  C   UNL A   1      39.929  32.137  35.213  1.00  0.00     0.037 A 
ATOM     28  C   UNL A   1      40.565  28.395  29.298  1.00  0.00     0.037 A 
ATOM     29  C   UNL A   1      40.999  31.172  35.198  1.00  0.00     0.049 A 
ATOM     30  C   UNL A   1      41.508  28.213  30.444  1.00  0.00     0.074 A 
ATOM     31  C   UNL A   1      41.891  30.861  36.210  1.00  0.00     0.029 A 
ATOM     32  N   UNL A   1      41.322  30.364  34.117  1.00  0.00    -0.354 N 
ATOM     33  N   UNL A   1      41.505  28.812  31.609  1.00  0.00    -0.248 NA
ATOM     34  C   UNL A   1      42.598  27.250  30.258  1.00  0.00     0.031 C 
ATOM     35  C   UNL A   1      42.783  29.901  35.725  1.00  0.00     0.029 A 
ATOM     36  C   UNL A   1      42.419  29.577  34.427  1.00  0.00     0.049 A 
ATOM     37  H   UNL A   1      40.843  30.352  33.257  1.00  0.00     0.167 HD
ATOM     38  C   UNL A   1      42.594  28.305  32.299  1.00  0.00     0.074 A 
ATOM     39  C   UNL A   1      43.222  27.330  31.427  1.00  0.00     0.031 C 
ATOM     40  C   UNL A   1      43.037  28.623  33.538  1.00  0.00     0.037 A 
BRANCH  27  41
ATOM     41  C   UNL A   1      39.775  33.000  36.432  1.00  0.00     0.057 A 
ATOM     42  C   UNL A   1      40.570  34.144  36.593  1.00  0.00     0.134 A 
ATOM     43  C   UNL A   1      38.904  32.669  37.476  1.00  0.00     0.134 A 
ATOM     44  F   UNL A   1      41.432  34.513  35.635  1.00  0.00    -0.206 F 
ATOM     45  C   UNL A   1      40.511  34.919  37.752  1.00  0.00     0.040 A 
ATOM     46  C   UNL A   1      38.819  33.450  38.631  1.00  0.00     0.040 A 
ATOM     47  F   UNL A   1      38.108  31.593  37.383  1.00  0.00    -0.206 F 
ATOM     48  C   UNL A   1      39.632  34.574  38.775  1.00  0.00     0.006 A 
ENDBRANCH  27  41
BRANCH  28  49
ATOM     49  C   UNL A   1      40.686  27.626  28.038  1.00  0.00     0.057 A 
ATOM     50  C   UNL A   1      40.112  26.355  27.906  1.00  0.00     0.134 A 
ATOM     51  C   UNL A   1      41.474  28.094  26.982  1.00  0.00     0.134 A 
ATOM     52  F   UNL A   1      39.362  25.846  28.895  1.00  0.00    -0.206 F 
ATOM     53  C   UNL A   1      40.350  25.558  26.787  1.00  0.00     0.040 A 
ATOM     54  C   UNL A   1      41.700  27.317  25.844  1.00  0.00     0.040 A 
ATOM     55  F   UNL A   1      42.044  29.305  27.050  1.00  0.00    -0.206 F 
ATOM     56  C   UNL A   1      41.149  26.039  25.752  1.00  0.00     0.006 A 
ENDBRANCH  28  49
BRANCH  40  57
ATOM     57  C   UNL A   1      44.260  27.913  34.029  1.00  0.00     0.057 A 
ATOM     58  C   UNL A   1      44.154  26.687  34.697  1.00  0.00     0.134 A 
ATOM     59  C   UNL A   1      45.534  28.477  33.897  1.00  0.00     0.134 A 
ATOM     60  F   UNL A   1      42.960  26.100  34.859  1.00  0.00    -0.206 F 
ATOM     61  C   UNL A   1      45.275  26.053  35.233  1.00  0.00     0.040 A 
ATOM     62  C   UNL A   1      46.665  27.842  34.410  1.00  0.00     0.040 A 
ATOM     63  F   UNL A   1      45.698  29.643  33.254  1.00  0.00    -0.206 F 
ATOM     64  C   UNL A   1      46.535  26.631  35.089  1.00  0.00     0.006 A 
ENDBRANCH  40  57
ENDBRANCH  14  15
ENDBRANCH   7   9
ENDBRANCH   4   5
ENDBRANCH   3   4
ENDBRANCH   2   3
ENDBRANCH   1   2
BRANCH   1  65
ATOM     65  N   UNL A   1      31.027  30.077  24.603  1.00  0.00    -0.354 N 
ATOM     66  C   UNL A   1      30.359  29.137  23.886  1.00  0.00     0.244 C 
ATOM     67  H   UNL A   1      30.701  30.999  24.483  1.00  0.00     0.163 HD
ATOM     68  O   UNL A   1      29.624  29.558  22.985  1.00  0.00    -0.273 OA
BRANCH  66  69
ATOM     69  C   UNL A   1      30.648  27.623  24.042  1.00  0.00     0.197 C 
BRANCH  69  70
ATOM     70  N   UNL A   1      29.912  26.944  25.123  1.00  0.00    -0.340 N 
ATOM     71  C   UNL A   1      30.107  25.746  25.752  1.00  0.00     0.243 C 
ATOM     72  H   UNL A   1      29.134  27.448  25.453  1.00  0.00     0.164 HD
ATOM     73  O   UNL A   1      29.202  25.361  26.502  1.00  0.00    -0.273 OA
BRANCH  71  74
ATOM     74  C   UNL A   1      31.439  24.957  25.661  1.00  0.00     0.176 C 
BRANCH  74  75
ATOM     75  N   UNL A   1      32.474  26.002  25.802  1.00  0.00    -0.340 N 
ATOM     76  C   UNL A   1      33.835  26.084  25.717  1.00  0.00     0.251 C 
ATOM     77  H   UNL A   1      32.074  26.876  26.014  1.00  0.00     0.164 HD
ATOM     78  O   UNL A   1      34.332  27.139  26.121  1.00  0.00    -0.269 OA
BRANCH  76  79
ATOM     79  C   UNL A   1      34.754  25.058  25.138  1.00  0.00     0.040 A 
ATOM     80  C   UNL A   1      35.823  24.455  25.805  1.00  0.00     0.017 A 
ATOM     81  C   UNL A   1      34.414  24.555  23.864  1.00  0.00     0.017 A 
ATOM     82  C   UNL A   1      36.499  23.360  25.248  1.00  0.00     0.040 A 
ATOM     83  C   UNL A   1      35.095  23.470  23.299  1.00  0.00     0.040 A 
ATOM     84  C   UNL A   1      36.124  22.872  24.006  1.00  0.00     0.123 A 
ATOM     85  F   UNL A   1      36.749  21.801  23.501  1.00  0.00    -0.207 F 
ENDBRANCH  76  79
ENDBRANCH  74  75
BRANCH  74  86
ATOM     86  C   UNL A   1      31.567  23.927  26.811  1.00  0.00     0.070 C 
BRANCH  86  87
ATOM     87  C   UNL A   1      32.326  22.684  26.396  1.00  0.00    -0.045 A 
ATOM     88  C   UNL A   1      32.009  22.039  25.198  1.00  0.00     0.007 A 
ATOM     89  C   UNL A   1      33.357  22.154  27.178  1.00  0.00     0.007 A 
ATOM     90  C   UNL A   1      32.782  20.995  24.701  1.00  0.00     0.046 A 
ATOM     91  C   UNL A   1      34.109  21.070  26.711  1.00  0.00     0.046 A 
ATOM     92  C   UNL A   1      33.842  20.527  25.459  1.00  0.00     0.115 A 
BRANCH  92  93
ATOM     93  O   UNL A   1      34.645  19.526  25.002  1.00  0.00    -0.508 OA
ATOM     94  H   UNL A   1      35.463  19.731  24.591  1.00  0.00     0.293 HD
ENDBRANCH  92  93
ENDBRANCH  86  87
ENDBRANCH  74  86
ENDBRANCH  71  74
ENDBRANCH  69  70
BRANCH  69  95
ATOM     95  C   UNL A   1      30.275  26.972  22.686  1.00  0.00     0.191 C 
BRANCH  95  96
ATOM     96  O   UNL A   1      31.078  27.494  21.628  1.00  0.00    -0.394 OA
ATOM     97  H   UNL A   1      30.595  28.202  21.176  1.00  0.00     0.210 HD
ENDBRANCH  95  96
ENDBRANCH  69  95
ENDBRANCH  66  69
ENDBRANCH   1  65
TORSDOF 20
ENDMDL
MODEL 3
REMARK VINA RESULT:     -11.7      4.598      8.150
REMARK SMILES O=C(NCCCCNC(=O)[C@H](CO)NC(=O)[C@H](Cc1ccc(O)cc1)NC(=O)c1ccc(F)cc1)c1ccc(-c2c3nc(c(-c4c(F)cccc4F)c4ccc([nH]4)c(-c4c(F)cccc4F)c4nc(c(-c5c(F)cccc5F)c5ccc2[nH]5)C=C4)C=C3)cc1
REMARK SMILES IDX 7 1 6 2 5 3 4 4 3 5 1 6 2 7 36 9 37 10 89 11 38 12 88 13
REMARK SMILES IDX 39 14 40 15 41 16 82 17 42 18 87 19 81 20 83 21 43 22 86 23
REMARK SMILES IDX 80 24 79 25 44 27 70 28 53 29 69 30 54 31 57 32 68 33 84 34
REMARK SMILES IDX 55 35 56 36 67 38 85 39 58 40 45 41 46 42 51 43 47 44 48 45
REMARK SMILES IDX 50 46 52 47 49 48 71 49 72 50 77 51 73 52 74 53 76 54 78 55
REMARK SMILES IDX 75 56 59 57 60 58 65 59 61 60 62 61 64 62 66 63 63 64 8 65
REMARK SMILES IDX 9 66 10 68 11 69 14 70 15 71 16 73 17 74 26 75 27 76 28 78
REMARK SMILES IDX 29 79 30 80 35 81 31 82 34 83 32 84 33 85 18 86 19 87 20 88
REMARK SMILES IDX 25 89 21 90 24 91 22 92 23 93 12 95 13 96
REMARK H PARENT 3 8 83 26 57 37 8 67 14 72 26 77 23 94 13 97
REMARK Flexibility Score: inf
ROOT
ATOM      1  C   UNL A   1      33.169  28.710  24.274  1.00  0.00     0.116 C 
ENDROOT
BRANCH   1   2
ATOM      2  C   UNL A   1      33.642  27.837  25.429  1.00  0.00     0.023 C 
BRANCH   2   3
ATOM      3  C   UNL A   1      33.611  28.477  26.807  1.00  0.00     0.023 C 
BRANCH   3   4
ATOM      4  C   UNL A   1      34.923  29.099  27.237  1.00  0.00     0.116 C 
BRANCH   4   5
ATOM      5  N   UNL A   1      34.830  29.932  28.429  1.00  0.00    -0.352 N 
ATOM      6  O   UNL A   1      35.638  30.905  30.315  1.00  0.00    -0.269 OA
ATOM      7  C   UNL A   1      35.841  30.238  29.317  1.00  0.00     0.251 C 
ATOM      8  H   UNL A   1      33.945  30.320  28.622  1.00  0.00     0.163 HD
BRANCH   7   9
ATOM      9  C   UNL A   1      37.177  29.679  29.038  1.00  0.00     0.039 A 
ATOM     10  C   UNL A   1      37.921  29.133  30.084  1.00  0.00     0.014 A 
ATOM     11  C   UNL A   1      37.730  29.843  27.767  1.00  0.00     0.014 A 
ATOM     12  C   UNL A   1      39.278  28.929  29.909  1.00  0.00     0.010 A 
ATOM     13  C   UNL A   1      39.071  29.515  27.563  1.00  0.00     0.010 A 
ATOM     14  C   UNL A   1      39.862  29.090  28.640  1.00  0.00    -0.014 A 
BRANCH  14  15
ATOM     15  C   UNL A   1      41.282  28.716  28.459  1.00  0.00     0.031 A 
ATOM     16  C   UNL A   1      42.391  29.707  28.656  1.00  0.00     0.074 A 
ATOM     17  C   UNL A   1      41.554  27.437  28.133  1.00  0.00     0.049 A 
ATOM     18  N   UNL A   1      43.680  29.533  28.502  1.00  0.00    -0.248 NA
ATOM     19  C   UNL A   1      42.017  31.068  29.068  1.00  0.00     0.031 C 
ATOM     20  C   UNL A   1      40.544  26.397  27.916  1.00  0.00     0.029 A 
ATOM     21  N   UNL A   1      42.743  26.786  27.953  1.00  0.00    -0.354 N 
ATOM     22  C   UNL A   1      44.265  30.766  28.755  1.00  0.00     0.074 A 
ATOM     23  C   UNL A   1      43.192  31.685  29.074  1.00  0.00     0.031 C 
ATOM     24  C   UNL A   1      41.156  25.228  27.699  1.00  0.00     0.029 A 
ATOM     25  C   UNL A   1      42.594  25.452  27.665  1.00  0.00     0.049 A 
ATOM     26  H   UNL A   1      43.619  27.230  28.023  1.00  0.00     0.167 HD
ATOM     27  C   UNL A   1      45.579  31.092  28.718  1.00  0.00     0.037 A 
ATOM     28  C   UNL A   1      43.508  24.513  27.369  1.00  0.00     0.037 A 
ATOM     29  C   UNL A   1      46.634  30.153  28.430  1.00  0.00     0.049 A 
ATOM     30  C   UNL A   1      44.950  24.903  27.323  1.00  0.00     0.074 A 
ATOM     31  C   UNL A   1      48.000  30.371  28.424  1.00  0.00     0.029 A 
ATOM     32  N   UNL A   1      46.439  28.820  28.098  1.00  0.00    -0.354 N 
ATOM     33  N   UNL A   1      45.490  26.072  27.571  1.00  0.00    -0.248 NA
ATOM     34  C   UNL A   1      45.907  23.861  26.939  1.00  0.00     0.031 C 
ATOM     35  C   UNL A   1      48.630  29.183  28.040  1.00  0.00     0.029 A 
ATOM     36  C   UNL A   1      47.659  28.210  27.854  1.00  0.00     0.049 A 
ATOM     37  H   UNL A   1      45.564  28.373  28.043  1.00  0.00     0.167 HD
ATOM     38  C   UNL A   1      46.851  25.911  27.370  1.00  0.00     0.074 A 
ATOM     39  C   UNL A   1      47.056  24.522  27.001  1.00  0.00     0.031 C 
ATOM     40  C   UNL A   1      47.839  26.831  27.474  1.00  0.00     0.037 A 
BRANCH  27  41
ATOM     41  C   UNL A   1      45.958  32.523  28.965  1.00  0.00     0.057 A 
ATOM     42  C   UNL A   1      46.176  32.982  30.272  1.00  0.00     0.134 A 
ATOM     43  C   UNL A   1      46.036  33.464  27.931  1.00  0.00     0.134 A 
ATOM     44  F   UNL A   1      46.108  32.135  31.310  1.00  0.00    -0.206 F 
ATOM     45  C   UNL A   1      46.448  34.324  30.541  1.00  0.00     0.040 A 
ATOM     46  C   UNL A   1      46.329  34.806  28.186  1.00  0.00     0.040 A 
ATOM     47  F   UNL A   1      45.847  33.091  26.656  1.00  0.00    -0.206 F 
ATOM     48  C   UNL A   1      46.526  35.241  29.496  1.00  0.00     0.006 A 
ENDBRANCH  27  41
BRANCH  28  49
ATOM     49  C   UNL A   1      43.047  23.136  27.077  1.00  0.00     0.057 A 
ATOM     50  C   UNL A   1      42.830  22.708  25.761  1.00  0.00     0.134 A 
ATOM     51  C   UNL A   1      42.704  22.258  28.109  1.00  0.00     0.134 A 
ATOM     52  F   UNL A   1      43.121  23.515  24.730  1.00  0.00    -0.206 F 
ATOM     53  C   UNL A   1      42.249  21.471  25.482  1.00  0.00     0.040 A 
ATOM     54  C   UNL A   1      42.146  21.006  27.844  1.00  0.00     0.040 A 
ATOM     55  F   UNL A   1      42.896  22.612  29.388  1.00  0.00    -0.206 F 
ATOM     56  C   UNL A   1      41.903  20.616  26.527  1.00  0.00     0.006 A 
ENDBRANCH  28  49
BRANCH  40  57
ATOM     57  C   UNL A   1      49.234  26.370  27.186  1.00  0.00     0.057 A 
ATOM     58  C   UNL A   1      49.759  26.450  25.891  1.00  0.00     0.134 A 
ATOM     59  C   UNL A   1      50.030  25.788  28.179  1.00  0.00     0.134 A 
ATOM     60  F   UNL A   1      49.042  26.992  24.896  1.00  0.00    -0.206 F 
ATOM     61  C   UNL A   1      51.026  25.948  25.589  1.00  0.00     0.040 A 
ATOM     62  C   UNL A   1      51.307  25.302  27.895  1.00  0.00     0.040 A 
ATOM     63  F   UNL A   1      49.585  25.698  29.442  1.00  0.00    -0.206 F 
ATOM     64  C   UNL A   1      51.803  25.374  26.593  1.00  0.00     0.006 A 
ENDBRANCH  40  57
ENDBRANCH  14  15
ENDBRANCH   7   9
ENDBRANCH   4   5
ENDBRANCH   3   4
ENDBRANCH   2   3
ENDBRANCH   1   2
BRANCH   1  65
ATOM     65  N   UNL A   1      32.124  29.613  24.695  1.00  0.00    -0.354 N 
ATOM     66  C   UNL A   1      30.844  29.737  24.258  1.00  0.00     0.244 C 
ATOM     67  H   UNL A   1      32.379  30.238  25.413  1.00  0.00     0.163 HD
ATOM     68  O   UNL A   1      30.248  30.764  24.602  1.00  0.00    -0.273 OA
BRANCH  66  69
ATOM     69  C   UNL A   1      30.229  28.761  23.225  1.00  0.00     0.197 C 
BRANCH  69  70
ATOM     70  N   UNL A   1      29.083  27.967  23.705  1.00  0.00    -0.340 N 
ATOM     71  C   UNL A   1      28.956  26.648  24.038  1.00  0.00     0.243 C 
ATOM     72  H   UNL A   1      28.252  28.487  23.803  1.00  0.00     0.164 HD
ATOM     73  O   UNL A   1      27.808  26.233  24.232  1.00  0.00    -0.273 OA
BRANCH  71  74
ATOM     74  C   UNL A   1      30.177  25.729  24.306  1.00  0.00     0.176 C 
BRANCH  74  75
ATOM     75  N   UNL A   1      29.851  25.082  25.593  1.00  0.00    -0.340 N 
ATOM     76  C   UNL A   1      30.390  24.118  26.397  1.00  0.00     0.251 C 
ATOM     77  H   UNL A   1      29.019  25.444  25.976  1.00  0.00     0.164 HD
ATOM     78  O   UNL A   1      29.666  23.719  27.313  1.00  0.00    -0.269 OA
BRANCH  76  79
ATOM     79  C   UNL A   1      31.771  23.553  26.305  1.00  0.00     0.040 A 
ATOM     80  C   UNL A   1      32.956  24.270  26.481  1.00  0.00     0.017 A 
ATOM     81  C   UNL A   1      31.871  22.150  26.179  1.00  0.00     0.017 A 
ATOM     82  C   UNL A   1      34.192  23.615  26.576  1.00  0.00     0.040 A 
ATOM     83  C   UNL A   1      33.104  21.493  26.262  1.00  0.00     0.040 A 
ATOM     84  C   UNL A   1      34.254  22.234  26.475  1.00  0.00     0.123 A 
ATOM     85  F   UNL A   1      35.434  21.614  26.609  1.00  0.00    -0.207 F 
ENDBRANCH  76  79
ENDBRANCH  74  75
BRANCH  74  86
ATOM     86  C   UNL A   1      30.333  24.657  23.199  1.00  0.00     0.070 C 
BRANCH  86  87
ATOM     87  C   UNL A   1      31.773  24.233  23.000  1.00  0.00    -0.045 A 
ATOM     88  C   UNL A   1      32.792  25.188  23.013  1.00  0.00     0.007 A 
ATOM     89  C   UNL A   1      32.128  22.893  22.810  1.00  0.00     0.007 A 
ATOM     90  C   UNL A   1      34.135  24.828  22.995  1.00  0.00     0.046 A 
ATOM     91  C   UNL A   1      33.475  22.525  22.740  1.00  0.00     0.046 A 
ATOM     92  C   UNL A   1      34.468  23.490  22.875  1.00  0.00     0.115 A 
BRANCH  92  93
ATOM     93  O   UNL A   1      35.769  23.086  22.882  1.00  0.00    -0.508 OA
ATOM     94  H   UNL A   1      36.455  23.713  22.761  1.00  0.00     0.293 HD
ENDBRANCH  92  93
ENDBRANCH  86  87
ENDBRANCH  74  86
ENDBRANCH  71  74
ENDBRANCH  69  70
BRANCH  69  95
ATOM     95  C   UNL A   1      29.776  29.631  22.026  1.00  0.00     0.191 C 
BRANCH  95  96
ATOM     96  O   UNL A   1      30.896  30.056  21.250  1.00  0.00    -0.394 OA
ATOM     97  H   UNL A   1      31.700  29.629  21.583  1.00  0.00     0.210 HD
ENDBRANCH  95  96
ENDBRANCH  69  95
ENDBRANCH  66  69
ENDBRANCH   1  65
TORSDOF 20
ENDMDL
