MODEL 1
REMARK VINA RESULT:     -11.1      0.000      0.000
REMARK SMILES CC(C)(C)OC(=O)N1[C@@H](C(=O)NCCCCNC(=O)c2ccc(-c3c4nc(c(-c5c(F)cccc5F)c5ccc([nH]5)c(-c5c(F)cccc5F)c5nc(c(-c6c(F)cccc6F)c6ccc3[nH]6)C=C5)C=C4)cc2)C[C@H]2CCCC[C@@H]21
REMARK SMILES IDX 14 1 13 2 12 3 10 4 11 5 9 7 8 8 80 9 74 10 75 11 79 12
REMARK SMILES IDX 76 13 78 14 77 15 6 16 7 17 5 18 2 19 1 20 3 21 4 22 15 23
REMARK SMILES IDX 16 24 17 25 18 26 19 28 20 29 21 30 73 31 22 32 72 33 23 34
REMARK SMILES IDX 24 35 25 36 66 37 26 38 71 39 65 40 67 41 27 42 70 43 64 44
REMARK SMILES IDX 63 45 28 47 54 48 37 49 53 50 38 51 41 52 52 53 68 54 39 55
REMARK SMILES IDX 40 56 51 58 69 59 42 60 29 61 30 62 35 63 31 64 32 65 34 66
REMARK SMILES IDX 36 67 33 68 55 69 56 70 61 71 57 72 58 73 60 74 62 75 59 76
REMARK SMILES IDX 43 77 44 78 49 79 45 80 46 81 48 82 50 83 47 84
REMARK H PARENT 12 6 17 27 67 46 41 57
REMARK Flexibility Score: inf
ROOT
ATOM      1  C   UNL A   1      33.195  27.342  25.056  1.00  0.00     0.023 C 
ENDROOT
BRANCH   1   2
ATOM      2  C   UNL A   1      33.510  25.860  25.216  1.00  0.00     0.116 C 
BRANCH   2   3
ATOM      3  N   UNL A   1      33.957  25.272  23.969  1.00  0.00    -0.354 N 
ATOM      4  C   UNL A   1      33.823  23.982  23.530  1.00  0.00     0.242 C 
ATOM      5  O   UNL A   1      34.328  23.696  22.444  1.00  0.00    -0.273 OA
ATOM      6  H   UNL A   1      34.421  25.885  23.354  1.00  0.00     0.163 HD
BRANCH   4   7
ATOM      7  C   UNL A   1      32.997  22.986  24.379  1.00  0.00     0.178 C 
ATOM      8  N   UNL A   1      33.869  22.005  25.043  1.00  0.00    -0.293 N 
ATOM      9  C   UNL A   1      33.832  20.737  24.350  1.00  0.00     0.092 C 
ATOM     10  C   UNL A   1      32.141  22.141  23.404  1.00  0.00     0.041 C 
ATOM     11  C   UNL A   1      32.382  20.716  23.863  1.00  0.00     0.014 C 
ATOM     12  C   UNL A   1      34.073  19.453  25.141  1.00  0.00     0.025 C 
ATOM     13  C   UNL A   1      32.178  19.610  22.846  1.00  0.00     0.006 C 
ATOM     14  C   UNL A   1      33.801  18.227  24.259  1.00  0.00     0.002 C 
ATOM     15  C   UNL A   1      32.449  18.268  23.533  1.00  0.00     0.000 C 
BRANCH   8  16
ATOM     16  C   UNL A   1      34.710  22.279  26.087  1.00  0.00     0.411 C 
ATOM     17  O   UNL A   1      34.413  23.020  27.018  1.00  0.00    -0.224 OA
BRANCH  16  18
ATOM     18  O   UNL A   1      35.942  21.736  25.900  1.00  0.00    -0.444 OA
BRANCH  18  19
ATOM     19  C   UNL A   1      36.996  22.514  25.263  1.00  0.00     0.106 C 
ATOM     20  C   UNL A   1      38.312  21.912  25.785  1.00  0.00     0.056 C 
ATOM     21  C   UNL A   1      36.892  23.971  25.715  1.00  0.00     0.056 C 
ATOM     22  C   UNL A   1      37.022  22.399  23.729  1.00  0.00     0.056 C 
ENDBRANCH  18  19
ENDBRANCH  16  18
ENDBRANCH   8  16
ENDBRANCH   4   7
ENDBRANCH   2   3
ENDBRANCH   1   2
BRANCH   1  23
ATOM     23  C   UNL A   1      34.074  28.278  25.888  1.00  0.00     0.023 C 
BRANCH  23  24
ATOM     24  C   UNL A   1      33.601  28.514  27.318  1.00  0.00     0.116 C 
BRANCH  24  25
ATOM     25  N   UNL A   1      33.580  29.922  27.680  1.00  0.00    -0.352 N 
ATOM     26  C   UNL A   1      34.556  30.693  28.262  1.00  0.00     0.251 C 
ATOM     27  H   UNL A   1      32.741  30.394  27.476  1.00  0.00     0.163 HD
ATOM     28  O   UNL A   1      34.291  31.832  28.635  1.00  0.00    -0.269 OA
BRANCH  26  29
ATOM     29  C   UNL A   1      35.917  30.150  28.468  1.00  0.00     0.039 A 
ATOM     30  C   UNL A   1      36.824  30.191  27.407  1.00  0.00     0.014 A 
ATOM     31  C   UNL A   1      36.300  29.593  29.692  1.00  0.00     0.014 A 
ATOM     32  C   UNL A   1      38.131  29.733  27.591  1.00  0.00     0.010 A 
ATOM     33  C   UNL A   1      37.624  29.214  29.900  1.00  0.00     0.010 A 
ATOM     34  C   UNL A   1      38.553  29.275  28.850  1.00  0.00    -0.014 A 
BRANCH  34  35
ATOM     35  C   UNL A   1      39.963  28.865  29.079  1.00  0.00     0.031 A 
ATOM     36  C   UNL A   1      40.933  29.801  29.747  1.00  0.00     0.074 A 
ATOM     37  C   UNL A   1      40.384  27.661  28.644  1.00  0.00     0.049 A 
ATOM     38  N   UNL A   1      42.204  29.625  30.012  1.00  0.00    -0.248 NA
ATOM     39  C   UNL A   1      40.415  31.119  30.149  1.00  0.00     0.031 C 
ATOM     40  C   UNL A   1      39.557  26.682  27.935  1.00  0.00     0.029 A 
ATOM     41  N   UNL A   1      41.613  27.056  28.731  1.00  0.00    -0.354 N 
ATOM     42  C   UNL A   1      42.636  30.806  30.601  1.00  0.00     0.074 A 
ATOM     43  C   UNL A   1      41.509  31.713  30.601  1.00  0.00     0.031 C 
ATOM     44  C   UNL A   1      40.293  25.588  27.680  1.00  0.00     0.029 A 
ATOM     45  C   UNL A   1      41.650  25.801  28.170  1.00  0.00     0.049 A 
ATOM     46  H   UNL A   1      42.394  27.481  29.154  1.00  0.00     0.167 HD
ATOM     47  C   UNL A   1      43.852  31.100  31.120  1.00  0.00     0.037 A 
ATOM     48  C   UNL A   1      42.665  24.923  28.063  1.00  0.00     0.037 A 
ATOM     49  C   UNL A   1      44.969  30.191  31.132  1.00  0.00     0.049 A 
ATOM     50  C   UNL A   1      44.009  25.278  28.635  1.00  0.00     0.074 A 
ATOM     51  C   UNL A   1      46.226  30.375  31.682  1.00  0.00     0.029 A 
ATOM     52  N   UNL A   1      44.966  28.927  30.561  1.00  0.00    -0.354 N 
ATOM     53  N   UNL A   1      44.381  26.369  29.259  1.00  0.00    -0.248 NA
ATOM     54  C   UNL A   1      45.072  24.273  28.498  1.00  0.00     0.031 C 
ATOM     55  C   UNL A   1      47.000  29.246  31.397  1.00  0.00     0.029 A 
ATOM     56  C   UNL A   1      46.207  28.331  30.724  1.00  0.00     0.049 A 
ATOM     57  H   UNL A   1      44.196  28.513  30.107  1.00  0.00     0.167 HD
ATOM     58  C   UNL A   1      45.710  26.171  29.613  1.00  0.00     0.074 A 
ATOM     59  C   UNL A   1      46.071  24.847  29.152  1.00  0.00     0.031 C 
ATOM     60  C   UNL A   1      46.554  27.010  30.262  1.00  0.00     0.037 A 
BRANCH  47  61
ATOM     61  C   UNL A   1      44.039  32.466  31.720  1.00  0.00     0.057 A 
ATOM     62  C   UNL A   1      44.503  33.550  30.963  1.00  0.00     0.134 A 
ATOM     63  C   UNL A   1      43.718  32.708  33.061  1.00  0.00     0.134 A 
ATOM     64  F   UNL A   1      44.839  33.386  29.673  1.00  0.00    -0.206 F 
ATOM     65  C   UNL A   1      44.669  34.817  31.524  1.00  0.00     0.040 A 
ATOM     66  C   UNL A   1      43.850  33.979  33.626  1.00  0.00     0.040 A 
ATOM     67  F   UNL A   1      43.262  31.719  33.843  1.00  0.00    -0.206 F 
ATOM     68  C   UNL A   1      44.334  35.036  32.859  1.00  0.00     0.006 A 
ENDBRANCH  47  61
BRANCH  48  69
ATOM     69  C   UNL A   1      42.445  23.609  27.404  1.00  0.00     0.057 A 
ATOM     70  C   UNL A   1      42.093  22.476  28.148  1.00  0.00     0.134 A 
ATOM     71  C   UNL A   1      42.596  23.450  26.021  1.00  0.00     0.134 A 
ATOM     72  F   UNL A   1      41.952  22.560  29.479  1.00  0.00    -0.206 F 
ATOM     73  C   UNL A   1      41.924  21.229  27.545  1.00  0.00     0.040 A 
ATOM     74  C   UNL A   1      42.401  22.214  25.402  1.00  0.00     0.040 A 
ATOM     75  F   UNL A   1      42.925  24.496  25.250  1.00  0.00    -0.206 F 
ATOM     76  C   UNL A   1      42.073  21.097  26.166  1.00  0.00     0.006 A 
ENDBRANCH  48  69
BRANCH  60  77
ATOM     77  C   UNL A   1      47.940  26.503  30.547  1.00  0.00     0.057 A 
ATOM     78  C   UNL A   1      48.266  25.863  31.749  1.00  0.00     0.134 A 
ATOM     79  C   UNL A   1      48.958  26.643  29.594  1.00  0.00     0.134 A 
ATOM     80  F   UNL A   1      47.342  25.707  32.710  1.00  0.00    -0.206 F 
ATOM     81  C   UNL A   1      49.562  25.409  32.007  1.00  0.00     0.040 A 
ATOM     82  C   UNL A   1      50.248  26.165  29.827  1.00  0.00     0.040 A 
ATOM     83  F   UNL A   1      48.713  27.237  28.416  1.00  0.00    -0.206 F 
ATOM     84  C   UNL A   1      50.555  25.554  31.041  1.00  0.00     0.006 A 
ENDBRANCH  60  77
ENDBRANCH  34  35
ENDBRANCH  26  29
ENDBRANCH  24  25
ENDBRANCH  23  24
ENDBRANCH   1  23
TORSDOF 14
ENDMDL
MODEL 2
REMARK VINA RESULT:     -11.1      2.899      8.102
REMARK SMILES CC(C)(C)OC(=O)N1[C@@H](C(=O)NCCCCNC(=O)c2ccc(-c3c4nc(c(-c5c(F)cccc5F)c5ccc([nH]5)c(-c5c(F)cccc5F)c5nc(c(-c6c(F)cccc6F)c6ccc3[nH]6)C=C5)C=C4)cc2)C[C@H]2CCCC[C@@H]21
REMARK SMILES IDX 14 1 13 2 12 3 10 4 11 5 9 7 8 8 80 9 74 10 75 11 79 12
REMARK SMILES IDX 76 13 78 14 77 15 6 16 7 17 5 18 2 19 1 20 3 21 4 22 15 23
REMARK SMILES IDX 16 24 17 25 18 26 19 28 20 29 21 30 73 31 22 32 72 33 23 34
REMARK SMILES IDX 24 35 25 36 66 37 26 38 71 39 65 40 67 41 27 42 70 43 64 44
REMARK SMILES IDX 63 45 28 47 54 48 37 49 53 50 38 51 41 52 52 53 68 54 39 55
REMARK SMILES IDX 40 56 51 58 69 59 42 60 29 61 30 62 35 63 31 64 32 65 34 66
REMARK SMILES IDX 36 67 33 68 55 69 56 70 61 71 57 72 58 73 60 74 62 75 59 76
REMARK SMILES IDX 43 77 44 78 49 79 45 80 46 81 48 82 50 83 47 84
REMARK H PARENT 12 6 17 27 67 46 41 57
REMARK Flexibility Score: inf
ROOT
ATOM      1  C   UNL A   1      35.424  22.941  23.552  1.00  0.00     0.023 C 
ENDROOT
BRANCH   1   2
ATOM      2  C   UNL A   1      33.907  22.968  23.400  1.00  0.00     0.116 C 
BRANCH   2   3
ATOM      3  N   UNL A   1      33.455  24.199  22.784  1.00  0.00    -0.354 N 
ATOM      4  C   UNL A   1      33.043  25.359  23.384  1.00  0.00     0.242 C 
ATOM      5  O   UNL A   1      32.653  26.270  22.653  1.00  0.00    -0.273 OA
ATOM      6  H   UNL A   1      33.442  24.201  21.800  1.00  0.00     0.163 HD
BRANCH   4   7
ATOM      7  C   UNL A   1      33.151  25.484  24.923  1.00  0.00     0.178 C 
ATOM      8  N   UNL A   1      31.970  26.155  25.485  1.00  0.00    -0.293 N 
ATOM      9  C   UNL A   1      32.270  27.531  25.810  1.00  0.00     0.092 C 
ATOM     10  C   UNL A   1      34.323  26.449  25.229  1.00  0.00     0.041 C 
ATOM     11  C   UNL A   1      33.734  27.414  26.240  1.00  0.00     0.014 C 
ATOM     12  C   UNL A   1      31.506  28.206  26.948  1.00  0.00     0.025 C 
ATOM     13  C   UNL A   1      34.368  28.787  26.347  1.00  0.00     0.006 C 
ATOM     14  C   UNL A   1      32.110  29.586  27.247  1.00  0.00     0.002 C 
ATOM     15  C   UNL A   1      33.633  29.573  27.439  1.00  0.00     0.000 C 
BRANCH   8  16
ATOM     16  C   UNL A   1      30.718  25.608  25.565  1.00  0.00     0.411 C 
ATOM     17  O   UNL A   1      29.807  25.889  24.794  1.00  0.00    -0.224 OA
BRANCH  16  18
ATOM     18  O   UNL A   1      30.578  24.824  26.666  1.00  0.00    -0.444 OA
BRANCH  18  19
ATOM     19  C   UNL A   1      30.778  23.385  26.572  1.00  0.00     0.106 C 
ATOM     20  C   UNL A   1      29.559  22.760  27.271  1.00  0.00     0.056 C 
ATOM     21  C   UNL A   1      32.048  23.001  27.332  1.00  0.00     0.056 C 
ATOM     22  C   UNL A   1      30.799  22.847  25.130  1.00  0.00     0.056 C 
ENDBRANCH  18  19
ENDBRANCH  16  18
ENDBRANCH   8  16
ENDBRANCH   4   7
ENDBRANCH   2   3
ENDBRANCH   1   2
BRANCH   1  23
ATOM     23  C   UNL A   1      35.921  22.874  24.997  1.00  0.00     0.023 C 
BRANCH  23  24
ATOM     24  C   UNL A   1      37.198  23.658  25.283  1.00  0.00     0.116 C 
BRANCH  24  25
ATOM     25  N   UNL A   1      38.351  22.799  25.497  1.00  0.00    -0.352 N 
ATOM     26  C   UNL A   1      39.544  23.069  26.122  1.00  0.00     0.251 C 
ATOM     27  H   UNL A   1      38.264  21.885  25.142  1.00  0.00     0.163 HD
ATOM     28  O   UNL A   1      40.461  22.255  26.063  1.00  0.00    -0.269 OA
BRANCH  26  29
ATOM     29  C   UNL A   1      39.739  24.348  26.841  1.00  0.00     0.039 A 
ATOM     30  C   UNL A   1      39.198  24.487  28.121  1.00  0.00     0.014 A 
ATOM     31  C   UNL A   1      40.440  25.409  26.261  1.00  0.00     0.014 A 
ATOM     32  C   UNL A   1      39.413  25.664  28.842  1.00  0.00     0.010 A 
ATOM     33  C   UNL A   1      40.725  26.547  27.010  1.00  0.00     0.010 A 
ATOM     34  C   UNL A   1      40.211  26.691  28.308  1.00  0.00    -0.014 A 
BRANCH  34  35
ATOM     35  C   UNL A   1      40.516  27.910  29.100  1.00  0.00     0.031 A 
ATOM     36  C   UNL A   1      41.837  28.053  29.805  1.00  0.00     0.074 A 
ATOM     37  C   UNL A   1      39.582  28.874  29.222  1.00  0.00     0.049 A 
ATOM     38  N   UNL A   1      42.271  29.034  30.557  1.00  0.00    -0.248 NA
ATOM     39  C   UNL A   1      42.787  26.938  29.670  1.00  0.00     0.031 C 
ATOM     40  C   UNL A   1      38.242  28.833  28.632  1.00  0.00     0.029 A 
ATOM     41  N   UNL A   1      39.615  30.076  29.884  1.00  0.00    -0.354 N 
ATOM     42  C   UNL A   1      43.535  28.652  30.987  1.00  0.00     0.074 A 
ATOM     43  C   UNL A   1      43.774  27.325  30.464  1.00  0.00     0.031 C 
ATOM     44  C   UNL A   1      37.595  29.970  28.932  1.00  0.00     0.029 A 
ATOM     45  C   UNL A   1      38.455  30.803  29.766  1.00  0.00     0.049 A 
ATOM     46  H   UNL A   1      40.397  30.387  30.396  1.00  0.00     0.167 HD
ATOM     47  C   UNL A   1      44.427  29.351  31.729  1.00  0.00     0.037 A 
ATOM     48  C   UNL A   1      38.121  32.004  30.274  1.00  0.00     0.037 A 
ATOM     49  C   UNL A   1      44.193  30.678  32.238  1.00  0.00     0.049 A 
ATOM     50  C   UNL A   1      39.124  32.755  31.105  1.00  0.00     0.074 A 
ATOM     51  C   UNL A   1      45.055  31.493  32.953  1.00  0.00     0.029 A 
ATOM     52  N   UNL A   1      43.008  31.384  32.091  1.00  0.00    -0.354 N 
ATOM     53  N   UNL A   1      40.345  32.413  31.439  1.00  0.00    -0.248 NA
ATOM     54  C   UNL A   1      38.706  34.066  31.620  1.00  0.00     0.031 C 
ATOM     55  C   UNL A   1      44.373  32.667  33.286  1.00  0.00     0.029 A 
ATOM     56  C   UNL A   1      43.108  32.613  32.725  1.00  0.00     0.049 A 
ATOM     57  H   UNL A   1      42.213  31.060  31.609  1.00  0.00     0.167 HD
ATOM     58  C   UNL A   1      40.849  33.476  32.177  1.00  0.00     0.074 A 
ATOM     59  C   UNL A   1      39.808  34.482  32.224  1.00  0.00     0.031 C 
ATOM     60  C   UNL A   1      42.065  33.608  32.763  1.00  0.00     0.037 A 
BRANCH  47  61
ATOM     61  C   UNL A   1      45.743  28.693  32.035  1.00  0.00     0.057 A 
ATOM     62  C   UNL A   1      46.851  28.821  31.186  1.00  0.00     0.134 A 
ATOM     63  C   UNL A   1      45.917  27.952  33.210  1.00  0.00     0.134 A 
ATOM     64  F   UNL A   1      46.752  29.508  30.037  1.00  0.00    -0.206 F 
ATOM     65  C   UNL A   1      48.072  28.212  31.478  1.00  0.00     0.040 A 
ATOM     66  C   UNL A   1      47.142  27.364  33.530  1.00  0.00     0.040 A 
ATOM     67  F   UNL A   1      44.902  27.794  34.073  1.00  0.00    -0.206 F 
ATOM     68  C   UNL A   1      48.222  27.487  32.659  1.00  0.00     0.006 A 
ENDBRANCH  47  61
BRANCH  48  69
ATOM     69  C   UNL A   1      36.782  32.584  29.995  1.00  0.00     0.057 A 
ATOM     70  C   UNL A   1      36.583  33.460  28.920  1.00  0.00     0.134 A 
ATOM     71  C   UNL A   1      35.675  32.292  30.801  1.00  0.00     0.134 A 
ATOM     72  F   UNL A   1      37.609  33.794  28.122  1.00  0.00    -0.206 F 
ATOM     73  C   UNL A   1      35.339  34.043  28.672  1.00  0.00     0.040 A 
ATOM     74  C   UNL A   1      34.419  32.845  30.546  1.00  0.00     0.040 A 
ATOM     75  F   UNL A   1      35.796  31.455  31.841  1.00  0.00    -0.206 F 
ATOM     76  C   UNL A   1      34.251  33.731  29.484  1.00  0.00     0.006 A 
ENDBRANCH  48  69
BRANCH  60  77
ATOM     77  C   UNL A   1      42.349  34.902  33.472  1.00  0.00     0.057 A 
ATOM     78  C   UNL A   1      41.960  35.125  34.799  1.00  0.00     0.134 A 
ATOM     79  C   UNL A   1      43.039  35.933  32.821  1.00  0.00     0.134 A 
ATOM     80  F   UNL A   1      41.284  34.185  35.477  1.00  0.00    -0.206 F 
ATOM     81  C   UNL A   1      42.217  36.339  35.441  1.00  0.00     0.040 A 
ATOM     82  C   UNL A   1      43.331  37.138  33.462  1.00  0.00     0.040 A 
ATOM     83  F   UNL A   1      43.451  35.783  31.552  1.00  0.00    -0.206 F 
ATOM     84  C   UNL A   1      42.910  37.346  34.774  1.00  0.00     0.006 A 
ENDBRANCH  60  77
ENDBRANCH  34  35
ENDBRANCH  26  29
ENDBRANCH  24  25
ENDBRANCH  23  24
ENDBRANCH   1  23
TORSDOF 14
ENDMDL
MODEL 3
REMARK VINA RESULT:     -11.0      2.208      7.345
REMARK SMILES CC(C)(C)OC(=O)N1[C@@H](C(=O)NCCCCNC(=O)c2ccc(-c3c4nc(c(-c5c(F)cccc5F)c5ccc([nH]5)c(-c5c(F)cccc5F)c5nc(c(-c6c(F)cccc6F)c6ccc3[nH]6)C=C5)C=C4)cc2)C[C@H]2CCCC[C@@H]21
REMARK SMILES IDX 14 1 13 2 12 3 10 4 11 5 9 7 8 8 80 9 74 10 75 11 79 12
REMARK SMILES IDX 76 13 78 14 77 15 6 16 7 17 5 18 2 19 1 20 3 21 4 22 15 23
REMARK SMILES IDX 16 24 17 25 18 26 19 28 20 29 21 30 73 31 22 32 72 33 23 34
REMARK SMILES IDX 24 35 25 36 66 37 26 38 71 39 65 40 67 41 27 42 70 43 64 44
REMARK SMILES IDX 63 45 28 47 54 48 37 49 53 50 38 51 41 52 52 53 68 54 39 55
REMARK SMILES IDX 40 56 51 58 69 59 42 60 29 61 30 62 35 63 31 64 32 65 34 66
REMARK SMILES IDX 36 67 33 68 55 69 56 70 61 71 57 72 58 73 60 74 62 75 59 76
REMARK SMILES IDX 43 77 44 78 49 79 45 80 46 81 48 82 50 83 47 84
REMARK H PARENT 12 6 17 27 67 46 41 57
REMARK Flexibility Score: inf
ROOT
ATOM      1  C   UNL A   1      38.698  22.465  26.112  1.00  0.00     0.023 C 
ENDROOT
BRANCH   1   2
ATOM      2  C   UNL A   1      37.352  23.066  25.721  1.00  0.00     0.116 C 
BRANCH   2   3
ATOM      3  N   UNL A   1      36.281  22.563  26.558  1.00  0.00    -0.354 N 
ATOM      4  C   UNL A   1      35.278  21.689  26.238  1.00  0.00     0.242 C 
ATOM      5  O   UNL A   1      34.442  21.439  27.106  1.00  0.00    -0.273 OA
ATOM      6  H   UNL A   1      36.274  22.897  27.485  1.00  0.00     0.163 HD
BRANCH   4   7
ATOM      7  C   UNL A   1      35.287  21.020  24.842  1.00  0.00     0.178 C 
ATOM      8  N   UNL A   1      33.920  20.812  24.344  1.00  0.00    -0.293 N 
ATOM      9  C   UNL A   1      33.524  19.431  24.498  1.00  0.00     0.092 C 
ATOM     10  C   UNL A   1      35.854  19.590  25.016  1.00  0.00     0.041 C 
ATOM     11  C   UNL A   1      34.859  18.720  24.271  1.00  0.00     0.014 C 
ATOM     12  C   UNL A   1      32.511  18.838  23.520  1.00  0.00     0.025 C 
ATOM     13  C   UNL A   1      34.761  17.263  24.677  1.00  0.00     0.006 C 
ATOM     14  C   UNL A   1      32.381  17.324  23.744  1.00  0.00     0.002 C 
ATOM     15  C   UNL A   1      33.723  16.581  23.780  1.00  0.00     0.000 C 
BRANCH   8  16
ATOM     16  C   UNL A   1      33.077  21.805  23.920  1.00  0.00     0.411 C 
ATOM     17  O   UNL A   1      33.306  22.516  22.949  1.00  0.00    -0.224 OA
BRANCH  16  18
ATOM     18  O   UNL A   1      32.035  21.982  24.774  1.00  0.00    -0.444 OA
BRANCH  18  19
ATOM     19  C   UNL A   1      31.696  23.316  25.250  1.00  0.00     0.106 C 
ATOM     20  C   UNL A   1      30.945  23.094  26.574  1.00  0.00     0.056 C 
ATOM     21  C   UNL A   1      30.761  23.989  24.245  1.00  0.00     0.056 C 
ATOM     22  C   UNL A   1      32.917  24.199  25.565  1.00  0.00     0.056 C 
ENDBRANCH  18  19
ENDBRANCH  16  18
ENDBRANCH   8  16
ENDBRANCH   4   7
ENDBRANCH   2   3
ENDBRANCH   1   2
BRANCH   1  23
ATOM     23  C   UNL A   1      39.062  21.176  25.374  1.00  0.00     0.023 C 
BRANCH  23  24
ATOM     24  C   UNL A   1      39.312  19.964  26.266  1.00  0.00     0.116 C 
BRANCH  24  25
ATOM     25  N   UNL A   1      40.515  19.234  25.901  1.00  0.00    -0.352 N 
ATOM     26  C   UNL A   1      41.826  19.643  25.909  1.00  0.00     0.251 C 
ATOM     27  H   UNL A   1      40.369  18.307  25.604  1.00  0.00     0.163 HD
ATOM     28  O   UNL A   1      42.691  18.927  25.412  1.00  0.00    -0.269 OA
BRANCH  26  29
ATOM     29  C   UNL A   1      42.199  20.954  26.486  1.00  0.00     0.039 A 
ATOM     30  C   UNL A   1      42.609  21.974  25.625  1.00  0.00     0.014 A 
ATOM     31  C   UNL A   1      42.156  21.179  27.865  1.00  0.00     0.014 A 
ATOM     32  C   UNL A   1      42.916  23.236  26.140  1.00  0.00     0.010 A 
ATOM     33  C   UNL A   1      42.381  22.458  28.368  1.00  0.00     0.010 A 
ATOM     34  C   UNL A   1      42.768  23.501  27.512  1.00  0.00    -0.014 A 
BRANCH  34  35
ATOM     35  C   UNL A   1      43.009  24.862  28.056  1.00  0.00     0.031 A 
ATOM     36  C   UNL A   1      44.396  25.292  28.453  1.00  0.00     0.074 A 
ATOM     37  C   UNL A   1      41.969  25.700  28.236  1.00  0.00     0.049 A 
ATOM     38  N   UNL A   1      44.794  26.431  28.964  1.00  0.00    -0.248 NA
ATOM     39  C   UNL A   1      45.474  24.306  28.276  1.00  0.00     0.031 C 
ATOM     40  C   UNL A   1      40.570  25.386  27.941  1.00  0.00     0.029 A 
ATOM     41  N   UNL A   1      41.927  26.987  28.712  1.00  0.00    -0.354 N 
ATOM     42  C   UNL A   1      46.159  26.295  29.175  1.00  0.00     0.074 A 
ATOM     43  C   UNL A   1      46.512  24.944  28.795  1.00  0.00     0.031 C 
ATOM     44  C   UNL A   1      39.812  26.460  28.212  1.00  0.00     0.029 A 
ATOM     45  C   UNL A   1      40.662  27.523  28.736  1.00  0.00     0.049 A 
ATOM     46  H   UNL A   1      42.727  27.478  29.008  1.00  0.00     0.167 HD
ATOM     47  C   UNL A   1      47.045  27.218  29.620  1.00  0.00     0.037 A 
ATOM     48  C   UNL A   1      40.235  28.736  29.138  1.00  0.00     0.037 A 
ATOM     49  C   UNL A   1      46.695  28.567  29.985  1.00  0.00     0.049 A 
ATOM     50  C   UNL A   1      41.237  29.738  29.640  1.00  0.00     0.074 A 
ATOM     51  C   UNL A   1      47.528  29.593  30.396  1.00  0.00     0.029 A 
ATOM     52  N   UNL A   1      45.405  29.075  29.990  1.00  0.00    -0.354 N 
ATOM     53  N   UNL A   1      42.537  29.621  29.762  1.00  0.00    -0.248 NA
ATOM     54  C   UNL A   1      40.711  31.047  30.050  1.00  0.00     0.031 C 
ATOM     55  C   UNL A   1      46.737  30.705  30.701  1.00  0.00     0.029 A 
ATOM     56  C   UNL A   1      45.417  30.392  30.421  1.00  0.00     0.049 A 
ATOM     57  H   UNL A   1      44.599  28.574  29.726  1.00  0.00     0.167 HD
ATOM     58  C   UNL A   1      42.987  30.847  30.234  1.00  0.00     0.074 A 
ATOM     59  C   UNL A   1      41.823  31.700  30.357  1.00  0.00     0.031 C 
ATOM     60  C   UNL A   1      44.251  31.232  30.538  1.00  0.00     0.037 A 
BRANCH  47  61
ATOM     61  C   UNL A   1      48.484  26.799  29.737  1.00  0.00     0.057 A 
ATOM     62  C   UNL A   1      48.992  26.209  30.903  1.00  0.00     0.134 A 
ATOM     63  C   UNL A   1      49.365  26.955  28.660  1.00  0.00     0.134 A 
ATOM     64  F   UNL A   1      48.205  26.040  31.978  1.00  0.00    -0.206 F 
ATOM     65  C   UNL A   1      50.327  25.817  31.003  1.00  0.00     0.040 A 
ATOM     66  C   UNL A   1      50.696  26.538  28.737  1.00  0.00     0.040 A 
ATOM     67  F   UNL A   1      48.947  27.505  27.511  1.00  0.00    -0.206 F 
ATOM     68  C   UNL A   1      51.182  25.974  29.914  1.00  0.00     0.006 A 
ENDBRANCH  47  61
BRANCH  48  69
ATOM     69  C   UNL A   1      38.792  29.080  29.061  1.00  0.00     0.057 A 
ATOM     70  C   UNL A   1      38.215  29.520  27.864  1.00  0.00     0.134 A 
ATOM     71  C   UNL A   1      37.959  28.992  30.183  1.00  0.00     0.134 A 
ATOM     72  F   UNL A   1      38.966  29.643  26.758  1.00  0.00    -0.206 F 
ATOM     73  C   UNL A   1      36.870  29.885  27.790  1.00  0.00     0.040 A 
ATOM     74  C   UNL A   1      36.604  29.325  30.115  1.00  0.00     0.040 A 
ATOM     75  F   UNL A   1      38.446  28.570  31.358  1.00  0.00    -0.206 F 
ATOM     76  C   UNL A   1      36.059  29.782  28.918  1.00  0.00     0.006 A 
ENDBRANCH  48  69
BRANCH  60  77
ATOM     77  C   UNL A   1      44.445  32.651  30.996  1.00  0.00     0.057 A 
ATOM     78  C   UNL A   1      44.423  33.005  32.351  1.00  0.00     0.134 A 
ATOM     79  C   UNL A   1      44.675  33.673  30.066  1.00  0.00     0.134 A 
ATOM     80  F   UNL A   1      44.195  32.077  33.293  1.00  0.00    -0.206 F 
ATOM     81  C   UNL A   1      44.590  34.329  32.762  1.00  0.00     0.040 A 
ATOM     82  C   UNL A   1      44.876  34.995  30.466  1.00  0.00     0.040 A 
ATOM     83  F   UNL A   1      44.720  33.403  28.752  1.00  0.00    -0.206 F 
ATOM     84  C   UNL A   1      44.824  35.327  31.818  1.00  0.00     0.006 A 
ENDBRANCH  60  77
ENDBRANCH  34  35
ENDBRANCH  26  29
ENDBRANCH  24  25
ENDBRANCH  23  24
ENDBRANCH   1  23
TORSDOF 14
ENDMDL
