MODEL 1
REMARK VINA RESULT:     -10.7      0.000      0.000
REMARK SMILES Cc1cc(C)n([C@@H](C(=O)NCCCCNC(=O)c2ccc(-c3c4nc(c(-c5c(F)cccc5F)c5ccc([nH]5)c(-c5c(F)cccc5F)c5nc(c(-c6c(F)cccc6F)c6ccc3[nH]6)C=C5)C=C4)cc2)C(C)C)n1
REMARK SMILES IDX 13 1 12 2 11 3 10 4 8 5 9 6 7 8 6 9 1 10 2 11 3 12 75 13
REMARK SMILES IDX 4 14 5 15 72 16 73 17 74 18 14 19 15 20 16 21 17 23 18 24
REMARK SMILES IDX 19 25 71 26 20 27 70 28 21 29 22 30 23 31 64 32 24 33 69 34
REMARK SMILES IDX 63 35 65 36 25 37 68 38 62 39 61 40 26 42 52 43 35 44 51 45
REMARK SMILES IDX 36 46 39 47 50 48 66 49 37 50 38 51 49 53 67 54 40 55 27 56
REMARK SMILES IDX 28 57 33 58 29 59 30 60 32 61 34 62 31 63 53 64 54 65 59 66
REMARK SMILES IDX 55 67 56 68 58 69 60 70 57 71 41 72 42 73 47 74 43 75 44 76
REMARK SMILES IDX 46 77 48 78 45 79
REMARK H PARENT 10 7 15 22 65 41 39 52
REMARK Flexibility Score: inf
ROOT
ATOM      1  C   UNL A   1      40.228  20.519  25.939  1.00  0.00     0.023 C 
ENDROOT
BRANCH   1   2
ATOM      2  C   UNL A   1      39.606  21.900  26.184  1.00  0.00     0.023 C 
BRANCH   2   3
ATOM      3  C   UNL A   1      38.099  22.025  25.915  1.00  0.00     0.116 C 
BRANCH   3   4
ATOM      4  N   UNL A   1      37.812  22.401  24.540  1.00  0.00    -0.354 N 
ATOM      5  C   UNL A   1      36.667  22.919  23.995  1.00  0.00     0.245 C 
ATOM      6  O   UNL A   1      36.639  23.031  22.766  1.00  0.00    -0.273 OA
ATOM      7  H   UNL A   1      38.552  22.260  23.904  1.00  0.00     0.163 HD
BRANCH   5   8
ATOM      8  C   UNL A   1      35.499  23.360  24.888  1.00  0.00     0.199 C 
BRANCH   8   9
ATOM      9  N   UNL A   1      34.707  22.187  25.279  1.00  0.00    -0.257 N 
ATOM     10  C   UNL A   1      33.120  19.229  24.136  1.00  0.00     0.069 C 
ATOM     11  C   UNL A   1      33.660  20.368  24.915  1.00  0.00     0.060 A 
ATOM     12  C   UNL A   1      33.366  20.740  26.240  1.00  0.00     0.048 A 
ATOM     13  N   UNL A   1      34.517  21.223  24.348  1.00  0.00    -0.177 NA
ATOM     14  C   UNL A   1      34.051  21.919  26.460  1.00  0.00     0.037 A 
ATOM     15  C   UNL A   1      34.075  22.778  27.669  1.00  0.00     0.066 C 
ENDBRANCH   8   9
BRANCH   8  16
ATOM     16  C   UNL A   1      34.618  24.493  24.281  1.00  0.00     0.017 C 
ATOM     17  C   UNL A   1      33.338  23.933  23.641  1.00  0.00     0.010 C 
ATOM     18  C   UNL A   1      34.199  25.537  25.328  1.00  0.00     0.010 C 
ENDBRANCH   8  16
ENDBRANCH   5   8
ENDBRANCH   3   4
ENDBRANCH   2   3
ENDBRANCH   1   2
BRANCH   1  19
ATOM     19  C   UNL A   1      41.406  20.183  26.837  1.00  0.00     0.116 C 
BRANCH  19  20
ATOM     20  N   UNL A   1      42.596  19.754  26.099  1.00  0.00    -0.352 N 
ATOM     21  C   UNL A   1      43.482  20.553  25.393  1.00  0.00     0.251 C 
ATOM     22  H   UNL A   1      42.787  18.788  26.104  1.00  0.00     0.163 HD
ATOM     23  O   UNL A   1      44.186  20.104  24.507  1.00  0.00    -0.269 OA
BRANCH  21  24
ATOM     24  C   UNL A   1      43.565  21.977  25.769  1.00  0.00     0.039 A 
ATOM     25  C   UNL A   1      42.959  22.984  25.014  1.00  0.00     0.014 A 
ATOM     26  C   UNL A   1      44.229  22.270  26.956  1.00  0.00     0.014 A 
ATOM     27  C   UNL A   1      42.961  24.283  25.518  1.00  0.00     0.010 A 
ATOM     28  C   UNL A   1      44.069  23.499  27.533  1.00  0.00     0.010 A 
ATOM     29  C   UNL A   1      43.501  24.527  26.792  1.00  0.00    -0.014 A 
BRANCH  29  30
ATOM     30  C   UNL A   1      43.383  25.829  27.436  1.00  0.00     0.031 A 
ATOM     31  C   UNL A   1      44.447  26.793  27.049  1.00  0.00     0.074 A 
ATOM     32  C   UNL A   1      42.283  26.200  28.131  1.00  0.00     0.049 A 
ATOM     33  N   UNL A   1      45.410  27.232  27.787  1.00  0.00    -0.248 NA
ATOM     34  C   UNL A   1      44.552  27.197  25.636  1.00  0.00     0.031 C 
ATOM     35  C   UNL A   1      41.026  25.463  28.315  1.00  0.00     0.029 A 
ATOM     36  N   UNL A   1      42.020  27.381  28.754  1.00  0.00    -0.354 N 
ATOM     37  C   UNL A   1      46.107  28.148  27.003  1.00  0.00     0.074 A 
ATOM     38  C   UNL A   1      45.664  27.937  25.651  1.00  0.00     0.031 C 
ATOM     39  C   UNL A   1      40.069  26.295  28.784  1.00  0.00     0.029 A 
ATOM     40  C   UNL A   1      40.686  27.564  29.112  1.00  0.00     0.049 A 
ATOM     41  H   UNL A   1      42.716  28.052  28.938  1.00  0.00     0.167 HD
ATOM     42  C   UNL A   1      46.787  29.178  27.578  1.00  0.00     0.037 A 
ATOM     43  C   UNL A   1      40.132  28.689  29.631  1.00  0.00     0.037 A 
ATOM     44  C   UNL A   1      46.940  28.962  28.996  1.00  0.00     0.049 A 
ATOM     45  C   UNL A   1      41.240  29.496  30.195  1.00  0.00     0.074 A 
ATOM     46  C   UNL A   1      47.563  28.019  29.787  1.00  0.00     0.029 A 
ATOM     47  N   UNL A   1      46.046  29.611  29.811  1.00  0.00    -0.354 N 
ATOM     48  N   UNL A   1      41.953  29.131  31.224  1.00  0.00    -0.248 NA
ATOM     49  C   UNL A   1      41.855  30.486  29.328  1.00  0.00     0.031 C 
ATOM     50  C   UNL A   1      46.692  27.841  30.903  1.00  0.00     0.029 A 
ATOM     51  C   UNL A   1      45.628  28.735  30.776  1.00  0.00     0.049 A 
ATOM     52  H   UNL A   1      45.754  30.546  29.717  1.00  0.00     0.167 HD
ATOM     53  C   UNL A   1      43.252  29.487  30.894  1.00  0.00     0.074 A 
ATOM     54  C   UNL A   1      43.115  30.403  29.763  1.00  0.00     0.031 C 
ATOM     55  C   UNL A   1      44.313  28.776  31.380  1.00  0.00     0.037 A 
BRANCH  42  56
ATOM     56  C   UNL A   1      46.931  30.557  26.977  1.00  0.00     0.057 A 
ATOM     57  C   UNL A   1      48.192  31.182  27.006  1.00  0.00     0.134 A 
ATOM     58  C   UNL A   1      45.850  31.408  26.669  1.00  0.00     0.134 A 
ATOM     59  F   UNL A   1      49.300  30.485  27.301  1.00  0.00    -0.206 F 
ATOM     60  C   UNL A   1      48.353  32.562  26.825  1.00  0.00     0.040 A 
ATOM     61  C   UNL A   1      46.007  32.778  26.436  1.00  0.00     0.040 A 
ATOM     62  F   UNL A   1      44.580  30.991  26.680  1.00  0.00    -0.206 F 
ATOM     63  C   UNL A   1      47.256  33.367  26.548  1.00  0.00     0.006 A 
ENDBRANCH  42  56
BRANCH  43  64
ATOM     64  C   UNL A   1      38.793  29.271  29.378  1.00  0.00     0.057 A 
ATOM     65  C   UNL A   1      38.372  29.579  28.074  1.00  0.00     0.134 A 
ATOM     66  C   UNL A   1      37.788  29.250  30.359  1.00  0.00     0.134 A 
ATOM     67  F   UNL A   1      39.250  29.582  27.060  1.00  0.00    -0.206 F 
ATOM     68  C   UNL A   1      37.027  29.816  27.758  1.00  0.00     0.040 A 
ATOM     69  C   UNL A   1      36.442  29.488  30.059  1.00  0.00     0.040 A 
ATOM     70  F   UNL A   1      38.066  28.902  31.624  1.00  0.00    -0.206 F 
ATOM     71  C   UNL A   1      36.054  29.756  28.751  1.00  0.00     0.006 A 
ENDBRANCH  43  64
BRANCH  55  72
ATOM     72  C   UNL A   1      44.054  27.808  32.504  1.00  0.00     0.057 A 
ATOM     73  C   UNL A   1      43.884  26.424  32.347  1.00  0.00     0.134 A 
ATOM     74  C   UNL A   1      44.115  28.288  33.816  1.00  0.00     0.134 A 
ATOM     75  F   UNL A   1      43.901  25.853  31.137  1.00  0.00    -0.206 F 
ATOM     76  C   UNL A   1      43.743  25.567  33.446  1.00  0.00     0.040 A 
ATOM     77  C   UNL A   1      44.011  27.441  34.921  1.00  0.00     0.040 A 
ATOM     78  F   UNL A   1      44.326  29.595  34.047  1.00  0.00    -0.206 F 
ATOM     79  C   UNL A   1      43.814  26.076  34.739  1.00  0.00     0.006 A 
ENDBRANCH  55  72
ENDBRANCH  29  30
ENDBRANCH  21  24
ENDBRANCH  19  20
ENDBRANCH   1  19
TORSDOF 13
ENDMDL
MODEL 2
REMARK VINA RESULT:     -10.6      4.192      8.793
REMARK SMILES Cc1cc(C)n([C@@H](C(=O)NCCCCNC(=O)c2ccc(-c3c4nc(c(-c5c(F)cccc5F)c5ccc([nH]5)c(-c5c(F)cccc5F)c5nc(c(-c6c(F)cccc6F)c6ccc3[nH]6)C=C5)C=C4)cc2)C(C)C)n1
REMARK SMILES IDX 13 1 12 2 11 3 10 4 8 5 9 6 7 8 6 9 1 10 2 11 3 12 75 13
REMARK SMILES IDX 4 14 5 15 72 16 73 17 74 18 14 19 15 20 16 21 17 23 18 24
REMARK SMILES IDX 19 25 71 26 20 27 70 28 21 29 22 30 23 31 64 32 24 33 69 34
REMARK SMILES IDX 63 35 65 36 25 37 68 38 62 39 61 40 26 42 52 43 35 44 51 45
REMARK SMILES IDX 36 46 39 47 50 48 66 49 37 50 38 51 49 53 67 54 40 55 27 56
REMARK SMILES IDX 28 57 33 58 29 59 30 60 32 61 34 62 31 63 53 64 54 65 59 66
REMARK SMILES IDX 55 67 56 68 58 69 60 70 57 71 41 72 42 73 47 74 43 75 44 76
REMARK SMILES IDX 46 77 48 78 45 79
REMARK H PARENT 10 7 15 22 65 41 39 52
REMARK Flexibility Score: inf
ROOT
ATOM      1  C   UNL A   1      31.340  31.574  26.772  1.00  0.00     0.023 C 
ENDROOT
BRANCH   1   2
ATOM      2  C   UNL A   1      31.553  30.474  25.723  1.00  0.00     0.023 C 
BRANCH   2   3
ATOM      3  C   UNL A   1      32.952  29.843  25.673  1.00  0.00     0.116 C 
BRANCH   3   4
ATOM      4  N   UNL A   1      33.435  29.676  24.311  1.00  0.00    -0.354 N 
ATOM      5  C   UNL A   1      33.198  28.666  23.416  1.00  0.00     0.245 C 
ATOM      6  O   UNL A   1      33.837  28.700  22.361  1.00  0.00    -0.273 OA
ATOM      7  H   UNL A   1      34.021  30.397  23.984  1.00  0.00     0.163 HD
BRANCH   5   8
ATOM      8  C   UNL A   1      32.164  27.572  23.719  1.00  0.00     0.199 C 
BRANCH   8   9
ATOM      9  N   UNL A   1      32.817  26.257  23.695  1.00  0.00    -0.257 N 
ATOM     10  C   UNL A   1      33.235  23.243  21.874  1.00  0.00     0.069 C 
ATOM     11  C   UNL A   1      33.266  24.351  22.858  1.00  0.00     0.060 A 
ATOM     12  C   UNL A   1      33.782  24.343  24.168  1.00  0.00     0.048 A 
ATOM     13  N   UNL A   1      32.724  25.533  22.554  1.00  0.00    -0.177 NA
ATOM     14  C   UNL A   1      33.482  25.583  24.695  1.00  0.00     0.037 A 
ATOM     15  C   UNL A   1      33.753  26.115  26.053  1.00  0.00     0.066 C 
ENDBRANCH   8   9
BRANCH   8  16
ATOM     16  C   UNL A   1      30.895  27.619  22.815  1.00  0.00     0.017 C 
ATOM     17  C   UNL A   1      29.674  27.012  23.524  1.00  0.00     0.010 C 
ATOM     18  C   UNL A   1      30.528  29.050  22.393  1.00  0.00     0.010 C 
ENDBRANCH   8  16
ENDBRANCH   5   8
ENDBRANCH   3   4
ENDBRANCH   2   3
ENDBRANCH   1   2
BRANCH   1  19
ATOM     19  C   UNL A   1      32.605  32.294  27.205  1.00  0.00     0.116 C 
BRANCH  19  20
ATOM     20  N   UNL A   1      32.391  33.708  27.518  1.00  0.00    -0.352 N 
ATOM     21  C   UNL A   1      33.018  34.457  28.502  1.00  0.00     0.251 C 
ATOM     22  H   UNL A   1      31.724  34.181  26.968  1.00  0.00     0.163 HD
ATOM     23  O   UNL A   1      32.521  35.472  28.952  1.00  0.00    -0.269 OA
BRANCH  21  24
ATOM     24  C   UNL A   1      34.336  33.993  28.976  1.00  0.00     0.039 A 
ATOM     25  C   UNL A   1      34.473  33.099  30.040  1.00  0.00     0.014 A 
ATOM     26  C   UNL A   1      35.446  34.443  28.268  1.00  0.00     0.014 A 
ATOM     27  C   UNL A   1      35.742  32.599  30.327  1.00  0.00     0.010 A 
ATOM     28  C   UNL A   1      36.649  33.815  28.430  1.00  0.00     0.010 A 
ATOM     29  C   UNL A   1      36.823  32.947  29.500  1.00  0.00    -0.014 A 
BRANCH  29  30
ATOM     30  C   UNL A   1      38.133  32.328  29.653  1.00  0.00     0.031 A 
ATOM     31  C   UNL A   1      38.189  30.913  29.200  1.00  0.00     0.074 A 
ATOM     32  C   UNL A   1      39.243  33.039  29.956  1.00  0.00     0.049 A 
ATOM     33  N   UNL A   1      38.317  29.860  29.936  1.00  0.00    -0.248 NA
ATOM     34  C   UNL A   1      37.911  30.614  27.784  1.00  0.00     0.031 C 
ATOM     35  C   UNL A   1      39.384  34.493  30.109  1.00  0.00     0.029 A 
ATOM     36  N   UNL A   1      40.526  32.607  30.099  1.00  0.00    -0.354 N 
ATOM     37  C   UNL A   1      38.373  28.782  29.056  1.00  0.00     0.074 A 
ATOM     38  C   UNL A   1      37.921  29.279  27.784  1.00  0.00     0.031 C 
ATOM     39  C   UNL A   1      40.692  34.834  30.082  1.00  0.00     0.029 A 
ATOM     40  C   UNL A   1      41.482  33.620  30.102  1.00  0.00     0.049 A 
ATOM     41  H   UNL A   1      40.759  31.656  30.194  1.00  0.00     0.167 HD
ATOM     42  C   UNL A   1      39.040  27.644  29.394  1.00  0.00     0.037 A 
ATOM     43  C   UNL A   1      42.831  33.463  30.109  1.00  0.00     0.037 A 
ATOM     44  C   UNL A   1      39.333  27.623  30.806  1.00  0.00     0.049 A 
ATOM     45  C   UNL A   1      43.103  32.089  30.595  1.00  0.00     0.074 A 
ATOM     46  C   UNL A   1      38.588  27.612  31.967  1.00  0.00     0.029 A 
ATOM     47  N   UNL A   1      40.599  28.009  31.171  1.00  0.00    -0.354 N 
ATOM     48  N   UNL A   1      42.849  31.685  31.808  1.00  0.00    -0.248 NA
ATOM     49  C   UNL A   1      43.225  31.040  29.598  1.00  0.00     0.031 C 
ATOM     50  C   UNL A   1      39.317  28.429  32.881  1.00  0.00     0.029 A 
ATOM     51  C   UNL A   1      40.502  28.831  32.262  1.00  0.00     0.049 A 
ATOM     52  H   UNL A   1      41.434  27.742  30.725  1.00  0.00     0.167 HD
ATOM     53  C   UNL A   1      42.337  30.406  31.650  1.00  0.00     0.074 A 
ATOM     54  C   UNL A   1      42.685  30.028  30.281  1.00  0.00     0.031 C 
ATOM     55  C   UNL A   1      41.432  29.903  32.542  1.00  0.00     0.037 A 
BRANCH  42  56
ATOM     56  C   UNL A   1      39.804  26.773  28.424  1.00  0.00     0.057 A 
ATOM     57  C   UNL A   1      40.727  27.378  27.549  1.00  0.00     0.134 A 
ATOM     58  C   UNL A   1      39.453  25.449  28.096  1.00  0.00     0.134 A 
ATOM     59  F   UNL A   1      41.132  28.643  27.743  1.00  0.00    -0.206 F 
ATOM     60  C   UNL A   1      41.197  26.743  26.393  1.00  0.00     0.040 A 
ATOM     61  C   UNL A   1      39.956  24.787  26.972  1.00  0.00     0.040 A 
ATOM     62  F   UNL A   1      38.529  24.760  28.775  1.00  0.00    -0.206 F 
ATOM     63  C   UNL A   1      40.803  25.444  26.096  1.00  0.00     0.006 A 
ENDBRANCH  42  56
BRANCH  43  64
ATOM     64  C   UNL A   1      43.866  34.266  29.418  1.00  0.00     0.057 A 
ATOM     65  C   UNL A   1      44.062  34.157  28.032  1.00  0.00     0.134 A 
ATOM     66  C   UNL A   1      44.468  35.375  30.037  1.00  0.00     0.134 A 
ATOM     67  F   UNL A   1      43.492  33.157  27.342  1.00  0.00    -0.206 F 
ATOM     68  C   UNL A   1      44.783  35.111  27.300  1.00  0.00     0.040 A 
ATOM     69  C   UNL A   1      45.193  36.333  29.320  1.00  0.00     0.040 A 
ATOM     70  F   UNL A   1      44.290  35.616  31.345  1.00  0.00    -0.206 F 
ATOM     71  C   UNL A   1      45.339  36.212  27.942  1.00  0.00     0.006 A 
ENDBRANCH  43  64
BRANCH  55  72
ATOM     72  C   UNL A   1      41.243  30.642  33.841  1.00  0.00     0.057 A 
ATOM     73  C   UNL A   1      40.291  31.650  34.059  1.00  0.00     0.134 A 
ATOM     74  C   UNL A   1      41.970  30.212  34.956  1.00  0.00     0.134 A 
ATOM     75  F   UNL A   1      39.483  32.069  33.078  1.00  0.00    -0.206 F 
ATOM     76  C   UNL A   1      40.102  32.228  35.321  1.00  0.00     0.040 A 
ATOM     77  C   UNL A   1      41.767  30.756  36.226  1.00  0.00     0.040 A 
ATOM     78  F   UNL A   1      42.863  29.216  34.836  1.00  0.00    -0.206 F 
ATOM     79  C   UNL A   1      40.838  31.774  36.411  1.00  0.00     0.006 A 
ENDBRANCH  55  72
ENDBRANCH  29  30
ENDBRANCH  21  24
ENDBRANCH  19  20
ENDBRANCH   1  19
TORSDOF 13
ENDMDL
MODEL 3
REMARK VINA RESULT:     -10.5      3.482      8.306
REMARK SMILES Cc1cc(C)n([C@@H](C(=O)NCCCCNC(=O)c2ccc(-c3c4nc(c(-c5c(F)cccc5F)c5ccc([nH]5)c(-c5c(F)cccc5F)c5nc(c(-c6c(F)cccc6F)c6ccc3[nH]6)C=C5)C=C4)cc2)C(C)C)n1
REMARK SMILES IDX 13 1 12 2 11 3 10 4 8 5 9 6 7 8 6 9 1 10 2 11 3 12 75 13
REMARK SMILES IDX 4 14 5 15 72 16 73 17 74 18 14 19 15 20 16 21 17 23 18 24
REMARK SMILES IDX 19 25 71 26 20 27 70 28 21 29 22 30 23 31 64 32 24 33 69 34
REMARK SMILES IDX 63 35 65 36 25 37 68 38 62 39 61 40 26 42 52 43 35 44 51 45
REMARK SMILES IDX 36 46 39 47 50 48 66 49 37 50 38 51 49 53 67 54 40 55 27 56
REMARK SMILES IDX 28 57 33 58 29 59 30 60 32 61 34 62 31 63 53 64 54 65 59 66
REMARK SMILES IDX 55 67 56 68 58 69 60 70 57 71 41 72 42 73 47 74 43 75 44 76
REMARK SMILES IDX 46 77 48 78 45 79
REMARK H PARENT 10 7 15 22 65 41 39 52
REMARK Flexibility Score: inf
ROOT
ATOM      1  C   UNL A   1      32.705  30.477  26.642  1.00  0.00     0.023 C 
ENDROOT
BRANCH   1   2
ATOM      2  C   UNL A   1      31.843  29.356  27.238  1.00  0.00     0.023 C 
BRANCH   2   3
ATOM      3  C   UNL A   1      32.368  27.924  27.057  1.00  0.00     0.116 C 
BRANCH   3   4
ATOM      4  N   UNL A   1      31.300  26.937  27.072  1.00  0.00    -0.354 N 
ATOM      5  C   UNL A   1      30.721  26.258  26.034  1.00  0.00     0.245 C 
ATOM      6  O   UNL A   1      29.737  25.563  26.305  1.00  0.00    -0.273 OA
ATOM      7  H   UNL A   1      30.939  26.725  27.964  1.00  0.00     0.163 HD
BRANCH   5   8
ATOM      8  C   UNL A   1      31.298  26.348  24.614  1.00  0.00     0.199 C 
BRANCH   8   9
ATOM      9  N   UNL A   1      30.755  27.530  23.934  1.00  0.00    -0.257 N 
ATOM     10  C   UNL A   1      27.847  29.020  22.555  1.00  0.00     0.069 C 
ATOM     11  C   UNL A   1      29.211  28.684  23.027  1.00  0.00     0.060 A 
ATOM     12  C   UNL A   1      30.421  29.347  22.749  1.00  0.00     0.048 A 
ATOM     13  N   UNL A   1      29.410  27.606  23.791  1.00  0.00    -0.177 NA
ATOM     14  C   UNL A   1      31.409  28.587  23.343  1.00  0.00     0.037 A 
ATOM     15  C   UNL A   1      32.879  28.792  23.338  1.00  0.00     0.066 C 
ENDBRANCH   8   9
BRANCH   8  16
ATOM     16  C   UNL A   1      31.130  25.050  23.768  1.00  0.00     0.017 C 
ATOM     17  C   UNL A   1      31.667  25.232  22.339  1.00  0.00     0.010 C 
ATOM     18  C   UNL A   1      31.852  23.845  24.390  1.00  0.00     0.010 C 
ENDBRANCH   8  16
ENDBRANCH   5   8
ENDBRANCH   3   4
ENDBRANCH   2   3
ENDBRANCH   1   2
BRANCH   1  19
ATOM     19  C   UNL A   1      34.061  30.657  27.303  1.00  0.00     0.116 C 
BRANCH  19  20
ATOM     20  N   UNL A   1      34.055  31.647  28.382  1.00  0.00    -0.352 N 
ATOM     21  C   UNL A   1      34.936  31.733  29.449  1.00  0.00     0.251 C 
ATOM     22  H   UNL A   1      33.343  32.326  28.347  1.00  0.00     0.163 HD
ATOM     23  O   UNL A   1      34.642  32.308  30.480  1.00  0.00    -0.269 OA
BRANCH  21  24
ATOM     24  C   UNL A   1      36.268  31.122  29.284  1.00  0.00     0.039 A 
ATOM     25  C   UNL A   1      37.431  31.887  29.172  1.00  0.00     0.014 A 
ATOM     26  C   UNL A   1      36.322  29.732  29.307  1.00  0.00     0.014 A 
ATOM     27  C   UNL A   1      38.660  31.229  29.168  1.00  0.00     0.010 A 
ATOM     28  C   UNL A   1      37.524  29.106  29.489  1.00  0.00     0.010 A 
ATOM     29  C   UNL A   1      38.697  29.836  29.349  1.00  0.00    -0.014 A 
BRANCH  29  30
ATOM     30  C   UNL A   1      39.955  29.120  29.517  1.00  0.00     0.031 A 
ATOM     31  C   UNL A   1      40.386  28.980  30.934  1.00  0.00     0.074 A 
ATOM     32  C   UNL A   1      40.549  28.446  28.506  1.00  0.00     0.049 A 
ATOM     33  N   UNL A   1      41.383  29.563  31.509  1.00  0.00    -0.248 NA
ATOM     34  C   UNL A   1      39.521  28.231  31.863  1.00  0.00     0.031 C 
ATOM     35  C   UNL A   1      40.060  28.233  27.137  1.00  0.00     0.029 A 
ATOM     36  N   UNL A   1      41.696  27.713  28.520  1.00  0.00    -0.354 N 
ATOM     37  C   UNL A   1      41.412  29.074  32.812  1.00  0.00     0.074 A 
ATOM     38  C   UNL A   1      40.145  28.427  33.027  1.00  0.00     0.031 C 
ATOM     39  C   UNL A   1      40.769  27.247  26.543  1.00  0.00     0.029 A 
ATOM     40  C   UNL A   1      41.874  26.892  27.409  1.00  0.00     0.049 A 
ATOM     41  H   UNL A   1      42.347  27.761  29.256  1.00  0.00     0.167 HD
ATOM     42  C   UNL A   1      42.582  29.015  33.506  1.00  0.00     0.037 A 
ATOM     43  C   UNL A   1      42.860  25.977  27.226  1.00  0.00     0.037 A 
ATOM     44  C   UNL A   1      43.603  29.798  32.854  1.00  0.00     0.049 A 
ATOM     45  C   UNL A   1      43.958  26.334  28.156  1.00  0.00     0.074 A 
ATOM     46  C   UNL A   1      43.774  31.132  32.545  1.00  0.00     0.029 A 
ATOM     47  N   UNL A   1      44.488  29.109  32.063  1.00  0.00    -0.354 N 
ATOM     48  N   UNL A   1      44.672  27.419  28.052  1.00  0.00    -0.248 NA
ATOM     49  C   UNL A   1      43.952  25.712  29.469  1.00  0.00     0.031 C 
ATOM     50  C   UNL A   1      44.414  31.136  31.270  1.00  0.00     0.029 A 
ATOM     51  C   UNL A   1      44.671  29.813  30.904  1.00  0.00     0.049 A 
ATOM     52  H   UNL A   1      44.918  28.253  32.291  1.00  0.00     0.167 HD
ATOM     53  C   UNL A   1      44.828  27.862  29.357  1.00  0.00     0.074 A 
ATOM     54  C   UNL A   1      44.449  26.721  30.189  1.00  0.00     0.031 C 
ATOM     55  C   UNL A   1      44.963  29.194  29.629  1.00  0.00     0.037 A 
BRANCH  42  56
ATOM     56  C   UNL A   1      42.941  27.936  34.501  1.00  0.00     0.057 A 
ATOM     57  C   UNL A   1      43.128  26.619  34.037  1.00  0.00     0.134 A 
ATOM     58  C   UNL A   1      42.802  28.062  35.897  1.00  0.00     0.134 A 
ATOM     59  F   UNL A   1      43.259  26.363  32.726  1.00  0.00    -0.206 F 
ATOM     60  C   UNL A   1      43.092  25.509  34.889  1.00  0.00     0.040 A 
ATOM     61  C   UNL A   1      42.817  26.963  36.763  1.00  0.00     0.040 A 
ATOM     62  F   UNL A   1      42.538  29.230  36.492  1.00  0.00    -0.206 F 
ATOM     63  C   UNL A   1      42.927  25.679  36.258  1.00  0.00     0.006 A 
ENDBRANCH  42  56
BRANCH  43  64
ATOM     64  C   UNL A   1      42.788  24.648  26.576  1.00  0.00     0.057 A 
ATOM     65  C   UNL A   1      43.510  24.375  25.403  1.00  0.00     0.134 A 
ATOM     66  C   UNL A   1      42.266  23.530  27.250  1.00  0.00     0.134 A 
ATOM     67  F   UNL A   1      44.083  25.371  24.711  1.00  0.00    -0.206 F 
ATOM     68  C   UNL A   1      43.730  23.068  24.947  1.00  0.00     0.040 A 
ATOM     69  C   UNL A   1      42.476  22.221  26.804  1.00  0.00     0.040 A 
ATOM     70  F   UNL A   1      41.619  23.668  28.417  1.00  0.00    -0.206 F 
ATOM     71  C   UNL A   1      43.224  21.984  25.657  1.00  0.00     0.006 A 
ENDBRANCH  43  64
BRANCH  55  72
ATOM     72  C   UNL A   1      45.243  30.121  28.475  1.00  0.00     0.057 A 
ATOM     73  C   UNL A   1      44.261  30.787  27.725  1.00  0.00     0.134 A 
ATOM     74  C   UNL A   1      46.574  30.455  28.204  1.00  0.00     0.134 A 
ATOM     75  F   UNL A   1      42.957  30.605  27.967  1.00  0.00    -0.206 F 
ATOM     76  C   UNL A   1      44.593  31.711  26.728  1.00  0.00     0.040 A 
ATOM     77  C   UNL A   1      46.918  31.400  27.235  1.00  0.00     0.040 A 
ATOM     78  F   UNL A   1      47.567  29.897  28.915  1.00  0.00    -0.206 F 
ATOM     79  C   UNL A   1      45.926  32.025  26.485  1.00  0.00     0.006 A 
ENDBRANCH  55  72
ENDBRANCH  29  30
ENDBRANCH  21  24
ENDBRANCH  19  20
ENDBRANCH   1  19
TORSDOF 13
ENDMDL
