MODEL 1
REMARK VINA RESULT:     -12.5      0.000      0.000
REMARK SMILES Cc1ccc(S(=O)(=O)Nc2ccccn2)cc1C(=O)NCCCCNC(=O)c1ccc(-c2c3nc(c(-c4c(F)cccc4F)c4ccc([nH]4)c(-c4c(F)cccc4F)c4nc(c(-c5c(F)cccc5F)c5ccc2[nH]5)C=C4)C=C3)cc1
REMARK SMILES IDX 22 1 21 2 20 3 18 4 19 5 17 7 1 8 2 9 3 10 4 11 16 12 5 13
REMARK SMILES IDX 6 14 7 15 8 16 9 17 10 19 11 20 15 21 12 22 14 23 13 24
REMARK SMILES IDX 23 25 24 26 25 27 26 28 27 30 28 31 29 32 81 33 30 34 80 35
REMARK SMILES IDX 31 36 32 37 33 38 74 39 34 40 79 41 73 42 75 43 35 44 78 45
REMARK SMILES IDX 72 46 71 47 36 49 62 50 45 51 61 52 46 53 49 54 60 55 76 56
REMARK SMILES IDX 47 57 48 58 59 60 77 61 50 62 37 63 38 64 43 65 39 66 40 67
REMARK SMILES IDX 42 68 44 69 41 70 63 71 64 72 69 73 65 74 66 75 68 76 70 77
REMARK SMILES IDX 67 78 51 79 52 80 57 81 53 82 54 83 56 84 58 85 55 86
REMARK H PARENT 20 6 9 18 25 29 75 48 49 59
REMARK Flexibility Score: inf
ROOT
ATOM      1  C   UNL A   1      33.722  29.040  26.993  1.00  0.00     0.023 C 
ENDROOT
BRANCH   1   2
ATOM      2  C   UNL A   1      32.437  29.068  26.153  1.00  0.00     0.116 C 
BRANCH   2   3
ATOM      3  N   UNL A   1      31.621  27.897  26.368  1.00  0.00    -0.352 N 
ATOM      4  C   UNL A   1      31.735  26.543  26.240  1.00  0.00     0.251 C 
ATOM      5  O   UNL A   1      30.736  25.962  26.690  1.00  0.00    -0.269 OA
ATOM      6  H   UNL A   1      30.729  28.145  26.703  1.00  0.00     0.163 HD
BRANCH   4   7
ATOM      7  C   UNL A   1      32.839  25.684  25.644  1.00  0.00     0.044 A 
ATOM      8  C   UNL A   1      33.333  26.741  23.311  1.00  0.00     0.045 C 
ATOM      9  C   UNL A   1      33.530  25.752  24.413  1.00  0.00    -0.038 A 
ATOM     10  C   UNL A   1      34.471  24.741  24.081  1.00  0.00     0.005 A 
ATOM     11  C   UNL A   1      34.620  23.595  24.846  1.00  0.00     0.022 A 
ATOM     12  C   UNL A   1      33.097  24.534  26.449  1.00  0.00     0.036 A 
ATOM     13  C   UNL A   1      33.875  23.461  26.006  1.00  0.00     0.088 A 
BRANCH  13  14
ATOM     14  S   UNL A   1      33.812  21.816  26.694  1.00  0.00     0.263 S 
ATOM     15  O   UNL A   1      35.033  21.160  26.228  1.00  0.00    -0.201 OA
ATOM     16  O   UNL A   1      33.556  21.973  28.095  1.00  0.00    -0.201 OA
BRANCH  14  17
ATOM     17  N   UNL A   1      32.524  20.989  26.080  1.00  0.00    -0.263 N 
ATOM     18  H   UNL A   1      31.681  21.030  26.587  1.00  0.00     0.182 HD
BRANCH  17  19
ATOM     19  C   UNL A   1      32.525  20.234  24.904  1.00  0.00     0.139 A 
ATOM     20  C   UNL A   1      32.479  20.725  23.611  1.00  0.00     0.048 A 
ATOM     21  N   UNL A   1      32.504  18.925  25.218  1.00  0.00    -0.239 NA
ATOM     22  C   UNL A   1      32.293  19.807  22.580  1.00  0.00     0.005 A 
ATOM     23  C   UNL A   1      32.339  18.061  24.197  1.00  0.00     0.113 A 
ATOM     24  C   UNL A   1      32.210  18.449  22.876  1.00  0.00     0.020 A 
ENDBRANCH  17  19
ENDBRANCH  14  17
ENDBRANCH  13  14
ENDBRANCH   4   7
ENDBRANCH   2   3
ENDBRANCH   1   2
BRANCH   1  25
ATOM     25  C   UNL A   1      34.503  30.351  27.065  1.00  0.00     0.023 C 
BRANCH  25  26
ATOM     26  C   UNL A   1      34.574  30.961  28.453  1.00  0.00     0.116 C 
BRANCH  26  27
ATOM     27  N   UNL A   1      35.771  31.747  28.735  1.00  0.00    -0.352 N 
ATOM     28  C   UNL A   1      37.071  31.319  28.965  1.00  0.00     0.251 C 
ATOM     29  H   UNL A   1      35.636  32.721  28.766  1.00  0.00     0.163 HD
ATOM     30  O   UNL A   1      37.936  32.138  29.262  1.00  0.00    -0.269 OA
BRANCH  28  31
ATOM     31  C   UNL A   1      37.457  29.910  28.677  1.00  0.00     0.039 A 
ATOM     32  C   UNL A   1      37.519  29.033  29.767  1.00  0.00     0.014 A 
ATOM     33  C   UNL A   1      38.071  29.570  27.480  1.00  0.00     0.014 A 
ATOM     34  C   UNL A   1      38.475  28.025  29.769  1.00  0.00     0.010 A 
ATOM     35  C   UNL A   1      39.118  28.677  27.529  1.00  0.00     0.010 A 
ATOM     36  C   UNL A   1      39.374  27.971  28.710  1.00  0.00    -0.014 A 
BRANCH  36  37
ATOM     37  C   UNL A   1      40.678  27.329  28.797  1.00  0.00     0.031 A 
ATOM     38  C   UNL A   1      40.806  25.885  28.530  1.00  0.00     0.074 A 
ATOM     39  C   UNL A   1      41.774  28.098  28.988  1.00  0.00     0.049 A 
ATOM     40  N   UNL A   1      41.810  25.161  28.887  1.00  0.00    -0.248 NA
ATOM     41  C   UNL A   1      39.752  25.121  27.878  1.00  0.00     0.031 C 
ATOM     42  C   UNL A   1      43.171  27.724  28.790  1.00  0.00     0.029 A 
ATOM     43  N   UNL A   1      41.838  29.355  29.607  1.00  0.00    -0.354 N 
ATOM     44  C   UNL A   1      41.685  23.935  28.270  1.00  0.00     0.074 A 
ATOM     45  C   UNL A   1      40.342  23.931  27.746  1.00  0.00     0.031 C 
ATOM     46  C   UNL A   1      43.949  28.556  29.501  1.00  0.00     0.029 A 
ATOM     47  C   UNL A   1      43.068  29.391  30.298  1.00  0.00     0.049 A 
ATOM     48  H   UNL A   1      41.161  30.070  29.566  1.00  0.00     0.167 HD
ATOM     49  C   UNL A   1      42.792  23.144  28.158  1.00  0.00     0.037 A 
ATOM     50  C   UNL A   1      43.105  29.477  31.661  1.00  0.00     0.037 A 
ATOM     51  C   UNL A   1      43.897  23.700  28.949  1.00  0.00     0.049 A 
ATOM     52  C   UNL A   1      43.751  28.283  32.329  1.00  0.00     0.074 A 
ATOM     53  C   UNL A   1      45.015  24.445  28.610  1.00  0.00     0.029 A 
ATOM     54  N   UNL A   1      43.772  23.790  30.333  1.00  0.00    -0.354 N 
ATOM     55  N   UNL A   1      43.943  27.136  31.737  1.00  0.00    -0.248 NA
ATOM     56  C   UNL A   1      44.209  28.276  33.716  1.00  0.00     0.031 C 
ATOM     57  C   UNL A   1      45.509  25.057  29.792  1.00  0.00     0.029 A 
ATOM     58  C   UNL A   1      44.712  24.661  30.852  1.00  0.00     0.049 A 
ATOM     59  H   UNL A   1      43.106  23.302  30.869  1.00  0.00     0.167 HD
ATOM     60  C   UNL A   1      44.497  26.248  32.622  1.00  0.00     0.074 A 
ATOM     61  C   UNL A   1      44.665  27.016  33.842  1.00  0.00     0.031 C 
ATOM     62  C   UNL A   1      44.754  24.952  32.279  1.00  0.00     0.037 A 
BRANCH  49  63
ATOM     63  C   UNL A   1      42.981  22.059  27.106  1.00  0.00     0.057 A 
ATOM     64  C   UNL A   1      42.241  20.860  27.179  1.00  0.00     0.134 A 
ATOM     65  C   UNL A   1      43.925  22.068  26.061  1.00  0.00     0.134 A 
ATOM     66  F   UNL A   1      41.221  20.711  28.035  1.00  0.00    -0.206 F 
ATOM     67  C   UNL A   1      42.502  19.740  26.373  1.00  0.00     0.040 A 
ATOM     68  C   UNL A   1      44.222  20.947  25.271  1.00  0.00     0.040 A 
ATOM     69  F   UNL A   1      44.580  23.171  25.698  1.00  0.00    -0.206 F 
ATOM     70  C   UNL A   1      43.521  19.767  25.436  1.00  0.00     0.006 A 
ENDBRANCH  49  63
BRANCH  50  71
ATOM     71  C   UNL A   1      41.987  30.280  32.222  1.00  0.00     0.057 A 
ATOM     72  C   UNL A   1      42.091  31.683  32.186  1.00  0.00     0.134 A 
ATOM     73  C   UNL A   1      40.710  29.742  32.401  1.00  0.00     0.134 A 
ATOM     74  F   UNL A   1      43.290  32.265  32.017  1.00  0.00    -0.206 F 
ATOM     75  C   UNL A   1      40.964  32.508  32.200  1.00  0.00     0.040 A 
ATOM     76  C   UNL A   1      39.575  30.562  32.429  1.00  0.00     0.040 A 
ATOM     77  F   UNL A   1      40.525  28.414  32.422  1.00  0.00    -0.206 F 
ATOM     78  C   UNL A   1      39.696  31.944  32.283  1.00  0.00     0.006 A 
ENDBRANCH  50  71
BRANCH  62  79
ATOM     79  C   UNL A   1      45.139  23.849  33.234  1.00  0.00     0.057 A 
ATOM     80  C   UNL A   1      46.398  23.736  33.841  1.00  0.00     0.134 A 
ATOM     81  C   UNL A   1      44.165  22.935  33.696  1.00  0.00     0.134 A 
ATOM     82  F   UNL A   1      47.385  24.602  33.575  1.00  0.00    -0.206 F 
ATOM     83  C   UNL A   1      46.683  22.757  34.802  1.00  0.00     0.040 A 
ATOM     84  C   UNL A   1      44.423  21.989  34.694  1.00  0.00     0.040 A 
ATOM     85  F   UNL A   1      42.913  22.939  33.217  1.00  0.00    -0.206 F 
ATOM     86  C   UNL A   1      45.691  21.889  35.241  1.00  0.00     0.006 A 
ENDBRANCH  62  79
ENDBRANCH  36  37
ENDBRANCH  28  31
ENDBRANCH  26  27
ENDBRANCH  25  26
ENDBRANCH   1  25
TORSDOF 14
ENDMDL
MODEL 2
REMARK VINA RESULT:     -12.3      1.700      2.295
REMARK SMILES Cc1ccc(S(=O)(=O)Nc2ccccn2)cc1C(=O)NCCCCNC(=O)c1ccc(-c2c3nc(c(-c4c(F)cccc4F)c4ccc([nH]4)c(-c4c(F)cccc4F)c4nc(c(-c5c(F)cccc5F)c5ccc2[nH]5)C=C4)C=C3)cc1
REMARK SMILES IDX 22 1 21 2 20 3 18 4 19 5 17 7 1 8 2 9 3 10 4 11 16 12 5 13
REMARK SMILES IDX 6 14 7 15 8 16 9 17 10 19 11 20 15 21 12 22 14 23 13 24
REMARK SMILES IDX 23 25 24 26 25 27 26 28 27 30 28 31 29 32 81 33 30 34 80 35
REMARK SMILES IDX 31 36 32 37 33 38 74 39 34 40 79 41 73 42 75 43 35 44 78 45
REMARK SMILES IDX 72 46 71 47 36 49 62 50 45 51 61 52 46 53 49 54 60 55 76 56
REMARK SMILES IDX 47 57 48 58 59 60 77 61 50 62 37 63 38 64 43 65 39 66 40 67
REMARK SMILES IDX 42 68 44 69 41 70 63 71 64 72 69 73 65 74 66 75 68 76 70 77
REMARK SMILES IDX 67 78 51 79 52 80 57 81 53 82 54 83 56 84 58 85 55 86
REMARK H PARENT 20 6 9 18 25 29 75 48 49 59
REMARK Flexibility Score: inf
ROOT
ATOM      1  C   UNL A   1      32.685  30.488  27.035  1.00  0.00     0.023 C 
ENDROOT
BRANCH   1   2
ATOM      2  C   UNL A   1      33.440  29.258  26.511  1.00  0.00     0.116 C 
BRANCH   2   3
ATOM      3  N   UNL A   1      33.595  29.287  25.076  1.00  0.00    -0.352 N 
ATOM      4  C   UNL A   1      32.890  28.906  23.971  1.00  0.00     0.251 C 
ATOM      5  O   UNL A   1      33.448  29.281  22.929  1.00  0.00    -0.269 OA
ATOM      6  H   UNL A   1      34.453  29.698  24.822  1.00  0.00     0.163 HD
BRANCH   4   7
ATOM      7  C   UNL A   1      31.599  28.117  23.832  1.00  0.00     0.044 A 
ATOM      8  C   UNL A   1      29.973  29.699  22.544  1.00  0.00     0.045 C 
ATOM      9  C   UNL A   1      30.359  28.429  23.231  1.00  0.00    -0.038 A 
ATOM     10  C   UNL A   1      29.281  27.510  23.332  1.00  0.00     0.005 A 
ATOM     11  C   UNL A   1      29.344  26.387  24.141  1.00  0.00     0.022 A 
ATOM     12  C   UNL A   1      31.650  26.898  24.574  1.00  0.00     0.036 A 
ATOM     13  C   UNL A   1      30.520  26.117  24.822  1.00  0.00     0.088 A 
BRANCH  13  14
ATOM     14  S   UNL A   1      30.388  24.918  26.137  1.00  0.00     0.263 S 
ATOM     15  O   UNL A   1      31.647  25.019  26.874  1.00  0.00    -0.201 OA
ATOM     16  O   UNL A   1      29.137  25.170  26.790  1.00  0.00    -0.201 OA
BRANCH  14  17
ATOM     17  N   UNL A   1      30.285  23.395  25.514  1.00  0.00    -0.263 N 
ATOM     18  H   UNL A   1      29.401  22.960  25.533  1.00  0.00     0.182 HD
BRANCH  17  19
ATOM     19  C   UNL A   1      31.341  22.666  24.962  1.00  0.00     0.139 A 
ATOM     20  C   UNL A   1      32.130  23.044  23.889  1.00  0.00     0.048 A 
ATOM     21  N   UNL A   1      31.439  21.481  25.593  1.00  0.00    -0.239 NA
ATOM     22  C   UNL A   1      33.005  22.094  23.367  1.00  0.00     0.005 A 
ATOM     23  C   UNL A   1      32.307  20.589  25.074  1.00  0.00     0.113 A 
ATOM     24  C   UNL A   1      33.090  20.838  23.962  1.00  0.00     0.020 A 
ENDBRANCH  17  19
ENDBRANCH  14  17
ENDBRANCH  13  14
ENDBRANCH   4   7
ENDBRANCH   2   3
ENDBRANCH   1   2
BRANCH   1  25
ATOM     25  C   UNL A   1      33.539  31.562  27.706  1.00  0.00     0.023 C 
BRANCH  25  26
ATOM     26  C   UNL A   1      35.032  31.296  27.656  1.00  0.00     0.116 C 
BRANCH  26  27
ATOM     27  N   UNL A   1      35.812  31.865  28.751  1.00  0.00    -0.352 N 
ATOM     28  C   UNL A   1      36.785  31.270  29.540  1.00  0.00     0.251 C 
ATOM     29  H   UNL A   1      35.619  32.807  28.958  1.00  0.00     0.163 HD
ATOM     30  O   UNL A   1      37.280  31.899  30.472  1.00  0.00    -0.269 OA
BRANCH  28  31
ATOM     31  C   UNL A   1      37.358  29.951  29.155  1.00  0.00     0.039 A 
ATOM     32  C   UNL A   1      37.447  28.979  30.160  1.00  0.00     0.014 A 
ATOM     33  C   UNL A   1      38.094  29.807  27.987  1.00  0.00     0.014 A 
ATOM     34  C   UNL A   1      38.516  28.091  30.148  1.00  0.00     0.010 A 
ATOM     35  C   UNL A   1      39.234  29.037  28.040  1.00  0.00     0.010 A 
ATOM     36  C   UNL A   1      39.488  28.248  29.166  1.00  0.00    -0.014 A 
BRANCH  36  37
ATOM     37  C   UNL A   1      40.851  27.752  29.302  1.00  0.00     0.031 A 
ATOM     38  C   UNL A   1      41.210  26.431  28.757  1.00  0.00     0.074 A 
ATOM     39  C   UNL A   1      41.799  28.574  29.806  1.00  0.00     0.049 A 
ATOM     40  N   UNL A   1      42.257  25.760  29.093  1.00  0.00    -0.248 NA
ATOM     41  C   UNL A   1      40.355  25.722  27.814  1.00  0.00     0.031 C 
ATOM     42  C   UNL A   1      43.248  28.413  29.734  1.00  0.00     0.029 A 
ATOM     43  N   UNL A   1      41.615  29.657  30.678  1.00  0.00    -0.354 N 
ATOM     44  C   UNL A   1      42.377  24.701  28.219  1.00  0.00     0.074 A 
ATOM     45  C   UNL A   1      41.117  24.667  27.520  1.00  0.00     0.031 C 
ATOM     46  C   UNL A   1      43.816  29.143  30.708  1.00  0.00     0.029 A 
ATOM     47  C   UNL A   1      42.740  29.671  31.530  1.00  0.00     0.049 A 
ATOM     48  H   UNL A   1      40.853  30.282  30.693  1.00  0.00     0.167 HD
ATOM     49  C   UNL A   1      43.590  24.084  28.103  1.00  0.00     0.037 A 
ATOM     50  C   UNL A   1      42.609  29.448  32.871  1.00  0.00     0.037 A 
ATOM     51  C   UNL A   1      44.508  24.565  29.142  1.00  0.00     0.049 A 
ATOM     52  C   UNL A   1      43.334  28.213  33.357  1.00  0.00     0.074 A 
ATOM     53  C   UNL A   1      45.542  25.488  29.132  1.00  0.00     0.029 A 
ATOM     54  N   UNL A   1      44.213  24.323  30.482  1.00  0.00    -0.354 N 
ATOM     55  N   UNL A   1      43.752  27.259  32.571  1.00  0.00    -0.248 NA
ATOM     56  C   UNL A   1      43.626  27.941  34.762  1.00  0.00     0.031 C 
ATOM     57  C   UNL A   1      45.806  25.866  30.474  1.00  0.00     0.029 A 
ATOM     58  C   UNL A   1      44.956  25.152  31.302  1.00  0.00     0.049 A 
ATOM     59  H   UNL A   1      43.565  23.655  30.802  1.00  0.00     0.167 HD
ATOM     60  C   UNL A   1      44.319  26.261  33.318  1.00  0.00     0.074 A 
ATOM     61  C   UNL A   1      44.237  26.745  34.683  1.00  0.00     0.031 C 
ATOM     62  C   UNL A   1      44.793  25.113  32.749  1.00  0.00     0.037 A 
BRANCH  49  63
ATOM     63  C   UNL A   1      44.048  23.295  26.883  1.00  0.00     0.057 A 
ATOM     64  C   UNL A   1      43.452  22.054  26.573  1.00  0.00     0.134 A 
ATOM     65  C   UNL A   1      45.118  23.627  26.031  1.00  0.00     0.134 A 
ATOM     66  F   UNL A   1      42.350  21.624  27.202  1.00  0.00    -0.206 F 
ATOM     67  C   UNL A   1      43.953  21.179  25.595  1.00  0.00     0.040 A 
ATOM     68  C   UNL A   1      45.651  22.751  25.072  1.00  0.00     0.040 A 
ATOM     69  F   UNL A   1      45.681  24.836  26.027  1.00  0.00    -0.206 F 
ATOM     70  C   UNL A   1      45.079  21.511  24.862  1.00  0.00     0.006 A 
ENDBRANCH  49  63
BRANCH  50  71
ATOM     71  C   UNL A   1      41.331  29.973  33.423  1.00  0.00     0.057 A 
ATOM     72  C   UNL A   1      41.228  31.356  33.660  1.00  0.00     0.134 A 
ATOM     73  C   UNL A   1      40.139  29.252  33.336  1.00  0.00     0.134 A 
ATOM     74  F   UNL A   1      42.336  32.109  33.755  1.00  0.00    -0.206 F 
ATOM     75  C   UNL A   1      39.994  32.011  33.682  1.00  0.00     0.040 A 
ATOM     76  C   UNL A   1      38.896  29.897  33.370  1.00  0.00     0.040 A 
ATOM     77  F   UNL A   1      40.154  27.934  33.089  1.00  0.00    -0.206 F 
ATOM     78  C   UNL A   1      38.823  31.284  33.498  1.00  0.00     0.006 A 
ENDBRANCH  50  71
BRANCH  62  79
ATOM     79  C   UNL A   1      45.217  23.872  33.495  1.00  0.00     0.057 A 
ATOM     80  C   UNL A   1      46.494  23.677  34.039  1.00  0.00     0.134 A 
ATOM     81  C   UNL A   1      44.265  22.881  33.825  1.00  0.00     0.134 A 
ATOM     82  F   UNL A   1      47.466  24.588  33.893  1.00  0.00    -0.206 F 
ATOM     83  C   UNL A   1      46.817  22.554  34.813  1.00  0.00     0.040 A 
ATOM     84  C   UNL A   1      44.561  21.785  34.643  1.00  0.00     0.040 A 
ATOM     85  F   UNL A   1      42.999  22.948  33.390  1.00  0.00    -0.206 F 
ATOM     86  C   UNL A   1      45.847  21.612  35.130  1.00  0.00     0.006 A 
ENDBRANCH  62  79
ENDBRANCH  36  37
ENDBRANCH  28  31
ENDBRANCH  26  27
ENDBRANCH  25  26
ENDBRANCH   1  25
TORSDOF 14
ENDMDL
MODEL 3
REMARK VINA RESULT:     -12.1      1.639      2.152
REMARK SMILES Cc1ccc(S(=O)(=O)Nc2ccccn2)cc1C(=O)NCCCCNC(=O)c1ccc(-c2c3nc(c(-c4c(F)cccc4F)c4ccc([nH]4)c(-c4c(F)cccc4F)c4nc(c(-c5c(F)cccc5F)c5ccc2[nH]5)C=C4)C=C3)cc1
REMARK SMILES IDX 22 1 21 2 20 3 18 4 19 5 17 7 1 8 2 9 3 10 4 11 16 12 5 13
REMARK SMILES IDX 6 14 7 15 8 16 9 17 10 19 11 20 15 21 12 22 14 23 13 24
REMARK SMILES IDX 23 25 24 26 25 27 26 28 27 30 28 31 29 32 81 33 30 34 80 35
REMARK SMILES IDX 31 36 32 37 33 38 74 39 34 40 79 41 73 42 75 43 35 44 78 45
REMARK SMILES IDX 72 46 71 47 36 49 62 50 45 51 61 52 46 53 49 54 60 55 76 56
REMARK SMILES IDX 47 57 48 58 59 60 77 61 50 62 37 63 38 64 43 65 39 66 40 67
REMARK SMILES IDX 42 68 44 69 41 70 63 71 64 72 69 73 65 74 66 75 68 76 70 77
REMARK SMILES IDX 67 78 51 79 52 80 57 81 53 82 54 83 56 84 58 85 55 86
REMARK H PARENT 20 6 9 18 25 29 75 48 49 59
REMARK Flexibility Score: inf
ROOT
ATOM      1  C   UNL A   1      33.120  29.755  27.124  1.00  0.00     0.023 C 
ENDROOT
BRANCH   1   2
ATOM      2  C   UNL A   1      33.307  28.232  27.089  1.00  0.00     0.116 C 
BRANCH   2   3
ATOM      3  N   UNL A   1      32.047  27.531  27.032  1.00  0.00    -0.352 N 
ATOM      4  C   UNL A   1      31.333  26.798  26.129  1.00  0.00     0.251 C 
ATOM      5  O   UNL A   1      30.320  26.304  26.647  1.00  0.00    -0.269 OA
ATOM      6  H   UNL A   1      31.566  27.599  27.889  1.00  0.00     0.163 HD
BRANCH   4   7
ATOM      7  C   UNL A   1      31.569  26.526  24.652  1.00  0.00     0.044 A 
ATOM      8  C   UNL A   1      29.892  28.083  23.399  1.00  0.00     0.045 C 
ATOM      9  C   UNL A   1      30.976  27.059  23.484  1.00  0.00    -0.038 A 
ATOM     10  C   UNL A   1      31.344  26.542  22.214  1.00  0.00     0.005 A 
ATOM     11  C   UNL A   1      32.141  25.417  22.081  1.00  0.00     0.022 A 
ATOM     12  C   UNL A   1      32.463  25.430  24.460  1.00  0.00     0.036 A 
ATOM     13  C   UNL A   1      32.650  24.816  23.220  1.00  0.00     0.088 A 
BRANCH  13  14
ATOM     14  S   UNL A   1      33.302  23.170  22.995  1.00  0.00     0.263 S 
ATOM     15  O   UNL A   1      32.143  22.342  22.665  1.00  0.00    -0.201 OA
ATOM     16  O   UNL A   1      34.398  23.291  22.081  1.00  0.00    -0.201 OA
BRANCH  14  17
ATOM     17  N   UNL A   1      33.940  22.610  24.410  1.00  0.00    -0.263 N 
ATOM     18  H   UNL A   1      33.306  22.328  25.108  1.00  0.00     0.182 HD
BRANCH  17  19
ATOM     19  C   UNL A   1      35.301  22.503  24.704  1.00  0.00     0.139 A 
ATOM     20  C   UNL A   1      36.055  21.342  24.703  1.00  0.00     0.048 A 
ATOM     21  N   UNL A   1      35.772  23.710  25.068  1.00  0.00    -0.239 NA
ATOM     22  C   UNL A   1      37.350  21.414  25.212  1.00  0.00     0.005 A 
ATOM     23  C   UNL A   1      37.035  23.750  25.542  1.00  0.00     0.113 A 
ATOM     24  C   UNL A   1      37.848  22.638  25.651  1.00  0.00     0.020 A 
ENDBRANCH  17  19
ENDBRANCH  14  17
ENDBRANCH  13  14
ENDBRANCH   4   7
ENDBRANCH   2   3
ENDBRANCH   1   2
BRANCH   1  25
ATOM     25  C   UNL A   1      34.396  30.584  27.255  1.00  0.00     0.023 C 
BRANCH  25  26
ATOM     26  C   UNL A   1      34.647  31.130  28.648  1.00  0.00     0.116 C 
BRANCH  26  27
ATOM     27  N   UNL A   1      35.862  31.923  28.806  1.00  0.00    -0.352 N 
ATOM     28  C   UNL A   1      37.176  31.502  28.949  1.00  0.00     0.251 C 
ATOM     29  H   UNL A   1      35.729  32.898  28.809  1.00  0.00     0.163 HD
ATOM     30  O   UNL A   1      38.061  32.329  29.146  1.00  0.00    -0.269 OA
BRANCH  28  31
ATOM     31  C   UNL A   1      37.539  30.082  28.687  1.00  0.00     0.039 A 
ATOM     32  C   UNL A   1      37.595  29.225  29.795  1.00  0.00     0.014 A 
ATOM     33  C   UNL A   1      38.140  29.709  27.494  1.00  0.00     0.014 A 
ATOM     34  C   UNL A   1      38.537  28.204  29.811  1.00  0.00     0.010 A 
ATOM     35  C   UNL A   1      39.174  28.801  27.554  1.00  0.00     0.010 A 
ATOM     36  C   UNL A   1      39.428  28.115  28.747  1.00  0.00    -0.014 A 
BRANCH  36  37
ATOM     37  C   UNL A   1      40.723  27.456  28.839  1.00  0.00     0.031 A 
ATOM     38  C   UNL A   1      40.834  26.013  28.562  1.00  0.00     0.074 A 
ATOM     39  C   UNL A   1      41.827  28.209  29.044  1.00  0.00     0.049 A 
ATOM     40  N   UNL A   1      41.826  25.273  28.921  1.00  0.00    -0.248 NA
ATOM     41  C   UNL A   1      39.775  25.267  27.896  1.00  0.00     0.031 C 
ATOM     42  C   UNL A   1      43.220  27.819  28.853  1.00  0.00     0.029 A 
ATOM     43  N   UNL A   1      41.902  29.461  29.672  1.00  0.00    -0.354 N 
ATOM     44  C   UNL A   1      41.690  24.054  28.293  1.00  0.00     0.074 A 
ATOM     45  C   UNL A   1      40.351  24.070  27.760  1.00  0.00     0.031 C 
ATOM     46  C   UNL A   1      44.004  28.635  29.575  1.00  0.00     0.029 A 
ATOM     47  C   UNL A   1      43.128  29.476  30.373  1.00  0.00     0.049 A 
ATOM     48  H   UNL A   1      41.235  30.184  29.632  1.00  0.00     0.167 HD
ATOM     49  C   UNL A   1      42.788  23.248  28.184  1.00  0.00     0.037 A 
ATOM     50  C   UNL A   1      43.157  29.551  31.736  1.00  0.00     0.037 A 
ATOM     51  C   UNL A   1      43.894  23.784  28.987  1.00  0.00     0.049 A 
ATOM     52  C   UNL A   1      43.781  28.344  32.400  1.00  0.00     0.074 A 
ATOM     53  C   UNL A   1      45.024  24.518  28.662  1.00  0.00     0.029 A 
ATOM     54  N   UNL A   1      43.760  23.866  30.370  1.00  0.00    -0.354 N 
ATOM     55  N   UNL A   1      43.964  27.198  31.801  1.00  0.00    -0.248 NA
ATOM     56  C   UNL A   1      44.229  28.321  33.790  1.00  0.00     0.031 C 
ATOM     57  C   UNL A   1      45.517  25.115  29.851  1.00  0.00     0.029 A 
ATOM     58  C   UNL A   1      44.707  24.720  30.903  1.00  0.00     0.049 A 
ATOM     59  H   UNL A   1      43.084  23.382  30.898  1.00  0.00     0.167 HD
ATOM     60  C   UNL A   1      44.500  26.297  32.683  1.00  0.00     0.074 A 
ATOM     61  C   UNL A   1      44.668  27.054  33.910  1.00  0.00     0.031 C 
ATOM     62  C   UNL A   1      44.743  25.000  32.332  1.00  0.00     0.037 A 
BRANCH  49  63
ATOM     63  C   UNL A   1      42.970  22.169  27.125  1.00  0.00     0.057 A 
ATOM     64  C   UNL A   1      42.219  20.976  27.187  1.00  0.00     0.134 A 
ATOM     65  C   UNL A   1      43.917  22.177  26.083  1.00  0.00     0.134 A 
ATOM     66  F   UNL A   1      41.196  20.830  28.040  1.00  0.00    -0.206 F 
ATOM     67  C   UNL A   1      42.474  19.859  26.375  1.00  0.00     0.040 A 
ATOM     68  C   UNL A   1      44.206  21.059  25.286  1.00  0.00     0.040 A 
ATOM     69  F   UNL A   1      44.583  23.277  25.729  1.00  0.00    -0.206 F 
ATOM     70  C   UNL A   1      43.495  19.884  25.441  1.00  0.00     0.006 A 
ENDBRANCH  49  63
BRANCH  50  71
ATOM     71  C   UNL A   1      42.044  30.364  32.295  1.00  0.00     0.057 A 
ATOM     72  C   UNL A   1      42.160  31.766  32.257  1.00  0.00     0.134 A 
ATOM     73  C   UNL A   1      40.763  29.837  32.475  1.00  0.00     0.134 A 
ATOM     74  F   UNL A   1      43.363  32.338  32.088  1.00  0.00    -0.206 F 
ATOM     75  C   UNL A   1      41.040  32.601  32.269  1.00  0.00     0.040 A 
ATOM     76  C   UNL A   1      39.634  30.666  32.500  1.00  0.00     0.040 A 
ATOM     77  F   UNL A   1      40.568  28.511  32.498  1.00  0.00    -0.206 F 
ATOM     78  C   UNL A   1      39.767  32.047  32.353  1.00  0.00     0.006 A 
ENDBRANCH  50  71
BRANCH  62  79
ATOM     79  C   UNL A   1      45.107  23.886  33.281  1.00  0.00     0.057 A 
ATOM     80  C   UNL A   1      46.371  23.731  33.867  1.00  0.00     0.134 A 
ATOM     81  C   UNL A   1      44.110  23.006  33.761  1.00  0.00     0.134 A 
ATOM     82  F   UNL A   1      47.382  24.562  33.583  1.00  0.00    -0.206 F 
ATOM     83  C   UNL A   1      46.639  22.742  34.824  1.00  0.00     0.040 A 
ATOM     84  C   UNL A   1      44.353  22.052  34.755  1.00  0.00     0.040 A 
ATOM     85  F   UNL A   1      42.851  23.052  33.304  1.00  0.00    -0.206 F 
ATOM     86  C   UNL A   1      45.626  21.909  35.281  1.00  0.00     0.006 A 
ENDBRANCH  62  79
ENDBRANCH  36  37
ENDBRANCH  28  31
ENDBRANCH  26  27
ENDBRANCH  25  26
ENDBRANCH   1  25
TORSDOF 14
ENDMDL
