MODEL 1
REMARK VINA RESULT:      -8.9      0.000      0.000
REMARK SMILES N#C/C(=C/c1cccc(OC2CCCC2)c1)C(=O)NCCCCNC(=O)c1ccc(-c2c3nc(c(-c4c(F)cccc4F)c4ccc([nH]4)c(-c4c(F)cccc4F)c4nc(c(-c5c(F)cccc5F)c5ccc2[nH]5)C=C4)C=C3)cc1
REMARK SMILES IDX 21 1 20 2 19 3 17 4 18 5 3 7 4 8 2 9 1 10 5 11 6 12 16 13
REMARK SMILES IDX 7 14 9 15 8 16 10 17 11 18 12 19 15 20 13 21 14 22 22 23
REMARK SMILES IDX 23 24 24 25 25 26 26 28 27 29 28 30 80 31 29 32 79 33 30 34
REMARK SMILES IDX 31 35 32 36 73 37 33 38 78 39 72 40 74 41 34 42 77 43 71 44
REMARK SMILES IDX 70 45 35 47 61 48 44 49 60 50 45 51 48 52 59 53 75 54 46 55
REMARK SMILES IDX 47 56 58 58 76 59 49 60 36 61 37 62 42 63 38 64 39 65 41 66
REMARK SMILES IDX 43 67 40 68 62 69 63 70 68 71 64 72 65 73 67 74 69 75 66 76
REMARK SMILES IDX 50 77 51 78 56 79 52 80 53 81 55 82 57 83 54 84
REMARK H PARENT 19 6 24 27 74 46 48 57
REMARK Flexibility Score: inf
ROOT
ATOM      1  C   UNL A   1      34.718  35.338  33.998  1.00  0.00     0.023 C 
ENDROOT
BRANCH   1   2
ATOM      2  C   UNL A   1      35.865  34.332  34.021  1.00  0.00     0.116 C 
BRANCH   2   3
ATOM      3  N   UNL A   1      36.059  33.607  35.262  1.00  0.00    -0.351 N 
ATOM      4  C   UNL A   1      37.205  33.316  35.956  1.00  0.00     0.261 C 
ATOM      5  O   UNL A   1      37.081  32.738  37.038  1.00  0.00    -0.268 OA
ATOM      6  H   UNL A   1      35.231  33.270  35.675  1.00  0.00     0.163 HD
BRANCH   4   7
ATOM      7  C   UNL A   1      38.576  33.611  35.440  1.00  0.00     0.117 C 
ATOM      8  C   UNL A   1      39.405  32.856  34.677  1.00  0.00     0.033 C 
BRANCH   7   9
ATOM      9  C   UNL A   1      39.118  35.016  35.649  1.00  0.00     0.105 C 
ATOM     10  N   UNL A   1      39.566  36.181  35.822  1.00  0.00    -0.192 NA
ENDBRANCH   7   9
BRANCH   8  11
ATOM     11  C   UNL A   1      39.169  31.557  34.051  1.00  0.00    -0.020 A 
ATOM     12  C   UNL A   1      37.895  31.188  33.610  1.00  0.00     0.008 A 
ATOM     13  C   UNL A   1      40.247  30.689  33.866  1.00  0.00     0.054 A 
ATOM     14  C   UNL A   1      37.731  29.995  32.905  1.00  0.00     0.004 A 
ATOM     15  C   UNL A   1      40.110  29.532  33.109  1.00  0.00     0.120 A 
ATOM     16  C   UNL A   1      38.839  29.183  32.642  1.00  0.00     0.046 A 
BRANCH  15  17
ATOM     17  O   UNL A   1      41.123  28.705  32.725  1.00  0.00    -0.490 OA
BRANCH  17  18
ATOM     18  C   UNL A   1      42.113  28.232  33.637  1.00  0.00     0.173 C 
ATOM     19  C   UNL A   1      42.900  29.280  34.430  1.00  0.00     0.045 C 
ATOM     20  C   UNL A   1      41.629  27.171  34.633  1.00  0.00     0.045 C 
ATOM     21  C   UNL A   1      43.355  28.531  35.673  1.00  0.00     0.004 C 
ATOM     22  C   UNL A   1      42.216  27.570  35.986  1.00  0.00     0.004 C 
ENDBRANCH  17  18
ENDBRANCH  15  17
ENDBRANCH   8  11
ENDBRANCH   4   7
ENDBRANCH   2   3
ENDBRANCH   1   2
BRANCH   1  23
ATOM     23  C   UNL A   1      33.725  35.228  32.835  1.00  0.00     0.023 C 
BRANCH  23  24
ATOM     24  C   UNL A   1      33.994  36.055  31.576  1.00  0.00     0.116 C 
BRANCH  24  25
ATOM     25  N   UNL A   1      33.179  35.713  30.422  1.00  0.00    -0.352 N 
ATOM     26  C   UNL A   1      33.346  34.731  29.469  1.00  0.00     0.251 C 
ATOM     27  H   UNL A   1      32.378  36.273  30.302  1.00  0.00     0.163 HD
ATOM     28  O   UNL A   1      32.505  34.594  28.584  1.00  0.00    -0.269 OA
BRANCH  26  29
ATOM     29  C   UNL A   1      34.564  33.883  29.451  1.00  0.00     0.039 A 
ATOM     30  C   UNL A   1      35.539  34.145  28.483  1.00  0.00     0.014 A 
ATOM     31  C   UNL A   1      34.774  32.866  30.385  1.00  0.00     0.014 A 
ATOM     32  C   UNL A   1      36.772  33.486  28.534  1.00  0.00     0.010 A 
ATOM     33  C   UNL A   1      36.027  32.255  30.476  1.00  0.00     0.010 A 
ATOM     34  C   UNL A   1      37.052  32.588  29.576  1.00  0.00    -0.014 A 
BRANCH  34  35
ATOM     35  C   UNL A   1      38.432  32.072  29.793  1.00  0.00     0.031 A 
ATOM     36  C   UNL A   1      38.845  30.717  29.294  1.00  0.00     0.074 A 
ATOM     37  C   UNL A   1      39.297  32.803  30.526  1.00  0.00     0.049 A 
ATOM     38  N   UNL A   1      39.978  30.083  29.470  1.00  0.00    -0.248 NA
ATOM     39  C   UNL A   1      37.849  29.966  28.516  1.00  0.00     0.031 C 
ATOM     40  C   UNL A   1      39.011  34.113  31.116  1.00  0.00     0.029 A 
ATOM     41  N   UNL A   1      40.591  32.544  30.912  1.00  0.00    -0.354 N 
ATOM     42  C   UNL A   1      39.829  28.856  28.839  1.00  0.00     0.074 A 
ATOM     43  C   UNL A   1      38.483  28.820  28.305  1.00  0.00     0.031 C 
ATOM     44  C   UNL A   1      40.099  34.548  31.773  1.00  0.00     0.029 A 
ATOM     45  C   UNL A   1      41.147  33.537  31.680  1.00  0.00     0.049 A 
ATOM     46  H   UNL A   1      41.072  31.722  30.661  1.00  0.00     0.167 HD
ATOM     47  C   UNL A   1      40.733  27.857  28.702  1.00  0.00     0.037 A 
ATOM     48  C   UNL A   1      42.362  33.626  32.256  1.00  0.00     0.037 A 
ATOM     49  C   UNL A   1      42.082  27.896  29.209  1.00  0.00     0.049 A 
ATOM     50  C   UNL A   1      43.348  32.508  32.081  1.00  0.00     0.074 A 
ATOM     51  C   UNL A   1      43.084  26.951  29.067  1.00  0.00     0.029 A 
ATOM     52  N   UNL A   1      42.615  28.933  29.956  1.00  0.00    -0.354 N 
ATOM     53  N   UNL A   1      43.211  31.381  31.428  1.00  0.00    -0.248 NA
ATOM     54  C   UNL A   1      44.662  32.677  32.720  1.00  0.00     0.031 C 
ATOM     55  C   UNL A   1      44.217  27.404  29.753  1.00  0.00     0.029 A 
ATOM     56  C   UNL A   1      43.929  28.646  30.293  1.00  0.00     0.049 A 
ATOM     57  H   UNL A   1      42.133  29.754  30.209  1.00  0.00     0.167 HD
ATOM     58  C   UNL A   1      44.424  30.718  31.556  1.00  0.00     0.074 A 
ATOM     59  C   UNL A   1      45.291  31.573  32.339  1.00  0.00     0.031 C 
ATOM     60  C   UNL A   1      44.785  29.509  31.064  1.00  0.00     0.037 A 
BRANCH  47  61
ATOM     61  C   UNL A   1      40.295  26.626  27.965  1.00  0.00     0.057 A 
ATOM     62  C   UNL A   1      39.428  25.693  28.548  1.00  0.00     0.134 A 
ATOM     63  C   UNL A   1      40.708  26.393  26.648  1.00  0.00     0.134 A 
ATOM     64  F   UNL A   1      39.003  25.854  29.810  1.00  0.00    -0.206 F 
ATOM     65  C   UNL A   1      39.005  24.558  27.853  1.00  0.00     0.040 A 
ATOM     66  C   UNL A   1      40.274  25.274  25.936  1.00  0.00     0.040 A 
ATOM     67  F   UNL A   1      41.532  27.253  26.030  1.00  0.00    -0.206 F 
ATOM     68  C   UNL A   1      39.424  24.350  26.540  1.00  0.00     0.006 A 
ENDBRANCH  47  61
BRANCH  48  69
ATOM     69  C   UNL A   1      42.725  34.833  33.038  1.00  0.00     0.057 A 
ATOM     70  C   UNL A   1      42.667  34.827  34.437  1.00  0.00     0.134 A 
ATOM     71  C   UNL A   1      43.128  36.018  32.412  1.00  0.00     0.134 A 
ATOM     72  F   UNL A   1      42.269  33.725  35.090  1.00  0.00    -0.206 F 
ATOM     73  C   UNL A   1      42.980  35.961  35.185  1.00  0.00     0.040 A 
ATOM     74  C   UNL A   1      43.464  37.154  33.150  1.00  0.00     0.040 A 
ATOM     75  F   UNL A   1      43.209  36.085  31.075  1.00  0.00    -0.206 F 
ATOM     76  C   UNL A   1      43.383  37.130  34.541  1.00  0.00     0.006 A 
ENDBRANCH  48  69
BRANCH  60  77
ATOM     77  C   UNL A   1      46.189  29.052  31.331  1.00  0.00     0.057 A 
ATOM     78  C   UNL A   1      47.262  29.469  30.535  1.00  0.00     0.134 A 
ATOM     79  C   UNL A   1      46.471  28.213  32.416  1.00  0.00     0.134 A 
ATOM     80  F   UNL A   1      47.054  30.260  29.471  1.00  0.00    -0.206 F 
ATOM     81  C   UNL A   1      48.568  29.053  30.799  1.00  0.00     0.040 A 
ATOM     82  C   UNL A   1      47.775  27.808  32.702  1.00  0.00     0.040 A 
ATOM     83  F   UNL A   1      45.486  27.783  33.218  1.00  0.00    -0.206 F 
ATOM     84  C   UNL A   1      48.828  28.225  31.890  1.00  0.00     0.006 A 
ENDBRANCH  60  77
ENDBRANCH  34  35
ENDBRANCH  26  29
ENDBRANCH  24  25
ENDBRANCH  23  24
ENDBRANCH   1  23
TORSDOF 15
ENDMDL
MODEL 2
REMARK VINA RESULT:      -8.8      0.471      6.267
REMARK SMILES N#C/C(=C/c1cccc(OC2CCCC2)c1)C(=O)NCCCCNC(=O)c1ccc(-c2c3nc(c(-c4c(F)cccc4F)c4ccc([nH]4)c(-c4c(F)cccc4F)c4nc(c(-c5c(F)cccc5F)c5ccc2[nH]5)C=C4)C=C3)cc1
REMARK SMILES IDX 21 1 20 2 19 3 17 4 18 5 3 7 4 8 2 9 1 10 5 11 6 12 16 13
REMARK SMILES IDX 7 14 9 15 8 16 10 17 11 18 12 19 15 20 13 21 14 22 22 23
REMARK SMILES IDX 23 24 24 25 25 26 26 28 27 29 28 30 80 31 29 32 79 33 30 34
REMARK SMILES IDX 31 35 32 36 73 37 33 38 78 39 72 40 74 41 34 42 77 43 71 44
REMARK SMILES IDX 70 45 35 47 61 48 44 49 60 50 45 51 48 52 59 53 75 54 46 55
REMARK SMILES IDX 47 56 58 58 76 59 49 60 36 61 37 62 42 63 38 64 39 65 41 66
REMARK SMILES IDX 43 67 40 68 62 69 63 70 68 71 64 72 65 73 67 74 69 75 66 76
REMARK SMILES IDX 50 77 51 78 56 79 52 80 53 81 55 82 57 83 54 84
REMARK H PARENT 19 6 24 27 74 46 48 57
REMARK Flexibility Score: inf
ROOT
ATOM      1  C   UNL A   1      34.616  35.371  34.004  1.00  0.00     0.023 C 
ENDROOT
BRANCH   1   2
ATOM      2  C   UNL A   1      35.748  34.348  33.976  1.00  0.00     0.116 C 
BRANCH   2   3
ATOM      3  N   UNL A   1      35.996  33.631  35.212  1.00  0.00    -0.351 N 
ATOM      4  C   UNL A   1      37.173  33.312  35.838  1.00  0.00     0.261 C 
ATOM      5  O   UNL A   1      37.099  32.748  36.932  1.00  0.00    -0.268 OA
ATOM      6  H   UNL A   1      35.186  33.323  35.678  1.00  0.00     0.163 HD
BRANCH   4   7
ATOM      7  C   UNL A   1      38.519  33.559  35.235  1.00  0.00     0.117 C 
ATOM      8  C   UNL A   1      39.281  32.768  34.440  1.00  0.00     0.033 C 
BRANCH   7   9
ATOM      9  C   UNL A   1      39.108  34.953  35.382  1.00  0.00     0.105 C 
ATOM     10  N   UNL A   1      39.596  36.109  35.503  1.00  0.00    -0.192 NA
ENDBRANCH   7   9
BRANCH   8  11
ATOM     11  C   UNL A   1      38.974  31.464  33.857  1.00  0.00    -0.020 A 
ATOM     12  C   UNL A   1      37.672  31.131  33.475  1.00  0.00     0.008 A 
ATOM     13  C   UNL A   1      40.013  30.553  33.653  1.00  0.00     0.054 A 
ATOM     14  C   UNL A   1      37.438  29.928  32.807  1.00  0.00     0.004 A 
ATOM     15  C   UNL A   1      39.805  29.383  32.931  1.00  0.00     0.120 A 
ATOM     16  C   UNL A   1      38.505  29.070  32.523  1.00  0.00     0.046 A 
BRANCH  15  17
ATOM     17  O   UNL A   1      40.772  28.511  32.530  1.00  0.00    -0.490 OA
BRANCH  17  18
ATOM     18  C   UNL A   1      41.866  28.142  33.368  1.00  0.00     0.173 C 
ATOM     19  C   UNL A   1      42.767  29.266  33.890  1.00  0.00     0.045 C 
ATOM     20  C   UNL A   1      41.500  27.254  34.565  1.00  0.00     0.045 C 
ATOM     21  C   UNL A   1      43.370  28.690  35.162  1.00  0.00     0.004 C 
ATOM     22  C   UNL A   1      42.266  27.825  35.757  1.00  0.00     0.004 C 
ENDBRANCH  17  18
ENDBRANCH  15  17
ENDBRANCH   8  11
ENDBRANCH   4   7
ENDBRANCH   2   3
ENDBRANCH   1   2
BRANCH   1  23
ATOM     23  C   UNL A   1      33.644  35.360  32.819  1.00  0.00     0.023 C 
BRANCH  23  24
ATOM     24  C   UNL A   1      34.002  36.192  31.586  1.00  0.00     0.116 C 
BRANCH  24  25
ATOM     25  N   UNL A   1      33.207  35.918  30.400  1.00  0.00    -0.352 N 
ATOM     26  C   UNL A   1      33.347  34.944  29.435  1.00  0.00     0.251 C 
ATOM     27  H   UNL A   1      32.444  36.526  30.264  1.00  0.00     0.163 HD
ATOM     28  O   UNL A   1      32.528  34.871  28.521  1.00  0.00    -0.269 OA
BRANCH  26  29
ATOM     29  C   UNL A   1      34.513  34.025  29.440  1.00  0.00     0.039 A 
ATOM     30  C   UNL A   1      35.480  34.176  28.440  1.00  0.00     0.014 A 
ATOM     31  C   UNL A   1      34.684  33.049  30.424  1.00  0.00     0.014 A 
ATOM     32  C   UNL A   1      36.673  33.449  28.504  1.00  0.00     0.010 A 
ATOM     33  C   UNL A   1      35.901  32.370  30.525  1.00  0.00     0.010 A 
ATOM     34  C   UNL A   1      36.923  32.593  29.588  1.00  0.00    -0.014 A 
BRANCH  34  35
ATOM     35  C   UNL A   1      38.275  32.009  29.807  1.00  0.00     0.031 A 
ATOM     36  C   UNL A   1      39.366  32.798  30.473  1.00  0.00     0.074 A 
ATOM     37  C   UNL A   1      38.544  30.780  29.321  1.00  0.00     0.049 A 
ATOM     38  N   UNL A   1      40.620  32.470  30.667  1.00  0.00    -0.248 NA
ATOM     39  C   UNL A   1      39.010  34.136  30.966  1.00  0.00     0.031 C 
ATOM     40  C   UNL A   1      37.594  29.924  28.607  1.00  0.00     0.029 A 
ATOM     41  N   UNL A   1      39.702  30.040  29.342  1.00  0.00    -0.354 N 
ATOM     42  C   UNL A   1      41.207  33.564  31.289  1.00  0.00     0.074 A 
ATOM     43  C   UNL A   1      40.179  34.578  31.410  1.00  0.00     0.031 C 
ATOM     44  C   UNL A   1      38.200  28.773  28.274  1.00  0.00     0.029 A 
ATOM     45  C   UNL A   1      39.589  28.820  28.719  1.00  0.00     0.049 A 
ATOM     46  H   UNL A   1      40.535  30.354  29.763  1.00  0.00     0.167 HD
ATOM     47  C   UNL A   1      42.478  33.706  31.734  1.00  0.00     0.037 A 
ATOM     48  C   UNL A   1      40.500  27.849  28.517  1.00  0.00     0.037 A 
ATOM     49  C   UNL A   1      43.498  32.692  31.640  1.00  0.00     0.049 A 
ATOM     50  C   UNL A   1      41.900  28.029  29.028  1.00  0.00     0.074 A 
ATOM     51  C   UNL A   1      44.798  32.731  32.115  1.00  0.00     0.029 A 
ATOM     52  N   UNL A   1      43.334  31.460  31.028  1.00  0.00    -0.354 N 
ATOM     53  N   UNL A   1      42.421  29.045  29.669  1.00  0.00    -0.248 NA
ATOM     54  C   UNL A   1      42.839  26.922  28.791  1.00  0.00     0.031 C 
ATOM     55  C   UNL A   1      45.430  31.531  31.766  1.00  0.00     0.029 A 
ATOM     56  C   UNL A   1      44.513  30.735  31.102  1.00  0.00     0.049 A 
ATOM     57  H   UNL A   1      42.502  31.146  30.604  1.00  0.00     0.167 HD
ATOM     58  C   UNL A   1      43.737  28.693  29.934  1.00  0.00     0.074 A 
ATOM     59  C   UNL A   1      43.935  27.365  29.394  1.00  0.00     0.031 C 
ATOM     60  C   UNL A   1      44.695  29.409  30.570  1.00  0.00     0.037 A 
BRANCH  47  61
ATOM     61  C   UNL A   1      42.843  35.013  32.373  1.00  0.00     0.057 A 
ATOM     62  C   UNL A   1      43.357  36.077  31.623  1.00  0.00     0.134 A 
ATOM     63  C   UNL A   1      42.640  35.223  33.742  1.00  0.00     0.134 A 
ATOM     64  F   UNL A   1      43.584  35.936  30.308  1.00  0.00    -0.206 F 
ATOM     65  C   UNL A   1      43.677  37.300  32.217  1.00  0.00     0.040 A 
ATOM     66  C   UNL A   1      42.934  36.448  34.343  1.00  0.00     0.040 A 
ATOM     67  F   UNL A   1      42.143  34.246  34.516  1.00  0.00    -0.206 F 
ATOM     68  C   UNL A   1      43.460  37.490  33.580  1.00  0.00     0.006 A 
ENDBRANCH  47  61
BRANCH  48  69
ATOM     69  C   UNL A   1      40.111  26.602  27.814  1.00  0.00     0.057 A 
ATOM     70  C   UNL A   1      39.317  25.638  28.446  1.00  0.00     0.134 A 
ATOM     71  C   UNL A   1      40.529  26.340  26.504  1.00  0.00     0.134 A 
ATOM     72  F   UNL A   1      38.903  25.828  29.708  1.00  0.00    -0.206 F 
ATOM     73  C   UNL A   1      38.966  24.449  27.807  1.00  0.00     0.040 A 
ATOM     74  C   UNL A   1      40.167  25.163  25.846  1.00  0.00     0.040 A 
ATOM     75  F   UNL A   1      41.286  27.227  25.844  1.00  0.00    -0.206 F 
ATOM     76  C   UNL A   1      39.389  24.210  26.501  1.00  0.00     0.006 A 
ENDBRANCH  48  69
BRANCH  60  77
ATOM     77  C   UNL A   1      46.034  28.757  30.747  1.00  0.00     0.057 A 
ATOM     78  C   UNL A   1      46.291  27.878  31.804  1.00  0.00     0.134 A 
ATOM     79  C   UNL A   1      47.066  28.990  29.829  1.00  0.00     0.134 A 
ATOM     80  F   UNL A   1      45.348  27.627  32.726  1.00  0.00    -0.206 F 
ATOM     81  C   UNL A   1      47.535  27.262  31.953  1.00  0.00     0.040 A 
ATOM     82  C   UNL A   1      48.307  28.364  29.955  1.00  0.00     0.040 A 
ATOM     83  F   UNL A   1      46.881  29.820  28.792  1.00  0.00    -0.206 F 
ATOM     84  C   UNL A   1      48.545  27.500  31.022  1.00  0.00     0.006 A 
ENDBRANCH  60  77
ENDBRANCH  34  35
ENDBRANCH  26  29
ENDBRANCH  24  25
ENDBRANCH  23  24
ENDBRANCH   1  23
TORSDOF 15
ENDMDL
MODEL 3
REMARK VINA RESULT:      -8.7      4.999     10.443
REMARK SMILES N#C/C(=C/c1cccc(OC2CCCC2)c1)C(=O)NCCCCNC(=O)c1ccc(-c2c3nc(c(-c4c(F)cccc4F)c4ccc([nH]4)c(-c4c(F)cccc4F)c4nc(c(-c5c(F)cccc5F)c5ccc2[nH]5)C=C4)C=C3)cc1
REMARK SMILES IDX 21 1 20 2 19 3 17 4 18 5 3 7 4 8 2 9 1 10 5 11 6 12 16 13
REMARK SMILES IDX 7 14 9 15 8 16 10 17 11 18 12 19 15 20 13 21 14 22 22 23
REMARK SMILES IDX 23 24 24 25 25 26 26 28 27 29 28 30 80 31 29 32 79 33 30 34
REMARK SMILES IDX 31 35 32 36 73 37 33 38 78 39 72 40 74 41 34 42 77 43 71 44
REMARK SMILES IDX 70 45 35 47 61 48 44 49 60 50 45 51 48 52 59 53 75 54 46 55
REMARK SMILES IDX 47 56 58 58 76 59 49 60 36 61 37 62 42 63 38 64 39 65 41 66
REMARK SMILES IDX 43 67 40 68 62 69 63 70 68 71 64 72 65 73 67 74 69 75 66 76
REMARK SMILES IDX 50 77 51 78 56 79 52 80 53 81 55 82 57 83 54 84
REMARK H PARENT 19 6 24 27 74 46 48 57
REMARK Flexibility Score: inf
ROOT
ATOM      1  C   UNL A   1      31.796  27.009  26.470  1.00  0.00     0.023 C 
ENDROOT
BRANCH   1   2
ATOM      2  C   UNL A   1      31.646  26.963  24.952  1.00  0.00     0.116 C 
BRANCH   2   3
ATOM      3  N   UNL A   1      30.973  25.799  24.408  1.00  0.00    -0.351 N 
ATOM      4  C   UNL A   1      31.426  24.817  23.565  1.00  0.00     0.261 C 
ATOM      5  O   UNL A   1      30.656  23.889  23.310  1.00  0.00    -0.268 OA
ATOM      6  H   UNL A   1      30.035  25.698  24.690  1.00  0.00     0.163 HD
BRANCH   4   7
ATOM      7  C   UNL A   1      32.768  24.853  22.908  1.00  0.00     0.117 C 
ATOM      8  C   UNL A   1      33.956  24.342  23.315  1.00  0.00     0.033 C 
BRANCH   7   9
ATOM      9  C   UNL A   1      32.842  25.407  21.494  1.00  0.00     0.105 C 
ATOM     10  N   UNL A   1      32.904  25.866  20.321  1.00  0.00    -0.192 NA
ENDBRANCH   7   9
BRANCH   8  11
ATOM     11  C   UNL A   1      34.264  23.519  24.483  1.00  0.00    -0.020 A 
ATOM     12  C   UNL A   1      34.123  24.023  25.779  1.00  0.00     0.008 A 
ATOM     13  C   UNL A   1      34.677  22.199  24.291  1.00  0.00     0.054 A 
ATOM     14  C   UNL A   1      34.305  23.173  26.870  1.00  0.00     0.004 A 
ATOM     15  C   UNL A   1      34.796  21.326  25.366  1.00  0.00     0.120 A 
ATOM     16  C   UNL A   1      34.622  21.827  26.659  1.00  0.00     0.046 A 
BRANCH  15  17
ATOM     17  O   UNL A   1      35.026  19.986  25.282  1.00  0.00    -0.490 OA
BRANCH  17  18
ATOM     18  C   UNL A   1      34.127  19.093  24.626  1.00  0.00     0.173 C 
ATOM     19  C   UNL A   1      34.668  17.718  24.220  1.00  0.00     0.045 C 
ATOM     20  C   UNL A   1      32.792  18.866  25.347  1.00  0.00     0.045 C 
ATOM     21  C   UNL A   1      33.427  16.841  24.160  1.00  0.00     0.004 C 
ATOM     22  C   UNL A   1      32.529  17.363  25.274  1.00  0.00     0.004 C 
ENDBRANCH  17  18
ENDBRANCH  15  17
ENDBRANCH   8  11
ENDBRANCH   4   7
ENDBRANCH   2   3
ENDBRANCH   1   2
BRANCH   1  23
ATOM     23  C   UNL A   1      32.032  28.386  27.099  1.00  0.00     0.023 C 
BRANCH  23  24
ATOM     24  C   UNL A   1      33.466  28.915  27.162  1.00  0.00     0.116 C 
BRANCH  24  25
ATOM     25  N   UNL A   1      33.624  30.209  27.804  1.00  0.00    -0.352 N 
ATOM     26  C   UNL A   1      34.736  30.801  28.362  1.00  0.00     0.251 C 
ATOM     27  H   UNL A   1      32.803  30.751  27.847  1.00  0.00     0.163 HD
ATOM     28  O   UNL A   1      34.652  31.935  28.828  1.00  0.00    -0.269 OA
BRANCH  26  29
ATOM     29  C   UNL A   1      36.019  30.062  28.476  1.00  0.00     0.039 A 
ATOM     30  C   UNL A   1      36.871  30.039  27.366  1.00  0.00     0.014 A 
ATOM     31  C   UNL A   1      36.407  29.428  29.658  1.00  0.00     0.014 A 
ATOM     32  C   UNL A   1      38.157  29.502  27.482  1.00  0.00     0.010 A 
ATOM     33  C   UNL A   1      37.714  28.952  29.794  1.00  0.00     0.010 A 
ATOM     34  C   UNL A   1      38.615  29.020  28.719  1.00  0.00    -0.014 A 
BRANCH  34  35
ATOM     35  C   UNL A   1      40.049  28.682  28.926  1.00  0.00     0.031 A 
ATOM     36  C   UNL A   1      41.015  29.689  29.481  1.00  0.00     0.074 A 
ATOM     37  C   UNL A   1      40.503  27.475  28.529  1.00  0.00     0.049 A 
ATOM     38  N   UNL A   1      42.311  29.586  29.647  1.00  0.00    -0.248 NA
ATOM     39  C   UNL A   1      40.459  30.990  29.880  1.00  0.00     0.031 C 
ATOM     40  C   UNL A   1      39.685  26.420  27.927  1.00  0.00     0.029 A 
ATOM     41  N   UNL A   1      41.766  26.935  28.560  1.00  0.00    -0.354 N 
ATOM     42  C   UNL A   1      42.728  30.809  30.155  1.00  0.00     0.074 A 
ATOM     43  C   UNL A   1      41.552  31.651  30.237  1.00  0.00     0.031 C 
ATOM     44  C   UNL A   1      40.462  25.356  27.661  1.00  0.00     0.029 A 
ATOM     45  C   UNL A   1      41.836  25.664  28.041  1.00  0.00     0.049 A 
ATOM     46  H   UNL A   1      42.547  27.415  28.919  1.00  0.00     0.167 HD
ATOM     47  C   UNL A   1      43.971  31.191  30.533  1.00  0.00     0.037 A 
ATOM     48  C   UNL A   1      42.888  24.839  27.880  1.00  0.00     0.037 A 
ATOM     49  C   UNL A   1      45.140  30.351  30.477  1.00  0.00     0.049 A 
ATOM     50  C   UNL A   1      44.254  25.284  28.315  1.00  0.00     0.074 A 
ATOM     51  C   UNL A   1      46.430  30.638  30.892  1.00  0.00     0.029 A 
ATOM     52  N   UNL A   1      45.163  29.060  29.973  1.00  0.00    -0.354 N 
ATOM     53  N   UNL A   1      44.619  26.423  28.851  1.00  0.00    -0.248 NA
ATOM     54  C   UNL A   1      45.355  24.327  28.127  1.00  0.00     0.031 C 
ATOM     55  C   UNL A   1      47.239  29.531  30.613  1.00  0.00     0.029 A 
ATOM     56  C   UNL A   1      46.446  28.543  30.055  1.00  0.00     0.049 A 
ATOM     57  H   UNL A   1      44.382  28.581  29.611  1.00  0.00     0.167 HD
ATOM     58  C   UNL A   1      45.982  26.311  29.087  1.00  0.00     0.074 A 
ATOM     59  C   UNL A   1      46.380  24.990  28.646  1.00  0.00     0.031 C 
ATOM     60  C   UNL A   1      46.828  27.224  29.623  1.00  0.00     0.037 A 
BRANCH  47  61
ATOM     61  C   UNL A   1      44.136  32.590  31.050  1.00  0.00     0.057 A 
ATOM     62  C   UNL A   1      44.037  32.883  32.416  1.00  0.00     0.134 A 
ATOM     63  C   UNL A   1      44.437  33.645  30.181  1.00  0.00     0.134 A 
ATOM     64  F   UNL A   1      43.741  31.917  33.299  1.00  0.00    -0.206 F 
ATOM     65  C   UNL A   1      44.210  34.182  32.897  1.00  0.00     0.040 A 
ATOM     66  C   UNL A   1      44.635  34.943  30.652  1.00  0.00     0.040 A 
ATOM     67  F   UNL A   1      44.554  33.429  28.862  1.00  0.00    -0.206 F 
ATOM     68  C   UNL A   1      44.516  35.215  32.014  1.00  0.00     0.006 A 
ENDBRANCH  47  61
BRANCH  48  69
ATOM     69  C   UNL A   1      42.689  23.490  27.295  1.00  0.00     0.057 A 
ATOM     70  C   UNL A   1      42.351  22.399  28.104  1.00  0.00     0.134 A 
ATOM     71  C   UNL A   1      42.840  23.257  25.923  1.00  0.00     0.134 A 
ATOM     72  F   UNL A   1      42.211  22.559  29.428  1.00  0.00    -0.206 F 
ATOM     73  C   UNL A   1      42.186  21.120  27.572  1.00  0.00     0.040 A 
ATOM     74  C   UNL A   1      42.658  21.986  25.376  1.00  0.00     0.040 A 
ATOM     75  F   UNL A   1      43.158  24.263  25.096  1.00  0.00    -0.206 F 
ATOM     76  C   UNL A   1      42.337  20.911  26.203  1.00  0.00     0.006 A 
ENDBRANCH  48  69
BRANCH  60  77
ATOM     77  C   UNL A   1      48.260  26.813  29.794  1.00  0.00     0.057 A 
ATOM     78  C   UNL A   1      48.691  26.093  30.914  1.00  0.00     0.134 A 
ATOM     79  C   UNL A   1      49.210  27.116  28.811  1.00  0.00     0.134 A 
ATOM     80  F   UNL A   1      47.831  25.787  31.899  1.00  0.00    -0.206 F 
ATOM     81  C   UNL A   1      50.022  25.700  31.059  1.00  0.00     0.040 A 
ATOM     82  C   UNL A   1      50.539  26.711  28.934  1.00  0.00     0.040 A 
ATOM     83  F   UNL A   1      48.859  27.801  27.713  1.00  0.00    -0.206 F 
ATOM     84  C   UNL A   1      50.950  26.003  30.064  1.00  0.00     0.006 A 
ENDBRANCH  60  77
ENDBRANCH  34  35
ENDBRANCH  26  29
ENDBRANCH  24  25
ENDBRANCH  23  24
ENDBRANCH   1  23
TORSDOF 15
ENDMDL
