MODEL 1
REMARK VINA RESULT:     -13.1      0.000      0.000
REMARK SMILES Cc1c(CCC(=O)N[C@@H](C)C(=O)NCCCCNC(=O)c2ccc(-c3c4nc(c(-c5c(F)cccc5F)c5ccc([nH]5)c(-c5c(F)cccc5F)c5nc(c(-c6c(F)cccc6F)c6ccc3[nH]6)C=C5)C=C4)cc2)c(=O)oc2cc3oc4c(c3cc12)CCCC4
REMARK SMILES IDX 14 1 13 2 11 3 12 4 9 6 10 7 8 8 6 9 7 10 5 12 4 13 3 14
REMARK SMILES IDX 1 15 2 16 86 17 75 18 78 19 85 20 76 21 77 22 79 23 84 24
REMARK SMILES IDX 80 25 83 26 81 27 82 28 87 29 90 30 88 31 89 32 15 33 16 34
REMARK SMILES IDX 17 35 18 36 19 37 20 39 21 40 22 41 74 42 23 43 73 44 24 45
REMARK SMILES IDX 25 46 26 47 67 48 27 49 72 50 66 51 68 52 28 53 71 54 65 55
REMARK SMILES IDX 64 56 29 58 55 59 38 60 54 61 39 62 42 63 53 64 69 65 40 66
REMARK SMILES IDX 41 67 52 69 70 70 43 71 30 72 31 73 36 74 32 75 33 76 35 77
REMARK SMILES IDX 37 78 34 79 56 80 57 81 62 82 58 83 59 84 61 85 63 86 60 87
REMARK SMILES IDX 44 88 45 89 50 90 46 91 47 92 49 93 51 94 48 95
REMARK H PARENT 13 5 8 11 18 38 68 57 42 68
REMARK Flexibility Score: inf
ROOT
ATOM      1  C   UNL A   1      44.046  23.550  26.871  1.00  0.00     0.116 C 
ENDROOT
BRANCH   1   2
ATOM      2  N   UNL A   1      44.230  23.293  25.449  1.00  0.00    -0.354 N 
ATOM      3  C   UNL A   1      44.427  22.180  24.685  1.00  0.00     0.242 C 
ATOM      4  O   UNL A   1      44.500  22.372  23.465  1.00  0.00    -0.273 OA
ATOM      5  H   UNL A   1      44.206  24.117  24.911  1.00  0.00     0.163 HD
BRANCH   3   6
ATOM      6  C   UNL A   1      44.589  20.741  25.236  1.00  0.00     0.168 C 
ATOM      7  C   UNL A   1      45.820  20.036  24.763  1.00  0.00     0.041 C 
BRANCH   6   8
ATOM      8  N   UNL A   1      43.475  19.841  24.925  1.00  0.00    -0.345 N 
ATOM      9  C   UNL A   1      42.356  19.680  25.711  1.00  0.00     0.220 C 
ATOM     10  O   UNL A   1      41.865  18.556  25.816  1.00  0.00    -0.275 OA
ATOM     11  H   UNL A   1      43.531  19.314  24.096  1.00  0.00     0.164 HD
BRANCH   9  12
ATOM     12  C   UNL A   1      41.721  20.897  26.387  1.00  0.00     0.105 C 
BRANCH  12  13
ATOM     13  C   UNL A   1      40.279  20.726  26.924  1.00  0.00     0.053 C 
BRANCH  13  14
ATOM     14  C   UNL A   1      39.232  21.592  26.239  1.00  0.00     0.042 A 
ATOM     15  C   UNL A   1      38.384  19.756  24.704  1.00  0.00     0.046 C 
ATOM     16  C   UNL A   1      38.338  21.116  25.349  1.00  0.00    -0.030 A 
ATOM     17  C   UNL A   1      37.094  21.886  25.219  1.00  0.00     0.022 A 
ATOM     18  C   UNL A   1      39.190  23.036  26.630  1.00  0.00     0.339 A 
ATOM     19  C   UNL A   1      37.092  23.255  25.465  1.00  0.00     0.142 A 
ATOM     20  C   UNL A   1      35.869  21.226  25.068  1.00  0.00     0.024 A 
ATOM     21  O   UNL A   1      39.989  23.502  27.434  1.00  0.00    -0.246 OA
ATOM     22  O   UNL A   1      38.255  23.850  25.988  1.00  0.00    -0.422 OA
ATOM     23  C   UNL A   1      35.954  24.062  25.298  1.00  0.00     0.095 A 
ATOM     24  C   UNL A   1      34.693  21.978  25.062  1.00  0.00     0.025 A 
ATOM     25  C   UNL A   1      34.780  23.366  25.020  1.00  0.00     0.138 A 
ATOM     26  C   UNL A   1      33.327  21.660  24.977  1.00  0.00     0.001 A 
ATOM     27  O   UNL A   1      33.581  23.874  24.581  1.00  0.00    -0.461 OA
ATOM     28  C   UNL A   1      32.784  22.786  24.407  1.00  0.00     0.108 A 
ATOM     29  C   UNL A   1      32.627  20.363  24.877  1.00  0.00     0.040 C 
ATOM     30  C   UNL A   1      31.798  22.685  23.295  1.00  0.00     0.076 C 
ATOM     31  C   UNL A   1      32.292  20.093  23.404  1.00  0.00     0.005 C 
ATOM     32  C   UNL A   1      32.171  21.375  22.524  1.00  0.00     0.008 C 
ENDBRANCH  13  14
ENDBRANCH  12  13
ENDBRANCH   9  12
ENDBRANCH   6   8
ENDBRANCH   3   6
ENDBRANCH   1   2
BRANCH   1  33
ATOM     33  C   UNL A   1      44.554  24.926  27.287  1.00  0.00     0.023 C 
BRANCH  33  34
ATOM     34  C   UNL A   1      43.584  25.619  28.231  1.00  0.00     0.023 C 
BRANCH  34  35
ATOM     35  C   UNL A   1      42.278  26.021  27.527  1.00  0.00     0.116 C 
BRANCH  35  36
ATOM     36  N   UNL A   1      42.459  26.607  26.209  1.00  0.00    -0.352 N 
ATOM     37  C   UNL A   1      42.181  27.898  25.798  1.00  0.00     0.251 C 
ATOM     38  H   UNL A   1      42.827  26.009  25.520  1.00  0.00     0.163 HD
ATOM     39  O   UNL A   1      42.414  28.279  24.676  1.00  0.00    -0.269 OA
BRANCH  37  40
ATOM     40  C   UNL A   1      41.492  28.760  26.776  1.00  0.00     0.039 A 
ATOM     41  C   UNL A   1      42.208  29.305  27.844  1.00  0.00     0.014 A 
ATOM     42  C   UNL A   1      40.097  28.806  26.725  1.00  0.00     0.014 A 
ATOM     43  C   UNL A   1      41.513  29.764  28.950  1.00  0.00     0.010 A 
ATOM     44  C   UNL A   1      39.404  29.304  27.819  1.00  0.00     0.010 A 
ATOM     45  C   UNL A   1      40.113  29.737  28.947  1.00  0.00    -0.014 A 
BRANCH  45  46
ATOM     46  C   UNL A   1      39.444  30.304  30.119  1.00  0.00     0.031 A 
ATOM     47  C   UNL A   1      39.813  29.593  31.374  1.00  0.00     0.074 A 
ATOM     48  C   UNL A   1      39.099  31.602  30.217  1.00  0.00     0.049 A 
ATOM     49  N   UNL A   1      40.916  29.846  32.013  1.00  0.00    -0.248 NA
ATOM     50  C   UNL A   1      39.145  28.361  31.784  1.00  0.00     0.031 C 
ATOM     51  C   UNL A   1      39.814  32.712  29.577  1.00  0.00     0.029 A 
ATOM     52  N   UNL A   1      38.230  32.209  31.090  1.00  0.00    -0.354 N 
ATOM     53  C   UNL A   1      41.152  28.765  32.837  1.00  0.00     0.074 A 
ATOM     54  C   UNL A   1      40.014  27.883  32.685  1.00  0.00     0.031 C 
ATOM     55  C   UNL A   1      39.504  33.851  30.231  1.00  0.00     0.029 A 
ATOM     56  C   UNL A   1      38.454  33.575  31.203  1.00  0.00     0.049 A 
ATOM     57  H   UNL A   1      37.525  31.727  31.580  1.00  0.00     0.167 HD
ATOM     58  C   UNL A   1      42.285  28.625  33.568  1.00  0.00     0.037 A 
ATOM     59  C   UNL A   1      38.185  34.300  32.322  1.00  0.00     0.037 A 
ATOM     60  C   UNL A   1      43.233  29.695  33.488  1.00  0.00     0.049 A 
ATOM     61  C   UNL A   1      39.324  33.863  33.214  1.00  0.00     0.074 A 
ATOM     62  C   UNL A   1      44.396  29.969  32.801  1.00  0.00     0.029 A 
ATOM     63  N   UNL A   1      42.984  30.829  34.223  1.00  0.00    -0.354 N 
ATOM     64  N   UNL A   1      40.554  34.306  33.172  1.00  0.00    -0.248 NA
ATOM     65  C   UNL A   1      39.156  32.618  33.967  1.00  0.00     0.031 C 
ATOM     66  C   UNL A   1      44.530  31.393  32.825  1.00  0.00     0.029 A 
ATOM     67  C   UNL A   1      43.405  31.899  33.474  1.00  0.00     0.049 A 
ATOM     68  H   UNL A   1      42.579  30.866  35.120  1.00  0.00     0.167 HD
ATOM     69  C   UNL A   1      41.343  33.254  33.649  1.00  0.00     0.074 A 
ATOM     70  C   UNL A   1      40.419  32.270  34.169  1.00  0.00     0.031 C 
ATOM     71  C   UNL A   1      42.684  33.151  33.416  1.00  0.00     0.037 A 
BRANCH  58  72
ATOM     72  C   UNL A   1      42.502  27.517  34.507  1.00  0.00     0.057 A 
ATOM     73  C   UNL A   1      43.183  26.382  34.054  1.00  0.00     0.134 A 
ATOM     74  C   UNL A   1      41.938  27.484  35.783  1.00  0.00     0.134 A 
ATOM     75  F   UNL A   1      43.740  26.377  32.832  1.00  0.00    -0.206 F 
ATOM     76  C   UNL A   1      43.274  25.231  34.829  1.00  0.00     0.040 A 
ATOM     77  C   UNL A   1      42.027  26.337  36.575  1.00  0.00     0.040 A 
ATOM     78  F   UNL A   1      41.274  28.544  36.265  1.00  0.00    -0.206 F 
ATOM     79  C   UNL A   1      42.685  25.204  36.092  1.00  0.00     0.006 A 
ENDBRANCH  58  72
BRANCH  59  80
ATOM     80  C   UNL A   1      36.741  34.269  32.729  1.00  0.00     0.057 A 
ATOM     81  C   UNL A   1      35.763  34.199  31.714  1.00  0.00     0.134 A 
ATOM     82  C   UNL A   1      36.251  34.276  34.039  1.00  0.00     0.134 A 
ATOM     83  F   UNL A   1      36.115  34.308  30.422  1.00  0.00    -0.206 F 
ATOM     84  C   UNL A   1      34.408  34.001  31.983  1.00  0.00     0.040 A 
ATOM     85  C   UNL A   1      34.897  34.055  34.327  1.00  0.00     0.040 A 
ATOM     86  F   UNL A   1      37.059  34.480  35.085  1.00  0.00    -0.206 F 
ATOM     87  C   UNL A   1      33.974  33.892  33.297  1.00  0.00     0.006 A 
ENDBRANCH  59  80
BRANCH  71  88
ATOM     88  C   UNL A   1      43.326  34.357  32.823  1.00  0.00     0.057 A 
ATOM     89  C   UNL A   1      43.389  34.510  31.435  1.00  0.00     0.134 A 
ATOM     90  C   UNL A   1      43.854  35.386  33.613  1.00  0.00     0.134 A 
ATOM     91  F   UNL A   1      42.892  33.564  30.622  1.00  0.00    -0.206 F 
ATOM     92  C   UNL A   1      43.939  35.652  30.853  1.00  0.00     0.040 A 
ATOM     93  C   UNL A   1      44.384  36.544  33.042  1.00  0.00     0.040 A 
ATOM     94  F   UNL A   1      43.850  35.301  34.954  1.00  0.00    -0.206 F 
ATOM     95  C   UNL A   1      44.428  36.680  31.657  1.00  0.00     0.006 A 
ENDBRANCH  71  88
ENDBRANCH  45  46
ENDBRANCH  37  40
ENDBRANCH  35  36
ENDBRANCH  34  35
ENDBRANCH  33  34
ENDBRANCH   1  33
TORSDOF 15
ENDMDL
MODEL 2
REMARK VINA RESULT:     -13.1      3.023      4.884
REMARK SMILES Cc1c(CCC(=O)N[C@@H](C)C(=O)NCCCCNC(=O)c2ccc(-c3c4nc(c(-c5c(F)cccc5F)c5ccc([nH]5)c(-c5c(F)cccc5F)c5nc(c(-c6c(F)cccc6F)c6ccc3[nH]6)C=C5)C=C4)cc2)c(=O)oc2cc3oc4c(c3cc12)CCCC4
REMARK SMILES IDX 14 1 13 2 11 3 12 4 9 6 10 7 8 8 6 9 7 10 5 12 4 13 3 14
REMARK SMILES IDX 1 15 2 16 86 17 75 18 78 19 85 20 76 21 77 22 79 23 84 24
REMARK SMILES IDX 80 25 83 26 81 27 82 28 87 29 90 30 88 31 89 32 15 33 16 34
REMARK SMILES IDX 17 35 18 36 19 37 20 39 21 40 22 41 74 42 23 43 73 44 24 45
REMARK SMILES IDX 25 46 26 47 67 48 27 49 72 50 66 51 68 52 28 53 71 54 65 55
REMARK SMILES IDX 64 56 29 58 55 59 38 60 54 61 39 62 42 63 53 64 69 65 40 66
REMARK SMILES IDX 41 67 52 69 70 70 43 71 30 72 31 73 36 74 32 75 33 76 35 77
REMARK SMILES IDX 37 78 34 79 56 80 57 81 62 82 58 83 59 84 61 85 63 86 60 87
REMARK SMILES IDX 44 88 45 89 50 90 46 91 47 92 49 93 51 94 48 95
REMARK H PARENT 13 5 8 11 18 38 68 57 42 68
REMARK Flexibility Score: inf
ROOT
ATOM      1  C   UNL A   1      38.944  24.822  27.743  1.00  0.00     0.116 C 
ENDROOT
BRANCH   1   2
ATOM      2  N   UNL A   1      39.292  23.490  27.267  1.00  0.00    -0.354 N 
ATOM      3  C   UNL A   1      38.724  22.590  26.413  1.00  0.00     0.242 C 
ATOM      4  O   UNL A   1      39.365  21.548  26.228  1.00  0.00    -0.273 OA
ATOM      5  H   UNL A   1      40.136  23.161  27.652  1.00  0.00     0.163 HD
BRANCH   3   6
ATOM      6  C   UNL A   1      37.358  22.774  25.708  1.00  0.00     0.168 C 
ATOM      7  C   UNL A   1      36.476  21.567  25.748  1.00  0.00     0.041 C 
BRANCH   6   8
ATOM      8  N   UNL A   1      37.448  23.148  24.293  1.00  0.00    -0.345 N 
ATOM      9  C   UNL A   1      36.374  23.242  23.438  1.00  0.00     0.220 C 
ATOM     10  O   UNL A   1      36.513  22.876  22.271  1.00  0.00    -0.275 OA
ATOM     11  H   UNL A   1      38.341  23.347  23.929  1.00  0.00     0.164 HD
BRANCH   9  12
ATOM     12  C   UNL A   1      35.057  23.842  23.936  1.00  0.00     0.105 C 
BRANCH  12  13
ATOM     13  C   UNL A   1      34.041  24.291  22.857  1.00  0.00     0.053 C 
BRANCH  13  14
ATOM     14  C   UNL A   1      32.752  24.892  23.401  1.00  0.00     0.042 A 
ATOM     15  C   UNL A   1      33.649  27.263  23.547  1.00  0.00     0.046 C 
ATOM     16  C   UNL A   1      32.569  26.215  23.589  1.00  0.00    -0.030 A 
ATOM     17  C   UNL A   1      31.175  26.676  23.561  1.00  0.00     0.022 A 
ATOM     18  C   UNL A   1      31.632  23.941  23.688  1.00  0.00     0.339 A 
ATOM     19  C   UNL A   1      30.149  25.821  23.950  1.00  0.00     0.142 A 
ATOM     20  C   UNL A   1      30.845  27.886  22.940  1.00  0.00     0.024 A 
ATOM     21  O   UNL A   1      31.766  22.733  23.530  1.00  0.00    -0.246 OA
ATOM     22  O   UNL A   1      30.455  24.474  24.214  1.00  0.00    -0.422 OA
ATOM     23  C   UNL A   1      28.802  26.217  24.008  1.00  0.00     0.095 A 
ATOM     24  C   UNL A   1      29.501  28.244  22.827  1.00  0.00     0.025 A 
ATOM     25  C   UNL A   1      28.543  27.486  23.494  1.00  0.00     0.138 A 
ATOM     26  C   UNL A   1      28.820  29.327  22.247  1.00  0.00     0.001 A 
ATOM     27  O   UNL A   1      27.396  28.232  23.623  1.00  0.00    -0.461 OA
ATOM     28  C   UNL A   1      27.671  29.407  22.997  1.00  0.00     0.108 A 
ATOM     29  C   UNL A   1      29.308  30.508  21.505  1.00  0.00     0.040 C 
ATOM     30  C   UNL A   1      27.167  30.717  23.494  1.00  0.00     0.076 C 
ATOM     31  C   UNL A   1      29.395  31.698  22.471  1.00  0.00     0.005 C 
ATOM     32  C   UNL A   1      28.441  31.603  23.701  1.00  0.00     0.008 C 
ENDBRANCH  13  14
ENDBRANCH  12  13
ENDBRANCH   9  12
ENDBRANCH   6   8
ENDBRANCH   3   6
ENDBRANCH   1   2
BRANCH   1  33
ATOM     33  C   UNL A   1      40.136  25.557  28.347  1.00  0.00     0.023 C 
BRANCH  33  34
ATOM     34  C   UNL A   1      41.455  24.990  27.850  1.00  0.00     0.023 C 
BRANCH  34  35
ATOM     35  C   UNL A   1      42.520  26.082  27.656  1.00  0.00     0.116 C 
BRANCH  35  36
ATOM     36  N   UNL A   1      42.602  26.610  26.304  1.00  0.00    -0.352 N 
ATOM     37  C   UNL A   1      42.221  27.857  25.845  1.00  0.00     0.251 C 
ATOM     38  H   UNL A   1      42.979  26.002  25.628  1.00  0.00     0.163 HD
ATOM     39  O   UNL A   1      42.378  28.195  24.697  1.00  0.00    -0.269 OA
BRANCH  37  40
ATOM     40  C   UNL A   1      41.521  28.723  26.813  1.00  0.00     0.039 A 
ATOM     41  C   UNL A   1      42.223  29.267  27.890  1.00  0.00     0.014 A 
ATOM     42  C   UNL A   1      40.126  28.772  26.742  1.00  0.00     0.014 A 
ATOM     43  C   UNL A   1      41.513  29.729  28.986  1.00  0.00     0.010 A 
ATOM     44  C   UNL A   1      39.419  29.273  27.825  1.00  0.00     0.010 A 
ATOM     45  C   UNL A   1      40.114  29.705  28.962  1.00  0.00    -0.014 A 
BRANCH  45  46
ATOM     46  C   UNL A   1      39.430  30.276  30.125  1.00  0.00     0.031 A 
ATOM     47  C   UNL A   1      39.764  29.554  31.383  1.00  0.00     0.074 A 
ATOM     48  C   UNL A   1      39.101  31.578  30.222  1.00  0.00     0.049 A 
ATOM     49  N   UNL A   1      40.858  29.788  32.045  1.00  0.00    -0.248 NA
ATOM     50  C   UNL A   1      39.072  28.329  31.773  1.00  0.00     0.031 C 
ATOM     51  C   UNL A   1      39.842  32.681  29.602  1.00  0.00     0.029 A 
ATOM     52  N   UNL A   1      38.223  32.192  31.081  1.00  0.00    -0.354 N 
ATOM     53  C   UNL A   1      41.063  28.701  32.867  1.00  0.00     0.074 A 
ATOM     54  C   UNL A   1      39.917  27.834  32.688  1.00  0.00     0.031 C 
ATOM     55  C   UNL A   1      39.535  33.821  30.256  1.00  0.00     0.029 A 
ATOM     56  C   UNL A   1      38.463  33.555  31.207  1.00  0.00     0.049 A 
ATOM     57  H   UNL A   1      37.502  31.717  31.556  1.00  0.00     0.167 HD
ATOM     58  C   UNL A   1      42.181  28.541  33.619  1.00  0.00     0.037 A 
ATOM     59  C   UNL A   1      38.182  34.278  32.324  1.00  0.00     0.037 A 
ATOM     60  C   UNL A   1      43.144  29.599  33.563  1.00  0.00     0.049 A 
ATOM     61  C   UNL A   1      39.297  33.821  33.235  1.00  0.00     0.074 A 
ATOM     62  C   UNL A   1      44.323  29.860  32.901  1.00  0.00     0.029 A 
ATOM     63  N   UNL A   1      42.896  30.732  34.299  1.00  0.00    -0.354 N 
ATOM     64  N   UNL A   1      40.534  34.247  33.219  1.00  0.00    -0.248 NA
ATOM     65  C   UNL A   1      39.098  32.574  33.978  1.00  0.00     0.031 C 
ATOM     66  C   UNL A   1      44.477  31.283  32.935  1.00  0.00     0.029 A 
ATOM     67  C   UNL A   1      43.346  31.800  33.564  1.00  0.00     0.049 A 
ATOM     68  H   UNL A   1      42.474  30.771  35.188  1.00  0.00     0.167 HD
ATOM     69  C   UNL A   1      41.299  33.182  33.706  1.00  0.00     0.074 A 
ATOM     70  C   UNL A   1      40.353  32.208  34.203  1.00  0.00     0.031 C 
ATOM     71  C   UNL A   1      42.643  33.062  33.499  1.00  0.00     0.037 A 
BRANCH  58  72
ATOM     72  C   UNL A   1      42.364  27.426  34.557  1.00  0.00     0.057 A 
ATOM     73  C   UNL A   1      41.870  27.561  35.858  1.00  0.00     0.134 A 
ATOM     74  C   UNL A   1      43.128  26.299  34.253  1.00  0.00     0.134 A 
ATOM     75  F   UNL A   1      41.128  28.631  36.188  1.00  0.00    -0.206 F 
ATOM     76  C   UNL A   1      42.155  26.623  36.845  1.00  0.00     0.040 A 
ATOM     77  C   UNL A   1      43.418  25.346  35.232  1.00  0.00     0.040 A 
ATOM     78  F   UNL A   1      43.627  26.122  33.021  1.00  0.00    -0.206 F 
ATOM     79  C   UNL A   1      42.941  25.515  36.534  1.00  0.00     0.006 A 
ENDBRANCH  58  72
BRANCH  59  80
ATOM     80  C   UNL A   1      36.731  34.264  32.702  1.00  0.00     0.057 A 
ATOM     81  C   UNL A   1      35.772  34.207  31.668  1.00  0.00     0.134 A 
ATOM     82  C   UNL A   1      36.215  34.277  34.002  1.00  0.00     0.134 A 
ATOM     83  F   UNL A   1      36.150  34.312  30.384  1.00  0.00    -0.206 F 
ATOM     84  C   UNL A   1      34.409  34.025  31.911  1.00  0.00     0.040 A 
ATOM     85  C   UNL A   1      34.853  34.072  34.264  1.00  0.00     0.040 A 
ATOM     86  F   UNL A   1      37.005  34.470  35.065  1.00  0.00    -0.206 F 
ATOM     87  C   UNL A   1      33.949  33.921  33.217  1.00  0.00     0.006 A 
ENDBRANCH  59  80
BRANCH  71  88
ATOM     88  C   UNL A   1      43.313  34.262  32.925  1.00  0.00     0.057 A 
ATOM     89  C   UNL A   1      43.381  34.435  31.539  1.00  0.00     0.134 A 
ATOM     90  C   UNL A   1      43.862  35.268  33.731  1.00  0.00     0.134 A 
ATOM     91  F   UNL A   1      42.865  33.511  30.712  1.00  0.00    -0.206 F 
ATOM     92  C   UNL A   1      43.958  35.573  30.975  1.00  0.00     0.040 A 
ATOM     93  C   UNL A   1      44.418  36.422  33.178  1.00  0.00     0.040 A 
ATOM     94  F   UNL A   1      43.854  35.163  35.070  1.00  0.00    -0.206 F 
ATOM     95  C   UNL A   1      44.468  36.577  31.795  1.00  0.00     0.006 A 
ENDBRANCH  71  88
ENDBRANCH  45  46
ENDBRANCH  37  40
ENDBRANCH  35  36
ENDBRANCH  34  35
ENDBRANCH  33  34
ENDBRANCH   1  33
TORSDOF 15
ENDMDL
MODEL 3
REMARK VINA RESULT:     -12.8      7.352     12.741
REMARK SMILES Cc1c(CCC(=O)N[C@@H](C)C(=O)NCCCCNC(=O)c2ccc(-c3c4nc(c(-c5c(F)cccc5F)c5ccc([nH]5)c(-c5c(F)cccc5F)c5nc(c(-c6c(F)cccc6F)c6ccc3[nH]6)C=C5)C=C4)cc2)c(=O)oc2cc3oc4c(c3cc12)CCCC4
REMARK SMILES IDX 14 1 13 2 11 3 12 4 9 6 10 7 8 8 6 9 7 10 5 12 4 13 3 14
REMARK SMILES IDX 1 15 2 16 86 17 75 18 78 19 85 20 76 21 77 22 79 23 84 24
REMARK SMILES IDX 80 25 83 26 81 27 82 28 87 29 90 30 88 31 89 32 15 33 16 34
REMARK SMILES IDX 17 35 18 36 19 37 20 39 21 40 22 41 74 42 23 43 73 44 24 45
REMARK SMILES IDX 25 46 26 47 67 48 27 49 72 50 66 51 68 52 28 53 71 54 65 55
REMARK SMILES IDX 64 56 29 58 55 59 38 60 54 61 39 62 42 63 53 64 69 65 40 66
REMARK SMILES IDX 41 67 52 69 70 70 43 71 30 72 31 73 36 74 32 75 33 76 35 77
REMARK SMILES IDX 37 78 34 79 56 80 57 81 62 82 58 83 59 84 61 85 63 86 60 87
REMARK SMILES IDX 44 88 45 89 50 90 46 91 47 92 49 93 51 94 48 95
REMARK H PARENT 13 5 8 11 18 38 68 57 42 68
REMARK Flexibility Score: inf
ROOT
ATOM      1  C   UNL A   1      49.253  20.408  34.023  1.00  0.00     0.116 C 
ENDROOT
BRANCH   1   2
ATOM      2  N   UNL A   1      50.276  19.589  34.658  1.00  0.00    -0.354 N 
ATOM      3  C   UNL A   1      50.963  19.641  35.835  1.00  0.00     0.242 C 
ATOM      4  O   UNL A   1      51.749  18.707  36.040  1.00  0.00    -0.273 OA
ATOM      5  H   UNL A   1      50.534  18.815  34.106  1.00  0.00     0.163 HD
BRANCH   3   6
ATOM      6  C   UNL A   1      50.844  20.774  36.884  1.00  0.00     0.168 C 
ATOM      7  C   UNL A   1      51.762  21.931  36.647  1.00  0.00     0.041 C 
BRANCH   6   8
ATOM      8  N   UNL A   1      51.090  20.353  38.266  1.00  0.00    -0.345 N 
ATOM      9  C   UNL A   1      50.106  20.016  39.169  1.00  0.00     0.220 C 
ATOM     10  O   UNL A   1      50.248  20.343  40.348  1.00  0.00    -0.275 OA
ATOM     11  H   UNL A   1      52.025  20.306  38.571  1.00  0.00     0.164 HD
BRANCH   9  12
ATOM     12  C   UNL A   1      48.893  19.207  38.704  1.00  0.00     0.105 C 
BRANCH  12  13
ATOM     13  C   UNL A   1      47.589  19.368  39.523  1.00  0.00     0.053 C 
BRANCH  13  14
ATOM     14  C   UNL A   1      46.560  18.267  39.313  1.00  0.00     0.042 A 
ATOM     15  C   UNL A   1      47.475  16.749  41.131  1.00  0.00     0.046 C 
ATOM     16  C   UNL A   1      46.461  17.180  40.104  1.00  0.00    -0.030 A 
ATOM     17  C   UNL A   1      45.141  16.537  40.144  1.00  0.00     0.022 A 
ATOM     18  C   UNL A   1      45.590  18.454  38.188  1.00  0.00     0.339 A 
ATOM     19  C   UNL A   1      44.295  16.611  39.043  1.00  0.00     0.142 A 
ATOM     20  C   UNL A   1      44.634  16.041  41.351  1.00  0.00     0.024 A 
ATOM     21  O   UNL A   1      45.653  19.429  37.448  1.00  0.00    -0.246 OA
ATOM     22  O   UNL A   1      44.659  17.438  37.965  1.00  0.00    -0.422 OA
ATOM     23  C   UNL A   1      43.048  15.967  38.989  1.00  0.00     0.095 A 
ATOM     24  C   UNL A   1      43.332  15.540  41.382  1.00  0.00     0.025 A 
ATOM     25  C   UNL A   1      42.644  15.376  40.184  1.00  0.00     0.138 A 
ATOM     26  C   UNL A   1      42.507  15.018  42.393  1.00  0.00     0.001 A 
ATOM     27  O   UNL A   1      41.611  14.490  40.382  1.00  0.00    -0.461 OA
ATOM     28  C   UNL A   1      41.673  14.171  41.702  1.00  0.00     0.108 A 
ATOM     29  C   UNL A   1      42.730  14.825  43.840  1.00  0.00     0.040 C 
ATOM     30  C   UNL A   1      41.374  12.803  42.210  1.00  0.00     0.076 C 
ATOM     31  C   UNL A   1      43.145  13.368  44.087  1.00  0.00     0.005 C 
ATOM     32  C   UNL A   1      42.652  12.363  43.000  1.00  0.00     0.008 C 
ENDBRANCH  13  14
ENDBRANCH  12  13
ENDBRANCH   9  12
ENDBRANCH   6   8
ENDBRANCH   3   6
ENDBRANCH   1   2
BRANCH   1  33
ATOM     33  C   UNL A   1      48.023  19.600  33.620  1.00  0.00     0.023 C 
BRANCH  33  34
ATOM     34  C   UNL A   1      46.789  20.033  34.395  1.00  0.00     0.023 C 
BRANCH  34  35
ATOM     35  C   UNL A   1      46.851  21.515  34.802  1.00  0.00     0.116 C 
BRANCH  35  36
ATOM     36  N   UNL A   1      45.647  22.013  35.447  1.00  0.00    -0.352 N 
ATOM     37  C   UNL A   1      44.772  22.984  34.996  1.00  0.00     0.251 C 
ATOM     38  H   UNL A   1      45.426  21.608  36.316  1.00  0.00     0.163 HD
ATOM     39  O   UNL A   1      43.776  23.286  35.608  1.00  0.00    -0.269 OA
BRANCH  37  40
ATOM     40  C   UNL A   1      45.169  23.703  33.771  1.00  0.00     0.039 A 
ATOM     41  C   UNL A   1      46.141  24.703  33.839  1.00  0.00     0.014 A 
ATOM     42  C   UNL A   1      44.386  23.513  32.630  1.00  0.00     0.014 A 
ATOM     43  C   UNL A   1      46.223  25.626  32.809  1.00  0.00     0.010 A 
ATOM     44  C   UNL A   1      44.500  24.416  31.583  1.00  0.00     0.010 A 
ATOM     45  C   UNL A   1      45.383  25.497  31.696  1.00  0.00    -0.014 A 
BRANCH  45  46
ATOM     46  C   UNL A   1      45.576  26.465  30.615  1.00  0.00     0.031 A 
ATOM     47  C   UNL A   1      45.489  25.831  29.272  1.00  0.00     0.074 A 
ATOM     48  C   UNL A   1      45.230  27.763  30.716  1.00  0.00     0.049 A 
ATOM     49  N   UNL A   1      44.350  25.579  28.698  1.00  0.00    -0.248 NA
ATOM     50  C   UNL A   1      46.635  25.160  28.663  1.00  0.00     0.031 C 
ATOM     51  C   UNL A   1      44.125  28.277  31.533  1.00  0.00     0.029 A 
ATOM     52  N   UNL A   1      45.605  28.827  29.933  1.00  0.00    -0.354 N 
ATOM     53  C   UNL A   1      44.600  24.639  27.721  1.00  0.00     0.074 A 
ATOM     54  C   UNL A   1      46.032  24.430  27.714  1.00  0.00     0.031 C 
ATOM     55  C   UNL A   1      43.775  29.491  31.059  1.00  0.00     0.029 A 
ATOM     56  C   UNL A   1      44.731  29.902  30.038  1.00  0.00     0.049 A 
ATOM     57  H   UNL A   1      46.407  28.828  29.362  1.00  0.00     0.167 HD
ATOM     58  C   UNL A   1      43.619  24.046  26.996  1.00  0.00     0.037 A 
ATOM     59  C   UNL A   1      44.504  30.799  29.042  1.00  0.00     0.037 A 
ATOM     60  C   UNL A   1      42.280  24.481  27.258  1.00  0.00     0.049 A 
ATOM     61  C   UNL A   1      43.650  29.970  28.112  1.00  0.00     0.074 A 
ATOM     62  C   UNL A   1      41.202  24.049  27.998  1.00  0.00     0.029 A 
ATOM     63  N   UNL A   1      41.872  25.671  26.705  1.00  0.00    -0.354 N 
ATOM     64  N   UNL A   1      42.370  29.731  28.244  1.00  0.00    -0.248 NA
ATOM     65  C   UNL A   1      44.336  29.081  27.171  1.00  0.00     0.031 C 
ATOM     66  C   UNL A   1      40.384  25.206  28.199  1.00  0.00     0.029 A 
ATOM     67  C   UNL A   1      41.052  26.283  27.618  1.00  0.00     0.049 A 
ATOM     68  H   UNL A   1      42.122  26.019  25.817  1.00  0.00     0.167 HD
ATOM     69  C   UNL A   1      42.158  28.495  27.622  1.00  0.00     0.074 A 
ATOM     70  C   UNL A   1      43.393  28.179  26.939  1.00  0.00     0.031 C 
ATOM     71  C   UNL A   1      41.068  27.709  27.858  1.00  0.00     0.037 A 
BRANCH  58  72
ATOM     72  C   UNL A   1      43.888  23.107  25.899  1.00  0.00     0.057 A 
ATOM     73  C   UNL A   1      43.635  21.748  26.109  1.00  0.00     0.134 A 
ATOM     74  C   UNL A   1      44.515  23.488  24.712  1.00  0.00     0.134 A 
ATOM     75  F   UNL A   1      43.031  21.343  27.238  1.00  0.00    -0.206 F 
ATOM     76  C   UNL A   1      44.024  20.785  25.184  1.00  0.00     0.040 A 
ATOM     77  C   UNL A   1      44.906  22.532  23.772  1.00  0.00     0.040 A 
ATOM     78  F   UNL A   1      44.782  24.778  24.463  1.00  0.00    -0.206 F 
ATOM     79  C   UNL A   1      44.671  21.177  24.014  1.00  0.00     0.006 A 
ENDBRANCH  58  72
BRANCH  59  80
ATOM     80  C   UNL A   1      45.733  31.544  28.611  1.00  0.00     0.057 A 
ATOM     81  C   UNL A   1      46.692  31.875  29.592  1.00  0.00     0.134 A 
ATOM     82  C   UNL A   1      46.050  31.932  27.304  1.00  0.00     0.134 A 
ATOM     83  F   UNL A   1      46.436  31.659  30.893  1.00  0.00    -0.206 F 
ATOM     84  C   UNL A   1      47.939  32.418  29.277  1.00  0.00     0.040 A 
ATOM     85  C   UNL A   1      47.305  32.456  26.968  1.00  0.00     0.040 A 
ATOM     86  F   UNL A   1      45.168  31.805  26.306  1.00  0.00    -0.206 F 
ATOM     87  C   UNL A   1      48.263  32.678  27.953  1.00  0.00     0.006 A 
ENDBRANCH  59  80
BRANCH  71  88
ATOM     88  C   UNL A   1      39.975  28.348  28.643  1.00  0.00     0.057 A 
ATOM     89  C   UNL A   1      39.010  29.128  28.000  1.00  0.00     0.134 A 
ATOM     90  C   UNL A   1      39.848  28.171  30.027  1.00  0.00     0.134 A 
ATOM     91  F   UNL A   1      39.070  29.329  26.673  1.00  0.00    -0.206 F 
ATOM     92  C   UNL A   1      37.947  29.698  28.702  1.00  0.00     0.040 A 
ATOM     93  C   UNL A   1      38.776  28.715  30.736  1.00  0.00     0.040 A 
ATOM     94  F   UNL A   1      40.749  27.453  30.719  1.00  0.00    -0.206 F 
ATOM     95  C   UNL A   1      37.821  29.481  30.073  1.00  0.00     0.006 A 
ENDBRANCH  71  88
ENDBRANCH  45  46
ENDBRANCH  37  40
ENDBRANCH  35  36
ENDBRANCH  34  35
ENDBRANCH  33  34
ENDBRANCH   1  33
TORSDOF 15
ENDMDL
