MODEL 1
REMARK VINA RESULT:     -10.6      0.000      0.000
REMARK SMILES CCC[C@H](C)N(C)S(=O)(=O)c1ccc(CC(=O)NCCCCNC(=O)c2ccc(-c3c4nc(c(-c5c(F)cccc5F)c5ccc([nH]5)c(-c5c(F)cccc5F)c5nc(c(-c6c(F)cccc6F)c6ccc3[nH]6)C=C5)C=C4)cc2)s1
REMARK SMILES IDX 16 1 17 2 18 3 15 5 14 6 11 7 12 8 80 9 13 10 8 11 9 12
REMARK SMILES IDX 10 13 6 14 7 15 4 16 5 17 3 18 2 19 1 20 19 21 20 22 21 23
REMARK SMILES IDX 22 24 23 25 24 26 25 28 26 29 27 30 79 31 28 32 78 33 29 34
REMARK SMILES IDX 30 35 31 36 72 37 32 38 77 39 71 40 73 41 33 42 76 43 70 44
REMARK SMILES IDX 69 45 34 47 60 48 43 49 59 50 44 51 47 52 58 53 74 54 45 55
REMARK SMILES IDX 46 56 57 58 75 59 48 60 35 61 36 62 41 63 37 64 38 65 40 66
REMARK SMILES IDX 42 67 39 68 61 69 62 70 67 71 63 72 64 73 66 74 68 75 65 76
REMARK SMILES IDX 49 77 50 78 55 79 51 80 52 81 54 82 56 83 53 84
REMARK H PARENT 18 4 23 27 73 46 47 57
REMARK Flexibility Score: inf
ROOT
ATOM      1  C   UNL A   1      33.907  21.868  26.451  1.00  0.00     0.225 C 
ATOM      2  O   UNL A   1      33.248  22.045  27.478  1.00  0.00    -0.275 OA
ATOM      3  N   UNL A   1      35.268  21.897  26.556  1.00  0.00    -0.356 N 
ATOM      4  H   UNL A   1      35.618  21.998  27.471  1.00  0.00     0.163 HD
ENDROOT
BRANCH   1   5
ATOM      5  C   UNL A   1      33.238  21.517  25.136  1.00  0.00     0.146 C 
BRANCH   5   6
ATOM      6  C   UNL A   1      32.673  22.695  24.394  1.00  0.00     0.015 A 
ATOM      7  C   UNL A   1      32.352  24.800  23.126  1.00  0.00     0.135 A 
ATOM      8  C   UNL A   1      31.164  24.291  23.618  1.00  0.00     0.034 A 
ATOM      9  S   UNL A   1      33.676  23.803  23.553  1.00  0.00    -0.127 S 
ATOM     10  C   UNL A   1      31.347  23.083  24.343  1.00  0.00     0.017 A 
BRANCH   7  11
ATOM     11  S   UNL A   1      32.683  26.310  22.223  1.00  0.00     0.252 S 
ATOM     12  O   UNL A   1      31.402  26.887  21.889  1.00  0.00    -0.206 OA
ATOM     13  O   UNL A   1      33.615  25.884  21.195  1.00  0.00    -0.206 OA
BRANCH  11  14
ATOM     14  N   UNL A   1      33.523  27.400  23.237  1.00  0.00    -0.197 NA
ATOM     15  C   UNL A   1      34.009  28.634  22.579  1.00  0.00     0.124 C 
BRANCH  14  16
ATOM     16  C   UNL A   1      32.970  27.695  24.606  1.00  0.00     0.070 C 
ATOM     17  C   UNL A   1      33.693  27.050  25.788  1.00  0.00     0.026 C 
BRANCH  16  18
ATOM     18  C   UNL A   1      32.840  29.221  24.798  1.00  0.00     0.020 C 
BRANCH  18  19
ATOM     19  C   UNL A   1      31.866  29.692  25.885  1.00  0.00    -0.002 C 
ATOM     20  C   UNL A   1      32.556  30.106  27.180  1.00  0.00     0.004 C 
ENDBRANCH  18  19
ENDBRANCH  16  18
ENDBRANCH  14  16
ENDBRANCH  11  14
ENDBRANCH   7  11
ENDBRANCH   5   6
ENDBRANCH   1   5
BRANCH   3  21
ATOM     21  C   UNL A   1      36.270  21.800  25.515  1.00  0.00     0.116 C 
BRANCH  21  22
ATOM     22  C   UNL A   1      36.450  20.355  25.049  1.00  0.00     0.023 C 
BRANCH  22  23
ATOM     23  C   UNL A   1      37.889  19.982  24.675  1.00  0.00     0.023 C 
BRANCH  23  24
ATOM     24  C   UNL A   1      38.937  20.284  25.741  1.00  0.00     0.116 C 
BRANCH  24  25
ATOM     25  N   UNL A   1      40.028  19.323  25.756  1.00  0.00    -0.352 N 
ATOM     26  C   UNL A   1      41.344  19.518  26.098  1.00  0.00     0.251 C 
ATOM     27  H   UNL A   1      39.791  18.407  25.485  1.00  0.00     0.163 HD
ATOM     28  O   UNL A   1      42.160  18.616  25.940  1.00  0.00    -0.269 OA
BRANCH  26  29
ATOM     29  C   UNL A   1      41.782  20.829  26.622  1.00  0.00     0.039 A 
ATOM     30  C   UNL A   1      42.255  21.787  25.720  1.00  0.00     0.014 A 
ATOM     31  C   UNL A   1      41.720  21.117  27.987  1.00  0.00     0.014 A 
ATOM     32  C   UNL A   1      42.602  23.059  26.181  1.00  0.00     0.010 A 
ATOM     33  C   UNL A   1      42.008  22.403  28.436  1.00  0.00     0.010 A 
ATOM     34  C   UNL A   1      42.448  23.385  27.538  1.00  0.00    -0.014 A 
BRANCH  34  35
ATOM     35  C   UNL A   1      42.735  24.753  28.035  1.00  0.00     0.031 A 
ATOM     36  C   UNL A   1      44.137  25.145  28.407  1.00  0.00     0.074 A 
ATOM     37  C   UNL A   1      41.722  25.620  28.219  1.00  0.00     0.049 A 
ATOM     38  N   UNL A   1      44.573  26.268  28.918  1.00  0.00    -0.248 NA
ATOM     39  C   UNL A   1      45.180  24.130  28.201  1.00  0.00     0.031 C 
ATOM     40  C   UNL A   1      40.312  25.346  27.936  1.00  0.00     0.029 A 
ATOM     41  N   UNL A   1      41.723  26.905  28.696  1.00  0.00    -0.354 N 
ATOM     42  C   UNL A   1      45.936  26.088  29.113  1.00  0.00     0.074 A 
ATOM     43  C   UNL A   1      46.246  24.735  28.707  1.00  0.00     0.031 C 
ATOM     44  C   UNL A   1      39.589  26.442  28.216  1.00  0.00     0.029 A 
ATOM     45  C   UNL A   1      40.477  27.480  28.729  1.00  0.00     0.049 A 
ATOM     46  H   UNL A   1      42.540  27.373  28.986  1.00  0.00     0.167 HD
ATOM     47  C   UNL A   1      46.851  26.978  29.568  1.00  0.00     0.037 A 
ATOM     48  C   UNL A   1      40.094  28.707  29.129  1.00  0.00     0.037 A 
ATOM     49  C   UNL A   1      46.547  28.332  29.947  1.00  0.00     0.049 A 
ATOM     50  C   UNL A   1      41.124  29.673  29.639  1.00  0.00     0.074 A 
ATOM     51  C   UNL A   1      47.415  29.331  30.354  1.00  0.00     0.029 A 
ATOM     52  N   UNL A   1      45.273  28.878  29.968  1.00  0.00    -0.354 N 
ATOM     53  N   UNL A   1      42.420  29.514  29.757  1.00  0.00    -0.248 NA
ATOM     54  C   UNL A   1      40.638  30.992  30.069  1.00  0.00     0.031 C 
ATOM     55  C   UNL A   1      46.661  30.471  30.654  1.00  0.00     0.029 A 
ATOM     56  C   UNL A   1      45.327  30.193  30.400  1.00  0.00     0.049 A 
ATOM     57  H   UNL A   1      44.449  28.400  29.713  1.00  0.00     0.167 HD
ATOM     58  C   UNL A   1      42.908  30.716  30.250  1.00  0.00     0.074 A 
ATOM     59  C   UNL A   1      41.768  31.599  30.403  1.00  0.00     0.031 C 
ATOM     60  C   UNL A   1      44.184  31.058  30.547  1.00  0.00     0.037 A 
BRANCH  47  61
ATOM     61  C   UNL A   1      48.268  26.500  29.682  1.00  0.00     0.057 A 
ATOM     62  C   UNL A   1      49.187  26.657  28.635  1.00  0.00     0.134 A 
ATOM     63  C   UNL A   1      48.719  25.870  30.849  1.00  0.00     0.134 A 
ATOM     64  F   UNL A   1      48.813  27.237  27.486  1.00  0.00    -0.206 F 
ATOM     65  C   UNL A   1      50.493  26.175  28.733  1.00  0.00     0.040 A 
ATOM     66  C   UNL A   1      50.031  25.408  30.968  1.00  0.00     0.040 A 
ATOM     67  F   UNL A   1      47.892  25.692  31.890  1.00  0.00    -0.206 F 
ATOM     68  C   UNL A   1      50.919  25.551  29.903  1.00  0.00     0.006 A 
ENDBRANCH  47  61
BRANCH  48  69
ATOM     69  C   UNL A   1      38.670  29.105  29.017  1.00  0.00     0.057 A 
ATOM     70  C   UNL A   1      38.151  29.561  27.801  1.00  0.00     0.134 A 
ATOM     71  C   UNL A   1      37.795  29.023  30.106  1.00  0.00     0.134 A 
ATOM     72  F   UNL A   1      38.949  29.676  26.728  1.00  0.00    -0.206 F 
ATOM     73  C   UNL A   1      36.812  29.928  27.670  1.00  0.00     0.040 A 
ATOM     74  C   UNL A   1      36.448  29.370  29.985  1.00  0.00     0.040 A 
ATOM     75  F   UNL A   1      38.234  28.588  31.296  1.00  0.00    -0.206 F 
ATOM     76  C   UNL A   1      35.955  29.828  28.764  1.00  0.00     0.006 A 
ENDBRANCH  48  69
BRANCH  60  77
ATOM     77  C   UNL A   1      44.420  32.456  31.036  1.00  0.00     0.057 A 
ATOM     78  C   UNL A   1      44.707  33.507  30.156  1.00  0.00     0.134 A 
ATOM     79  C   UNL A   1      44.327  32.759  32.400  1.00  0.00     0.134 A 
ATOM     80  F   UNL A   1      44.824  33.277  28.839  1.00  0.00    -0.206 F 
ATOM     81  C   UNL A   1      44.910  34.808  30.618  1.00  0.00     0.040 A 
ATOM     82  C   UNL A   1      44.507  34.059  32.872  1.00  0.00     0.040 A 
ATOM     83  F   UNL A   1      44.050  31.798  33.294  1.00  0.00    -0.206 F 
ATOM     84  C   UNL A   1      44.804  35.088  31.979  1.00  0.00     0.006 A 
ENDBRANCH  60  77
ENDBRANCH  34  35
ENDBRANCH  26  29
ENDBRANCH  24  25
ENDBRANCH  23  24
ENDBRANCH  22  23
ENDBRANCH  21  22
ENDBRANCH   3  21
TORSDOF 17
ENDMDL
MODEL 2
REMARK VINA RESULT:     -10.5      4.271      9.312
REMARK SMILES CCC[C@H](C)N(C)S(=O)(=O)c1ccc(CC(=O)NCCCCNC(=O)c2ccc(-c3c4nc(c(-c5c(F)cccc5F)c5ccc([nH]5)c(-c5c(F)cccc5F)c5nc(c(-c6c(F)cccc6F)c6ccc3[nH]6)C=C5)C=C4)cc2)s1
REMARK SMILES IDX 16 1 17 2 18 3 15 5 14 6 11 7 12 8 80 9 13 10 8 11 9 12
REMARK SMILES IDX 10 13 6 14 7 15 4 16 5 17 3 18 2 19 1 20 19 21 20 22 21 23
REMARK SMILES IDX 22 24 23 25 24 26 25 28 26 29 27 30 79 31 28 32 78 33 29 34
REMARK SMILES IDX 30 35 31 36 72 37 32 38 77 39 71 40 73 41 33 42 76 43 70 44
REMARK SMILES IDX 69 45 34 47 60 48 43 49 59 50 44 51 47 52 58 53 74 54 45 55
REMARK SMILES IDX 46 56 57 58 75 59 48 60 35 61 36 62 41 63 37 64 38 65 40 66
REMARK SMILES IDX 42 67 39 68 61 69 62 70 67 71 63 72 64 73 66 74 68 75 65 76
REMARK SMILES IDX 49 77 50 78 55 79 51 80 52 81 54 82 56 83 53 84
REMARK H PARENT 18 4 23 27 73 46 47 57
REMARK Flexibility Score: inf
ROOT
ATOM      1  C   UNL A   1      31.760  28.470  23.175  1.00  0.00     0.225 C 
ATOM      2  O   UNL A   1      32.694  28.202  22.414  1.00  0.00    -0.275 OA
ATOM      3  N   UNL A   1      31.889  29.566  23.979  1.00  0.00    -0.356 N 
ATOM      4  H   UNL A   1      32.706  30.098  23.838  1.00  0.00     0.163 HD
ENDROOT
BRANCH   1   5
ATOM      5  C   UNL A   1      30.466  27.680  23.143  1.00  0.00     0.146 C 
BRANCH   5   6
ATOM      6  C   UNL A   1      30.599  26.253  23.595  1.00  0.00     0.015 A 
ATOM      7  C   UNL A   1      30.886  24.173  24.910  1.00  0.00     0.135 A 
ATOM      8  C   UNL A   1      30.958  23.952  23.547  1.00  0.00     0.034 A 
ATOM      9  S   UNL A   1      30.618  25.827  25.257  1.00  0.00    -0.127 S 
ATOM     10  C   UNL A   1      30.791  25.144  22.793  1.00  0.00     0.017 A 
BRANCH   7  11
ATOM     11  S   UNL A   1      31.099  23.042  26.282  1.00  0.00     0.252 S 
ATOM     12  O   UNL A   1      29.914  22.217  26.332  1.00  0.00    -0.206 OA
ATOM     13  O   UNL A   1      31.460  23.918  27.380  1.00  0.00    -0.206 OA
BRANCH  11  14
ATOM     14  N   UNL A   1      32.449  22.038  25.980  1.00  0.00    -0.197 NA
ATOM     15  C   UNL A   1      32.210  20.917  25.043  1.00  0.00     0.124 C 
BRANCH  14  16
ATOM     16  C   UNL A   1      33.791  22.676  25.735  1.00  0.00     0.070 C 
ATOM     17  C   UNL A   1      34.779  22.657  26.901  1.00  0.00     0.026 C 
BRANCH  16  18
ATOM     18  C   UNL A   1      34.424  22.084  24.458  1.00  0.00     0.020 C 
BRANCH  18  19
ATOM     19  C   UNL A   1      35.955  22.004  24.429  1.00  0.00    -0.002 C 
ATOM     20  C   UNL A   1      36.582  22.792  23.284  1.00  0.00     0.004 C 
ENDBRANCH  18  19
ENDBRANCH  16  18
ENDBRANCH  14  16
ENDBRANCH  11  14
ENDBRANCH   7  11
ENDBRANCH   5   6
ENDBRANCH   1   5
BRANCH   3  21
ATOM     21  C   UNL A   1      30.997  30.059  25.006  1.00  0.00     0.116 C 
BRANCH  21  22
ATOM     22  C   UNL A   1      31.771  30.520  26.242  1.00  0.00     0.023 C 
BRANCH  22  23
ATOM     23  C   UNL A   1      31.492  31.968  26.663  1.00  0.00     0.023 C 
BRANCH  23  24
ATOM     24  C   UNL A   1      32.673  32.700  27.291  1.00  0.00     0.116 C 
BRANCH  24  25
ATOM     25  N   UNL A   1      32.375  34.086  27.620  1.00  0.00    -0.352 N 
ATOM     26  C   UNL A   1      32.987  34.905  28.537  1.00  0.00     0.251 C 
ATOM     27  H   UNL A   1      31.634  34.491  27.115  1.00  0.00     0.163 HD
ATOM     28  O   UNL A   1      32.527  36.018  28.769  1.00  0.00    -0.269 OA
BRANCH  26  29
ATOM     29  C   UNL A   1      34.178  34.427  29.271  1.00  0.00     0.039 A 
ATOM     30  C   UNL A   1      33.996  33.793  30.504  1.00  0.00     0.014 A 
ATOM     31  C   UNL A   1      35.462  34.594  28.748  1.00  0.00     0.014 A 
ATOM     32  C   UNL A   1      35.098  33.266  31.180  1.00  0.00     0.010 A 
ATOM     33  C   UNL A   1      36.552  34.015  29.392  1.00  0.00     0.010 A 
ATOM     34  C   UNL A   1      36.380  33.344  30.611  1.00  0.00    -0.014 A 
BRANCH  34  35
ATOM     35  C   UNL A   1      37.552  32.722  31.274  1.00  0.00     0.031 A 
ATOM     36  C   UNL A   1      38.229  31.532  30.654  1.00  0.00     0.074 A 
ATOM     37  C   UNL A   1      37.963  33.183  32.470  1.00  0.00     0.049 A 
ATOM     38  N   UNL A   1      39.223  30.815  31.112  1.00  0.00    -0.248 NA
ATOM     39  C   UNL A   1      37.701  31.076  29.360  1.00  0.00     0.031 C 
ATOM     40  C   UNL A   1      37.363  34.304  33.196  1.00  0.00     0.029 A 
ATOM     41  N   UNL A   1      38.978  32.760  33.288  1.00  0.00    -0.354 N 
ATOM     42  C   UNL A   1      39.426  29.812  30.175  1.00  0.00     0.074 A 
ATOM     43  C   UNL A   1      38.425  29.986  29.145  1.00  0.00     0.031 C 
ATOM     44  C   UNL A   1      38.042  34.498  34.339  1.00  0.00     0.029 A 
ATOM     45  C   UNL A   1      39.099  33.497  34.440  1.00  0.00     0.049 A 
ATOM     46  H   UNL A   1      39.566  32.001  33.070  1.00  0.00     0.167 HD
ATOM     47  C   UNL A   1      40.375  28.845  30.161  1.00  0.00     0.037 A 
ATOM     48  C   UNL A   1      39.965  33.379  35.463  1.00  0.00     0.037 A 
ATOM     49  C   UNL A   1      41.387  28.688  31.171  1.00  0.00     0.049 A 
ATOM     50  C   UNL A   1      41.002  32.294  35.432  1.00  0.00     0.074 A 
ATOM     51  C   UNL A   1      42.435  27.783  31.212  1.00  0.00     0.029 A 
ATOM     52  N   UNL A   1      41.477  29.453  32.324  1.00  0.00    -0.354 N 
ATOM     53  N   UNL A   1      41.226  31.391  34.508  1.00  0.00    -0.248 NA
ATOM     54  C   UNL A   1      41.910  32.213  36.585  1.00  0.00     0.031 C 
ATOM     55  C   UNL A   1      43.137  27.980  32.407  1.00  0.00     0.029 A 
ATOM     56  C   UNL A   1      42.548  29.030  33.093  1.00  0.00     0.049 A 
ATOM     57  H   UNL A   1      40.867  30.190  32.561  1.00  0.00     0.167 HD
ATOM     58  C   UNL A   1      42.312  30.651  34.954  1.00  0.00     0.074 A 
ATOM     59  C   UNL A   1      42.708  31.216  36.230  1.00  0.00     0.031 C 
ATOM     60  C   UNL A   1      42.929  29.602  34.359  1.00  0.00     0.037 A 
BRANCH  47  61
ATOM     61  C   UNL A   1      40.350  27.882  29.012  1.00  0.00     0.057 A 
ATOM     62  C   UNL A   1      39.579  26.712  29.044  1.00  0.00     0.134 A 
ATOM     63  C   UNL A   1      41.110  28.123  27.860  1.00  0.00     0.134 A 
ATOM     64  F   UNL A   1      38.842  26.415  30.125  1.00  0.00    -0.206 F 
ATOM     65  C   UNL A   1      39.590  25.801  27.988  1.00  0.00     0.040 A 
ATOM     66  C   UNL A   1      41.109  27.231  26.786  1.00  0.00     0.040 A 
ATOM     67  F   UNL A   1      41.867  29.226  27.761  1.00  0.00    -0.206 F 
ATOM     68  C   UNL A   1      40.355  26.061  26.852  1.00  0.00     0.006 A 
ENDBRANCH  47  61
BRANCH  48  69
ATOM     69  C   UNL A   1      39.915  34.348  36.585  1.00  0.00     0.057 A 
ATOM     70  C   UNL A   1      40.559  35.586  36.486  1.00  0.00     0.134 A 
ATOM     71  C   UNL A   1      39.213  34.074  37.763  1.00  0.00     0.134 A 
ATOM     72  F   UNL A   1      41.260  35.895  35.384  1.00  0.00    -0.206 F 
ATOM     73  C   UNL A   1      40.514  36.517  37.523  1.00  0.00     0.040 A 
ATOM     74  C   UNL A   1      39.145  35.004  38.803  1.00  0.00     0.040 A 
ATOM     75  F   UNL A   1      38.572  32.906  37.914  1.00  0.00    -0.206 F 
ATOM     76  C   UNL A   1      39.800  36.229  38.684  1.00  0.00     0.006 A 
ENDBRANCH  48  69
BRANCH  60  77
ATOM     77  C   UNL A   1      44.114  29.016  35.067  1.00  0.00     0.057 A 
ATOM     78  C   UNL A   1      45.413  29.490  34.844  1.00  0.00     0.134 A 
ATOM     79  C   UNL A   1      43.950  27.989  36.004  1.00  0.00     0.134 A 
ATOM     80  F   UNL A   1      45.637  30.463  33.948  1.00  0.00    -0.206 F 
ATOM     81  C   UNL A   1      46.510  28.950  35.518  1.00  0.00     0.040 A 
ATOM     82  C   UNL A   1      45.035  27.456  36.699  1.00  0.00     0.040 A 
ATOM     83  F   UNL A   1      42.730  27.494  36.265  1.00  0.00    -0.206 F 
ATOM     84  C   UNL A   1      46.322  27.934  36.453  1.00  0.00     0.006 A 
ENDBRANCH  60  77
ENDBRANCH  34  35
ENDBRANCH  26  29
ENDBRANCH  24  25
ENDBRANCH  23  24
ENDBRANCH  22  23
ENDBRANCH  21  22
ENDBRANCH   3  21
TORSDOF 17
ENDMDL
MODEL 3
REMARK VINA RESULT:     -10.5      4.073      9.601
REMARK SMILES CCC[C@H](C)N(C)S(=O)(=O)c1ccc(CC(=O)NCCCCNC(=O)c2ccc(-c3c4nc(c(-c5c(F)cccc5F)c5ccc([nH]5)c(-c5c(F)cccc5F)c5nc(c(-c6c(F)cccc6F)c6ccc3[nH]6)C=C5)C=C4)cc2)s1
REMARK SMILES IDX 16 1 17 2 18 3 15 5 14 6 11 7 12 8 80 9 13 10 8 11 9 12
REMARK SMILES IDX 10 13 6 14 7 15 4 16 5 17 3 18 2 19 1 20 19 21 20 22 21 23
REMARK SMILES IDX 22 24 23 25 24 26 25 28 26 29 27 30 79 31 28 32 78 33 29 34
REMARK SMILES IDX 30 35 31 36 72 37 32 38 77 39 71 40 73 41 33 42 76 43 70 44
REMARK SMILES IDX 69 45 34 47 60 48 43 49 59 50 44 51 47 52 58 53 74 54 45 55
REMARK SMILES IDX 46 56 57 58 75 59 48 60 35 61 36 62 41 63 37 64 38 65 40 66
REMARK SMILES IDX 42 67 39 68 61 69 62 70 67 71 63 72 64 73 66 74 68 75 65 76
REMARK SMILES IDX 49 77 50 78 55 79 51 80 52 81 54 82 56 83 53 84
REMARK H PARENT 18 4 23 27 73 46 47 57
REMARK Flexibility Score: inf
ROOT
ATOM      1  C   UNL A   1      31.567  28.450  23.323  1.00  0.00     0.225 C 
ATOM      2  O   UNL A   1      32.485  28.053  22.602  1.00  0.00    -0.275 OA
ATOM      3  N   UNL A   1      31.707  29.671  23.917  1.00  0.00    -0.356 N 
ATOM      4  H   UNL A   1      32.519  30.170  23.667  1.00  0.00     0.163 HD
ENDROOT
BRANCH   1   5
ATOM      5  C   UNL A   1      30.275  27.666  23.458  1.00  0.00     0.146 C 
BRANCH   5   6
ATOM      6  C   UNL A   1      30.463  26.223  23.833  1.00  0.00     0.015 A 
ATOM      7  C   UNL A   1      30.886  24.092  25.024  1.00  0.00     0.135 A 
ATOM      8  C   UNL A   1      30.840  23.932  23.652  1.00  0.00     0.034 A 
ATOM      9  S   UNL A   1      30.633  25.725  25.466  1.00  0.00    -0.127 S 
ATOM     10  C   UNL A   1      30.594  25.152  22.969  1.00  0.00     0.017 A 
BRANCH   7  11
ATOM     11  S   UNL A   1      31.231  22.906  26.321  1.00  0.00     0.252 S 
ATOM     12  O   UNL A   1      31.047  21.594  25.747  1.00  0.00    -0.206 OA
ATOM     13  O   UNL A   1      30.413  23.374  27.424  1.00  0.00    -0.206 OA
BRANCH  11  14
ATOM     14  N   UNL A   1      32.862  23.063  26.808  1.00  0.00    -0.197 NA
ATOM     15  C   UNL A   1      33.267  22.218  27.954  1.00  0.00     0.124 C 
BRANCH  14  16
ATOM     16  C   UNL A   1      33.937  23.102  25.754  1.00  0.00     0.070 C 
ATOM     17  C   UNL A   1      34.572  24.464  25.475  1.00  0.00     0.026 C 
BRANCH  16  18
ATOM     18  C   UNL A   1      35.012  22.039  26.066  1.00  0.00     0.020 C 
BRANCH  18  19
ATOM     19  C   UNL A   1      35.219  20.946  25.010  1.00  0.00    -0.002 C 
ATOM     20  C   UNL A   1      34.080  19.934  24.954  1.00  0.00     0.004 C 
ENDBRANCH  18  19
ENDBRANCH  16  18
ENDBRANCH  14  16
ENDBRANCH  11  14
ENDBRANCH   7  11
ENDBRANCH   5   6
ENDBRANCH   1   5
BRANCH   3  21
ATOM     21  C   UNL A   1      30.834  30.338  24.860  1.00  0.00     0.116 C 
BRANCH  21  22
ATOM     22  C   UNL A   1      31.593  30.762  26.118  1.00  0.00     0.023 C 
BRANCH  22  23
ATOM     23  C   UNL A   1      31.407  32.233  26.507  1.00  0.00     0.023 C 
BRANCH  23  24
ATOM     24  C   UNL A   1      32.599  32.875  27.208  1.00  0.00     0.116 C 
BRANCH  24  25
ATOM     25  N   UNL A   1      32.327  34.225  27.676  1.00  0.00    -0.352 N 
ATOM     26  C   UNL A   1      32.968  34.943  28.656  1.00  0.00     0.251 C 
ATOM     27  H   UNL A   1      31.581  34.686  27.230  1.00  0.00     0.163 HD
ATOM     28  O   UNL A   1      32.527  36.033  29.006  1.00  0.00    -0.269 OA
BRANCH  26  29
ATOM     29  C   UNL A   1      34.166  34.382  29.314  1.00  0.00     0.039 A 
ATOM     30  C   UNL A   1      34.018  33.747  30.550  1.00  0.00     0.014 A 
ATOM     31  C   UNL A   1      35.426  34.475  28.717  1.00  0.00     0.014 A 
ATOM     32  C   UNL A   1      35.122  33.143  31.155  1.00  0.00     0.010 A 
ATOM     33  C   UNL A   1      36.513  33.821  29.290  1.00  0.00     0.010 A 
ATOM     34  C   UNL A   1      36.370  33.147  30.512  1.00  0.00    -0.014 A 
BRANCH  34  35
ATOM     35  C   UNL A   1      37.537  32.445  31.098  1.00  0.00     0.031 A 
ATOM     36  C   UNL A   1      38.154  32.936  32.377  1.00  0.00     0.074 A 
ATOM     37  C   UNL A   1      38.087  31.406  30.442  1.00  0.00     0.049 A 
ATOM     38  N   UNL A   1      39.212  32.495  33.008  1.00  0.00    -0.248 NA
ATOM     39  C   UNL A   1      37.508  34.092  33.016  1.00  0.00     0.031 C 
ATOM     40  C   UNL A   1      37.609  30.859  29.170  1.00  0.00     0.029 A 
ATOM     41  N   UNL A   1      39.174  30.629  30.750  1.00  0.00    -0.354 N 
ATOM     42  C   UNL A   1      39.371  33.330  34.105  1.00  0.00     0.074 A 
ATOM     43  C   UNL A   1      38.329  34.330  34.030  1.00  0.00     0.031 C 
ATOM     44  C   UNL A   1      38.381  29.817  28.823  1.00  0.00     0.029 A 
ATOM     45  C   UNL A   1      39.426  29.644  29.828  1.00  0.00     0.049 A 
ATOM     46  H   UNL A   1      39.722  30.765  31.557  1.00  0.00     0.167 HD
ATOM     47  C   UNL A   1      40.290  33.258  35.098  1.00  0.00     0.037 A 
ATOM     48  C   UNL A   1      40.391  28.707  29.795  1.00  0.00     0.037 A 
ATOM     49  C   UNL A   1      41.311  32.247  35.187  1.00  0.00     0.049 A 
ATOM     50  C   UNL A   1      41.404  28.651  30.902  1.00  0.00     0.074 A 
ATOM     51  C   UNL A   1      42.245  32.047  36.190  1.00  0.00     0.029 A 
ATOM     52  N   UNL A   1      41.535  31.266  34.233  1.00  0.00    -0.354 N 
ATOM     53  N   UNL A   1      41.506  29.407  31.968  1.00  0.00    -0.248 NA
ATOM     54  C   UNL A   1      42.437  27.611  30.800  1.00  0.00     0.031 C 
ATOM     55  C   UNL A   1      43.055  30.966  35.825  1.00  0.00     0.029 A 
ATOM     56  C   UNL A   1      42.604  30.471  34.611  1.00  0.00     0.049 A 
ATOM     57  H   UNL A   1      41.011  31.153  33.406  1.00  0.00     0.167 HD
ATOM     58  C   UNL A   1      42.595  28.919  32.677  1.00  0.00     0.074 A 
ATOM     59  C   UNL A   1      43.118  27.798  31.922  1.00  0.00     0.031 C 
ATOM     60  C   UNL A   1      43.112  29.359  33.850  1.00  0.00     0.037 A 
BRANCH  47  61
ATOM     61  C   UNL A   1      40.226  34.311  36.164  1.00  0.00     0.057 A 
ATOM     62  C   UNL A   1      39.361  34.200  37.261  1.00  0.00     0.134 A 
ATOM     63  C   UNL A   1      41.035  35.453  36.091  1.00  0.00     0.134 A 
ATOM     64  F   UNL A   1      38.550  33.139  37.381  1.00  0.00    -0.206 F 
ATOM     65  C   UNL A   1      39.278  35.202  38.229  1.00  0.00     0.040 A 
ATOM     66  C   UNL A   1      40.979  36.449  37.068  1.00  0.00     0.040 A 
ATOM     67  F   UNL A   1      41.888  35.619  35.069  1.00  0.00    -0.206 F 
ATOM     68  C   UNL A   1      40.091  36.330  38.135  1.00  0.00     0.006 A 
ENDBRANCH  47  61
BRANCH  48  69
ATOM     69  C   UNL A   1      40.414  27.713  28.695  1.00  0.00     0.057 A 
ATOM     70  C   UNL A   1      39.669  26.532  28.786  1.00  0.00     0.134 A 
ATOM     71  C   UNL A   1      41.156  27.924  27.528  1.00  0.00     0.134 A 
ATOM     72  F   UNL A   1      38.952  26.270  29.890  1.00  0.00    -0.206 F 
ATOM     73  C   UNL A   1      39.666  25.590  27.758  1.00  0.00     0.040 A 
ATOM     74  C   UNL A   1      41.148  26.998  26.483  1.00  0.00     0.040 A 
ATOM     75  F   UNL A   1      41.885  29.040  27.381  1.00  0.00    -0.206 F 
ATOM     76  C   UNL A   1      40.403  25.825  26.599  1.00  0.00     0.006 A 
ENDBRANCH  48  69
BRANCH  60  77
ATOM     77  C   UNL A   1      44.286  28.607  34.403  1.00  0.00     0.057 A 
ATOM     78  C   UNL A   1      44.120  27.485  35.226  1.00  0.00     0.134 A 
ATOM     79  C   UNL A   1      45.594  28.989  34.081  1.00  0.00     0.134 A 
ATOM     80  F   UNL A   1      42.892  27.078  35.581  1.00  0.00    -0.206 F 
ATOM     81  C   UNL A   1      45.217  26.781  35.724  1.00  0.00     0.040 A 
ATOM     82  C   UNL A   1      46.698  28.281  34.556  1.00  0.00     0.040 A 
ATOM     83  F   UNL A   1      45.819  30.052  33.294  1.00  0.00    -0.206 F 
ATOM     84  C   UNL A   1      46.510  27.175  35.384  1.00  0.00     0.006 A 
ENDBRANCH  60  77
ENDBRANCH  34  35
ENDBRANCH  26  29
ENDBRANCH  24  25
ENDBRANCH  23  24
ENDBRANCH  22  23
ENDBRANCH  21  22
ENDBRANCH   3  21
TORSDOF 17
ENDMDL
