MODEL 1
REMARK VINA RESULT:     -11.5      0.000      0.000
REMARK SMILES CC(C)(C[N@H+]1C[C@@H]2C[NH2+]C[C@H]2C1(C)C)C(=O)NCCCCNC(=O)c1ccc(-c2c3nc(c(-c4c(F)cccc4F)c4ccc([nH]4)c(-c4c(F)cccc4F)c4nc(c(-c5c(F)cccc5F)c5ccc2[nH]5)C=C4)C=C3)cc1
REMARK SMILES IDX 19 1 18 2 17 3 15 4 16 5 2 7 1 8 3 9 4 10 5 11 6 12 12 13
REMARK SMILES IDX 7 15 11 16 13 17 14 18 8 19 10 20 9 21 20 24 21 25 22 26
REMARK SMILES IDX 23 27 24 29 25 30 26 31 78 32 27 33 77 34 28 35 29 36 30 37
REMARK SMILES IDX 71 38 31 39 76 40 70 41 72 42 32 43 75 44 69 45 68 46 33 48
REMARK SMILES IDX 59 49 42 50 58 51 43 52 46 53 57 54 73 55 44 56 45 57 56 59
REMARK SMILES IDX 74 60 47 61 34 62 35 63 40 64 36 65 37 66 39 67 41 68 38 69
REMARK SMILES IDX 60 70 61 71 66 72 62 73 63 74 65 75 67 76 64 77 48 78 49 79
REMARK SMILES IDX 54 80 50 81 51 82 53 83 55 84 52 85
REMARK H PARENT 17 6 5 14 9 22 9 23 22 28 72 47 46 58
REMARK Flexibility Score: inf
ROOT
ATOM      1  C   UNL A   1      36.702  20.892  24.690  1.00  0.00     0.023 C 
ENDROOT
BRANCH   1   2
ATOM      2  C   UNL A   1      35.632  21.106  25.764  1.00  0.00     0.116 C 
BRANCH   2   3
ATOM      3  N   UNL A   1      34.337  20.492  25.505  1.00  0.00    -0.355 N 
ATOM      4  C   UNL A   1      33.049  20.937  25.534  1.00  0.00     0.231 C 
ATOM      5  O   UNL A   1      32.211  20.142  25.090  1.00  0.00    -0.274 OA
ATOM      6  H   UNL A   1      34.409  19.543  25.253  1.00  0.00     0.163 HD
BRANCH   4   7
ATOM      7  C   UNL A   1      32.622  22.310  26.082  1.00  0.00     0.092 C 
ATOM      8  C   UNL A   1      32.956  22.382  27.594  1.00  0.00     0.027 C 
ATOM      9  C   UNL A   1      31.072  22.394  26.086  1.00  0.00     0.027 C 
BRANCH   7  10
ATOM     10  C   UNL A   1      33.256  23.498  25.263  1.00  0.00     0.279 C 
BRANCH  10  11
ATOM     11  N   UNL A   1      32.647  24.823  25.051  1.00  0.00    -0.329 N 
ATOM     12  C   UNL A   1      32.735  25.825  26.129  1.00  0.00     0.272 C 
ATOM     13  C   UNL A   1      32.621  25.534  23.733  1.00  0.00     0.101 C 
ATOM     14  H   UNL A   1      31.757  24.324  25.061  1.00  0.00     0.348 HD
ATOM     15  C   UNL A   1      33.556  26.871  25.431  1.00  0.00     0.114 C 
ATOM     16  C   UNL A   1      32.799  27.005  24.132  1.00  0.00     0.119 C 
ATOM     17  C   UNL A   1      33.654  25.158  22.693  1.00  0.00     0.079 C 
ATOM     18  C   UNL A   1      31.229  25.304  23.114  1.00  0.00     0.079 C 
ATOM     19  C   UNL A   1      33.695  28.306  25.838  1.00  0.00     0.270 C 
ATOM     20  C   UNL A   1      33.674  28.032  23.447  1.00  0.00     0.271 C 
ATOM     21  N   UNL A   1      34.028  28.970  24.547  1.00  0.00    -0.345 N 
ATOM     22  H   UNL A   1      35.026  29.182  24.514  1.00  0.00     0.346 HD
ATOM     23  H   UNL A   1      33.511  29.842  24.451  1.00  0.00     0.346 HD
ENDBRANCH  10  11
ENDBRANCH   7  10
ENDBRANCH   4   7
ENDBRANCH   2   3
ENDBRANCH   1   2
BRANCH   1  24
ATOM     24  C   UNL A   1      37.729  19.796  24.975  1.00  0.00     0.023 C 
BRANCH  24  25
ATOM     25  C   UNL A   1      38.948  20.269  25.747  1.00  0.00     0.116 C 
BRANCH  25  26
ATOM     26  N   UNL A   1      39.921  19.204  25.921  1.00  0.00    -0.352 N 
ATOM     27  C   UNL A   1      41.280  19.279  26.081  1.00  0.00     0.251 C 
ATOM     28  H   UNL A   1      39.548  18.292  25.924  1.00  0.00     0.163 HD
ATOM     29  O   UNL A   1      41.971  18.276  25.945  1.00  0.00    -0.269 OA
BRANCH  27  30
ATOM     30  C   UNL A   1      41.905  20.574  26.412  1.00  0.00     0.039 A 
ATOM     31  C   UNL A   1      42.260  21.441  25.376  1.00  0.00     0.014 A 
ATOM     32  C   UNL A   1      42.146  20.927  27.742  1.00  0.00     0.014 A 
ATOM     33  C   UNL A   1      42.799  22.690  25.681  1.00  0.00     0.010 A 
ATOM     34  C   UNL A   1      42.597  22.205  28.047  1.00  0.00     0.010 A 
ATOM     35  C   UNL A   1      42.933  23.095  27.018  1.00  0.00    -0.014 A 
BRANCH  35  36
ATOM     36  C   UNL A   1      43.410  24.454  27.368  1.00  0.00     0.031 A 
ATOM     37  C   UNL A   1      42.434  25.504  27.813  1.00  0.00     0.074 A 
ATOM     38  C   UNL A   1      44.713  24.754  27.206  1.00  0.00     0.049 A 
ATOM     39  N   UNL A   1      42.647  26.766  28.084  1.00  0.00    -0.248 NA
ATOM     40  C   UNL A   1      41.027  25.091  27.940  1.00  0.00     0.031 C 
ATOM     41  C   UNL A   1      45.742  23.828  26.727  1.00  0.00     0.029 A 
ATOM     42  N   UNL A   1      45.393  25.927  27.414  1.00  0.00    -0.354 N 
ATOM     43  C   UNL A   1      41.403  27.298  28.401  1.00  0.00     0.074 A 
ATOM     44  C   UNL A   1      40.433  26.239  28.233  1.00  0.00     0.031 C 
ATOM     45  C   UNL A   1      46.925  24.459  26.702  1.00  0.00     0.029 A 
ATOM     46  C   UNL A   1      46.732  25.845  27.118  1.00  0.00     0.049 A 
ATOM     47  H   UNL A   1      44.963  26.748  27.744  1.00  0.00     0.167 HD
ATOM     48  C   UNL A   1      41.103  28.551  28.818  1.00  0.00     0.037 A 
ATOM     49  C   UNL A   1      47.693  26.787  27.164  1.00  0.00     0.037 A 
ATOM     50  C   UNL A   1      42.080  29.592  28.999  1.00  0.00     0.049 A 
ATOM     51  C   UNL A   1      47.329  28.174  27.610  1.00  0.00     0.074 A 
ATOM     52  C   UNL A   1      41.893  30.874  29.486  1.00  0.00     0.029 A 
ATOM     53  N   UNL A   1      43.427  29.472  28.692  1.00  0.00    -0.354 N 
ATOM     54  N   UNL A   1      46.164  28.642  27.987  1.00  0.00    -0.248 NA
ATOM     55  C   UNL A   1      48.412  29.166  27.635  1.00  0.00     0.031 C 
ATOM     56  C   UNL A   1      43.118  31.546  29.423  1.00  0.00     0.029 A 
ATOM     57  C   UNL A   1      44.078  30.668  28.946  1.00  0.00     0.049 A 
ATOM     58  H   UNL A   1      43.857  28.657  28.346  1.00  0.00     0.167 HD
ATOM     59  C   UNL A   1      46.375  29.976  28.308  1.00  0.00     0.074 A 
ATOM     60  C   UNL A   1      47.786  30.235  28.105  1.00  0.00     0.031 C 
ATOM     61  C   UNL A   1      45.483  30.906  28.728  1.00  0.00     0.037 A 
BRANCH  48  62
ATOM     62  C   UNL A   1      39.662  28.860  29.106  1.00  0.00     0.057 A 
ATOM     63  C   UNL A   1      38.791  29.321  28.110  1.00  0.00     0.134 A 
ATOM     64  C   UNL A   1      39.130  28.663  30.387  1.00  0.00     0.134 A 
ATOM     65  F   UNL A   1      39.238  29.543  26.865  1.00  0.00    -0.206 F 
ATOM     66  C   UNL A   1      37.450  29.602  28.383  1.00  0.00     0.040 A 
ATOM     67  C   UNL A   1      37.785  28.912  30.665  1.00  0.00     0.040 A 
ATOM     68  F   UNL A   1      39.906  28.219  31.386  1.00  0.00    -0.206 F 
ATOM     69  C   UNL A   1      36.943  29.391  29.663  1.00  0.00     0.006 A 
ENDBRANCH  48  62
BRANCH  49  70
ATOM     70  C   UNL A   1      49.087  26.445  26.787  1.00  0.00     0.057 A 
ATOM     71  C   UNL A   1      49.970  25.888  27.720  1.00  0.00     0.134 A 
ATOM     72  C   UNL A   1      49.571  26.662  25.492  1.00  0.00     0.134 A 
ATOM     73  F   UNL A   1      49.571  25.672  28.982  1.00  0.00    -0.206 F 
ATOM     74  C   UNL A   1      51.289  25.578  27.384  1.00  0.00     0.040 A 
ATOM     75  C   UNL A   1      50.880  26.332  25.135  1.00  0.00     0.040 A 
ATOM     76  F   UNL A   1      48.773  27.184  24.549  1.00  0.00    -0.206 F 
ATOM     77  C   UNL A   1      51.745  25.795  26.086  1.00  0.00     0.006 A 
ENDBRANCH  49  70
BRANCH  61  78
ATOM     78  C   UNL A   1      46.009  32.284  28.999  1.00  0.00     0.057 A 
ATOM     79  C   UNL A   1      46.002  33.281  28.015  1.00  0.00     0.134 A 
ATOM     80  C   UNL A   1      46.490  32.630  30.269  1.00  0.00     0.134 A 
ATOM     81  F   UNL A   1      45.568  33.010  26.776  1.00  0.00    -0.206 F 
ATOM     82  C   UNL A   1      46.476  34.567  28.278  1.00  0.00     0.040 A 
ATOM     83  C   UNL A   1      46.940  33.920  30.552  1.00  0.00     0.040 A 
ATOM     84  F   UNL A   1      46.516  31.724  31.258  1.00  0.00    -0.206 F 
ATOM     85  C   UNL A   1      46.939  34.891  29.553  1.00  0.00     0.006 A 
ENDBRANCH  61  78
ENDBRANCH  35  36
ENDBRANCH  27  30
ENDBRANCH  25  26
ENDBRANCH  24  25
ENDBRANCH   1  24
TORSDOF 13
ENDMDL
MODEL 2
REMARK VINA RESULT:     -11.5      0.766      6.416
REMARK SMILES CC(C)(C[N@H+]1C[C@@H]2C[NH2+]C[C@H]2C1(C)C)C(=O)NCCCCNC(=O)c1ccc(-c2c3nc(c(-c4c(F)cccc4F)c4ccc([nH]4)c(-c4c(F)cccc4F)c4nc(c(-c5c(F)cccc5F)c5ccc2[nH]5)C=C4)C=C3)cc1
REMARK SMILES IDX 19 1 18 2 17 3 15 4 16 5 2 7 1 8 3 9 4 10 5 11 6 12 12 13
REMARK SMILES IDX 7 15 11 16 13 17 14 18 8 19 10 20 9 21 20 24 21 25 22 26
REMARK SMILES IDX 23 27 24 29 25 30 26 31 78 32 27 33 77 34 28 35 29 36 30 37
REMARK SMILES IDX 71 38 31 39 76 40 70 41 72 42 32 43 75 44 69 45 68 46 33 48
REMARK SMILES IDX 59 49 42 50 58 51 43 52 46 53 57 54 73 55 44 56 45 57 56 59
REMARK SMILES IDX 74 60 47 61 34 62 35 63 40 64 36 65 37 66 39 67 41 68 38 69
REMARK SMILES IDX 60 70 61 71 66 72 62 73 63 74 65 75 67 76 64 77 48 78 49 79
REMARK SMILES IDX 54 80 50 81 51 82 53 83 55 84 52 85
REMARK H PARENT 17 6 5 14 9 22 9 23 22 28 72 47 46 58
REMARK Flexibility Score: inf
ROOT
ATOM      1  C   UNL A   1      36.441  20.238  25.002  1.00  0.00     0.023 C 
ENDROOT
BRANCH   1   2
ATOM      2  C   UNL A   1      36.340  21.596  25.702  1.00  0.00     0.116 C 
BRANCH   2   3
ATOM      3  N   UNL A   1      35.355  21.691  26.770  1.00  0.00    -0.355 N 
ATOM      4  C   UNL A   1      34.034  22.024  26.820  1.00  0.00     0.231 C 
ATOM      5  O   UNL A   1      33.487  21.832  27.914  1.00  0.00    -0.274 OA
ATOM      6  H   UNL A   1      35.726  21.464  27.653  1.00  0.00     0.163 HD
BRANCH   4   7
ATOM      7  C   UNL A   1      33.245  22.609  25.636  1.00  0.00     0.092 C 
ATOM      8  C   UNL A   1      31.737  22.639  25.993  1.00  0.00     0.027 C 
ATOM      9  C   UNL A   1      33.280  21.600  24.456  1.00  0.00     0.027 C 
BRANCH   7  10
ATOM     10  C   UNL A   1      33.793  24.020  25.198  1.00  0.00     0.279 C 
BRANCH  10  11
ATOM     11  N   UNL A   1      32.976  25.213  24.915  1.00  0.00    -0.329 N 
ATOM     12  C   UNL A   1      33.120  26.394  25.785  1.00  0.00     0.272 C 
ATOM     13  C   UNL A   1      32.611  25.673  23.536  1.00  0.00     0.101 C 
ATOM     14  H   UNL A   1      32.182  24.632  25.182  1.00  0.00     0.348 HD
ATOM     15  C   UNL A   1      33.645  27.382  24.782  1.00  0.00     0.114 C 
ATOM     16  C   UNL A   1      32.652  27.201  23.661  1.00  0.00     0.119 C 
ATOM     17  C   UNL A   1      33.477  25.230  22.378  1.00  0.00     0.079 C 
ATOM     18  C   UNL A   1      31.175  25.189  23.258  1.00  0.00     0.079 C 
ATOM     19  C   UNL A   1      33.655  28.873  24.928  1.00  0.00     0.270 C 
ATOM     20  C   UNL A   1      33.235  28.178  22.663  1.00  0.00     0.271 C 
ATOM     21  N   UNL A   1      33.650  29.328  23.510  1.00  0.00    -0.345 N 
ATOM     22  H   UNL A   1      34.585  29.637  23.241  1.00  0.00     0.346 HD
ATOM     23  H   UNL A   1      33.007  30.110  23.389  1.00  0.00     0.346 HD
ENDBRANCH  10  11
ENDBRANCH   7  10
ENDBRANCH   4   7
ENDBRANCH   2   3
ENDBRANCH   1   2
BRANCH   1  24
ATOM     24  C   UNL A   1      37.855  19.728  24.726  1.00  0.00     0.023 C 
BRANCH  24  25
ATOM     25  C   UNL A   1      38.890  20.179  25.741  1.00  0.00     0.116 C 
BRANCH  25  26
ATOM     26  N   UNL A   1      39.928  19.180  25.932  1.00  0.00    -0.352 N 
ATOM     27  C   UNL A   1      41.279  19.344  26.098  1.00  0.00     0.251 C 
ATOM     28  H   UNL A   1      39.614  18.246  25.943  1.00  0.00     0.163 HD
ATOM     29  O   UNL A   1      42.033  18.386  25.977  1.00  0.00    -0.269 OA
BRANCH  27  30
ATOM     30  C   UNL A   1      41.818  20.680  26.419  1.00  0.00     0.039 A 
ATOM     31  C   UNL A   1      42.240  21.509  25.377  1.00  0.00     0.014 A 
ATOM     32  C   UNL A   1      41.912  21.108  27.745  1.00  0.00     0.014 A 
ATOM     33  C   UNL A   1      42.698  22.794  25.665  1.00  0.00     0.010 A 
ATOM     34  C   UNL A   1      42.280  22.418  28.022  1.00  0.00     0.010 A 
ATOM     35  C   UNL A   1      42.682  23.270  26.985  1.00  0.00    -0.014 A 
BRANCH  35  36
ATOM     36  C   UNL A   1      43.071  24.664  27.306  1.00  0.00     0.031 A 
ATOM     37  C   UNL A   1      44.516  25.069  27.277  1.00  0.00     0.074 A 
ATOM     38  C   UNL A   1      42.123  25.535  27.700  1.00  0.00     0.049 A 
ATOM     39  N   UNL A   1      45.059  26.214  27.602  1.00  0.00    -0.248 NA
ATOM     40  C   UNL A   1      45.484  24.044  26.855  1.00  0.00     0.031 C 
ATOM     41  C   UNL A   1      40.694  25.236  27.819  1.00  0.00     0.029 A 
ATOM     42  N   UNL A   1      42.220  26.848  28.086  1.00  0.00    -0.354 N 
ATOM     43  C   UNL A   1      46.427  26.043  27.437  1.00  0.00     0.074 A 
ATOM     44  C   UNL A   1      46.638  24.669  27.038  1.00  0.00     0.031 C 
ATOM     45  C   UNL A   1      40.045  26.338  28.224  1.00  0.00     0.029 A 
ATOM     46  C   UNL A   1      41.015  27.408  28.437  1.00  0.00     0.049 A 
ATOM     47  H   UNL A   1      43.070  27.342  28.109  1.00  0.00     0.167 HD
ATOM     48  C   UNL A   1      47.416  26.957  27.581  1.00  0.00     0.037 A 
ATOM     49  C   UNL A   1      40.729  28.641  28.893  1.00  0.00     0.037 A 
ATOM     50  C   UNL A   1      47.192  28.327  27.961  1.00  0.00     0.049 A 
ATOM     51  C   UNL A   1      41.846  29.630  29.065  1.00  0.00     0.074 A 
ATOM     52  C   UNL A   1      48.114  29.354  28.065  1.00  0.00     0.029 A 
ATOM     53  N   UNL A   1      45.958  28.859  28.306  1.00  0.00    -0.354 N 
ATOM     54  N   UNL A   1      43.126  29.480  28.825  1.00  0.00    -0.248 NA
ATOM     55  C   UNL A   1      41.480  30.959  29.572  1.00  0.00     0.031 C 
ATOM     56  C   UNL A   1      47.445  30.493  28.526  1.00  0.00     0.029 A 
ATOM     57  C   UNL A   1      46.100  30.191  28.659  1.00  0.00     0.049 A 
ATOM     58  H   UNL A   1      45.107  28.363  28.301  1.00  0.00     0.167 HD
ATOM     59  C   UNL A   1      43.717  30.697  29.137  1.00  0.00     0.074 A 
ATOM     60  C   UNL A   1      42.650  31.582  29.559  1.00  0.00     0.031 C 
ATOM     61  C   UNL A   1      45.025  31.051  29.085  1.00  0.00     0.037 A 
BRANCH  48  62
ATOM     62  C   UNL A   1      48.824  26.504  27.327  1.00  0.00     0.057 A 
ATOM     63  C   UNL A   1      49.636  26.002  28.353  1.00  0.00     0.134 A 
ATOM     64  C   UNL A   1      49.365  26.537  26.035  1.00  0.00     0.134 A 
ATOM     65  F   UNL A   1      49.185  25.953  29.616  1.00  0.00    -0.206 F 
ATOM     66  C   UNL A   1      50.944  25.576  28.109  1.00  0.00     0.040 A 
ATOM     67  C   UNL A   1      50.660  26.087  25.774  1.00  0.00     0.040 A 
ATOM     68  F   UNL A   1      48.641  27.000  25.006  1.00  0.00    -0.206 F 
ATOM     69  C   UNL A   1      51.456  25.612  26.815  1.00  0.00     0.006 A 
ENDBRANCH  48  62
BRANCH  49  70
ATOM     70  C   UNL A   1      39.325  29.009  29.208  1.00  0.00     0.057 A 
ATOM     71  C   UNL A   1      38.813  28.856  30.501  1.00  0.00     0.134 A 
ATOM     72  C   UNL A   1      38.465  29.523  28.230  1.00  0.00     0.134 A 
ATOM     73  F   UNL A   1      39.583  28.354  31.477  1.00  0.00    -0.206 F 
ATOM     74  C   UNL A   1      37.491  29.181  30.807  1.00  0.00     0.040 A 
ATOM     75  C   UNL A   1      37.147  29.877  28.528  1.00  0.00     0.040 A 
ATOM     76  F   UNL A   1      38.898  29.703  26.974  1.00  0.00    -0.206 F 
ATOM     77  C   UNL A   1      36.655  29.700  29.819  1.00  0.00     0.006 A 
ENDBRANCH  49  70
BRANCH  61  78
ATOM     78  C   UNL A   1      45.369  32.454  29.490  1.00  0.00     0.057 A 
ATOM     79  C   UNL A   1      45.756  32.767  30.798  1.00  0.00     0.134 A 
ATOM     80  C   UNL A   1      45.351  33.494  28.551  1.00  0.00     0.134 A 
ATOM     81  F   UNL A   1      45.779  31.819  31.746  1.00  0.00    -0.206 F 
ATOM     82  C   UNL A   1      46.094  34.071  31.165  1.00  0.00     0.040 A 
ATOM     83  C   UNL A   1      45.714  34.796  28.899  1.00  0.00     0.040 A 
ATOM     84  F   UNL A   1      44.998  33.259  27.279  1.00  0.00    -0.206 F 
ATOM     85  C   UNL A   1      46.081  35.088  30.211  1.00  0.00     0.006 A 
ENDBRANCH  61  78
ENDBRANCH  35  36
ENDBRANCH  27  30
ENDBRANCH  25  26
ENDBRANCH  24  25
ENDBRANCH   1  24
TORSDOF 13
ENDMDL
MODEL 3
REMARK VINA RESULT:     -11.4      5.503     10.657
REMARK SMILES CC(C)(C[N@H+]1C[C@@H]2C[NH2+]C[C@H]2C1(C)C)C(=O)NCCCCNC(=O)c1ccc(-c2c3nc(c(-c4c(F)cccc4F)c4ccc([nH]4)c(-c4c(F)cccc4F)c4nc(c(-c5c(F)cccc5F)c5ccc2[nH]5)C=C4)C=C3)cc1
REMARK SMILES IDX 19 1 18 2 17 3 15 4 16 5 2 7 1 8 3 9 4 10 5 11 6 12 12 13
REMARK SMILES IDX 7 15 11 16 13 17 14 18 8 19 10 20 9 21 20 24 21 25 22 26
REMARK SMILES IDX 23 27 24 29 25 30 26 31 78 32 27 33 77 34 28 35 29 36 30 37
REMARK SMILES IDX 71 38 31 39 76 40 70 41 72 42 32 43 75 44 69 45 68 46 33 48
REMARK SMILES IDX 59 49 42 50 58 51 43 52 46 53 57 54 73 55 44 56 45 57 56 59
REMARK SMILES IDX 74 60 47 61 34 62 35 63 40 64 36 65 37 66 39 67 41 68 38 69
REMARK SMILES IDX 60 70 61 71 66 72 62 73 63 74 65 75 67 76 64 77 48 78 49 79
REMARK SMILES IDX 54 80 50 81 51 82 53 83 55 84 52 85
REMARK H PARENT 17 6 5 14 9 22 9 23 22 28 72 47 46 58
REMARK Flexibility Score: inf
ROOT
ATOM      1  C   UNL A   1      31.618  30.816  26.055  1.00  0.00     0.023 C 
ENDROOT
BRANCH   1   2
ATOM      2  C   UNL A   1      32.949  30.142  26.396  1.00  0.00     0.116 C 
BRANCH   2   3
ATOM      3  N   UNL A   1      33.632  29.483  25.292  1.00  0.00    -0.355 N 
ATOM      4  C   UNL A   1      33.455  28.304  24.630  1.00  0.00     0.231 C 
ATOM      5  O   UNL A   1      34.155  28.162  23.620  1.00  0.00    -0.274 OA
ATOM      6  H   UNL A   1      34.391  30.006  24.945  1.00  0.00     0.163 HD
BRANCH   4   7
ATOM      7  C   UNL A   1      32.480  27.202  25.077  1.00  0.00     0.092 C 
ATOM      8  C   UNL A   1      31.032  27.624  24.715  1.00  0.00     0.027 C 
ATOM      9  C   UNL A   1      32.430  27.167  26.628  1.00  0.00     0.027 C 
BRANCH   7  10
ATOM     10  C   UNL A   1      32.866  25.793  24.485  1.00  0.00     0.279 C 
BRANCH  10  11
ATOM     11  N   UNL A   1      32.002  24.600  24.462  1.00  0.00    -0.329 N 
ATOM     12  C   UNL A   1      31.727  23.948  23.169  1.00  0.00     0.272 C 
ATOM     13  C   UNL A   1      31.977  23.560  25.541  1.00  0.00     0.101 C 
ATOM     14  H   UNL A   1      31.255  25.237  24.739  1.00  0.00     0.348 HD
ATOM     15  C   UNL A   1      32.368  22.613  23.421  1.00  0.00     0.114 C 
ATOM     16  C   UNL A   1      31.765  22.258  24.758  1.00  0.00     0.119 C 
ATOM     17  C   UNL A   1      33.187  23.426  26.438  1.00  0.00     0.079 C 
ATOM     18  C   UNL A   1      30.760  23.859  26.438  1.00  0.00     0.079 C 
ATOM     19  C   UNL A   1      32.126  21.353  22.647  1.00  0.00     0.270 C 
ATOM     20  C   UNL A   1      32.461  20.934  24.993  1.00  0.00     0.271 C 
ATOM     21  N   UNL A   1      32.455  20.299  23.647  1.00  0.00    -0.345 N 
ATOM     22  H   UNL A   1      33.374  19.905  23.446  1.00  0.00     0.346 HD
ATOM     23  H   UNL A   1      31.768  19.547  23.612  1.00  0.00     0.346 HD
ENDBRANCH  10  11
ENDBRANCH   7  10
ENDBRANCH   4   7
ENDBRANCH   2   3
ENDBRANCH   1   2
BRANCH   1  24
ATOM     24  C   UNL A   1      31.389  32.199  26.665  1.00  0.00     0.023 C 
BRANCH  24  25
ATOM     25  C   UNL A   1      32.630  32.822  27.280  1.00  0.00     0.116 C 
BRANCH  25  26
ATOM     26  N   UNL A   1      32.438  34.235  27.563  1.00  0.00    -0.352 N 
ATOM     27  C   UNL A   1      32.996  35.013  28.543  1.00  0.00     0.251 C 
ATOM     28  H   UNL A   1      31.814  34.703  26.960  1.00  0.00     0.163 HD
ATOM     29  O   UNL A   1      32.520  36.113  28.799  1.00  0.00    -0.269 OA
BRANCH  27  30
ATOM     30  C   UNL A   1      34.168  34.517  29.290  1.00  0.00     0.039 A 
ATOM     31  C   UNL A   1      33.979  33.956  30.555  1.00  0.00     0.014 A 
ATOM     32  C   UNL A   1      35.451  34.613  28.744  1.00  0.00     0.014 A 
ATOM     33  C   UNL A   1      35.072  33.432  31.244  1.00  0.00     0.010 A 
ATOM     34  C   UNL A   1      36.522  34.011  29.391  1.00  0.00     0.010 A 
ATOM     35  C   UNL A   1      36.343  33.420  30.649  1.00  0.00    -0.014 A 
BRANCH  35  36
ATOM     36  C   UNL A   1      37.502  32.783  31.318  1.00  0.00     0.031 A 
ATOM     37  C   UNL A   1      38.162  31.584  30.700  1.00  0.00     0.074 A 
ATOM     38  C   UNL A   1      37.901  33.243  32.519  1.00  0.00     0.049 A 
ATOM     39  N   UNL A   1      39.133  30.843  31.171  1.00  0.00    -0.248 NA
ATOM     40  C   UNL A   1      37.645  31.139  29.397  1.00  0.00     0.031 C 
ATOM     41  C   UNL A   1      37.297  34.366  33.239  1.00  0.00     0.029 A 
ATOM     42  N   UNL A   1      38.901  32.813  33.354  1.00  0.00    -0.354 N 
ATOM     43  C   UNL A   1      39.333  29.842  30.229  1.00  0.00     0.074 A 
ATOM     44  C   UNL A   1      38.346  30.034  29.189  1.00  0.00     0.031 C 
ATOM     45  C   UNL A   1      37.953  34.553  34.394  1.00  0.00     0.029 A 
ATOM     46  C   UNL A   1      38.994  33.537  34.518  1.00  0.00     0.049 A 
ATOM     47  H   UNL A   1      39.496  32.059  33.139  1.00  0.00     0.167 HD
ATOM     48  C   UNL A   1      40.270  28.865  30.223  1.00  0.00     0.037 A 
ATOM     49  C   UNL A   1      39.816  33.387  35.572  1.00  0.00     0.037 A 
ATOM     50  C   UNL A   1      41.259  28.695  31.255  1.00  0.00     0.049 A 
ATOM     51  C   UNL A   1      40.834  32.282  35.549  1.00  0.00     0.074 A 
ATOM     52  C   UNL A   1      42.299  27.784  31.309  1.00  0.00     0.029 A 
ATOM     53  N   UNL A   1      41.323  29.448  32.418  1.00  0.00    -0.354 N 
ATOM     54  N   UNL A   1      41.067  31.393  34.614  1.00  0.00    -0.248 NA
ATOM     55  C   UNL A   1      41.701  32.158  36.728  1.00  0.00     0.031 C 
ATOM     56  C   UNL A   1      42.959  27.951  32.531  1.00  0.00     0.029 A 
ATOM     57  C   UNL A   1      42.364  28.999  33.214  1.00  0.00     0.049 A 
ATOM     58  H   UNL A   1      40.719  30.192  32.643  1.00  0.00     0.167 HD
ATOM     59  C   UNL A   1      42.115  30.613  35.083  1.00  0.00     0.074 A 
ATOM     60  C   UNL A   1      42.489  31.152  36.375  1.00  0.00     0.031 C 
ATOM     61  C   UNL A   1      42.714  29.545  34.501  1.00  0.00     0.037 A 
BRANCH  48  62
ATOM     62  C   UNL A   1      40.269  27.910  29.065  1.00  0.00     0.057 A 
ATOM     63  C   UNL A   1      39.522  26.725  29.083  1.00  0.00     0.134 A 
ATOM     64  C   UNL A   1      40.998  28.193  27.902  1.00  0.00     0.134 A 
ATOM     65  F   UNL A   1      38.810  26.386  30.170  1.00  0.00    -0.206 F 
ATOM     66  C   UNL A   1      39.520  25.843  28.001  1.00  0.00     0.040 A 
ATOM     67  C   UNL A   1      40.982  27.334  26.802  1.00  0.00     0.040 A 
ATOM     68  F   UNL A   1      41.731  29.312  27.814  1.00  0.00    -0.206 F 
ATOM     69  C   UNL A   1      40.247  26.150  26.853  1.00  0.00     0.006 A 
ENDBRANCH  48  62
BRANCH  49  70
ATOM     70  C   UNL A   1      39.717  34.312  36.730  1.00  0.00     0.057 A 
ATOM     71  C   UNL A   1      40.393  35.537  36.733  1.00  0.00     0.134 A 
ATOM     72  C   UNL A   1      38.946  33.998  37.855  1.00  0.00     0.134 A 
ATOM     73  F   UNL A   1      41.162  35.887  35.692  1.00  0.00    -0.206 F 
ATOM     74  C   UNL A   1      40.323  36.408  37.822  1.00  0.00     0.040 A 
ATOM     75  C   UNL A   1      38.845  34.871  38.940  1.00  0.00     0.040 A 
ATOM     76  F   UNL A   1      38.265  32.843  37.909  1.00  0.00    -0.206 F 
ATOM     77  C   UNL A   1      39.541  36.078  38.927  1.00  0.00     0.006 A 
ENDBRANCH  49  70
BRANCH  61  78
ATOM     78  C   UNL A   1      43.835  28.895  35.257  1.00  0.00     0.057 A 
ATOM     79  C   UNL A   1      43.602  27.858  36.169  1.00  0.00     0.134 A 
ATOM     80  C   UNL A   1      45.163  29.282  35.039  1.00  0.00     0.134 A 
ATOM     81  F   UNL A   1      42.352  27.451  36.432  1.00  0.00    -0.206 F 
ATOM     82  C   UNL A   1      44.651  27.244  36.855  1.00  0.00     0.040 A 
ATOM     83  C   UNL A   1      46.222  28.656  35.698  1.00  0.00     0.040 A 
ATOM     84  F   UNL A   1      45.454  30.263  34.171  1.00  0.00    -0.206 F 
ATOM     85  C   UNL A   1      45.967  27.637  36.613  1.00  0.00     0.006 A 
ENDBRANCH  61  78
ENDBRANCH  35  36
ENDBRANCH  27  30
ENDBRANCH  25  26
ENDBRANCH  24  25
ENDBRANCH   1  24
TORSDOF 13
ENDMDL
