MODEL 1
REMARK VINA RESULT:     -12.0      0.000      0.000
REMARK SMILES Cc1nc(S(=O)(=O)N[C@H]2C=C[C@H](C(=O)NCCCCNC(=O)c3ccc(-c4c5nc(c(-c6c(F)cccc6F)c6ccc([nH]6)c(-c6c(F)cccc6F)c6nc(c(-c7c(F)cccc7F)c7ccc4[nH]7)C=C6)C=C5)cc3)C2)cn1C
REMARK SMILES IDX 17 1 16 2 15 3 13 4 14 5 12 7 9 8 10 9 77 10 11 11 8 12 5 14
REMARK SMILES IDX 6 15 7 16 4 17 1 18 2 19 3 20 79 21 78 22 80 23 18 24 19 25
REMARK SMILES IDX 20 26 21 27 22 29 23 30 24 31 76 32 25 33 75 34 26 35 27 36
REMARK SMILES IDX 28 37 69 38 29 39 74 40 68 41 70 42 30 43 73 44 67 45 66 46
REMARK SMILES IDX 31 48 57 49 40 50 56 51 41 52 44 53 55 54 71 55 42 56 43 57
REMARK SMILES IDX 54 59 72 60 45 61 32 62 33 63 38 64 34 65 35 66 37 67 39 68
REMARK SMILES IDX 36 69 58 70 59 71 64 72 60 73 61 74 63 75 65 76 62 77 46 78
REMARK SMILES IDX 47 79 52 80 48 81 49 82 51 83 53 84 50 85
REMARK H PARENT 15 6 8 13 20 28 70 47 44 58
REMARK Flexibility Score: inf
ROOT
ATOM      1  C   UNL A   1      31.684  30.589  26.497  1.00  0.00     0.023 C 
ENDROOT
BRANCH   1   2
ATOM      2  C   UNL A   1      31.388  30.036  25.103  1.00  0.00     0.116 C 
BRANCH   2   3
ATOM      3  N   UNL A   1      32.516  29.306  24.552  1.00  0.00    -0.356 N 
ATOM      4  C   UNL A   1      32.542  28.077  23.948  1.00  0.00     0.226 C 
ATOM      5  O   UNL A   1      33.623  27.653  23.542  1.00  0.00    -0.274 OA
ATOM      6  H   UNL A   1      33.388  29.758  24.625  1.00  0.00     0.163 HD
BRANCH   4   7
ATOM      7  C   UNL A   1      31.229  27.301  23.817  1.00  0.00     0.103 C 
ATOM      8  C   UNL A   1      31.346  24.943  24.501  1.00  0.00     0.093 C 
ATOM      9  C   UNL A   1      31.217  25.081  23.026  1.00  0.00    -0.011 C 
ATOM     10  C   UNL A   1      31.027  26.356  25.007  1.00  0.00     0.042 C 
ATOM     11  C   UNL A   1      31.186  26.363  22.647  1.00  0.00    -0.016 C 
BRANCH   8  12
ATOM     12  N   UNL A   1      30.338  24.032  25.035  1.00  0.00    -0.203 NA
ATOM     13  H   UNL A   1      29.556  24.599  25.360  1.00  0.00     0.142 HD
BRANCH  12  14
ATOM     14  S   UNL A   1      30.796  23.020  26.308  1.00  0.00     0.260 S 
ATOM     15  O   UNL A   1      29.670  22.163  26.602  1.00  0.00    -0.205 OA
ATOM     16  O   UNL A   1      31.398  23.882  27.301  1.00  0.00    -0.205 OA
BRANCH  14  17
ATOM     17  C   UNL A   1      32.078  21.956  25.785  1.00  0.00     0.188 A 
ATOM     18  C   UNL A   1      33.279  18.880  24.336  1.00  0.00     0.088 C 
ATOM     19  C   UNL A   1      33.040  20.218  24.934  1.00  0.00     0.106 A 
ATOM     20  N   UNL A   1      31.853  20.705  25.238  1.00  0.00    -0.221 NA
ATOM     21  N   UNL A   1      34.025  21.125  25.249  1.00  0.00    -0.337 N 
ATOM     22  C   UNL A   1      33.434  22.215  25.828  1.00  0.00     0.129 A 
ATOM     23  C   UNL A   1      35.438  20.984  24.993  1.00  0.00     0.151 C 
ENDBRANCH  14  17
ENDBRANCH  12  14
ENDBRANCH   8  12
ENDBRANCH   4   7
ENDBRANCH   2   3
ENDBRANCH   1   2
BRANCH   1  24
ATOM     24  C   UNL A   1      31.505  32.101  26.649  1.00  0.00     0.023 C 
BRANCH  24  25
ATOM     25  C   UNL A   1      32.683  32.840  27.273  1.00  0.00     0.116 C 
BRANCH  25  26
ATOM     26  N   UNL A   1      32.362  34.209  27.650  1.00  0.00    -0.352 N 
ATOM     27  C   UNL A   1      32.952  35.005  28.602  1.00  0.00     0.251 C 
ATOM     28  H   UNL A   1      31.620  34.621  27.153  1.00  0.00     0.163 HD
ATOM     29  O   UNL A   1      32.469  36.101  28.870  1.00  0.00    -0.269 OA
BRANCH  27  30
ATOM     30  C   UNL A   1      34.147  34.527  29.331  1.00  0.00     0.039 A 
ATOM     31  C   UNL A   1      33.982  33.961  30.598  1.00  0.00     0.014 A 
ATOM     32  C   UNL A   1      35.422  34.630  28.770  1.00  0.00     0.014 A 
ATOM     33  C   UNL A   1      35.086  33.434  31.272  1.00  0.00     0.010 A 
ATOM     34  C   UNL A   1      36.511  34.048  29.413  1.00  0.00     0.010 A 
ATOM     35  C   UNL A   1      36.354  33.442  30.669  1.00  0.00    -0.014 A 
BRANCH  35  36
ATOM     36  C   UNL A   1      37.531  32.827  31.331  1.00  0.00     0.031 A 
ATOM     37  C   UNL A   1      38.200  31.629  30.716  1.00  0.00     0.074 A 
ATOM     38  C   UNL A   1      37.951  33.294  32.522  1.00  0.00     0.049 A 
ATOM     39  N   UNL A   1      39.166  30.884  31.192  1.00  0.00    -0.248 NA
ATOM     40  C   UNL A   1      37.696  31.195  29.404  1.00  0.00     0.031 C 
ATOM     41  C   UNL A   1      37.365  34.425  33.243  1.00  0.00     0.029 A 
ATOM     42  N   UNL A   1      38.961  32.862  33.345  1.00  0.00    -0.354 N 
ATOM     43  C   UNL A   1      39.368  29.884  30.251  1.00  0.00     0.074 A 
ATOM     44  C   UNL A   1      38.397  30.090  29.198  1.00  0.00     0.031 C 
ATOM     45  C   UNL A   1      38.036  34.609  34.393  1.00  0.00     0.029 A 
ATOM     46  C   UNL A   1      39.073  33.588  34.506  1.00  0.00     0.049 A 
ATOM     47  H   UNL A   1      39.549  32.104  33.125  1.00  0.00     0.167 HD
ATOM     48  C   UNL A   1      40.292  28.893  30.253  1.00  0.00     0.037 A 
ATOM     49  C   UNL A   1      39.911  33.440  35.549  1.00  0.00     0.037 A 
ATOM     50  C   UNL A   1      41.278  28.706  31.284  1.00  0.00     0.049 A 
ATOM     51  C   UNL A   1      40.929  32.334  35.529  1.00  0.00     0.074 A 
ATOM     52  C   UNL A   1      42.292  27.767  31.349  1.00  0.00     0.029 A 
ATOM     53  N   UNL A   1      41.374  29.478  32.432  1.00  0.00    -0.354 N 
ATOM     54  N   UNL A   1      41.142  31.425  34.609  1.00  0.00    -0.248 NA
ATOM     55  C   UNL A   1      41.825  32.236  36.691  1.00  0.00     0.031 C 
ATOM     56  C   UNL A   1      42.983  27.949  32.551  1.00  0.00     0.029 A 
ATOM     57  C   UNL A   1      42.423  29.026  33.217  1.00  0.00     0.049 A 
ATOM     58  H   UNL A   1      40.786  30.234  32.656  1.00  0.00     0.167 HD
ATOM     59  C   UNL A   1      42.212  30.666  35.066  1.00  0.00     0.074 A 
ATOM     60  C   UNL A   1      42.609  31.226  36.341  1.00  0.00     0.031 C 
ATOM     61  C   UNL A   1      42.813  29.603  34.479  1.00  0.00     0.037 A 
BRANCH  48  62
ATOM     62  C   UNL A   1      40.276  27.937  29.098  1.00  0.00     0.057 A 
ATOM     63  C   UNL A   1      41.027  28.170  27.938  1.00  0.00     0.134 A 
ATOM     64  C   UNL A   1      39.517  26.762  29.151  1.00  0.00     0.134 A 
ATOM     65  F   UNL A   1      41.765  29.284  27.818  1.00  0.00    -0.206 F 
ATOM     66  C   UNL A   1      40.999  27.284  26.860  1.00  0.00     0.040 A 
ATOM     67  C   UNL A   1      39.501  25.855  28.090  1.00  0.00     0.040 A 
ATOM     68  F   UNL A   1      38.778  26.475  30.235  1.00  0.00    -0.206 F 
ATOM     69  C   UNL A   1      40.238  26.118  26.938  1.00  0.00     0.006 A 
ENDBRANCH  48  62
BRANCH  49  70
ATOM     70  C   UNL A   1      39.845  34.384  36.692  1.00  0.00     0.057 A 
ATOM     71  C   UNL A   1      40.545  35.595  36.664  1.00  0.00     0.134 A 
ATOM     72  C   UNL A   1      39.087  34.100  37.834  1.00  0.00     0.134 A 
ATOM     73  F   UNL A   1      41.303  35.912  35.603  1.00  0.00    -0.206 F 
ATOM     74  C   UNL A   1      40.506  36.487  37.737  1.00  0.00     0.040 A 
ATOM     75  C   UNL A   1      39.021  34.992  38.906  1.00  0.00     0.040 A 
ATOM     76  F   UNL A   1      38.388  32.958  37.917  1.00  0.00    -0.206 F 
ATOM     77  C   UNL A   1      39.737  36.187  38.860  1.00  0.00     0.006 A 
ENDBRANCH  49  70
BRANCH  61  78
ATOM     78  C   UNL A   1      43.987  28.999  35.190  1.00  0.00     0.057 A 
ATOM     79  C   UNL A   1      45.298  29.431  34.948  1.00  0.00     0.134 A 
ATOM     80  C   UNL A   1      43.799  28.004  36.156  1.00  0.00     0.134 A 
ATOM     81  F   UNL A   1      45.545  30.371  34.025  1.00  0.00    -0.206 F 
ATOM     82  C   UNL A   1      46.382  28.879  35.633  1.00  0.00     0.040 A 
ATOM     83  C   UNL A   1      44.872  27.460  36.862  1.00  0.00     0.040 A 
ATOM     84  F   UNL A   1      42.567  27.553  36.437  1.00  0.00    -0.206 F 
ATOM     85  C   UNL A   1      46.169  27.896  36.598  1.00  0.00     0.006 A 
ENDBRANCH  61  78
ENDBRANCH  35  36
ENDBRANCH  27  30
ENDBRANCH  25  26
ENDBRANCH  24  25
ENDBRANCH   1  24
TORSDOF 14
ENDMDL
MODEL 2
REMARK VINA RESULT:     -11.9      4.453      9.462
REMARK SMILES Cc1nc(S(=O)(=O)N[C@H]2C=C[C@H](C(=O)NCCCCNC(=O)c3ccc(-c4c5nc(c(-c6c(F)cccc6F)c6ccc([nH]6)c(-c6c(F)cccc6F)c6nc(c(-c7c(F)cccc7F)c7ccc4[nH]7)C=C6)C=C5)cc3)C2)cn1C
REMARK SMILES IDX 17 1 16 2 15 3 13 4 14 5 12 7 9 8 10 9 77 10 11 11 8 12 5 14
REMARK SMILES IDX 6 15 7 16 4 17 1 18 2 19 3 20 79 21 78 22 80 23 18 24 19 25
REMARK SMILES IDX 20 26 21 27 22 29 23 30 24 31 76 32 25 33 75 34 26 35 27 36
REMARK SMILES IDX 28 37 69 38 29 39 74 40 68 41 70 42 30 43 73 44 67 45 66 46
REMARK SMILES IDX 31 48 57 49 40 50 56 51 41 52 44 53 55 54 71 55 42 56 43 57
REMARK SMILES IDX 54 59 72 60 45 61 32 62 33 63 38 64 34 65 35 66 37 67 39 68
REMARK SMILES IDX 36 69 58 70 59 71 64 72 60 73 61 74 63 75 65 76 62 77 46 78
REMARK SMILES IDX 47 79 52 80 48 81 49 82 51 83 53 84 50 85
REMARK H PARENT 15 6 8 13 20 28 70 47 44 58
REMARK Flexibility Score: inf
ROOT
ATOM      1  C   UNL A   1      36.538  20.463  25.018  1.00  0.00     0.023 C 
ENDROOT
BRANCH   1   2
ATOM      2  C   UNL A   1      36.655  21.987  25.002  1.00  0.00     0.116 C 
BRANCH   2   3
ATOM      3  N   UNL A   1      35.815  22.612  26.009  1.00  0.00    -0.356 N 
ATOM      4  C   UNL A   1      34.464  22.834  25.994  1.00  0.00     0.226 C 
ATOM      5  O   UNL A   1      33.954  23.377  26.974  1.00  0.00    -0.274 OA
ATOM      6  H   UNL A   1      36.284  22.922  26.817  1.00  0.00     0.163 HD
BRANCH   4   7
ATOM      7  C   UNL A   1      33.667  22.399  24.762  1.00  0.00     0.103 C 
ATOM      8  C   UNL A   1      32.438  24.205  23.632  1.00  0.00     0.093 C 
ATOM      9  C   UNL A   1      31.519  23.278  24.346  1.00  0.00    -0.011 C 
ATOM     10  C   UNL A   1      33.771  23.443  23.643  1.00  0.00     0.042 C 
ATOM     11  C   UNL A   1      32.186  22.314  24.988  1.00  0.00    -0.016 C 
BRANCH   8  12
ATOM     12  N   UNL A   1      32.030  24.385  22.243  1.00  0.00    -0.203 NA
ATOM     13  H   UNL A   1      32.468  23.643  21.698  1.00  0.00     0.142 HD
BRANCH  12  14
ATOM     14  S   UNL A   1      32.412  25.854  21.501  1.00  0.00     0.260 S 
ATOM     15  O   UNL A   1      31.753  25.869  20.213  1.00  0.00    -0.205 OA
ATOM     16  O   UNL A   1      33.842  26.010  21.644  1.00  0.00    -0.205 OA
BRANCH  14  17
ATOM     17  C   UNL A   1      31.712  27.172  22.406  1.00  0.00     0.188 A 
ATOM     18  C   UNL A   1      29.061  29.519  23.092  1.00  0.00     0.088 C 
ATOM     19  C   UNL A   1      30.266  28.654  23.026  1.00  0.00     0.106 A 
ATOM     20  N   UNL A   1      30.473  27.719  22.121  1.00  0.00    -0.221 NA
ATOM     21  N   UNL A   1      31.325  28.715  23.902  1.00  0.00    -0.337 N 
ATOM     22  C   UNL A   1      32.268  27.810  23.497  1.00  0.00     0.129 A 
ATOM     23  C   UNL A   1      31.429  29.559  25.069  1.00  0.00     0.151 C 
ENDBRANCH  14  17
ENDBRANCH  12  14
ENDBRANCH   8  12
ENDBRANCH   4   7
ENDBRANCH   2   3
ENDBRANCH   1   2
BRANCH   1  24
ATOM     24  C   UNL A   1      37.858  19.708  24.851  1.00  0.00     0.023 C 
BRANCH  24  25
ATOM     25  C   UNL A   1      39.001  20.182  25.741  1.00  0.00     0.116 C 
BRANCH  25  26
ATOM     26  N   UNL A   1      40.097  19.228  25.819  1.00  0.00    -0.352 N 
ATOM     27  C   UNL A   1      41.406  19.440  26.179  1.00  0.00     0.251 C 
ATOM     28  H   UNL A   1      39.868  18.302  25.580  1.00  0.00     0.163 HD
ATOM     29  O   UNL A   1      42.227  18.535  26.072  1.00  0.00    -0.269 OA
BRANCH  27  30
ATOM     30  C   UNL A   1      41.834  20.772  26.663  1.00  0.00     0.039 A 
ATOM     31  C   UNL A   1      42.280  21.715  25.732  1.00  0.00     0.014 A 
ATOM     32  C   UNL A   1      41.794  21.092  28.022  1.00  0.00     0.014 A 
ATOM     33  C   UNL A   1      42.616  23.003  26.156  1.00  0.00     0.010 A 
ATOM     34  C   UNL A   1      42.068  22.393  28.435  1.00  0.00     0.010 A 
ATOM     35  C   UNL A   1      42.479  23.362  27.507  1.00  0.00    -0.014 A 
BRANCH  35  36
ATOM     36  C   UNL A   1      42.763  24.742  27.974  1.00  0.00     0.031 A 
ATOM     37  C   UNL A   1      44.163  25.135  28.353  1.00  0.00     0.074 A 
ATOM     38  C   UNL A   1      41.752  25.617  28.133  1.00  0.00     0.049 A 
ATOM     39  N   UNL A   1      44.594  26.250  28.887  1.00  0.00    -0.248 NA
ATOM     40  C   UNL A   1      45.213  24.129  28.129  1.00  0.00     0.031 C 
ATOM     41  C   UNL A   1      40.344  25.348  27.838  1.00  0.00     0.029 A 
ATOM     42  N   UNL A   1      41.753  26.907  28.600  1.00  0.00    -0.354 N 
ATOM     43  C   UNL A   1      45.958  26.072  29.081  1.00  0.00     0.074 A 
ATOM     44  C   UNL A   1      46.274  24.727  28.650  1.00  0.00     0.031 C 
ATOM     45  C   UNL A   1      39.619  26.446  28.113  1.00  0.00     0.029 A 
ATOM     46  C   UNL A   1      40.505  27.480  28.639  1.00  0.00     0.049 A 
ATOM     47  H   UNL A   1      42.571  27.378  28.881  1.00  0.00     0.167 HD
ATOM     48  C   UNL A   1      46.868  26.954  29.558  1.00  0.00     0.037 A 
ATOM     49  C   UNL A   1      40.117  28.698  29.061  1.00  0.00     0.037 A 
ATOM     50  C   UNL A   1      46.560  28.302  29.957  1.00  0.00     0.049 A 
ATOM     51  C   UNL A   1      41.145  29.661  29.585  1.00  0.00     0.074 A 
ATOM     52  C   UNL A   1      47.421  29.290  30.400  1.00  0.00     0.029 A 
ATOM     53  N   UNL A   1      45.287  28.852  29.958  1.00  0.00    -0.354 N 
ATOM     54  N   UNL A   1      42.439  29.496  29.718  1.00  0.00    -0.248 NA
ATOM     55  C   UNL A   1      40.660  30.981  30.015  1.00  0.00     0.031 C 
ATOM     56  C   UNL A   1      46.667  30.429  30.700  1.00  0.00     0.029 A 
ATOM     57  C   UNL A   1      45.339  30.161  30.408  1.00  0.00     0.049 A 
ATOM     58  H   UNL A   1      44.468  28.382  29.681  1.00  0.00     0.167 HD
ATOM     59  C   UNL A   1      42.925  30.697  30.218  1.00  0.00     0.074 A 
ATOM     60  C   UNL A   1      41.789  31.584  30.358  1.00  0.00     0.031 C 
ATOM     61  C   UNL A   1      44.200  31.035  30.530  1.00  0.00     0.037 A 
BRANCH  48  62
ATOM     62  C   UNL A   1      48.288  26.483  29.670  1.00  0.00     0.057 A 
ATOM     63  C   UNL A   1      49.197  26.626  28.613  1.00  0.00     0.134 A 
ATOM     64  C   UNL A   1      48.756  25.896  30.851  1.00  0.00     0.134 A 
ATOM     65  F   UNL A   1      48.807  27.168  27.450  1.00  0.00    -0.206 F 
ATOM     66  C   UNL A   1      50.514  26.175  28.718  1.00  0.00     0.040 A 
ATOM     67  C   UNL A   1      50.078  25.465  30.977  1.00  0.00     0.040 A 
ATOM     68  F   UNL A   1      47.939  25.733  31.903  1.00  0.00    -0.206 F 
ATOM     69  C   UNL A   1      50.959  25.597  29.906  1.00  0.00     0.006 A 
ENDBRANCH  48  62
BRANCH  49  70
ATOM     70  C   UNL A   1      38.689  29.090  28.977  1.00  0.00     0.057 A 
ATOM     71  C   UNL A   1      37.849  28.984  30.091  1.00  0.00     0.134 A 
ATOM     72  C   UNL A   1      38.130  29.577  27.789  1.00  0.00     0.134 A 
ATOM     73  F   UNL A   1      38.325  28.507  31.251  1.00  0.00    -0.206 F 
ATOM     74  C   UNL A   1      36.500  29.334  30.025  1.00  0.00     0.040 A 
ATOM     75  C   UNL A   1      36.788  29.951  27.714  1.00  0.00     0.040 A 
ATOM     76  F   UNL A   1      38.886  29.708  26.689  1.00  0.00    -0.206 F 
ATOM     77  C   UNL A   1      35.967  29.824  28.835  1.00  0.00     0.006 A 
ENDBRANCH  49  70
BRANCH  61  78
ATOM     78  C   UNL A   1      44.440  32.433  31.016  1.00  0.00     0.057 A 
ATOM     79  C   UNL A   1      44.686  33.491  30.131  1.00  0.00     0.134 A 
ATOM     80  C   UNL A   1      44.385  32.729  32.383  1.00  0.00     0.134 A 
ATOM     81  F   UNL A   1      44.765  33.268  28.812  1.00  0.00    -0.206 F 
ATOM     82  C   UNL A   1      44.884  34.793  30.594  1.00  0.00     0.040 A 
ATOM     83  C   UNL A   1      44.561  34.031  32.855  1.00  0.00     0.040 A 
ATOM     84  F   UNL A   1      44.148  31.761  33.281  1.00  0.00    -0.206 F 
ATOM     85  C   UNL A   1      44.815  35.066  31.958  1.00  0.00     0.006 A 
ENDBRANCH  61  78
ENDBRANCH  35  36
ENDBRANCH  27  30
ENDBRANCH  25  26
ENDBRANCH  24  25
ENDBRANCH   1  24
TORSDOF 14
ENDMDL
MODEL 3
REMARK VINA RESULT:     -11.7      5.248     10.719
REMARK SMILES Cc1nc(S(=O)(=O)N[C@H]2C=C[C@H](C(=O)NCCCCNC(=O)c3ccc(-c4c5nc(c(-c6c(F)cccc6F)c6ccc([nH]6)c(-c6c(F)cccc6F)c6nc(c(-c7c(F)cccc7F)c7ccc4[nH]7)C=C6)C=C5)cc3)C2)cn1C
REMARK SMILES IDX 17 1 16 2 15 3 13 4 14 5 12 7 9 8 10 9 77 10 11 11 8 12 5 14
REMARK SMILES IDX 6 15 7 16 4 17 1 18 2 19 3 20 79 21 78 22 80 23 18 24 19 25
REMARK SMILES IDX 20 26 21 27 22 29 23 30 24 31 76 32 25 33 75 34 26 35 27 36
REMARK SMILES IDX 28 37 69 38 29 39 74 40 68 41 70 42 30 43 73 44 67 45 66 46
REMARK SMILES IDX 31 48 57 49 40 50 56 51 41 52 44 53 55 54 71 55 42 56 43 57
REMARK SMILES IDX 54 59 72 60 45 61 32 62 33 63 38 64 34 65 35 66 37 67 39 68
REMARK SMILES IDX 36 69 58 70 59 71 64 72 60 73 61 74 63 75 65 76 62 77 46 78
REMARK SMILES IDX 47 79 52 80 48 81 49 82 51 83 53 84 50 85
REMARK H PARENT 15 6 8 13 20 28 70 47 44 58
REMARK Flexibility Score: inf
ROOT
ATOM      1  C   UNL A   1      36.670  20.631  25.032  1.00  0.00     0.023 C 
ENDROOT
BRANCH   1   2
ATOM      2  C   UNL A   1      36.802  21.968  25.760  1.00  0.00     0.116 C 
BRANCH   2   3
ATOM      3  N   UNL A   1      35.585  22.332  26.463  1.00  0.00    -0.356 N 
ATOM      4  C   UNL A   1      34.653  23.283  26.147  1.00  0.00     0.226 C 
ATOM      5  O   UNL A   1      33.681  23.413  26.891  1.00  0.00    -0.274 OA
ATOM      6  H   UNL A   1      35.405  21.823  27.287  1.00  0.00     0.163 HD
BRANCH   4   7
ATOM      7  C   UNL A   1      34.873  24.131  24.892  1.00  0.00     0.103 C 
ATOM      8  C   UNL A   1      32.889  25.350  24.103  1.00  0.00     0.093 C 
ATOM      9  C   UNL A   1      33.237  24.222  23.197  1.00  0.00    -0.011 C 
ATOM     10  C   UNL A   1      34.131  25.470  24.995  1.00  0.00     0.042 C 
ATOM     11  C   UNL A   1      34.296  23.537  23.641  1.00  0.00    -0.016 C 
BRANCH   8  12
ATOM     12  N   UNL A   1      32.742  26.596  23.358  1.00  0.00    -0.203 NA
ATOM     13  H   UNL A   1      33.587  27.146  23.515  1.00  0.00     0.142 HD
BRANCH  12  14
ATOM     14  S   UNL A   1      31.421  27.579  23.733  1.00  0.00     0.260 S 
ATOM     15  O   UNL A   1      30.485  26.773  24.484  1.00  0.00    -0.205 OA
ATOM     16  O   UNL A   1      31.059  28.244  22.500  1.00  0.00    -0.205 OA
BRANCH  14  17
ATOM     17  C   UNL A   1      31.921  28.855  24.814  1.00  0.00     0.188 A 
ATOM     18  C   UNL A   1      31.391  31.995  26.508  1.00  0.00     0.088 C 
ATOM     19  C   UNL A   1      31.831  30.689  25.954  1.00  0.00     0.106 A 
ATOM     20  N   UNL A   1      31.155  29.978  25.074  1.00  0.00    -0.221 NA
ATOM     21  N   UNL A   1      33.003  30.050  26.288  1.00  0.00    -0.337 N 
ATOM     22  C   UNL A   1      33.094  28.907  25.542  1.00  0.00     0.129 A 
ATOM     23  C   UNL A   1      33.967  30.480  27.272  1.00  0.00     0.151 C 
ENDBRANCH  14  17
ENDBRANCH  12  14
ENDBRANCH   8  12
ENDBRANCH   4   7
ENDBRANCH   2   3
ENDBRANCH   1   2
BRANCH   1  24
ATOM     24  C   UNL A   1      37.992  19.918  24.736  1.00  0.00     0.023 C 
BRANCH  24  25
ATOM     25  C   UNL A   1      39.109  20.165  25.743  1.00  0.00     0.116 C 
BRANCH  25  26
ATOM     26  N   UNL A   1      40.096  19.096  25.773  1.00  0.00    -0.352 N 
ATOM     27  C   UNL A   1      41.449  19.173  26.002  1.00  0.00     0.251 C 
ATOM     28  H   UNL A   1      39.745  18.192  25.606  1.00  0.00     0.163 HD
ATOM     29  O   UNL A   1      42.151  18.177  25.870  1.00  0.00    -0.269 OA
BRANCH  27  30
ATOM     30  C   UNL A   1      42.064  20.466  26.373  1.00  0.00     0.039 A 
ATOM     31  C   UNL A   1      42.680  21.230  25.377  1.00  0.00     0.014 A 
ATOM     32  C   UNL A   1      42.032  20.928  27.691  1.00  0.00     0.014 A 
ATOM     33  C   UNL A   1      43.200  22.488  25.689  1.00  0.00     0.010 A 
ATOM     34  C   UNL A   1      42.493  22.208  27.989  1.00  0.00     0.010 A 
ATOM     35  C   UNL A   1      43.079  23.002  26.990  1.00  0.00    -0.014 A 
BRANCH  35  36
ATOM     36  C   UNL A   1      43.560  24.363  27.334  1.00  0.00     0.031 A 
ATOM     37  C   UNL A   1      42.585  25.414  27.784  1.00  0.00     0.074 A 
ATOM     38  C   UNL A   1      44.859  24.677  27.168  1.00  0.00     0.049 A 
ATOM     39  N   UNL A   1      42.788  26.686  28.022  1.00  0.00    -0.248 NA
ATOM     40  C   UNL A   1      41.188  24.984  27.961  1.00  0.00     0.031 C 
ATOM     41  C   UNL A   1      45.900  23.761  26.702  1.00  0.00     0.029 A 
ATOM     42  N   UNL A   1      45.521  25.865  27.356  1.00  0.00    -0.354 N 
ATOM     43  C   UNL A   1      41.546  27.209  28.355  1.00  0.00     0.074 A 
ATOM     44  C   UNL A   1      40.588  26.130  28.245  1.00  0.00     0.031 C 
ATOM     45  C   UNL A   1      47.074  24.414  26.658  1.00  0.00     0.029 A 
ATOM     46  C   UNL A   1      46.860  25.802  27.056  1.00  0.00     0.049 A 
ATOM     47  H   UNL A   1      45.079  26.684  27.677  1.00  0.00     0.167 HD
ATOM     48  C   UNL A   1      41.233  28.472  28.735  1.00  0.00     0.037 A 
ATOM     49  C   UNL A   1      47.807  26.758  27.088  1.00  0.00     0.037 A 
ATOM     50  C   UNL A   1      42.189  29.537  28.874  1.00  0.00     0.049 A 
ATOM     51  C   UNL A   1      47.436  28.151  27.515  1.00  0.00     0.074 A 
ATOM     52  C   UNL A   1      41.980  30.834  29.308  1.00  0.00     0.029 A 
ATOM     53  N   UNL A   1      43.541  29.426  28.584  1.00  0.00    -0.354 N 
ATOM     54  N   UNL A   1      46.267  28.621  27.874  1.00  0.00    -0.248 NA
ATOM     55  C   UNL A   1      48.519  29.146  27.543  1.00  0.00     0.031 C 
ATOM     56  C   UNL A   1      43.199  31.519  29.250  1.00  0.00     0.029 A 
ATOM     57  C   UNL A   1      44.174  30.637  28.816  1.00  0.00     0.049 A 
ATOM     58  H   UNL A   1      43.985  28.609  28.261  1.00  0.00     0.167 HD
ATOM     59  C   UNL A   1      46.477  29.955  28.199  1.00  0.00     0.074 A 
ATOM     60  C   UNL A   1      47.888  30.218  28.000  1.00  0.00     0.031 C 
ATOM     61  C   UNL A   1      45.582  30.878  28.626  1.00  0.00     0.037 A 
BRANCH  48  62
ATOM     62  C   UNL A   1      39.792  28.763  29.030  1.00  0.00     0.057 A 
ATOM     63  C   UNL A   1      38.904  29.179  28.029  1.00  0.00     0.134 A 
ATOM     64  C   UNL A   1      39.281  28.610  30.325  1.00  0.00     0.134 A 
ATOM     65  F   UNL A   1      39.333  29.357  26.771  1.00  0.00    -0.206 F 
ATOM     66  C   UNL A   1      37.566  29.461  28.312  1.00  0.00     0.040 A 
ATOM     67  C   UNL A   1      37.939  28.864  30.615  1.00  0.00     0.040 A 
ATOM     68  F   UNL A   1      40.077  28.210  31.329  1.00  0.00    -0.206 F 
ATOM     69  C   UNL A   1      37.080  29.298  29.608  1.00  0.00     0.006 A 
ENDBRANCH  48  62
BRANCH  49  70
ATOM     70  C   UNL A   1      49.208  26.425  26.732  1.00  0.00     0.057 A 
ATOM     71  C   UNL A   1      49.689  26.634  25.435  1.00  0.00     0.134 A 
ATOM     72  C   UNL A   1      50.096  25.891  27.673  1.00  0.00     0.134 A 
ATOM     73  F   UNL A   1      48.877  27.126  24.487  1.00  0.00    -0.206 F 
ATOM     74  C   UNL A   1      50.999  26.312  25.080  1.00  0.00     0.040 A 
ATOM     75  C   UNL A   1      51.416  25.583  27.338  1.00  0.00     0.040 A 
ATOM     76  F   UNL A   1      49.697  25.674  28.935  1.00  0.00    -0.206 F 
ATOM     77  C   UNL A   1      51.868  25.789  26.035  1.00  0.00     0.006 A 
ENDBRANCH  49  70
BRANCH  61  78
ATOM     78  C   UNL A   1      46.105  32.246  28.945  1.00  0.00     0.057 A 
ATOM     79  C   UNL A   1      46.147  33.264  27.983  1.00  0.00     0.134 A 
ATOM     80  C   UNL A   1      46.534  32.560  30.240  1.00  0.00     0.134 A 
ATOM     81  F   UNL A   1      45.764  33.022  26.721  1.00  0.00    -0.206 F 
ATOM     82  C   UNL A   1      46.614  34.541  28.297  1.00  0.00     0.040 A 
ATOM     83  C   UNL A   1      46.982  33.839  30.571  1.00  0.00     0.040 A 
ATOM     84  F   UNL A   1      46.513  31.630  31.207  1.00  0.00    -0.206 F 
ATOM     85  C   UNL A   1      47.026  34.833  29.596  1.00  0.00     0.006 A 
ENDBRANCH  61  78
ENDBRANCH  35  36
ENDBRANCH  27  30
ENDBRANCH  25  26
ENDBRANCH  24  25
ENDBRANCH   1  24
TORSDOF 14
ENDMDL
