MODEL 1
REMARK VINA RESULT:     -12.0      0.000      0.000
REMARK SMILES CC[C@@H](C(=O)Nc1ccc(OC(C)=O)cc1C(=O)NCCCCNC(=O)c1ccc(-c2c3nc(c(-c4c(F)cccc4F)c4ccc([nH]4)c(-c4c(F)cccc4F)c4nc(c(-c5c(F)cccc5F)c5ccc2[nH]5)C=C4)C=C3)cc1)c1ccccc1
REMARK SMILES IDX 21 1 20 2 19 3 17 4 18 5 16 7 7 8 8 9 9 10 15 11 10 12 6 13
REMARK SMILES IDX 4 14 5 15 3 17 2 18 1 19 81 20 82 21 86 22 83 23 85 24 84 25
REMARK SMILES IDX 11 26 12 27 13 28 14 29 22 30 23 31 24 32 25 33 26 35 27 36
REMARK SMILES IDX 28 37 80 38 29 39 79 40 30 41 31 42 32 43 73 44 33 45 78 46
REMARK SMILES IDX 72 47 74 48 34 49 77 50 71 51 70 52 35 54 61 55 44 56 60 57
REMARK SMILES IDX 45 58 48 59 59 60 75 61 46 62 47 63 58 65 76 66 49 67 36 68
REMARK SMILES IDX 37 69 42 70 38 71 39 72 41 73 43 74 40 75 62 76 63 77 68 78
REMARK SMILES IDX 64 79 65 80 67 81 69 82 66 83 50 84 51 85 56 86 52 87 53 88
REMARK SMILES IDX 55 89 57 90 54 91
REMARK H PARENT 19 6 6 16 24 34 74 53 48 64
REMARK Flexibility Score: inf
ROOT
ATOM      1  C   UNL A   1      36.686  20.552  24.928  1.00  0.00     0.023 C 
ENDROOT
BRANCH   1   2
ATOM      2  C   UNL A   1      36.628  21.805  25.793  1.00  0.00     0.116 C 
BRANCH   2   3
ATOM      3  N   UNL A   1      35.527  21.835  26.728  1.00  0.00    -0.352 N 
ATOM      4  C   UNL A   1      34.193  21.570  26.565  1.00  0.00     0.253 C 
ATOM      5  O   UNL A   1      33.474  21.692  27.561  1.00  0.00    -0.269 OA
ATOM      6  H   UNL A   1      35.781  22.090  27.645  1.00  0.00     0.163 HD
BRANCH   4   7
ATOM      7  C   UNL A   1      33.537  21.190  25.277  1.00  0.00     0.067 A 
ATOM      8  C   UNL A   1      33.272  21.988  24.149  1.00  0.00     0.054 A 
ATOM      9  C   UNL A   1      32.461  21.469  23.113  1.00  0.00     0.031 A 
ATOM     10  C   UNL A   1      32.109  20.122  23.074  1.00  0.00     0.049 A 
ATOM     11  C   UNL A   1      33.150  19.828  25.229  1.00  0.00     0.063 A 
ATOM     12  C   UNL A   1      32.521  19.297  24.106  1.00  0.00     0.131 A 
BRANCH   8  13
ATOM     13  N   UNL A   1      33.682  23.299  23.901  1.00  0.00    -0.325 N 
ATOM     14  C   UNL A   1      33.261  24.557  24.194  1.00  0.00     0.231 C 
ATOM     15  O   UNL A   1      33.866  25.394  23.501  1.00  0.00    -0.274 OA
ATOM     16  H   UNL A   1      34.507  23.317  23.363  1.00  0.00     0.169 HD
BRANCH  14  17
ATOM     17  C   UNL A   1      32.349  25.014  25.385  1.00  0.00     0.108 C 
BRANCH  17  18
ATOM     18  C   UNL A   1      30.896  24.517  25.417  1.00  0.00     0.015 C 
ATOM     19  C   UNL A   1      30.603  23.427  26.435  1.00  0.00     0.005 C 
ENDBRANCH  17  18
BRANCH  17  20
ATOM     20  C   UNL A   1      32.459  26.551  25.645  1.00  0.00    -0.036 A 
ATOM     21  C   UNL A   1      31.409  27.408  25.253  1.00  0.00     0.004 A 
ATOM     22  C   UNL A   1      33.603  27.174  26.181  1.00  0.00     0.004 A 
ATOM     23  C   UNL A   1      31.483  28.796  25.413  1.00  0.00     0.000 A 
ATOM     24  C   UNL A   1      33.703  28.568  26.287  1.00  0.00     0.000 A 
ATOM     25  C   UNL A   1      32.640  29.379  25.911  1.00  0.00     0.000 A 
ENDBRANCH  17  20
ENDBRANCH  14  17
ENDBRANCH   8  13
BRANCH  12  26
ATOM     26  O   UNL A   1      32.210  17.931  24.015  1.00  0.00    -0.427 OA
BRANCH  26  27
ATOM     27  C   UNL A   1      33.227  16.993  23.826  1.00  0.00     0.308 C 
ATOM     28  C   UNL A   1      33.547  16.114  25.002  1.00  0.00     0.139 C 
ATOM     29  O   UNL A   1      33.757  16.840  22.730  1.00  0.00    -0.252 OA
ENDBRANCH  26  27
ENDBRANCH  12  26
ENDBRANCH   4   7
ENDBRANCH   2   3
ENDBRANCH   1   2
BRANCH   1  30
ATOM     30  C   UNL A   1      38.090  19.970  24.721  1.00  0.00     0.023 C 
BRANCH  30  31
ATOM     31  C   UNL A   1      39.119  20.251  25.819  1.00  0.00     0.116 C 
BRANCH  31  32
ATOM     32  N   UNL A   1      40.230  19.310  25.831  1.00  0.00    -0.352 N 
ATOM     33  C   UNL A   1      41.563  19.509  26.115  1.00  0.00     0.251 C 
ATOM     34  H   UNL A   1      39.990  18.383  25.600  1.00  0.00     0.163 HD
ATOM     35  O   UNL A   1      42.380  18.619  25.935  1.00  0.00    -0.269 OA
BRANCH  33  36
ATOM     36  C   UNL A   1      42.015  20.825  26.621  1.00  0.00     0.039 A 
ATOM     37  C   UNL A   1      42.453  21.791  25.712  1.00  0.00     0.014 A 
ATOM     38  C   UNL A   1      42.008  21.102  27.990  1.00  0.00     0.014 A 
ATOM     39  C   UNL A   1      42.797  23.066  26.170  1.00  0.00     0.010 A 
ATOM     40  C   UNL A   1      42.274  22.393  28.436  1.00  0.00     0.010 A 
ATOM     41  C   UNL A   1      42.668  23.390  27.531  1.00  0.00    -0.014 A 
BRANCH  41  42
ATOM     42  C   UNL A   1      42.934  24.766  28.026  1.00  0.00     0.031 A 
ATOM     43  C   UNL A   1      44.329  25.181  28.401  1.00  0.00     0.074 A 
ATOM     44  C   UNL A   1      41.906  25.620  28.206  1.00  0.00     0.049 A 
ATOM     45  N   UNL A   1      44.748  26.314  28.907  1.00  0.00    -0.248 NA
ATOM     46  C   UNL A   1      45.390  24.180  28.213  1.00  0.00     0.031 C 
ATOM     47  C   UNL A   1      40.498  25.321  27.941  1.00  0.00     0.029 A 
ATOM     48  N   UNL A   1      41.889  26.913  28.669  1.00  0.00    -0.354 N 
ATOM     49  C   UNL A   1      46.113  26.155  29.110  1.00  0.00     0.074 A 
ATOM     50  C   UNL A   1      46.441  24.798  28.728  1.00  0.00     0.031 C 
ATOM     51  C   UNL A   1      39.757  26.407  28.219  1.00  0.00     0.029 A 
ATOM     52  C   UNL A   1      40.631  27.466  28.712  1.00  0.00     0.049 A 
ATOM     53  H   UNL A   1      42.700  27.398  28.944  1.00  0.00     0.167 HD
ATOM     54  C   UNL A   1      47.017  27.063  29.549  1.00  0.00     0.037 A 
ATOM     55  C   UNL A   1      40.229  28.689  29.105  1.00  0.00     0.037 A 
ATOM     56  C   UNL A   1      46.694  28.420  29.901  1.00  0.00     0.049 A 
ATOM     57  C   UNL A   1      41.253  29.686  29.574  1.00  0.00     0.074 A 
ATOM     58  C   UNL A   1      47.549  29.435  30.298  1.00  0.00     0.029 A 
ATOM     59  N   UNL A   1      45.415  28.953  29.900  1.00  0.00    -0.354 N 
ATOM     60  N   UNL A   1      42.552  29.545  29.690  1.00  0.00    -0.248 NA
ATOM     61  C   UNL A   1      40.757  31.016  29.957  1.00  0.00     0.031 C 
ATOM     62  C   UNL A   1      46.780  30.571  30.573  1.00  0.00     0.029 A 
ATOM     63  C   UNL A   1      45.453  30.277  30.303  1.00  0.00     0.049 A 
ATOM     64  H   UNL A   1      44.599  28.462  29.649  1.00  0.00     0.167 HD
ATOM     65  C   UNL A   1      43.030  30.773  30.127  1.00  0.00     0.074 A 
ATOM     66  C   UNL A   1      41.884  31.650  30.245  1.00  0.00     0.031 C 
ATOM     67  C   UNL A   1      44.304  31.142  30.405  1.00  0.00     0.037 A 
BRANCH  54  68
ATOM     68  C   UNL A   1      48.445  26.614  29.662  1.00  0.00     0.057 A 
ATOM     69  C   UNL A   1      48.932  25.986  30.816  1.00  0.00     0.134 A 
ATOM     70  C   UNL A   1      49.339  26.790  28.598  1.00  0.00     0.134 A 
ATOM     71  F   UNL A   1      48.132  25.796  31.876  1.00  0.00    -0.206 F 
ATOM     72  C   UNL A   1      50.263  25.578  30.920  1.00  0.00     0.040 A 
ATOM     73  C   UNL A   1      50.665  26.362  28.679  1.00  0.00     0.040 A 
ATOM     74  F   UNL A   1      48.938  27.379  27.461  1.00  0.00    -0.206 F 
ATOM     75  C   UNL A   1      51.132  25.760  29.847  1.00  0.00     0.006 A 
ENDBRANCH  54  68
BRANCH  55  76
ATOM     76  C   UNL A   1      38.792  29.058  29.035  1.00  0.00     0.057 A 
ATOM     77  C   UNL A   1      37.971  28.971  30.165  1.00  0.00     0.134 A 
ATOM     78  C   UNL A   1      38.205  29.496  27.843  1.00  0.00     0.134 A 
ATOM     79  F   UNL A   1      38.473  28.540  31.332  1.00  0.00    -0.206 F 
ATOM     80  C   UNL A   1      36.612  29.286  30.108  1.00  0.00     0.040 A 
ATOM     81  C   UNL A   1      36.852  29.836  27.777  1.00  0.00     0.040 A 
ATOM     82  F   UNL A   1      38.939  29.608  26.726  1.00  0.00    -0.206 F 
ATOM     83  C   UNL A   1      36.050  29.723  28.911  1.00  0.00     0.006 A 
ENDBRANCH  55  76
BRANCH  67  84
ATOM     84  C   UNL A   1      44.533  32.565  30.821  1.00  0.00     0.057 A 
ATOM     85  C   UNL A   1      44.539  32.951  32.168  1.00  0.00     0.134 A 
ATOM     86  C   UNL A   1      44.783  33.556  29.863  1.00  0.00     0.134 A 
ATOM     87  F   UNL A   1      44.293  32.054  33.134  1.00  0.00    -0.206 F 
ATOM     88  C   UNL A   1      44.763  34.277  32.544  1.00  0.00     0.040 A 
ATOM     89  C   UNL A   1      45.034  34.878  30.228  1.00  0.00     0.040 A 
ATOM     90  F   UNL A   1      44.799  33.250  28.556  1.00  0.00    -0.206 F 
ATOM     91  C   UNL A   1      45.018  35.243  31.572  1.00  0.00     0.006 A 
ENDBRANCH  67  84
ENDBRANCH  41  42
ENDBRANCH  33  36
ENDBRANCH  31  32
ENDBRANCH  30  31
ENDBRANCH   1  30
TORSDOF 17
ENDMDL
MODEL 2
REMARK VINA RESULT:     -11.9      0.753      6.038
REMARK SMILES CC[C@@H](C(=O)Nc1ccc(OC(C)=O)cc1C(=O)NCCCCNC(=O)c1ccc(-c2c3nc(c(-c4c(F)cccc4F)c4ccc([nH]4)c(-c4c(F)cccc4F)c4nc(c(-c5c(F)cccc5F)c5ccc2[nH]5)C=C4)C=C3)cc1)c1ccccc1
REMARK SMILES IDX 21 1 20 2 19 3 17 4 18 5 16 7 7 8 8 9 9 10 15 11 10 12 6 13
REMARK SMILES IDX 4 14 5 15 3 17 2 18 1 19 81 20 82 21 86 22 83 23 85 24 84 25
REMARK SMILES IDX 11 26 12 27 13 28 14 29 22 30 23 31 24 32 25 33 26 35 27 36
REMARK SMILES IDX 28 37 80 38 29 39 79 40 30 41 31 42 32 43 73 44 33 45 78 46
REMARK SMILES IDX 72 47 74 48 34 49 77 50 71 51 70 52 35 54 61 55 44 56 60 57
REMARK SMILES IDX 45 58 48 59 59 60 75 61 46 62 47 63 58 65 76 66 49 67 36 68
REMARK SMILES IDX 37 69 42 70 38 71 39 72 41 73 43 74 40 75 62 76 63 77 68 78
REMARK SMILES IDX 64 79 65 80 67 81 69 82 66 83 50 84 51 85 56 86 52 87 53 88
REMARK SMILES IDX 55 89 57 90 54 91
REMARK H PARENT 19 6 6 16 24 34 74 53 48 64
REMARK Flexibility Score: inf
ROOT
ATOM      1  C   UNL A   1      36.933  21.054  24.558  1.00  0.00     0.023 C 
ENDROOT
BRANCH   1   2
ATOM      2  C   UNL A   1      36.897  22.255  25.495  1.00  0.00     0.116 C 
BRANCH   2   3
ATOM      3  N   UNL A   1      35.909  22.163  26.546  1.00  0.00    -0.352 N 
ATOM      4  C   UNL A   1      34.593  21.782  26.521  1.00  0.00     0.253 C 
ATOM      5  O   UNL A   1      33.983  21.816  27.593  1.00  0.00    -0.269 OA
ATOM      6  H   UNL A   1      36.241  22.418  27.437  1.00  0.00     0.163 HD
BRANCH   4   7
ATOM      7  C   UNL A   1      33.833  21.376  25.300  1.00  0.00     0.067 A 
ATOM      8  C   UNL A   1      33.475  22.149  24.181  1.00  0.00     0.054 A 
ATOM      9  C   UNL A   1      32.581  21.609  23.228  1.00  0.00     0.031 A 
ATOM     10  C   UNL A   1      32.226  20.262  23.247  1.00  0.00     0.049 A 
ATOM     11  C   UNL A   1      33.443  20.014  25.314  1.00  0.00     0.063 A 
ATOM     12  C   UNL A   1      32.722  19.460  24.260  1.00  0.00     0.131 A 
BRANCH   8  13
ATOM     13  N   UNL A   1      33.863  23.454  23.871  1.00  0.00    -0.325 N 
ATOM     14  C   UNL A   1      33.381  24.713  24.035  1.00  0.00     0.231 C 
ATOM     15  O   UNL A   1      34.014  25.521  23.333  1.00  0.00    -0.274 OA
ATOM     16  H   UNL A   1      34.729  23.464  23.402  1.00  0.00     0.169 HD
BRANCH  14  17
ATOM     17  C   UNL A   1      32.358  25.219  25.112  1.00  0.00     0.108 C 
BRANCH  17  18
ATOM     18  C   UNL A   1      30.883  24.822  24.953  1.00  0.00     0.015 C 
ATOM     19  C   UNL A   1      30.416  24.611  23.522  1.00  0.00     0.005 C 
ENDBRANCH  17  18
BRANCH  17  20
ATOM     20  C   UNL A   1      32.536  26.743  25.411  1.00  0.00    -0.036 A 
ATOM     21  C   UNL A   1      33.568  27.176  26.270  1.00  0.00     0.004 A 
ATOM     22  C   UNL A   1      31.661  27.740  24.937  1.00  0.00     0.004 A 
ATOM     23  C   UNL A   1      33.734  28.522  26.613  1.00  0.00     0.000 A 
ATOM     24  C   UNL A   1      31.791  29.080  25.326  1.00  0.00     0.000 A 
ATOM     25  C   UNL A   1      32.832  29.474  26.157  1.00  0.00     0.000 A 
ENDBRANCH  17  20
ENDBRANCH  14  17
ENDBRANCH   8  13
BRANCH  12  26
ATOM     26  O   UNL A   1      32.405  18.092  24.225  1.00  0.00    -0.427 OA
BRANCH  26  27
ATOM     27  C   UNL A   1      33.290  17.183  23.643  1.00  0.00     0.308 C 
ATOM     28  C   UNL A   1      33.918  16.181  24.570  1.00  0.00     0.139 C 
ATOM     29  O   UNL A   1      33.465  17.153  22.429  1.00  0.00    -0.252 OA
ENDBRANCH  26  27
ENDBRANCH  12  26
ENDBRANCH   4   7
ENDBRANCH   2   3
ENDBRANCH   1   2
BRANCH   1  30
ATOM     30  C   UNL A   1      37.889  19.930  24.978  1.00  0.00     0.023 C 
BRANCH  30  31
ATOM     31  C   UNL A   1      39.137  20.348  25.761  1.00  0.00     0.116 C 
BRANCH  31  32
ATOM     32  N   UNL A   1      40.157  19.311  25.828  1.00  0.00    -0.352 N 
ATOM     33  C   UNL A   1      41.500  19.401  26.120  1.00  0.00     0.251 C 
ATOM     34  H   UNL A   1      39.836  18.401  25.632  1.00  0.00     0.163 HD
ATOM     35  O   UNL A   1      42.234  18.434  25.988  1.00  0.00    -0.269 OA
BRANCH  33  36
ATOM     36  C   UNL A   1      42.065  20.690  26.577  1.00  0.00     0.039 A 
ATOM     37  C   UNL A   1      42.588  21.578  25.633  1.00  0.00     0.014 A 
ATOM     38  C   UNL A   1      42.080  21.020  27.934  1.00  0.00     0.014 A 
ATOM     39  C   UNL A   1      43.042  22.835  26.044  1.00  0.00     0.010 A 
ATOM     40  C   UNL A   1      42.458  22.299  28.331  1.00  0.00     0.010 A 
ATOM     41  C   UNL A   1      42.940  23.222  27.391  1.00  0.00    -0.014 A 
BRANCH  41  42
ATOM     42  C   UNL A   1      43.325  24.587  27.833  1.00  0.00     0.031 A 
ATOM     43  C   UNL A   1      42.268  25.616  28.125  1.00  0.00     0.074 A 
ATOM     44  C   UNL A   1      44.628  24.924  27.903  1.00  0.00     0.049 A 
ATOM     45  N   UNL A   1      42.407  26.874  28.463  1.00  0.00    -0.248 NA
ATOM     46  C   UNL A   1      40.868  25.184  27.988  1.00  0.00     0.031 C 
ATOM     47  C   UNL A   1      45.751  24.039  27.586  1.00  0.00     0.029 A 
ATOM     48  N   UNL A   1      45.229  26.108  28.252  1.00  0.00    -0.354 N 
ATOM     49  C   UNL A   1      41.118  27.383  28.563  1.00  0.00     0.074 A 
ATOM     50  C   UNL A   1      40.213  26.316  28.194  1.00  0.00     0.031 C 
ATOM     51  C   UNL A   1      46.903  24.702  27.781  1.00  0.00     0.029 A 
ATOM     52  C   UNL A   1      46.601  26.066  28.204  1.00  0.00     0.049 A 
ATOM     53  H   UNL A   1      44.724  26.913  28.513  1.00  0.00     0.167 HD
ATOM     54  C   UNL A   1      40.722  28.617  28.953  1.00  0.00     0.037 A 
ATOM     55  C   UNL A   1      47.515  27.019  28.472  1.00  0.00     0.037 A 
ATOM     56  C   UNL A   1      41.622  29.669  29.347  1.00  0.00     0.049 A 
ATOM     57  C   UNL A   1      47.050  28.378  28.918  1.00  0.00     0.074 A 
ATOM     58  C   UNL A   1      41.316  30.935  29.817  1.00  0.00     0.029 A 
ATOM     59  N   UNL A   1      43.005  29.577  29.317  1.00  0.00    -0.354 N 
ATOM     60  N   UNL A   1      45.827  28.823  29.080  1.00  0.00    -0.248 NA
ATOM     61  C   UNL A   1      48.094  29.366  29.228  1.00  0.00     0.031 C 
ATOM     62  C   UNL A   1      42.516  31.621  30.035  1.00  0.00     0.029 A 
ATOM     63  C   UNL A   1      43.568  30.767  29.746  1.00  0.00     0.049 A 
ATOM     64  H   UNL A   1      43.512  28.782  29.034  1.00  0.00     0.167 HD
ATOM     65  C   UNL A   1      45.954  30.126  29.541  1.00  0.00     0.074 A 
ATOM     66  C   UNL A   1      47.373  30.397  29.643  1.00  0.00     0.031 C 
ATOM     67  C   UNL A   1      44.983  31.019  29.853  1.00  0.00     0.037 A 
BRANCH  54  68
ATOM     68  C   UNL A   1      39.247  28.891  28.980  1.00  0.00     0.057 A 
ATOM     69  C   UNL A   1      38.482  28.704  30.140  1.00  0.00     0.134 A 
ATOM     70  C   UNL A   1      38.584  29.368  27.842  1.00  0.00     0.134 A 
ATOM     71  F   UNL A   1      39.053  28.239  31.261  1.00  0.00    -0.206 F 
ATOM     72  C   UNL A   1      37.109  28.952  30.158  1.00  0.00     0.040 A 
ATOM     73  C   UNL A   1      37.216  29.646  27.855  1.00  0.00     0.040 A 
ATOM     74  F   UNL A   1      39.256  29.575  26.699  1.00  0.00    -0.206 F 
ATOM     75  C   UNL A   1      36.473  29.430  29.014  1.00  0.00     0.006 A 
ENDBRANCH  54  68
BRANCH  55  76
ATOM     76  C   UNL A   1      48.964  26.713  28.364  1.00  0.00     0.057 A 
ATOM     77  C   UNL A   1      49.678  26.215  29.460  1.00  0.00     0.134 A 
ATOM     78  C   UNL A   1      49.670  26.919  27.174  1.00  0.00     0.134 A 
ATOM     79  F   UNL A   1      49.059  26.015  30.633  1.00  0.00    -0.206 F 
ATOM     80  C   UNL A   1      51.046  25.951  29.384  1.00  0.00     0.040 A 
ATOM     81  C   UNL A   1      51.034  26.638  27.076  1.00  0.00     0.040 A 
ATOM     82  F   UNL A   1      49.042  27.388  26.085  1.00  0.00    -0.206 F 
ATOM     83  C   UNL A   1      51.728  26.160  28.186  1.00  0.00     0.006 A 
ENDBRANCH  55  76
BRANCH  67  84
ATOM     84  C   UNL A   1      45.420  32.356  30.374  1.00  0.00     0.057 A 
ATOM     85  C   UNL A   1      45.628  33.451  29.525  1.00  0.00     0.134 A 
ATOM     86  C   UNL A   1      45.602  32.559  31.748  1.00  0.00     0.134 A 
ATOM     87  F   UNL A   1      45.483  33.319  28.198  1.00  0.00    -0.206 F 
ATOM     88  C   UNL A   1      46.025  34.693  30.023  1.00  0.00     0.040 A 
ATOM     89  C   UNL A   1      45.973  33.803  32.260  1.00  0.00     0.040 A 
ATOM     90  F   UNL A   1      45.411  31.554  32.616  1.00  0.00    -0.206 F 
ATOM     91  C   UNL A   1      46.191  34.873  31.395  1.00  0.00     0.006 A 
ENDBRANCH  67  84
ENDBRANCH  41  42
ENDBRANCH  33  36
ENDBRANCH  31  32
ENDBRANCH  30  31
ENDBRANCH   1  30
TORSDOF 17
ENDMDL
MODEL 3
REMARK VINA RESULT:     -11.8      1.301      2.393
REMARK SMILES CC[C@@H](C(=O)Nc1ccc(OC(C)=O)cc1C(=O)NCCCCNC(=O)c1ccc(-c2c3nc(c(-c4c(F)cccc4F)c4ccc([nH]4)c(-c4c(F)cccc4F)c4nc(c(-c5c(F)cccc5F)c5ccc2[nH]5)C=C4)C=C3)cc1)c1ccccc1
REMARK SMILES IDX 21 1 20 2 19 3 17 4 18 5 16 7 7 8 8 9 9 10 15 11 10 12 6 13
REMARK SMILES IDX 4 14 5 15 3 17 2 18 1 19 81 20 82 21 86 22 83 23 85 24 84 25
REMARK SMILES IDX 11 26 12 27 13 28 14 29 22 30 23 31 24 32 25 33 26 35 27 36
REMARK SMILES IDX 28 37 80 38 29 39 79 40 30 41 31 42 32 43 73 44 33 45 78 46
REMARK SMILES IDX 72 47 74 48 34 49 77 50 71 51 70 52 35 54 61 55 44 56 60 57
REMARK SMILES IDX 45 58 48 59 59 60 75 61 46 62 47 63 58 65 76 66 49 67 36 68
REMARK SMILES IDX 37 69 42 70 38 71 39 72 41 73 43 74 40 75 62 76 63 77 68 78
REMARK SMILES IDX 64 79 65 80 67 81 69 82 66 83 50 84 51 85 56 86 52 87 53 88
REMARK SMILES IDX 55 89 57 90 54 91
REMARK H PARENT 19 6 6 16 24 34 74 53 48 64
REMARK Flexibility Score: inf
ROOT
ATOM      1  C   UNL A   1      39.244  22.644  26.469  1.00  0.00     0.023 C 
ENDROOT
BRANCH   1   2
ATOM      2  C   UNL A   1      38.096  23.598  26.163  1.00  0.00     0.116 C 
BRANCH   2   3
ATOM      3  N   UNL A   1      37.675  23.601  24.781  1.00  0.00    -0.352 N 
ATOM      4  C   UNL A   1      36.519  23.170  24.184  1.00  0.00     0.253 C 
ATOM      5  O   UNL A   1      36.446  23.292  22.958  1.00  0.00    -0.269 OA
ATOM      6  H   UNL A   1      38.336  23.981  24.157  1.00  0.00     0.163 HD
BRANCH   4   7
ATOM      7  C   UNL A   1      35.368  22.530  24.890  1.00  0.00     0.067 A 
ATOM      8  C   UNL A   1      34.423  23.112  25.754  1.00  0.00     0.054 A 
ATOM      9  C   UNL A   1      33.535  22.275  26.468  1.00  0.00     0.031 A 
ATOM     10  C   UNL A   1      33.419  20.919  26.171  1.00  0.00     0.049 A 
ATOM     11  C   UNL A   1      35.250  21.144  24.619  1.00  0.00     0.063 A 
ATOM     12  C   UNL A   1      34.237  20.381  25.193  1.00  0.00     0.131 A 
BRANCH   8  13
ATOM     13  N   UNL A   1      34.244  24.464  26.055  1.00  0.00    -0.325 N 
ATOM     14  C   UNL A   1      33.549  25.521  25.559  1.00  0.00     0.231 C 
ATOM     15  O   UNL A   1      33.949  26.584  26.065  1.00  0.00    -0.274 OA
ATOM     16  H   UNL A   1      34.767  24.723  26.847  1.00  0.00     0.169 HD
BRANCH  14  17
ATOM     17  C   UNL A   1      32.252  25.492  24.678  1.00  0.00     0.108 C 
BRANCH  17  18
ATOM     18  C   UNL A   1      30.894  25.631  25.383  1.00  0.00     0.015 C 
ATOM     19  C   UNL A   1      29.845  26.426  24.624  1.00  0.00     0.005 C 
ENDBRANCH  17  18
BRANCH  17  20
ATOM     20  C   UNL A   1      32.272  24.314  23.651  1.00  0.00    -0.036 A 
ATOM     21  C   UNL A   1      31.458  23.182  23.862  1.00  0.00     0.004 A 
ATOM     22  C   UNL A   1      33.136  24.261  22.539  1.00  0.00     0.004 A 
ATOM     23  C   UNL A   1      31.482  22.078  23.002  1.00  0.00     0.000 A 
ATOM     24  C   UNL A   1      33.203  23.133  21.711  1.00  0.00     0.000 A 
ATOM     25  C   UNL A   1      32.370  22.044  21.937  1.00  0.00     0.000 A 
ENDBRANCH  17  20
ENDBRANCH  14  17
ENDBRANCH   8  13
BRANCH  12  26
ATOM     26  O   UNL A   1      34.060  19.027  24.864  1.00  0.00    -0.427 OA
BRANCH  26  27
ATOM     27  C   UNL A   1      32.787  18.543  24.558  1.00  0.00     0.308 C 
ATOM     28  C   UNL A   1      32.420  18.516  23.101  1.00  0.00     0.139 C 
ATOM     29  O   UNL A   1      32.055  18.080  25.426  1.00  0.00    -0.252 OA
ENDBRANCH  26  27
ENDBRANCH  12  26
ENDBRANCH   4   7
ENDBRANCH   2   3
ENDBRANCH   1   2
BRANCH   1  30
ATOM     30  C   UNL A   1      39.227  21.331  25.676  1.00  0.00     0.023 C 
BRANCH  30  31
ATOM     31  C   UNL A   1      39.593  20.060  26.445  1.00  0.00     0.116 C 
BRANCH  31  32
ATOM     32  N   UNL A   1      40.767  19.377  25.917  1.00  0.00    -0.352 N 
ATOM     33  C   UNL A   1      42.069  19.810  25.795  1.00  0.00     0.251 C 
ATOM     34  H   UNL A   1      40.604  18.461  25.596  1.00  0.00     0.163 HD
ATOM     35  O   UNL A   1      42.895  19.143  25.193  1.00  0.00    -0.269 OA
BRANCH  33  36
ATOM     36  C   UNL A   1      42.466  21.111  26.380  1.00  0.00     0.039 A 
ATOM     37  C   UNL A   1      42.860  22.148  25.531  1.00  0.00     0.014 A 
ATOM     38  C   UNL A   1      42.449  21.304  27.763  1.00  0.00     0.014 A 
ATOM     39  C   UNL A   1      43.151  23.407  26.066  1.00  0.00     0.010 A 
ATOM     40  C   UNL A   1      42.662  22.576  28.286  1.00  0.00     0.010 A 
ATOM     41  C   UNL A   1      43.011  23.642  27.444  1.00  0.00    -0.014 A 
BRANCH  41  42
ATOM     42  C   UNL A   1      43.219  24.995  28.021  1.00  0.00     0.031 A 
ATOM     43  C   UNL A   1      44.590  25.431  28.458  1.00  0.00     0.074 A 
ATOM     44  C   UNL A   1      42.161  25.806  28.219  1.00  0.00     0.049 A 
ATOM     45  N   UNL A   1      44.959  26.546  29.037  1.00  0.00    -0.248 NA
ATOM     46  C   UNL A   1      45.688  24.475  28.245  1.00  0.00     0.031 C 
ATOM     47  C   UNL A   1      40.770  25.480  27.898  1.00  0.00     0.029 A 
ATOM     48  N   UNL A   1      42.089  27.070  28.752  1.00  0.00    -0.354 N 
ATOM     49  C   UNL A   1      46.323  26.418  29.270  1.00  0.00     0.074 A 
ATOM     50  C   UNL A   1      46.704  25.096  28.823  1.00  0.00     0.031 C 
ATOM     51  C   UNL A   1      39.988  26.525  28.214  1.00  0.00     0.029 A 
ATOM     52  C   UNL A   1      40.814  27.581  28.790  1.00  0.00     0.049 A 
ATOM     53  H   UNL A   1      42.877  27.564  29.076  1.00  0.00     0.167 HD
ATOM     54  C   UNL A   1      47.185  27.327  29.783  1.00  0.00     0.037 A 
ATOM     55  C   UNL A   1      40.362  28.768  29.238  1.00  0.00     0.037 A 
ATOM     56  C   UNL A   1      46.810  28.652  30.201  1.00  0.00     0.049 A 
ATOM     57  C   UNL A   1      41.341  29.767  29.790  1.00  0.00     0.074 A 
ATOM     58  C   UNL A   1      47.620  29.668  30.676  1.00  0.00     0.029 A 
ATOM     59  N   UNL A   1      45.514  29.145  30.192  1.00  0.00    -0.354 N 
ATOM     60  N   UNL A   1      42.640  29.660  29.935  1.00  0.00    -0.248 NA
ATOM     61  C   UNL A   1      40.792  31.058  30.232  1.00  0.00     0.031 C 
ATOM     62  C   UNL A   1      46.808  30.763  30.992  1.00  0.00     0.029 A 
ATOM     63  C   UNL A   1      45.499  30.445  30.669  1.00  0.00     0.049 A 
ATOM     64  H   UNL A   1      44.721  28.644  29.892  1.00  0.00     0.167 HD
ATOM     65  C   UNL A   1      43.067  30.875  30.452  1.00  0.00     0.074 A 
ATOM     66  C   UNL A   1      41.890  31.709  30.585  1.00  0.00     0.031 C 
ATOM     67  C   UNL A   1      44.321  31.267  30.786  1.00  0.00     0.037 A 
BRANCH  54  68
ATOM     68  C   UNL A   1      48.623  26.917  29.911  1.00  0.00     0.057 A 
ATOM     69  C   UNL A   1      49.114  26.300  31.070  1.00  0.00     0.134 A 
ATOM     70  C   UNL A   1      49.524  27.119  28.858  1.00  0.00     0.134 A 
ATOM     71  F   UNL A   1      48.307  26.087  32.120  1.00  0.00    -0.206 F 
ATOM     72  C   UNL A   1      50.454  25.928  31.188  1.00  0.00     0.040 A 
ATOM     73  C   UNL A   1      50.860  26.726  28.953  1.00  0.00     0.040 A 
ATOM     74  F   UNL A   1      49.120  27.699  27.717  1.00  0.00    -0.206 F 
ATOM     75  C   UNL A   1      51.330  26.135  30.125  1.00  0.00     0.006 A 
ENDBRANCH  54  68
BRANCH  55  76
ATOM     76  C   UNL A   1      38.917  29.096  29.148  1.00  0.00     0.057 A 
ATOM     77  C   UNL A   1      38.346  29.511  27.940  1.00  0.00     0.134 A 
ATOM     78  C   UNL A   1      38.076  29.013  30.264  1.00  0.00     0.134 A 
ATOM     79  F   UNL A   1      39.106  29.628  26.840  1.00  0.00    -0.206 F 
ATOM     80  C   UNL A   1      36.996  29.853  27.847  1.00  0.00     0.040 A 
ATOM     81  C   UNL A   1      36.718  29.329  30.180  1.00  0.00     0.040 A 
ATOM     82  F   UNL A   1      38.560  28.614  31.450  1.00  0.00    -0.206 F 
ATOM     83  C   UNL A   1      36.177  29.758  28.970  1.00  0.00     0.006 A 
ENDBRANCH  55  76
BRANCH  67  84
ATOM     84  C   UNL A   1      44.492  32.671  31.286  1.00  0.00     0.057 A 
ATOM     85  C   UNL A   1      44.446  32.982  32.652  1.00  0.00     0.134 A 
ATOM     86  C   UNL A   1      44.741  33.720  30.392  1.00  0.00     0.134 A 
ATOM     87  F   UNL A   1      44.199  32.025  33.559  1.00  0.00    -0.206 F 
ATOM     88  C   UNL A   1      44.617  34.291  33.107  1.00  0.00     0.040 A 
ATOM     89  C   UNL A   1      44.939  35.027  30.836  1.00  0.00     0.040 A 
ATOM     90  F   UNL A   1      44.806  33.488  29.072  1.00  0.00    -0.206 F 
ATOM     91  C   UNL A   1      44.872  35.317  32.197  1.00  0.00     0.006 A 
ENDBRANCH  67  84
ENDBRANCH  41  42
ENDBRANCH  33  36
ENDBRANCH  31  32
ENDBRANCH  30  31
ENDBRANCH   1  30
TORSDOF 17
ENDMDL
