MODEL 1
REMARK VINA RESULT:     -13.1      0.000      0.000
REMARK SMILES Cc1ccc(C(=O)N2CCCC[C@@H]2C(=O)NCCCCNC(=O)c2ccc(-c3c4nc(c(-c5c(F)cccc5F)c5ccc([nH]5)c(-c5c(F)cccc5F)c5nc(c(-c6c(F)cccc6F)c6ccc3[nH]6)C=C5)C=C4)cc2)cc1S(=O)(=O)N1CCCCC1
REMARK SMILES IDX 17 1 16 2 14 3 15 4 13 6 8 7 9 8 10 9 12 10 11 11 6 12 7 13
REMARK SMILES IDX 5 14 1 15 2 16 3 17 79 18 4 19 78 20 80 21 81 22 82 23 83 24
REMARK SMILES IDX 84 25 88 26 85 27 87 28 86 29 18 30 19 31 20 32 21 33 22 34
REMARK SMILES IDX 23 36 24 37 25 38 77 39 26 40 76 41 27 42 28 43 29 44 70 45
REMARK SMILES IDX 30 46 75 47 69 48 71 49 31 50 74 51 68 52 67 53 32 55 58 56
REMARK SMILES IDX 41 57 57 58 42 59 45 60 56 61 72 62 43 63 44 64 55 66 73 67
REMARK SMILES IDX 46 68 33 69 34 70 39 71 35 72 36 73 38 74 40 75 37 76 59 77
REMARK SMILES IDX 60 78 65 79 61 80 62 81 64 82 66 83 63 84 47 85 48 86 53 87
REMARK SMILES IDX 49 88 50 89 52 90 54 91 51 92
REMARK H PARENT 16 5 21 35 71 54 45 65
REMARK Flexibility Score: inf
ROOT
ATOM      1  C   UNL A   1      31.572  28.181  26.350  1.00  0.00     0.116 C 
ENDROOT
BRANCH   1   2
ATOM      2  N   UNL A   1      31.417  26.835  26.875  1.00  0.00    -0.354 N 
ATOM      3  C   UNL A   1      31.324  25.638  26.227  1.00  0.00     0.242 C 
ATOM      4  O   UNL A   1      30.914  24.679  26.885  1.00  0.00    -0.273 OA
ATOM      5  H   UNL A   1      31.372  26.777  27.856  1.00  0.00     0.163 HD
BRANCH   3   6
ATOM      6  C   UNL A   1      31.616  25.495  24.713  1.00  0.00     0.174 C 
ATOM      7  N   UNL A   1      33.055  25.607  24.368  1.00  0.00    -0.327 N 
ATOM      8  C   UNL A   1      33.383  25.838  22.966  1.00  0.00     0.120 C 
ATOM      9  C   UNL A   1      32.613  26.996  22.370  1.00  0.00     0.022 C 
ATOM     10  C   UNL A   1      30.756  26.553  23.985  1.00  0.00     0.035 C 
ATOM     11  C   UNL A   1      31.119  26.760  22.521  1.00  0.00     0.004 C 
BRANCH   7  12
ATOM     12  C   UNL A   1      34.121  25.129  25.136  1.00  0.00     0.254 C 
ATOM     13  O   UNL A   1      34.847  25.892  25.776  1.00  0.00    -0.269 OA
BRANCH  12  14
ATOM     14  C   UNL A   1      34.454  23.688  25.188  1.00  0.00     0.041 A 
ATOM     15  C   UNL A   1      35.840  19.620  24.895  1.00  0.00     0.046 C 
ATOM     16  C   UNL A   1      35.204  20.966  24.997  1.00  0.00    -0.031 A 
ATOM     17  C   UNL A   1      36.128  21.977  25.364  1.00  0.00     0.005 A 
ATOM     18  C   UNL A   1      33.871  21.341  24.747  1.00  0.00     0.086 A 
ATOM     19  C   UNL A   1      35.764  23.316  25.461  1.00  0.00     0.014 A 
ATOM     20  C   UNL A   1      33.528  22.711  24.816  1.00  0.00     0.035 A 
BRANCH  18  21
ATOM     21  S   UNL A   1      32.430  20.344  24.324  1.00  0.00     0.243 S 
ATOM     22  O   UNL A   1      31.447  20.632  25.340  1.00  0.00    -0.207 OA
ATOM     23  O   UNL A   1      32.156  20.660  22.928  1.00  0.00    -0.207 OA
BRANCH  21  24
ATOM     24  N   UNL A   1      32.748  18.684  24.390  1.00  0.00    -0.198 NA
ATOM     25  C   UNL A   1      33.338  18.077  23.183  1.00  0.00     0.102 C 
ATOM     26  C   UNL A   1      32.891  18.094  25.736  1.00  0.00     0.102 C 
ATOM     27  C   UNL A   1      33.651  16.596  23.310  1.00  0.00     0.017 C 
ATOM     28  C   UNL A   1      33.261  16.617  25.750  1.00  0.00     0.017 C 
ATOM     29  C   UNL A   1      34.239  16.224  24.658  1.00  0.00     0.003 C 
ENDBRANCH  21  24
ENDBRANCH  18  21
ENDBRANCH  12  14
ENDBRANCH   7  12
ENDBRANCH   3   6
ENDBRANCH   1   2
BRANCH   1  30
ATOM     30  C   UNL A   1      33.052  28.575  26.243  1.00  0.00     0.023 C 
BRANCH  30  31
ATOM     31  C   UNL A   1      33.316  30.077  26.253  1.00  0.00     0.023 C 
BRANCH  31  32
ATOM     32  C   UNL A   1      33.205  30.712  27.626  1.00  0.00     0.116 C 
BRANCH  32  33
ATOM     33  N   UNL A   1      34.220  31.728  27.882  1.00  0.00    -0.352 N 
ATOM     34  C   UNL A   1      35.521  31.601  28.335  1.00  0.00     0.251 C 
ATOM     35  H   UNL A   1      33.932  32.651  27.703  1.00  0.00     0.163 HD
ATOM     36  O   UNL A   1      36.189  32.610  28.543  1.00  0.00    -0.269 OA
BRANCH  34  37
ATOM     37  C   UNL A   1      36.176  30.268  28.363  1.00  0.00     0.039 A 
ATOM     38  C   UNL A   1      36.357  29.710  29.636  1.00  0.00     0.014 A 
ATOM     39  C   UNL A   1      36.955  29.844  27.297  1.00  0.00     0.014 A 
ATOM     40  C   UNL A   1      37.544  29.055  29.915  1.00  0.00     0.010 A 
ATOM     41  C   UNL A   1      38.195  29.340  27.592  1.00  0.00     0.010 A 
ATOM     42  C   UNL A   1      38.508  29.036  28.917  1.00  0.00    -0.014 A 
BRANCH  42  43
ATOM     43  C   UNL A   1      39.885  28.659  29.125  1.00  0.00     0.031 A 
ATOM     44  C   UNL A   1      40.250  27.289  28.750  1.00  0.00     0.074 A 
ATOM     45  C   UNL A   1      40.763  29.625  29.468  1.00  0.00     0.049 A 
ATOM     46  N   UNL A   1      41.317  26.688  29.123  1.00  0.00    -0.248 NA
ATOM     47  C   UNL A   1      39.368  26.449  27.943  1.00  0.00     0.031 C 
ATOM     48  C   UNL A   1      42.220  29.595  29.434  1.00  0.00     0.029 A 
ATOM     49  N   UNL A   1      40.461  30.824  30.130  1.00  0.00    -0.354 N 
ATOM     50  C   UNL A   1      41.416  25.526  28.388  1.00  0.00     0.074 A 
ATOM     51  C   UNL A   1      40.131  25.372  27.760  1.00  0.00     0.031 C 
ATOM     52  C   UNL A   1      42.690  30.525  30.285  1.00  0.00     0.029 A 
ATOM     53  C   UNL A   1      41.544  31.060  31.005  1.00  0.00     0.049 A 
ATOM     54  H   UNL A   1      39.661  31.384  30.009  1.00  0.00     0.167 HD
ATOM     55  C   UNL A   1      42.642  24.939  28.300  1.00  0.00     0.037 A 
ATOM     56  C   UNL A   1      41.358  30.957  32.355  1.00  0.00     0.037 A 
ATOM     57  C   UNL A   1      43.563  25.610  29.225  1.00  0.00     0.049 A 
ATOM     58  C   UNL A   1      42.148  29.813  32.955  1.00  0.00     0.074 A 
ATOM     59  C   UNL A   1      44.472  26.641  29.047  1.00  0.00     0.029 A 
ATOM     60  N   UNL A   1      43.310  25.540  30.592  1.00  0.00    -0.354 N 
ATOM     61  N   UNL A   1      42.524  28.751  32.292  1.00  0.00    -0.248 NA
ATOM     62  C   UNL A   1      42.604  29.802  34.341  1.00  0.00     0.031 C 
ATOM     63  C   UNL A   1      44.677  27.260  30.311  1.00  0.00     0.029 A 
ATOM     64  C   UNL A   1      43.928  26.582  31.259  1.00  0.00     0.049 A 
ATOM     65  H   UNL A   1      42.765  24.844  31.026  1.00  0.00     0.167 HD
ATOM     66  C   UNL A   1      43.255  27.934  33.117  1.00  0.00     0.074 A 
ATOM     67  C   UNL A   1      43.288  28.646  34.383  1.00  0.00     0.031 C 
ATOM     68  C   UNL A   1      43.776  26.739  32.702  1.00  0.00     0.037 A 
BRANCH  55  69
ATOM     69  C   UNL A   1      43.089  23.989  27.205  1.00  0.00     0.057 A 
ATOM     70  C   UNL A   1      43.547  24.504  25.974  1.00  0.00     0.134 A 
ATOM     71  C   UNL A   1      43.029  22.582  27.241  1.00  0.00     0.134 A 
ATOM     72  F   UNL A   1      43.720  25.819  25.783  1.00  0.00    -0.206 F 
ATOM     73  C   UNL A   1      43.844  23.699  24.864  1.00  0.00     0.040 A 
ATOM     74  C   UNL A   1      43.299  21.766  26.131  1.00  0.00     0.040 A 
ATOM     75  F   UNL A   1      42.743  21.903  28.352  1.00  0.00    -0.206 F 
ATOM     76  C   UNL A   1      43.701  22.323  24.931  1.00  0.00     0.006 A 
ENDBRANCH  55  69
BRANCH  56  77
ATOM     77  C   UNL A   1      39.981  31.376  32.766  1.00  0.00     0.057 A 
ATOM     78  C   UNL A   1      39.074  30.366  33.150  1.00  0.00     0.134 A 
ATOM     79  C   UNL A   1      39.709  32.671  33.215  1.00  0.00     0.134 A 
ATOM     80  F   UNL A   1      39.251  29.104  32.725  1.00  0.00    -0.206 F 
ATOM     81  C   UNL A   1      38.066  30.595  34.090  1.00  0.00     0.040 A 
ATOM     82  C   UNL A   1      38.675  32.916  34.130  1.00  0.00     0.040 A 
ATOM     83  F   UNL A   1      40.511  33.693  32.887  1.00  0.00    -0.206 F 
ATOM     84  C   UNL A   1      37.895  31.869  34.619  1.00  0.00     0.006 A 
ENDBRANCH  56  77
BRANCH  68  85
ATOM     85  C   UNL A   1      44.280  25.641  33.617  1.00  0.00     0.057 A 
ATOM     86  C   UNL A   1      43.492  24.984  34.575  1.00  0.00     0.134 A 
ATOM     87  C   UNL A   1      45.577  25.097  33.451  1.00  0.00     0.134 A 
ATOM     88  F   UNL A   1      42.195  25.274  34.743  1.00  0.00    -0.206 F 
ATOM     89  C   UNL A   1      43.981  23.940  35.371  1.00  0.00     0.040 A 
ATOM     90  C   UNL A   1      46.047  24.005  34.185  1.00  0.00     0.040 A 
ATOM     91  F   UNL A   1      46.441  25.579  32.546  1.00  0.00    -0.206 F 
ATOM     92  C   UNL A   1      45.259  23.439  35.171  1.00  0.00     0.006 A 
ENDBRANCH  68  85
ENDBRANCH  42  43
ENDBRANCH  34  37
ENDBRANCH  32  33
ENDBRANCH  31  32
ENDBRANCH  30  31
ENDBRANCH   1  30
TORSDOF 15
ENDMDL
MODEL 2
REMARK VINA RESULT:     -13.1      3.334      9.048
REMARK SMILES Cc1ccc(C(=O)N2CCCC[C@@H]2C(=O)NCCCCNC(=O)c2ccc(-c3c4nc(c(-c5c(F)cccc5F)c5ccc([nH]5)c(-c5c(F)cccc5F)c5nc(c(-c6c(F)cccc6F)c6ccc3[nH]6)C=C5)C=C4)cc2)cc1S(=O)(=O)N1CCCCC1
REMARK SMILES IDX 17 1 16 2 14 3 15 4 13 6 8 7 9 8 10 9 12 10 11 11 6 12 7 13
REMARK SMILES IDX 5 14 1 15 2 16 3 17 79 18 4 19 78 20 80 21 81 22 82 23 83 24
REMARK SMILES IDX 84 25 88 26 85 27 87 28 86 29 18 30 19 31 20 32 21 33 22 34
REMARK SMILES IDX 23 36 24 37 25 38 77 39 26 40 76 41 27 42 28 43 29 44 70 45
REMARK SMILES IDX 30 46 75 47 69 48 71 49 31 50 74 51 68 52 67 53 32 55 58 56
REMARK SMILES IDX 41 57 57 58 42 59 45 60 56 61 72 62 43 63 44 64 55 66 73 67
REMARK SMILES IDX 46 68 33 69 34 70 39 71 35 72 36 73 38 74 40 75 37 76 59 77
REMARK SMILES IDX 60 78 65 79 61 80 62 81 64 82 66 83 63 84 47 85 48 86 53 87
REMARK SMILES IDX 49 88 50 89 52 90 54 91 51 92
REMARK H PARENT 16 5 21 35 71 54 45 65
REMARK Flexibility Score: inf
ROOT
ATOM      1  C   UNL A   1      35.952  23.238  25.573  1.00  0.00     0.116 C 
ENDROOT
BRANCH   1   2
ATOM      2  N   UNL A   1      35.285  22.455  26.600  1.00  0.00    -0.354 N 
ATOM      3  C   UNL A   1      34.401  21.422  26.489  1.00  0.00     0.242 C 
ATOM      4  O   UNL A   1      33.768  21.119  27.504  1.00  0.00    -0.273 OA
ATOM      5  H   UNL A   1      35.505  22.711  27.523  1.00  0.00     0.163 HD
BRANCH   3   6
ATOM      6  C   UNL A   1      34.117  20.720  25.138  1.00  0.00     0.174 C 
ATOM      7  N   UNL A   1      32.699  20.798  24.711  1.00  0.00    -0.327 N 
ATOM      8  C   UNL A   1      32.273  19.884  23.658  1.00  0.00     0.120 C 
ATOM      9  C   UNL A   1      32.653  18.447  23.945  1.00  0.00     0.022 C 
ATOM     10  C   UNL A   1      34.608  19.261  25.275  1.00  0.00     0.035 C 
ATOM     11  C   UNL A   1      34.155  18.337  24.152  1.00  0.00     0.004 C 
BRANCH   7  12
ATOM     12  C   UNL A   1      31.842  21.887  24.906  1.00  0.00     0.254 C 
ATOM     13  O   UNL A   1      30.835  21.796  25.609  1.00  0.00    -0.269 OA
BRANCH  12  14
ATOM     14  C   UNL A   1      32.084  23.190  24.247  1.00  0.00     0.041 A 
ATOM     15  C   UNL A   1      33.394  26.871  22.434  1.00  0.00     0.046 C 
ATOM     16  C   UNL A   1      32.822  25.687  23.139  1.00  0.00    -0.031 A 
ATOM     17  C   UNL A   1      33.273  24.460  22.593  1.00  0.00     0.005 A 
ATOM     18  C   UNL A   1      31.962  25.645  24.253  1.00  0.00     0.086 A 
ATOM     19  C   UNL A   1      32.912  23.229  23.133  1.00  0.00     0.014 A 
ATOM     20  C   UNL A   1      31.635  24.386  24.809  1.00  0.00     0.035 A 
BRANCH  18  21
ATOM     21  S   UNL A   1      31.152  26.974  25.162  1.00  0.00     0.243 S 
ATOM     22  O   UNL A   1      30.256  27.600  24.220  1.00  0.00    -0.207 OA
ATOM     23  O   UNL A   1      30.625  26.336  26.362  1.00  0.00    -0.207 OA
BRANCH  21  24
ATOM     24  N   UNL A   1      32.240  28.159  25.684  1.00  0.00    -0.198 NA
ATOM     25  C   UNL A   1      31.705  29.524  25.837  1.00  0.00     0.102 C 
ATOM     26  C   UNL A   1      33.439  27.681  26.401  1.00  0.00     0.102 C 
ATOM     27  C   UNL A   1      32.709  30.541  26.355  1.00  0.00     0.017 C 
ATOM     28  C   UNL A   1      34.349  28.783  26.927  1.00  0.00     0.017 C 
ATOM     29  C   UNL A   1      33.599  29.992  27.454  1.00  0.00     0.003 C 
ENDBRANCH  21  24
ENDBRANCH  18  21
ENDBRANCH  12  14
ENDBRANCH   7  12
ENDBRANCH   3   6
ENDBRANCH   1   2
BRANCH   1  30
ATOM     30  C   UNL A   1      37.321  22.644  25.215  1.00  0.00     0.023 C 
BRANCH  30  31
ATOM     31  C   UNL A   1      38.340  22.656  26.349  1.00  0.00     0.023 C 
BRANCH  31  32
ATOM     32  C   UNL A   1      39.697  23.204  25.952  1.00  0.00     0.116 C 
BRANCH  32  33
ATOM     33  N   UNL A   1      40.618  23.349  27.073  1.00  0.00    -0.352 N 
ATOM     34  C   UNL A   1      40.917  24.454  27.850  1.00  0.00     0.251 C 
ATOM     35  H   UNL A   1      41.105  22.529  27.315  1.00  0.00     0.163 HD
ATOM     36  O   UNL A   1      41.785  24.367  28.715  1.00  0.00    -0.269 OA
BRANCH  34  37
ATOM     37  C   UNL A   1      40.058  25.664  27.792  1.00  0.00     0.039 A 
ATOM     38  C   UNL A   1      40.506  26.684  26.942  1.00  0.00     0.014 A 
ATOM     39  C   UNL A   1      39.176  25.951  28.824  1.00  0.00     0.014 A 
ATOM     40  C   UNL A   1      40.398  27.999  27.363  1.00  0.00     0.010 A 
ATOM     41  C   UNL A   1      39.199  27.224  29.329  1.00  0.00     0.010 A 
ATOM     42  C   UNL A   1      39.891  28.218  28.636  1.00  0.00    -0.014 A 
BRANCH  42  43
ATOM     43  C   UNL A   1      39.973  29.477  29.337  1.00  0.00     0.031 A 
ATOM     44  C   UNL A   1      38.912  30.449  29.058  1.00  0.00     0.074 A 
ATOM     45  C   UNL A   1      40.895  29.598  30.316  1.00  0.00     0.049 A 
ATOM     46  N   UNL A   1      38.970  31.696  29.345  1.00  0.00    -0.248 NA
ATOM     47  C   UNL A   1      37.688  30.075  28.355  1.00  0.00     0.031 C 
ATOM     48  C   UNL A   1      40.990  30.605  31.366  1.00  0.00     0.029 A 
ATOM     49  N   UNL A   1      42.095  28.881  30.419  1.00  0.00    -0.354 N 
ATOM     50  C   UNL A   1      37.712  32.224  29.147  1.00  0.00     0.074 A 
ATOM     51  C   UNL A   1      36.990  31.208  28.428  1.00  0.00     0.031 C 
ATOM     52  C   UNL A   1      42.263  30.656  31.800  1.00  0.00     0.029 A 
ATOM     53  C   UNL A   1      43.045  29.797  30.922  1.00  0.00     0.049 A 
ATOM     54  H   UNL A   1      42.245  27.936  30.189  1.00  0.00     0.167 HD
ATOM     55  C   UNL A   1      37.418  33.401  29.766  1.00  0.00     0.037 A 
ATOM     56  C   UNL A   1      44.061  30.230  30.117  1.00  0.00     0.037 A 
ATOM     57  C   UNL A   1      38.644  33.952  30.356  1.00  0.00     0.049 A 
ATOM     58  C   UNL A   1      43.961  31.711  29.817  1.00  0.00     0.074 A 
ATOM     59  C   UNL A   1      39.184  33.863  31.629  1.00  0.00     0.029 A 
ATOM     60  N   UNL A   1      39.687  34.324  29.511  1.00  0.00    -0.354 N 
ATOM     61  N   UNL A   1      42.846  32.393  29.839  1.00  0.00    -0.248 NA
ATOM     62  C   UNL A   1      45.121  32.539  29.506  1.00  0.00     0.031 C 
ATOM     63  C   UNL A   1      40.586  34.079  31.521  1.00  0.00     0.029 A 
ATOM     64  C   UNL A   1      40.889  34.339  30.194  1.00  0.00     0.049 A 
ATOM     65  H   UNL A   1      39.583  34.546  28.558  1.00  0.00     0.167 HD
ATOM     66  C   UNL A   1      43.112  33.710  29.563  1.00  0.00     0.074 A 
ATOM     67  C   UNL A   1      44.552  33.750  29.378  1.00  0.00     0.031 C 
ATOM     68  C   UNL A   1      42.134  34.666  29.506  1.00  0.00     0.037 A 
BRANCH  55  69
ATOM     69  C   UNL A   1      36.024  33.903  30.095  1.00  0.00     0.057 A 
ATOM     70  C   UNL A   1      35.156  34.289  29.053  1.00  0.00     0.134 A 
ATOM     71  C   UNL A   1      35.492  34.112  31.382  1.00  0.00     0.134 A 
ATOM     72  F   UNL A   1      35.478  34.109  27.766  1.00  0.00    -0.206 F 
ATOM     73  C   UNL A   1      33.909  34.893  29.274  1.00  0.00     0.040 A 
ATOM     74  C   UNL A   1      34.257  34.738  31.617  1.00  0.00     0.040 A 
ATOM     75  F   UNL A   1      36.105  33.697  32.491  1.00  0.00    -0.206 F 
ATOM     76  C   UNL A   1      33.461  35.140  30.561  1.00  0.00     0.006 A 
ENDBRANCH  55  69
BRANCH  56  77
ATOM     77  C   UNL A   1      44.504  29.173  29.154  1.00  0.00     0.057 A 
ATOM     78  C   UNL A   1      44.098  29.297  27.810  1.00  0.00     0.134 A 
ATOM     79  C   UNL A   1      45.621  28.372  29.404  1.00  0.00     0.134 A 
ATOM     80  F   UNL A   1      43.010  30.021  27.498  1.00  0.00    -0.206 F 
ATOM     81  C   UNL A   1      44.877  28.816  26.754  1.00  0.00     0.040 A 
ATOM     82  C   UNL A   1      46.388  27.853  28.351  1.00  0.00     0.040 A 
ATOM     83  F   UNL A   1      46.068  28.188  30.654  1.00  0.00    -0.206 F 
ATOM     84  C   UNL A   1      46.054  28.129  27.025  1.00  0.00     0.006 A 
ENDBRANCH  56  77
BRANCH  68  85
ATOM     85  C   UNL A   1      42.288  36.037  28.879  1.00  0.00     0.057 A 
ATOM     86  C   UNL A   1      42.972  37.107  29.474  1.00  0.00     0.134 A 
ATOM     87  C   UNL A   1      41.860  36.279  27.552  1.00  0.00     0.134 A 
ATOM     88  F   UNL A   1      43.575  36.988  30.665  1.00  0.00    -0.206 F 
ATOM     89  C   UNL A   1      43.134  38.348  28.843  1.00  0.00     0.040 A 
ATOM     90  C   UNL A   1      42.085  37.485  26.884  1.00  0.00     0.040 A 
ATOM     91  F   UNL A   1      41.230  35.345  26.825  1.00  0.00    -0.206 F 
ATOM     92  C   UNL A   1      42.699  38.538  27.539  1.00  0.00     0.006 A 
ENDBRANCH  68  85
ENDBRANCH  42  43
ENDBRANCH  34  37
ENDBRANCH  32  33
ENDBRANCH  31  32
ENDBRANCH  30  31
ENDBRANCH   1  30
TORSDOF 15
ENDMDL
MODEL 3
REMARK VINA RESULT:     -13.0      2.954      8.594
REMARK SMILES Cc1ccc(C(=O)N2CCCC[C@@H]2C(=O)NCCCCNC(=O)c2ccc(-c3c4nc(c(-c5c(F)cccc5F)c5ccc([nH]5)c(-c5c(F)cccc5F)c5nc(c(-c6c(F)cccc6F)c6ccc3[nH]6)C=C5)C=C4)cc2)cc1S(=O)(=O)N1CCCCC1
REMARK SMILES IDX 17 1 16 2 14 3 15 4 13 6 8 7 9 8 10 9 12 10 11 11 6 12 7 13
REMARK SMILES IDX 5 14 1 15 2 16 3 17 79 18 4 19 78 20 80 21 81 22 82 23 83 24
REMARK SMILES IDX 84 25 88 26 85 27 87 28 86 29 18 30 19 31 20 32 21 33 22 34
REMARK SMILES IDX 23 36 24 37 25 38 77 39 26 40 76 41 27 42 28 43 29 44 70 45
REMARK SMILES IDX 30 46 75 47 69 48 71 49 31 50 74 51 68 52 67 53 32 55 58 56
REMARK SMILES IDX 41 57 57 58 42 59 45 60 56 61 72 62 43 63 44 64 55 66 73 67
REMARK SMILES IDX 46 68 33 69 34 70 39 71 35 72 36 73 38 74 40 75 37 76 59 77
REMARK SMILES IDX 60 78 65 79 61 80 62 81 64 82 66 83 63 84 47 85 48 86 53 87
REMARK SMILES IDX 49 88 50 89 52 90 54 91 51 92
REMARK H PARENT 16 5 21 35 71 54 45 65
REMARK Flexibility Score: inf
ROOT
ATOM      1  C   UNL A   1      36.661  22.268  25.131  1.00  0.00     0.116 C 
ENDROOT
BRANCH   1   2
ATOM      2  N   UNL A   1      35.756  21.805  26.169  1.00  0.00    -0.354 N 
ATOM      3  C   UNL A   1      34.621  21.053  26.082  1.00  0.00     0.242 C 
ATOM      4  O   UNL A   1      33.885  21.038  27.072  1.00  0.00    -0.273 OA
ATOM      5  H   UNL A   1      36.000  22.077  27.082  1.00  0.00     0.163 HD
BRANCH   3   6
ATOM      6  C   UNL A   1      34.208  20.331  24.776  1.00  0.00     0.174 C 
ATOM      7  N   UNL A   1      32.759  20.429  24.472  1.00  0.00    -0.327 N 
ATOM      8  C   UNL A   1      32.227  19.502  23.479  1.00  0.00     0.120 C 
ATOM      9  C   UNL A   1      32.605  18.064  23.763  1.00  0.00     0.022 C 
ATOM     10  C   UNL A   1      34.682  18.866  24.900  1.00  0.00     0.035 C 
ATOM     11  C   UNL A   1      34.117  17.929  23.841  1.00  0.00     0.004 C 
BRANCH   7  12
ATOM     12  C   UNL A   1      31.942  21.537  24.718  1.00  0.00     0.254 C 
ATOM     13  O   UNL A   1      31.062  21.511  25.579  1.00  0.00    -0.269 OA
BRANCH  12  14
ATOM     14  C   UNL A   1      32.071  22.783  23.930  1.00  0.00     0.041 A 
ATOM     15  C   UNL A   1      33.054  26.382  21.777  1.00  0.00     0.046 C 
ATOM     16  C   UNL A   1      32.582  25.220  22.585  1.00  0.00    -0.031 A 
ATOM     17  C   UNL A   1      33.197  24.003  22.196  1.00  0.00     0.005 A 
ATOM     18  C   UNL A   1      31.673  25.194  23.659  1.00  0.00     0.086 A 
ATOM     19  C   UNL A   1      32.948  22.802  22.853  1.00  0.00     0.014 A 
ATOM     20  C   UNL A   1      31.461  23.971  24.337  1.00  0.00     0.035 A 
BRANCH  18  21
ATOM     21  S   UNL A   1      30.672  26.507  24.382  1.00  0.00     0.243 S 
ATOM     22  O   UNL A   1      30.039  27.171  23.269  1.00  0.00    -0.207 OA
ATOM     23  O   UNL A   1      29.862  25.841  25.395  1.00  0.00    -0.207 OA
BRANCH  21  24
ATOM     24  N   UNL A   1      31.604  27.661  25.193  1.00  0.00    -0.198 NA
ATOM     25  C   UNL A   1      31.281  29.075  24.927  1.00  0.00     0.102 C 
ATOM     26  C   UNL A   1      32.286  27.212  26.423  1.00  0.00     0.102 C 
ATOM     27  C   UNL A   1      32.113  30.072  25.716  1.00  0.00     0.017 C 
ATOM     28  C   UNL A   1      33.045  28.302  27.167  1.00  0.00     0.017 C 
ATOM     29  C   UNL A   1      32.345  29.648  27.154  1.00  0.00     0.003 C 
ENDBRANCH  21  24
ENDBRANCH  18  21
ENDBRANCH  12  14
ENDBRANCH   7  12
ENDBRANCH   3   6
ENDBRANCH   1   2
BRANCH   1  30
ATOM     30  C   UNL A   1      38.105  21.825  25.406  1.00  0.00     0.023 C 
BRANCH  30  31
ATOM     31  C   UNL A   1      38.946  22.833  26.182  1.00  0.00     0.023 C 
BRANCH  31  32
ATOM     32  C   UNL A   1      40.046  22.205  27.016  1.00  0.00     0.116 C 
BRANCH  32  33
ATOM     33  N   UNL A   1      40.864  21.251  26.277  1.00  0.00    -0.352 N 
ATOM     34  C   UNL A   1      42.236  21.191  26.102  1.00  0.00     0.251 C 
ATOM     35  H   UNL A   1      40.359  20.534  25.830  1.00  0.00     0.163 HD
ATOM     36  O   UNL A   1      42.715  20.324  25.376  1.00  0.00    -0.269 OA
BRANCH  34  37
ATOM     37  C   UNL A   1      43.133  22.021  26.946  1.00  0.00     0.039 A 
ATOM     38  C   UNL A   1      42.913  21.936  28.328  1.00  0.00     0.014 A 
ATOM     39  C   UNL A   1      43.787  23.119  26.409  1.00  0.00     0.014 A 
ATOM     40  C   UNL A   1      42.979  23.092  29.086  1.00  0.00     0.010 A 
ATOM     41  C   UNL A   1      43.706  24.296  27.105  1.00  0.00     0.010 A 
ATOM     42  C   UNL A   1      43.214  24.281  28.411  1.00  0.00    -0.014 A 
BRANCH  42  43
ATOM     43  C   UNL A   1      43.033  25.592  28.987  1.00  0.00     0.031 A 
ATOM     44  C   UNL A   1      41.854  26.342  28.545  1.00  0.00     0.074 A 
ATOM     45  C   UNL A   1      43.839  25.953  30.009  1.00  0.00     0.049 A 
ATOM     46  N   UNL A   1      41.684  27.601  28.709  1.00  0.00    -0.248 NA
ATOM     47  C   UNL A   1      40.769  25.706  27.802  1.00  0.00     0.031 C 
ATOM     48  C   UNL A   1      43.683  27.048  30.957  1.00  0.00     0.029 A 
ATOM     49  N   UNL A   1      45.128  25.461  30.261  1.00  0.00    -0.354 N 
ATOM     50  C   UNL A   1      40.377  27.888  28.377  1.00  0.00     0.074 A 
ATOM     51  C   UNL A   1      39.891  26.706  27.716  1.00  0.00     0.031 C 
ATOM     52  C   UNL A   1      44.892  27.352  31.467  1.00  0.00     0.029 A 
ATOM     53  C   UNL A   1      45.872  26.566  30.733  1.00  0.00     0.049 A 
ATOM     54  H   UNL A   1      45.448  24.539  30.137  1.00  0.00     0.167 HD
ATOM     55  C   UNL A   1      39.847  29.048  28.856  1.00  0.00     0.037 A 
ATOM     56  C   UNL A   1      46.866  27.093  29.956  1.00  0.00     0.037 A 
ATOM     57  C   UNL A   1      40.914  29.847  29.467  1.00  0.00     0.049 A 
ATOM     58  C   UNL A   1      46.551  28.504  29.505  1.00  0.00     0.074 A 
ATOM     59  C   UNL A   1      41.356  29.963  30.776  1.00  0.00     0.029 A 
ATOM     60  N   UNL A   1      41.948  30.316  28.660  1.00  0.00    -0.354 N 
ATOM     61  N   UNL A   1      45.342  28.985  29.385  1.00  0.00    -0.248 NA
ATOM     62  C   UNL A   1      47.582  29.486  29.191  1.00  0.00     0.031 C 
ATOM     63  C   UNL A   1      42.708  30.404  30.740  1.00  0.00     0.029 A 
ATOM     64  C   UNL A   1      43.072  30.595  29.416  1.00  0.00     0.049 A 
ATOM     65  H   UNL A   1      41.887  30.434  27.685  1.00  0.00     0.167 HD
ATOM     66  C   UNL A   1      45.411  30.300  28.998  1.00  0.00     0.074 A 
ATOM     67  C   UNL A   1      46.836  30.567  28.906  1.00  0.00     0.031 C 
ATOM     68  C   UNL A   1      44.299  31.067  28.783  1.00  0.00     0.037 A 
BRANCH  55  69
ATOM     69  C   UNL A   1      38.368  29.332  29.040  1.00  0.00     0.057 A 
ATOM     70  C   UNL A   1      37.601  29.787  27.948  1.00  0.00     0.134 A 
ATOM     71  C   UNL A   1      37.647  29.267  30.249  1.00  0.00     0.134 A 
ATOM     72  F   UNL A   1      38.111  29.859  26.712  1.00  0.00    -0.206 F 
ATOM     73  C   UNL A   1      36.266  30.206  28.064  1.00  0.00     0.040 A 
ATOM     74  C   UNL A   1      36.320  29.705  30.385  1.00  0.00     0.040 A 
ATOM     75  F   UNL A   1      38.157  28.743  31.364  1.00  0.00    -0.206 F 
ATOM     76  C   UNL A   1      35.624  30.187  29.291  1.00  0.00     0.006 A 
ENDBRANCH  55  69
BRANCH  56  77
ATOM     77  C   UNL A   1      47.552  26.047  29.135  1.00  0.00     0.057 A 
ATOM     78  C   UNL A   1      47.233  25.975  27.764  1.00  0.00     0.134 A 
ATOM     79  C   UNL A   1      48.767  25.481  29.530  1.00  0.00     0.134 A 
ATOM     80  F   UNL A   1      46.064  26.465  27.317  1.00  0.00    -0.206 F 
ATOM     81  C   UNL A   1      48.159  25.543  26.810  1.00  0.00     0.040 A 
ATOM     82  C   UNL A   1      49.687  25.010  28.582  1.00  0.00     0.040 A 
ATOM     83  F   UNL A   1      49.144  25.493  30.816  1.00  0.00    -0.206 F 
ATOM     84  C   UNL A   1      49.411  25.101  27.218  1.00  0.00     0.006 A 
ENDBRANCH  56  77
BRANCH  68  85
ATOM     85  C   UNL A   1      44.278  32.385  28.034  1.00  0.00     0.057 A 
ATOM     86  C   UNL A   1      44.635  32.535  26.686  1.00  0.00     0.134 A 
ATOM     87  C   UNL A   1      43.741  33.550  28.633  1.00  0.00     0.134 A 
ATOM     88  F   UNL A   1      45.013  31.493  25.934  1.00  0.00    -0.206 F 
ATOM     89  C   UNL A   1      44.559  33.762  26.014  1.00  0.00     0.040 A 
ATOM     90  C   UNL A   1      43.586  34.758  27.949  1.00  0.00     0.040 A 
ATOM     91  F   UNL A   1      43.309  33.565  29.902  1.00  0.00    -0.206 F 
ATOM     92  C   UNL A   1      44.023  34.878  26.642  1.00  0.00     0.006 A 
ENDBRANCH  68  85
ENDBRANCH  42  43
ENDBRANCH  34  37
ENDBRANCH  32  33
ENDBRANCH  31  32
ENDBRANCH  30  31
ENDBRANCH   1  30
TORSDOF 15
ENDMDL
