MODEL 1
REMARK VINA RESULT:     -12.8      0.000      0.000
REMARK SMILES O=C(NCCCCNC(=O)c1ccc(-c2c3nc(c(-c4c(F)cccc4F)c4ccc([nH]4)c(-c4c(F)cccc4F)c4nc(c(-c5c(F)cccc5F)c5ccc2[nH]5)C=C4)C=C3)cc1)C1=N[C@@H]2NC=NN2[C@@H]([C@H]2C=NN=C2c2ccc(F)cc2)C1
REMARK SMILES IDX 5 1 4 2 3 3 1 4 2 5 65 7 66 8 85 9 67 10 72 11 68 12 71 13
REMARK SMILES IDX 69 14 70 16 73 17 74 18 77 19 75 20 76 21 78 22 79 23 84 24
REMARK SMILES IDX 80 25 83 26 81 27 82 28 6 29 7 30 8 31 9 32 10 34 11 35
REMARK SMILES IDX 12 36 64 37 13 38 63 39 14 40 15 41 16 42 57 43 17 44 62 45
REMARK SMILES IDX 56 46 58 47 18 48 61 49 55 50 54 51 19 53 45 54 28 55 44 56
REMARK SMILES IDX 29 57 32 58 43 59 59 60 30 61 31 62 42 64 60 65 33 66 20 67
REMARK SMILES IDX 21 68 26 69 22 70 23 71 25 72 27 73 24 74 46 75 47 76 52 77
REMARK SMILES IDX 48 78 49 79 51 80 53 81 50 82 34 83 35 84 40 85 36 86 37 87
REMARK SMILES IDX 39 88 41 89 38 90
REMARK H PARENT 3 6 68 15 8 33 58 52 32 63
REMARK Flexibility Score: inf
ROOT
ATOM      1  C   UNL A   1      33.163  28.237  26.123  1.00  0.00     0.023 C 
ENDROOT
BRANCH   1   2
ATOM      2  C   UNL A   1      32.051  27.586  26.937  1.00  0.00     0.116 C 
BRANCH   2   3
ATOM      3  N   UNL A   1      30.873  27.170  26.204  1.00  0.00    -0.351 N 
ATOM      4  O   UNL A   1      29.310  25.727  25.455  1.00  0.00    -0.268 OA
ATOM      5  C   UNL A   1      30.441  25.893  25.902  1.00  0.00     0.265 C 
ATOM      6  H   UNL A   1      30.300  27.900  25.876  1.00  0.00     0.163 HD
BRANCH   5   7
ATOM      7  C   UNL A   1      31.374  24.674  26.017  1.00  0.00     0.106 C 
ATOM      8  N   UNL A   1      31.342  24.030  27.132  1.00  0.00    -0.237 NA
ATOM      9  C   UNL A   1      32.296  24.347  24.878  1.00  0.00     0.090 C 
ATOM     10  C   UNL A   1      31.977  22.739  27.221  1.00  0.00     0.319 C 
ATOM     11  C   UNL A   1      33.150  23.114  25.157  1.00  0.00     0.127 C 
ATOM     12  N   UNL A   1      33.041  22.525  28.160  1.00  0.00    -0.335 N 
ATOM     13  N   UNL A   1      32.462  22.091  25.977  1.00  0.00    -0.249 NA
ATOM     14  C   UNL A   1      33.726  21.472  27.629  1.00  0.00     0.217 C 
ATOM     15  H   UNL A   1      33.229  23.018  28.990  1.00  0.00     0.165 HD
ATOM     16  N   UNL A   1      33.401  21.117  26.410  1.00  0.00    -0.164 NA
BRANCH  11  17
ATOM     17  C   UNL A   1      33.732  22.434  23.904  1.00  0.00     0.109 C 
ATOM     18  C   UNL A   1      33.121  22.906  22.627  1.00  0.00     0.120 C 
ATOM     19  C   UNL A   1      35.140  22.846  23.603  1.00  0.00     0.081 C 
ATOM     20  N   UNL A   1      33.973  23.455  21.825  1.00  0.00    -0.162 NA
ATOM     21  N   UNL A   1      35.257  23.430  22.448  1.00  0.00    -0.155 NA
BRANCH  19  22
ATOM     22  C   UNL A   1      36.223  22.715  24.593  1.00  0.00    -0.001 A 
ATOM     23  C   UNL A   1      36.633  23.804  25.373  1.00  0.00     0.013 A 
ATOM     24  C   UNL A   1      36.941  21.514  24.619  1.00  0.00     0.013 A 
ATOM     25  C   UNL A   1      37.801  23.707  26.131  1.00  0.00     0.040 A 
ATOM     26  C   UNL A   1      38.105  21.423  25.381  1.00  0.00     0.040 A 
ATOM     27  C   UNL A   1      38.531  22.523  26.117  1.00  0.00     0.123 A 
ATOM     28  F   UNL A   1      39.672  22.448  26.813  1.00  0.00    -0.207 F 
ENDBRANCH  19  22
ENDBRANCH  11  17
ENDBRANCH   5   7
ENDBRANCH   2   3
ENDBRANCH   1   2
BRANCH   1  29
ATOM     29  C   UNL A   1      33.820  29.489  26.690  1.00  0.00     0.023 C 
BRANCH  29  30
ATOM     30  C   UNL A   1      35.123  29.292  27.452  1.00  0.00     0.116 C 
BRANCH  30  31
ATOM     31  N   UNL A   1      35.158  29.961  28.744  1.00  0.00    -0.352 N 
ATOM     32  C   UNL A   1      36.188  30.132  29.636  1.00  0.00     0.251 C 
ATOM     33  H   UNL A   1      34.300  30.356  29.026  1.00  0.00     0.163 HD
ATOM     34  O   UNL A   1      35.960  30.655  30.731  1.00  0.00    -0.269 OA
BRANCH  32  35
ATOM     35  C   UNL A   1      37.564  29.679  29.328  1.00  0.00     0.039 A 
ATOM     36  C   UNL A   1      38.015  29.744  28.006  1.00  0.00     0.014 A 
ATOM     37  C   UNL A   1      38.405  29.160  30.315  1.00  0.00     0.014 A 
ATOM     38  C   UNL A   1      39.319  29.351  27.689  1.00  0.00     0.010 A 
ATOM     39  C   UNL A   1      39.734  28.865  30.018  1.00  0.00     0.010 A 
ATOM     40  C   UNL A   1      40.204  28.939  28.698  1.00  0.00    -0.014 A 
BRANCH  40  41
ATOM     41  C   UNL A   1      41.601  28.532  28.384  1.00  0.00     0.031 A 
ATOM     42  C   UNL A   1      41.909  27.098  28.036  1.00  0.00     0.074 A 
ATOM     43  C   UNL A   1      42.599  29.437  28.443  1.00  0.00     0.049 A 
ATOM     44  N   UNL A   1      43.065  26.535  27.785  1.00  0.00    -0.248 NA
ATOM     45  C   UNL A   1      40.771  26.165  27.993  1.00  0.00     0.031 C 
ATOM     46  C   UNL A   1      42.448  30.846  28.813  1.00  0.00     0.029 A 
ATOM     47  N   UNL A   1      43.944  29.303  28.197  1.00  0.00    -0.354 N 
ATOM     48  C   UNL A   1      42.791  25.192  27.557  1.00  0.00     0.074 A 
ATOM     49  C   UNL A   1      41.374  25.006  27.777  1.00  0.00     0.031 C 
ATOM     50  C   UNL A   1      43.646  31.449  28.747  1.00  0.00     0.029 A 
ATOM     51  C   UNL A   1      44.655  30.467  28.367  1.00  0.00     0.049 A 
ATOM     52  H   UNL A   1      44.359  28.452  27.925  1.00  0.00     0.167 HD
ATOM     53  C   UNL A   1      43.631  24.206  27.160  1.00  0.00     0.037 A 
ATOM     54  C   UNL A   1      45.974  30.711  28.236  1.00  0.00     0.037 A 
ATOM     55  C   UNL A   1      45.039  24.389  26.925  1.00  0.00     0.049 A 
ATOM     56  C   UNL A   1      46.888  29.595  27.807  1.00  0.00     0.074 A 
ATOM     57  C   UNL A   1      45.974  23.456  26.510  1.00  0.00     0.029 A 
ATOM     58  N   UNL A   1      45.714  25.591  27.077  1.00  0.00    -0.354 N 
ATOM     59  N   UNL A   1      46.603  28.340  27.548  1.00  0.00    -0.248 NA
ATOM     60  C   UNL A   1      48.307  29.933  27.631  1.00  0.00     0.031 C 
ATOM     61  C   UNL A   1      47.221  24.085  26.444  1.00  0.00     0.029 A 
ATOM     62  C   UNL A   1      47.052  25.423  26.763  1.00  0.00     0.049 A 
ATOM     63  H   UNL A   1      45.302  26.438  27.364  1.00  0.00     0.167 HD
ATOM     64  C   UNL A   1      47.795  27.756  27.138  1.00  0.00     0.074 A 
ATOM     65  C   UNL A   1      48.802  28.796  27.165  1.00  0.00     0.031 C 
ATOM     66  C   UNL A   1      48.038  26.473  26.770  1.00  0.00     0.037 A 
BRANCH  53  67
ATOM     67  C   UNL A   1      43.040  22.844  26.930  1.00  0.00     0.057 A 
ATOM     68  C   UNL A   1      42.792  22.361  25.637  1.00  0.00     0.134 A 
ATOM     69  C   UNL A   1      42.756  21.989  28.002  1.00  0.00     0.134 A 
ATOM     70  F   UNL A   1      43.028  23.133  24.565  1.00  0.00    -0.206 F 
ATOM     71  C   UNL A   1      42.258  21.090  25.420  1.00  0.00     0.040 A 
ATOM     72  C   UNL A   1      42.250  20.704  27.796  1.00  0.00     0.040 A 
ATOM     73  F   UNL A   1      42.973  22.384  29.266  1.00  0.00    -0.206 F 
ATOM     74  C   UNL A   1      41.996  20.253  26.503  1.00  0.00     0.006 A 
ENDBRANCH  53  67
BRANCH  54  75
ATOM     75  C   UNL A   1      46.520  32.071  28.495  1.00  0.00     0.057 A 
ATOM     76  C   UNL A   1      46.991  32.438  29.762  1.00  0.00     0.134 A 
ATOM     77  C   UNL A   1      46.533  33.052  27.497  1.00  0.00     0.134 A 
ATOM     78  F   UNL A   1      46.988  31.548  30.767  1.00  0.00    -0.206 F 
ATOM     79  C   UNL A   1      47.411  33.740  30.039  1.00  0.00     0.040 A 
ATOM     80  C   UNL A   1      46.982  34.350  27.751  1.00  0.00     0.040 A 
ATOM     81  F   UNL A   1      46.108  32.765  26.258  1.00  0.00    -0.206 F 
ATOM     82  C   UNL A   1      47.407  34.701  29.031  1.00  0.00     0.006 A 
ENDBRANCH  54  75
BRANCH  66  83
ATOM     83  C   UNL A   1      49.426  26.144  26.299  1.00  0.00     0.057 A 
ATOM     84  C   UNL A   1      50.350  25.466  27.103  1.00  0.00     0.134 A 
ATOM     85  C   UNL A   1      49.839  26.512  25.011  1.00  0.00     0.134 A 
ATOM     86  F   UNL A   1      50.023  25.093  28.350  1.00  0.00    -0.206 F 
ATOM     87  C   UNL A   1      51.649  25.204  26.661  1.00  0.00     0.040 A 
ATOM     88  C   UNL A   1      51.122  26.224  24.545  1.00  0.00     0.040 A 
ATOM     89  F   UNL A   1      49.001  27.152  24.182  1.00  0.00    -0.206 F 
ATOM     90  C   UNL A   1      52.036  25.580  25.376  1.00  0.00     0.006 A 
ENDBRANCH  66  83
ENDBRANCH  40  41
ENDBRANCH  32  35
ENDBRANCH  30  31
ENDBRANCH  29  30
ENDBRANCH   1  29
TORSDOF 13
ENDMDL
MODEL 2
REMARK VINA RESULT:     -12.8      5.499     10.315
REMARK SMILES O=C(NCCCCNC(=O)c1ccc(-c2c3nc(c(-c4c(F)cccc4F)c4ccc([nH]4)c(-c4c(F)cccc4F)c4nc(c(-c5c(F)cccc5F)c5ccc2[nH]5)C=C4)C=C3)cc1)C1=N[C@@H]2NC=NN2[C@@H]([C@H]2C=NN=C2c2ccc(F)cc2)C1
REMARK SMILES IDX 5 1 4 2 3 3 1 4 2 5 65 7 66 8 85 9 67 10 72 11 68 12 71 13
REMARK SMILES IDX 69 14 70 16 73 17 74 18 77 19 75 20 76 21 78 22 79 23 84 24
REMARK SMILES IDX 80 25 83 26 81 27 82 28 6 29 7 30 8 31 9 32 10 34 11 35
REMARK SMILES IDX 12 36 64 37 13 38 63 39 14 40 15 41 16 42 57 43 17 44 62 45
REMARK SMILES IDX 56 46 58 47 18 48 61 49 55 50 54 51 19 53 45 54 28 55 44 56
REMARK SMILES IDX 29 57 32 58 43 59 59 60 30 61 31 62 42 64 60 65 33 66 20 67
REMARK SMILES IDX 21 68 26 69 22 70 23 71 25 72 27 73 24 74 46 75 47 76 52 77
REMARK SMILES IDX 48 78 49 79 51 80 53 81 50 82 34 83 35 84 40 85 36 86 37 87
REMARK SMILES IDX 39 88 41 89 38 90
REMARK H PARENT 3 6 68 15 8 33 58 52 32 63
REMARK Flexibility Score: inf
ROOT
ATOM      1  C   UNL A   1      36.898  22.589  24.489  1.00  0.00     0.023 C 
ENDROOT
BRANCH   1   2
ATOM      2  C   UNL A   1      35.941  23.409  23.632  1.00  0.00     0.116 C 
BRANCH   2   3
ATOM      3  N   UNL A   1      34.775  22.717  23.124  1.00  0.00    -0.351 N 
ATOM      4  O   UNL A   1      32.826  22.497  22.011  1.00  0.00    -0.268 OA
ATOM      5  C   UNL A   1      33.618  23.241  22.581  1.00  0.00     0.265 C 
ATOM      6  H   UNL A   1      34.812  21.734  23.172  1.00  0.00     0.163 HD
BRANCH   5   7
ATOM      7  C   UNL A   1      33.242  24.724  22.756  1.00  0.00     0.106 C 
ATOM      8  N   UNL A   1      33.650  25.531  21.839  1.00  0.00    -0.237 NA
ATOM      9  C   UNL A   1      32.493  25.150  23.986  1.00  0.00     0.090 C 
ATOM     10  C   UNL A   1      33.120  26.870  21.789  1.00  0.00     0.319 C 
ATOM     11  C   UNL A   1      32.204  26.648  24.000  1.00  0.00     0.127 C 
ATOM     12  N   UNL A   1      33.999  27.997  21.919  1.00  0.00    -0.335 N 
ATOM     13  N   UNL A   1      31.965  27.217  22.654  1.00  0.00    -0.249 NA
ATOM     14  C   UNL A   1      33.177  28.993  22.359  1.00  0.00     0.217 C 
ATOM     15  H   UNL A   1      34.964  28.041  21.731  1.00  0.00     0.165 HD
ATOM     16  N   UNL A   1      31.972  28.635  22.729  1.00  0.00    -0.164 NA
BRANCH  11  17
ATOM     17  C   UNL A   1      31.053  27.074  24.930  1.00  0.00     0.109 C 
ATOM     18  C   UNL A   1      30.170  25.946  25.348  1.00  0.00     0.120 C 
ATOM     19  C   UNL A   1      31.510  27.474  26.299  1.00  0.00     0.081 C 
ATOM     20  N   UNL A   1      30.153  25.758  26.626  1.00  0.00    -0.162 NA
ATOM     21  N   UNL A   1      31.014  26.721  27.234  1.00  0.00    -0.155 NA
BRANCH  19  22
ATOM     22  C   UNL A   1      32.522  28.523  26.511  1.00  0.00    -0.001 A 
ATOM     23  C   UNL A   1      33.856  28.201  26.798  1.00  0.00     0.013 A 
ATOM     24  C   UNL A   1      32.083  29.849  26.579  1.00  0.00     0.013 A 
ATOM     25  C   UNL A   1      34.731  29.204  27.215  1.00  0.00     0.040 A 
ATOM     26  C   UNL A   1      32.964  30.847  26.993  1.00  0.00     0.040 A 
ATOM     27  C   UNL A   1      34.274  30.514  27.319  1.00  0.00     0.123 A 
ATOM     28  F   UNL A   1      35.106  31.466  27.758  1.00  0.00    -0.207 F 
ENDBRANCH  19  22
ENDBRANCH  11  17
ENDBRANCH   5   7
ENDBRANCH   2   3
ENDBRANCH   1   2
BRANCH   1  29
ATOM     29  C   UNL A   1      37.025  22.955  25.962  1.00  0.00     0.023 C 
BRANCH  29  30
ATOM     30  C   UNL A   1      37.933  24.130  26.299  1.00  0.00     0.116 C 
BRANCH  30  31
ATOM     31  N   UNL A   1      39.339  23.892  26.009  1.00  0.00    -0.352 N 
ATOM     32  C   UNL A   1      40.468  24.523  26.470  1.00  0.00     0.251 C 
ATOM     33  H   UNL A   1      39.509  23.155  25.376  1.00  0.00     0.163 HD
ATOM     34  O   UNL A   1      41.567  24.212  26.005  1.00  0.00    -0.269 OA
BRANCH  32  35
ATOM     35  C   UNL A   1      40.396  25.592  27.493  1.00  0.00     0.039 A 
ATOM     36  C   UNL A   1      39.457  25.475  28.524  1.00  0.00     0.014 A 
ATOM     37  C   UNL A   1      41.214  26.722  27.435  1.00  0.00     0.014 A 
ATOM     38  C   UNL A   1      39.386  26.453  29.522  1.00  0.00     0.010 A 
ATOM     39  C   UNL A   1      41.212  27.642  28.482  1.00  0.00     0.010 A 
ATOM     40  C   UNL A   1      40.286  27.530  29.529  1.00  0.00    -0.014 A 
BRANCH  40  41
ATOM     41  C   UNL A   1      40.236  28.573  30.591  1.00  0.00     0.031 A 
ATOM     42  C   UNL A   1      39.251  29.709  30.487  1.00  0.00     0.074 A 
ATOM     43  C   UNL A   1      41.095  28.522  31.629  1.00  0.00     0.049 A 
ATOM     44  N   UNL A   1      39.090  30.741  31.277  1.00  0.00    -0.248 NA
ATOM     45  C   UNL A   1      38.347  29.701  29.326  1.00  0.00     0.031 C 
ATOM     46  C   UNL A   1      42.130  27.505  31.828  1.00  0.00     0.029 A 
ATOM     47  N   UNL A   1      41.236  29.353  32.714  1.00  0.00    -0.354 N 
ATOM     48  C   UNL A   1      38.072  31.498  30.708  1.00  0.00     0.074 A 
ATOM     49  C   UNL A   1      37.708  30.852  29.467  1.00  0.00     0.031 C 
ATOM     50  C   UNL A   1      42.782  27.759  32.974  1.00  0.00     0.029 A 
ATOM     51  C   UNL A   1      42.240  28.973  33.574  1.00  0.00     0.049 A 
ATOM     52  H   UNL A   1      40.673  30.146  32.862  1.00  0.00     0.167 HD
ATOM     53  C   UNL A   1      37.464  32.609  31.191  1.00  0.00     0.037 A 
ATOM     54  C   UNL A   1      42.676  29.544  34.714  1.00  0.00     0.037 A 
ATOM     55  C   UNL A   1      37.812  33.246  32.433  1.00  0.00     0.049 A 
ATOM     56  C   UNL A   1      41.991  30.786  35.221  1.00  0.00     0.074 A 
ATOM     57  C   UNL A   1      37.248  34.369  33.015  1.00  0.00     0.029 A 
ATOM     58  N   UNL A   1      38.812  32.811  33.290  1.00  0.00    -0.354 N 
ATOM     59  N   UNL A   1      40.997  31.460  34.694  1.00  0.00    -0.248 NA
ATOM     60  C   UNL A   1      42.476  31.334  36.495  1.00  0.00     0.031 C 
ATOM     61  C   UNL A   1      37.930  34.633  34.208  1.00  0.00     0.029 A 
ATOM     62  C   UNL A   1      38.880  33.642  34.395  1.00  0.00     0.049 A 
ATOM     63  H   UNL A   1      39.387  32.027  33.135  1.00  0.00     0.167 HD
ATOM     64  C   UNL A   1      40.712  32.481  35.593  1.00  0.00     0.074 A 
ATOM     65  C   UNL A   1      41.625  32.326  36.705  1.00  0.00     0.031 C 
ATOM     66  C   UNL A   1      39.778  33.461  35.507  1.00  0.00     0.037 A 
BRANCH  53  67
ATOM     67  C   UNL A   1      36.339  33.188  30.382  1.00  0.00     0.057 A 
ATOM     68  C   UNL A   1      34.997  32.951  30.715  1.00  0.00     0.134 A 
ATOM     69  C   UNL A   1      36.592  34.024  29.287  1.00  0.00     0.134 A 
ATOM     70  F   UNL A   1      34.684  32.148  31.744  1.00  0.00    -0.206 F 
ATOM     71  C   UNL A   1      33.950  33.502  29.974  1.00  0.00     0.040 A 
ATOM     72  C   UNL A   1      35.553  34.606  28.558  1.00  0.00     0.040 A 
ATOM     73  F   UNL A   1      37.851  34.299  28.915  1.00  0.00    -0.206 F 
ATOM     74  C   UNL A   1      34.228  34.341  28.898  1.00  0.00     0.006 A 
ENDBRANCH  53  67
BRANCH  54  75
ATOM     75  C   UNL A   1      43.808  28.948  35.473  1.00  0.00     0.057 A 
ATOM     76  C   UNL A   1      43.595  27.974  36.456  1.00  0.00     0.134 A 
ATOM     77  C   UNL A   1      45.125  29.379  35.272  1.00  0.00     0.134 A 
ATOM     78  F   UNL A   1      42.354  27.531  36.709  1.00  0.00    -0.206 F 
ATOM     79  C   UNL A   1      44.639  27.484  37.242  1.00  0.00     0.040 A 
ATOM     80  C   UNL A   1      46.185  28.874  36.027  1.00  0.00     0.040 A 
ATOM     81  F   UNL A   1      45.402  30.301  34.338  1.00  0.00    -0.206 F 
ATOM     82  C   UNL A   1      45.940  27.934  37.027  1.00  0.00     0.006 A 
ENDBRANCH  54  75
BRANCH  66  83
ATOM     83  C   UNL A   1      39.649  34.392  36.679  1.00  0.00     0.057 A 
ATOM     84  C   UNL A   1      38.921  34.056  37.827  1.00  0.00     0.134 A 
ATOM     85  C   UNL A   1      40.273  35.647  36.655  1.00  0.00     0.134 A 
ATOM     86  F   UNL A   1      38.290  32.875  37.913  1.00  0.00    -0.206 F 
ATOM     87  C   UNL A   1      38.781  34.952  38.891  1.00  0.00     0.040 A 
ATOM     88  C   UNL A   1      40.170  36.535  37.726  1.00  0.00     0.040 A 
ATOM     89  F   UNL A   1      40.999  36.028  35.593  1.00  0.00    -0.206 F 
ATOM     90  C   UNL A   1      39.410  36.194  38.842  1.00  0.00     0.006 A 
ENDBRANCH  66  83
ENDBRANCH  40  41
ENDBRANCH  32  35
ENDBRANCH  30  31
ENDBRANCH  29  30
ENDBRANCH   1  29
TORSDOF 13
ENDMDL
MODEL 3
REMARK VINA RESULT:     -12.8      2.033      6.311
REMARK SMILES O=C(NCCCCNC(=O)c1ccc(-c2c3nc(c(-c4c(F)cccc4F)c4ccc([nH]4)c(-c4c(F)cccc4F)c4nc(c(-c5c(F)cccc5F)c5ccc2[nH]5)C=C4)C=C3)cc1)C1=N[C@@H]2NC=NN2[C@@H]([C@H]2C=NN=C2c2ccc(F)cc2)C1
REMARK SMILES IDX 5 1 4 2 3 3 1 4 2 5 65 7 66 8 85 9 67 10 72 11 68 12 71 13
REMARK SMILES IDX 69 14 70 16 73 17 74 18 77 19 75 20 76 21 78 22 79 23 84 24
REMARK SMILES IDX 80 25 83 26 81 27 82 28 6 29 7 30 8 31 9 32 10 34 11 35
REMARK SMILES IDX 12 36 64 37 13 38 63 39 14 40 15 41 16 42 57 43 17 44 62 45
REMARK SMILES IDX 56 46 58 47 18 48 61 49 55 50 54 51 19 53 45 54 28 55 44 56
REMARK SMILES IDX 29 57 32 58 43 59 59 60 30 61 31 62 42 64 60 65 33 66 20 67
REMARK SMILES IDX 21 68 26 69 22 70 23 71 25 72 27 73 24 74 46 75 47 76 52 77
REMARK SMILES IDX 48 78 49 79 51 80 53 81 50 82 34 83 35 84 40 85 36 86 37 87
REMARK SMILES IDX 39 88 41 89 38 90
REMARK H PARENT 3 6 68 15 8 33 58 52 32 63
REMARK Flexibility Score: inf
ROOT
ATOM      1  C   UNL A   1      31.958  28.441  25.325  1.00  0.00     0.023 C 
ENDROOT
BRANCH   1   2
ATOM      2  C   UNL A   1      31.442  27.150  24.698  1.00  0.00     0.116 C 
BRANCH   2   3
ATOM      3  N   UNL A   1      30.222  26.605  25.254  1.00  0.00    -0.351 N 
ATOM      4  O   UNL A   1      28.968  25.271  26.570  1.00  0.00    -0.268 OA
ATOM      5  C   UNL A   1      30.042  25.462  26.009  1.00  0.00     0.265 C 
ATOM      6  H   UNL A   1      29.405  27.123  25.068  1.00  0.00     0.163 HD
BRANCH   5   7
ATOM      7  C   UNL A   1      31.120  24.367  26.088  1.00  0.00     0.106 C 
ATOM      8  N   UNL A   1      31.243  23.763  27.219  1.00  0.00    -0.237 NA
ATOM      9  C   UNL A   1      31.993  24.110  24.894  1.00  0.00     0.090 C 
ATOM     10  C   UNL A   1      32.033  22.560  27.296  1.00  0.00     0.319 C 
ATOM     11  C   UNL A   1      33.006  22.997  25.143  1.00  0.00     0.127 C 
ATOM     12  N   UNL A   1      33.177  22.505  28.160  1.00  0.00    -0.335 N 
ATOM     13  N   UNL A   1      32.504  21.930  26.038  1.00  0.00    -0.249 NA
ATOM     14  C   UNL A   1      33.946  21.522  27.608  1.00  0.00     0.217 C 
ATOM     15  H   UNL A   1      33.363  23.047  28.961  1.00  0.00     0.165 HD
ATOM     16  N   UNL A   1      33.581  21.089  26.427  1.00  0.00    -0.164 NA
BRANCH  11  17
ATOM     17  C   UNL A   1      33.577  22.347  23.869  1.00  0.00     0.109 C 
ATOM     18  C   UNL A   1      32.917  22.808  22.612  1.00  0.00     0.120 C 
ATOM     19  C   UNL A   1      34.963  22.807  23.536  1.00  0.00     0.081 C 
ATOM     20  N   UNL A   1      33.729  23.391  21.793  1.00  0.00    -0.162 NA
ATOM     21  N   UNL A   1      35.030  23.403  22.383  1.00  0.00    -0.155 NA
BRANCH  19  22
ATOM     22  C   UNL A   1      36.075  22.703  24.495  1.00  0.00    -0.001 A 
ATOM     23  C   UNL A   1      36.516  23.816  25.223  1.00  0.00     0.013 A 
ATOM     24  C   UNL A   1      36.786  21.499  24.542  1.00  0.00     0.013 A 
ATOM     25  C   UNL A   1      37.706  23.738  25.947  1.00  0.00     0.040 A 
ATOM     26  C   UNL A   1      37.972  21.427  25.271  1.00  0.00     0.040 A 
ATOM     27  C   UNL A   1      38.428  22.550  25.954  1.00  0.00     0.123 A 
ATOM     28  F   UNL A   1      39.589  22.491  26.617  1.00  0.00    -0.207 F 
ENDBRANCH  19  22
ENDBRANCH  11  17
ENDBRANCH   5   7
ENDBRANCH   2   3
ENDBRANCH   1   2
BRANCH   1  29
ATOM     29  C   UNL A   1      33.462  28.588  25.514  1.00  0.00     0.023 C 
BRANCH  29  30
ATOM     30  C   UNL A   1      33.977  28.561  26.946  1.00  0.00     0.116 C 
BRANCH  30  31
ATOM     31  N   UNL A   1      33.860  29.835  27.639  1.00  0.00    -0.352 N 
ATOM     32  C   UNL A   1      34.770  30.528  28.399  1.00  0.00     0.251 C 
ATOM     33  H   UNL A   1      32.981  30.273  27.550  1.00  0.00     0.163 HD
ATOM     34  O   UNL A   1      34.414  31.556  28.981  1.00  0.00    -0.269 OA
BRANCH  32  35
ATOM     35  C   UNL A   1      36.164  30.055  28.562  1.00  0.00     0.039 A 
ATOM     36  C   UNL A   1      37.047  30.176  27.484  1.00  0.00     0.014 A 
ATOM     37  C   UNL A   1      36.606  29.465  29.748  1.00  0.00     0.014 A 
ATOM     38  C   UNL A   1      38.378  29.765  27.618  1.00  0.00     0.010 A 
ATOM     39  C   UNL A   1      37.954  29.151  29.914  1.00  0.00     0.010 A 
ATOM     40  C   UNL A   1      38.853  29.279  28.846  1.00  0.00    -0.014 A 
BRANCH  40  41
ATOM     41  C   UNL A   1      40.270  28.853  29.012  1.00  0.00     0.031 A 
ATOM     42  C   UNL A   1      41.279  29.803  29.608  1.00  0.00     0.074 A 
ATOM     43  C   UNL A   1      40.662  27.631  28.600  1.00  0.00     0.049 A 
ATOM     44  N   UNL A   1      42.566  29.641  29.786  1.00  0.00    -0.248 NA
ATOM     45  C   UNL A   1      40.780  31.121  30.034  1.00  0.00     0.031 C 
ATOM     46  C   UNL A   1      39.801  26.632  27.963  1.00  0.00     0.029 A 
ATOM     47  N   UNL A   1      41.893  27.022  28.650  1.00  0.00    -0.354 N 
ATOM     48  C   UNL A   1      43.024  30.830  30.340  1.00  0.00     0.074 A 
ATOM     49  C   UNL A   1      41.897  31.733  30.396  1.00  0.00     0.031 C 
ATOM     50  C   UNL A   1      40.523  25.530  27.704  1.00  0.00     0.029 A 
ATOM     51  C   UNL A   1      41.903  25.753  28.120  1.00  0.00     0.049 A 
ATOM     52  H   UNL A   1      42.692  27.454  29.028  1.00  0.00     0.167 HD
ATOM     53  C   UNL A   1      44.262  31.135  30.801  1.00  0.00     0.037 A 
ATOM     54  C   UNL A   1      42.914  24.873  27.982  1.00  0.00     0.037 A 
ATOM     55  C   UNL A   1      45.383  30.234  30.761  1.00  0.00     0.049 A 
ATOM     56  C   UNL A   1      44.283  25.242  28.490  1.00  0.00     0.074 A 
ATOM     57  C   UNL A   1      46.675  30.444  31.213  1.00  0.00     0.029 A 
ATOM     58  N   UNL A   1      45.344  28.947  30.247  1.00  0.00    -0.354 N 
ATOM     59  N   UNL A   1      44.687  26.354  29.056  1.00  0.00    -0.248 NA
ATOM     60  C   UNL A   1      45.333  24.223  28.359  1.00  0.00     0.031 C 
ATOM     61  C   UNL A   1      47.426  29.296  30.940  1.00  0.00     0.029 A 
ATOM     62  C   UNL A   1      46.588  28.351  30.371  1.00  0.00     0.049 A 
ATOM     63  H   UNL A   1      44.549  28.520  29.854  1.00  0.00     0.167 HD
ATOM     64  C   UNL A   1      46.021  26.150  29.386  1.00  0.00     0.074 A 
ATOM     65  C   UNL A   1      46.352  24.803  28.974  1.00  0.00     0.031 C 
ATOM     66  C   UNL A   1      46.897  27.000  29.979  1.00  0.00     0.037 A 
BRANCH  53  67
ATOM     67  C   UNL A   1      44.457  32.493  31.411  1.00  0.00     0.057 A 
ATOM     68  C   UNL A   1      44.874  33.589  30.642  1.00  0.00     0.134 A 
ATOM     69  C   UNL A   1      44.188  32.722  32.767  1.00  0.00     0.134 A 
ATOM     70  F   UNL A   1      45.162  33.437  29.341  1.00  0.00    -0.206 F 
ATOM     71  C   UNL A   1      45.040  34.857  31.204  1.00  0.00     0.040 A 
ATOM     72  C   UNL A   1      44.322  33.992  33.332  1.00  0.00     0.040 A 
ATOM     73  F   UNL A   1      43.782  31.720  33.561  1.00  0.00    -0.206 F 
ATOM     74  C   UNL A   1      44.753  35.062  32.551  1.00  0.00     0.006 A 
ENDBRANCH  53  67
BRANCH  54  75
ATOM     75  C   UNL A   1      42.680  23.546  27.351  1.00  0.00     0.057 A 
ATOM     76  C   UNL A   1      42.373  22.417  28.120  1.00  0.00     0.134 A 
ATOM     77  C   UNL A   1      42.814  23.364  25.969  1.00  0.00     0.134 A 
ATOM     78  F   UNL A   1      42.248  22.521  29.452  1.00  0.00    -0.206 F 
ATOM     79  C   UNL A   1      42.252  21.150  27.547  1.00  0.00     0.040 A 
ATOM     80  C   UNL A   1      42.663  22.109  25.378  1.00  0.00     0.040 A 
ATOM     81  F   UNL A   1      43.097  24.405  25.172  1.00  0.00    -0.206 F 
ATOM     82  C   UNL A   1      42.396  20.994  26.170  1.00  0.00     0.006 A 
ENDBRANCH  54  75
BRANCH  66  83
ATOM     83  C   UNL A   1      48.270  26.472  30.281  1.00  0.00     0.057 A 
ATOM     84  C   UNL A   1      48.582  25.844  31.493  1.00  0.00     0.134 A 
ATOM     85  C   UNL A   1      49.296  26.593  29.335  1.00  0.00     0.134 A 
ATOM     86  F   UNL A   1      47.649  25.704  32.448  1.00  0.00    -0.206 F 
ATOM     87  C   UNL A   1      49.875  25.394  31.771  1.00  0.00     0.040 A 
ATOM     88  C   UNL A   1      50.583  26.115  29.586  1.00  0.00     0.040 A 
ATOM     89  F   UNL A   1      49.065  27.170  28.146  1.00  0.00    -0.206 F 
ATOM     90  C   UNL A   1      50.878  25.526  30.813  1.00  0.00     0.006 A 
ENDBRANCH  66  83
ENDBRANCH  40  41
ENDBRANCH  32  35
ENDBRANCH  30  31
ENDBRANCH  29  30
ENDBRANCH   1  29
TORSDOF 13
ENDMDL
