MODEL 1
REMARK VINA RESULT:     -11.8      0.000      0.000
REMARK SMILES C[C@H]1CCC[C@@H]1n1c(SCC(=O)NCCCCNC(=O)c2ccc(-c3c4nc(c(-c5c(F)cccc5F)c5ccc([nH]5)c(-c5c(F)cccc5F)c5nc(c(-c6c(F)cccc6F)c6ccc3[nH]6)C=C5)C=C4)cc2)nc2cnccc21
REMARK SMILES IDX 15 1 14 2 13 3 11 4 12 5 10 7 9 8 8 9 7 10 81 11 75 12 76 13
REMARK SMILES IDX 80 14 77 15 79 16 78 17 6 18 1 19 2 20 3 21 4 22 5 23 16 24
REMARK SMILES IDX 17 25 18 26 19 27 20 29 21 30 22 31 74 32 23 33 73 34 24 35
REMARK SMILES IDX 25 36 26 37 67 38 27 39 72 40 66 41 68 42 28 43 71 44 65 45
REMARK SMILES IDX 64 46 29 48 55 49 38 50 54 51 39 52 42 53 53 54 69 55 40 56
REMARK SMILES IDX 41 57 52 59 70 60 43 61 30 62 31 63 36 64 32 65 33 66 35 67
REMARK SMILES IDX 37 68 34 69 56 70 57 71 62 72 58 73 59 74 61 75 63 76 60 77
REMARK SMILES IDX 44 78 45 79 50 80 46 81 47 82 49 83 51 84 48 85
REMARK H PARENT 13 6 18 28 68 47 42 58
REMARK Flexibility Score: inf
ROOT
ATOM      1  C   UNL A   1      40.954  20.840  27.057  1.00  0.00     0.023 C 
ENDROOT
BRANCH   1   2
ATOM      2  C   UNL A   1      39.994  21.876  26.492  1.00  0.00     0.116 C 
BRANCH   2   3
ATOM      3  N   UNL A   1      38.920  21.280  25.735  1.00  0.00    -0.355 N 
ATOM      4  C   UNL A   1      37.799  21.876  25.267  1.00  0.00     0.230 C 
ATOM      5  O   UNL A   1      37.307  21.372  24.250  1.00  0.00    -0.274 OA
ATOM      6  H   UNL A   1      39.015  20.321  25.534  1.00  0.00     0.163 HD
BRANCH   4   7
ATOM      7  C   UNL A   1      37.244  23.158  25.833  1.00  0.00     0.178 C 
BRANCH   7   8
ATOM      8  S   UNL A   1      35.889  24.055  25.100  1.00  0.00    -0.078 SA
BRANCH   8   9
ATOM      9  C   UNL A   1      34.277  23.917  25.721  1.00  0.00     0.169 A 
ATOM     10  N   UNL A   1      33.327  22.889  25.645  1.00  0.00    -0.315 N 
ATOM     11  C   UNL A   1      32.119  23.442  26.092  1.00  0.00     0.072 A 
ATOM     12  N   UNL A   1      33.687  25.067  25.991  1.00  0.00    -0.221 NA
ATOM     13  C   UNL A   1      32.357  24.813  26.137  1.00  0.00     0.108 A 
ATOM     14  C   UNL A   1      30.840  22.958  26.395  1.00  0.00     0.049 A 
ATOM     15  C   UNL A   1      31.287  25.703  26.308  1.00  0.00     0.141 A 
ATOM     16  C   UNL A   1      29.840  23.908  26.569  1.00  0.00     0.113 A 
ATOM     17  N   UNL A   1      30.025  25.241  26.500  1.00  0.00    -0.262 NA
BRANCH  10  18
ATOM     18  C   UNL A   1      33.461  21.613  24.929  1.00  0.00     0.093 C 
ATOM     19  C   UNL A   1      32.339  21.770  22.587  1.00  0.00     0.010 C 
ATOM     20  C   UNL A   1      32.330  21.142  23.978  1.00  0.00     0.009 C 
ATOM     21  C   UNL A   1      32.534  19.628  23.868  1.00  0.00     0.005 C 
ATOM     22  C   UNL A   1      32.899  19.208  25.269  1.00  0.00     0.002 C 
ATOM     23  C   UNL A   1      33.550  20.431  25.887  1.00  0.00     0.026 C 
ENDBRANCH  10  18
ENDBRANCH   8   9
ENDBRANCH   7   8
ENDBRANCH   4   7
ENDBRANCH   2   3
ENDBRANCH   1   2
BRANCH   1  24
ATOM     24  C   UNL A   1      41.219  19.610  26.178  1.00  0.00     0.023 C 
BRANCH  24  25
ATOM     25  C   UNL A   1      42.648  19.060  26.186  1.00  0.00     0.116 C 
BRANCH  25  26
ATOM     26  N   UNL A   1      43.452  19.428  25.040  1.00  0.00    -0.352 N 
ATOM     27  C   UNL A   1      44.174  20.530  24.678  1.00  0.00     0.251 C 
ATOM     28  H   UNL A   1      43.488  18.716  24.360  1.00  0.00     0.163 HD
ATOM     29  O   UNL A   1      44.902  20.394  23.686  1.00  0.00    -0.269 OA
BRANCH  27  30
ATOM     30  C   UNL A   1      44.099  21.865  25.325  1.00  0.00     0.039 A 
ATOM     31  C   UNL A   1      44.712  22.218  26.524  1.00  0.00     0.014 A 
ATOM     32  C   UNL A   1      43.287  22.822  24.680  1.00  0.00     0.014 A 
ATOM     33  C   UNL A   1      44.436  23.445  27.116  1.00  0.00     0.010 A 
ATOM     34  C   UNL A   1      43.026  24.061  25.254  1.00  0.00     0.010 A 
ATOM     35  C   UNL A   1      43.568  24.355  26.498  1.00  0.00    -0.014 A 
BRANCH  35  36
ATOM     36  C   UNL A   1      43.413  25.666  27.125  1.00  0.00     0.031 A 
ATOM     37  C   UNL A   1      44.527  26.597  26.805  1.00  0.00     0.074 A 
ATOM     38  C   UNL A   1      42.350  26.057  27.859  1.00  0.00     0.049 A 
ATOM     39  N   UNL A   1      45.429  27.050  27.612  1.00  0.00    -0.248 NA
ATOM     40  C   UNL A   1      44.767  26.931  25.391  1.00  0.00     0.031 C 
ATOM     41  C   UNL A   1      41.079  25.353  28.036  1.00  0.00     0.029 A 
ATOM     42  N   UNL A   1      42.153  27.223  28.547  1.00  0.00    -0.354 N 
ATOM     43  C   UNL A   1      46.227  27.900  26.850  1.00  0.00     0.074 A 
ATOM     44  C   UNL A   1      45.885  27.652  25.475  1.00  0.00     0.031 C 
ATOM     45  C   UNL A   1      40.175  26.192  28.589  1.00  0.00     0.029 A 
ATOM     46  C   UNL A   1      40.833  27.442  28.930  1.00  0.00     0.049 A 
ATOM     47  H   UNL A   1      42.881  27.853  28.753  1.00  0.00     0.167 HD
ATOM     48  C   UNL A   1      46.885  28.935  27.439  1.00  0.00     0.037 A 
ATOM     49  C   UNL A   1      40.309  28.581  29.454  1.00  0.00     0.037 A 
ATOM     50  C   UNL A   1      47.008  28.718  28.862  1.00  0.00     0.049 A 
ATOM     51  C   UNL A   1      41.423  29.373  30.014  1.00  0.00     0.074 A 
ATOM     52  C   UNL A   1      47.625  27.806  29.691  1.00  0.00     0.029 A 
ATOM     53  N   UNL A   1      46.092  29.384  29.633  1.00  0.00    -0.354 N 
ATOM     54  N   UNL A   1      42.082  29.049  31.089  1.00  0.00    -0.248 NA
ATOM     55  C   UNL A   1      42.058  30.378  29.174  1.00  0.00     0.031 C 
ATOM     56  C   UNL A   1      46.791  27.713  30.847  1.00  0.00     0.029 A 
ATOM     57  C   UNL A   1      45.730  28.607  30.695  1.00  0.00     0.049 A 
ATOM     58  H   UNL A   1      45.747  30.287  29.449  1.00  0.00     0.167 HD
ATOM     59  C   UNL A   1      43.384  29.433  30.823  1.00  0.00     0.074 A 
ATOM     60  C   UNL A   1      43.274  30.389  29.726  1.00  0.00     0.031 C 
ATOM     61  C   UNL A   1      44.429  28.705  31.318  1.00  0.00     0.037 A 
BRANCH  48  62
ATOM     62  C   UNL A   1      46.912  30.343  26.858  1.00  0.00     0.057 A 
ATOM     63  C   UNL A   1      45.768  31.124  26.592  1.00  0.00     0.134 A 
ATOM     64  C   UNL A   1      48.118  31.071  26.925  1.00  0.00     0.134 A 
ATOM     65  F   UNL A   1      44.538  30.608  26.508  1.00  0.00    -0.206 F 
ATOM     66  C   UNL A   1      45.804  32.518  26.496  1.00  0.00     0.040 A 
ATOM     67  C   UNL A   1      48.158  32.471  26.874  1.00  0.00     0.040 A 
ATOM     68  F   UNL A   1      49.285  30.450  27.156  1.00  0.00    -0.206 F 
ATOM     69  C   UNL A   1      46.994  33.201  26.681  1.00  0.00     0.006 A 
ENDBRANCH  48  62
BRANCH  49  70
ATOM     70  C   UNL A   1      38.946  29.151  29.326  1.00  0.00     0.057 A 
ATOM     71  C   UNL A   1      38.024  29.081  30.384  1.00  0.00     0.134 A 
ATOM     72  C   UNL A   1      38.419  29.514  28.076  1.00  0.00     0.134 A 
ATOM     73  F   UNL A   1      38.401  28.676  31.604  1.00  0.00    -0.206 F 
ATOM     74  C   UNL A   1      36.659  29.329  30.205  1.00  0.00     0.040 A 
ATOM     75  C   UNL A   1      37.053  29.759  27.882  1.00  0.00     0.040 A 
ATOM     76  F   UNL A   1      39.207  29.572  26.993  1.00  0.00    -0.206 F 
ATOM     77  C   UNL A   1      36.165  29.654  28.948  1.00  0.00     0.006 A 
ENDBRANCH  49  70
BRANCH  61  78
ATOM     78  C   UNL A   1      44.140  27.799  32.480  1.00  0.00     0.057 A 
ATOM     79  C   UNL A   1      44.215  28.337  33.770  1.00  0.00     0.134 A 
ATOM     80  C   UNL A   1      43.849  26.431  32.378  1.00  0.00     0.134 A 
ATOM     81  F   UNL A   1      44.540  29.628  33.947  1.00  0.00    -0.206 F 
ATOM     82  C   UNL A   1      43.983  27.563  34.908  1.00  0.00     0.040 A 
ATOM     83  C   UNL A   1      43.574  25.653  33.508  1.00  0.00     0.040 A 
ATOM     84  F   UNL A   1      43.853  25.803  31.194  1.00  0.00    -0.206 F 
ATOM     85  C   UNL A   1      43.642  26.221  34.778  1.00  0.00     0.006 A 
ENDBRANCH  61  78
ENDBRANCH  35  36
ENDBRANCH  27  30
ENDBRANCH  25  26
ENDBRANCH  24  25
ENDBRANCH   1  24
TORSDOF 14
ENDMDL
MODEL 2
REMARK VINA RESULT:     -11.7      1.138      2.339
REMARK SMILES C[C@H]1CCC[C@@H]1n1c(SCC(=O)NCCCCNC(=O)c2ccc(-c3c4nc(c(-c5c(F)cccc5F)c5ccc([nH]5)c(-c5c(F)cccc5F)c5nc(c(-c6c(F)cccc6F)c6ccc3[nH]6)C=C5)C=C4)cc2)nc2cnccc21
REMARK SMILES IDX 15 1 14 2 13 3 11 4 12 5 10 7 9 8 8 9 7 10 81 11 75 12 76 13
REMARK SMILES IDX 80 14 77 15 79 16 78 17 6 18 1 19 2 20 3 21 4 22 5 23 16 24
REMARK SMILES IDX 17 25 18 26 19 27 20 29 21 30 22 31 74 32 23 33 73 34 24 35
REMARK SMILES IDX 25 36 26 37 67 38 27 39 72 40 66 41 68 42 28 43 71 44 65 45
REMARK SMILES IDX 64 46 29 48 55 49 38 50 54 51 39 52 42 53 53 54 69 55 40 56
REMARK SMILES IDX 41 57 52 59 70 60 43 61 30 62 31 63 36 64 32 65 33 66 35 67
REMARK SMILES IDX 37 68 34 69 56 70 57 71 62 72 58 73 59 74 61 75 63 76 60 77
REMARK SMILES IDX 44 78 45 79 50 80 46 81 47 82 49 83 51 84 48 85
REMARK H PARENT 13 6 18 28 68 47 42 58
REMARK Flexibility Score: inf
ROOT
ATOM      1  C   UNL A   1      41.240  20.653  26.976  1.00  0.00     0.023 C 
ENDROOT
BRANCH   1   2
ATOM      2  C   UNL A   1      40.215  21.677  26.508  1.00  0.00     0.116 C 
BRANCH   2   3
ATOM      3  N   UNL A   1      39.122  21.073  25.785  1.00  0.00    -0.355 N 
ATOM      4  C   UNL A   1      37.946  21.640  25.428  1.00  0.00     0.230 C 
ATOM      5  O   UNL A   1      37.412  21.172  24.415  1.00  0.00    -0.274 OA
ATOM      6  H   UNL A   1      39.246  20.134  25.520  1.00  0.00     0.163 HD
BRANCH   4   7
ATOM      7  C   UNL A   1      37.373  22.858  26.106  1.00  0.00     0.178 C 
BRANCH   7   8
ATOM      8  S   UNL A   1      36.405  24.094  25.260  1.00  0.00    -0.078 SA
BRANCH   8   9
ATOM      9  C   UNL A   1      34.673  24.077  25.320  1.00  0.00     0.169 A 
ATOM     10  N   UNL A   1      33.712  25.029  24.952  1.00  0.00    -0.315 N 
ATOM     11  C   UNL A   1      32.494  24.574  25.476  1.00  0.00     0.072 A 
ATOM     12  N   UNL A   1      34.157  23.211  26.173  1.00  0.00    -0.221 NA
ATOM     13  C   UNL A   1      32.848  23.548  26.347  1.00  0.00     0.108 A 
ATOM     14  C   UNL A   1      31.149  24.952  25.373  1.00  0.00     0.049 A 
ATOM     15  C   UNL A   1      31.898  23.025  27.235  1.00  0.00     0.141 A 
ATOM     16  C   UNL A   1      30.269  24.372  26.280  1.00  0.00     0.113 A 
ATOM     17  N   UNL A   1      30.613  23.461  27.210  1.00  0.00    -0.262 NA
BRANCH  10  18
ATOM     18  C   UNL A   1      33.961  26.382  24.437  1.00  0.00     0.093 C 
ATOM     19  C   UNL A   1      34.027  28.095  26.395  1.00  0.00     0.010 C 
ATOM     20  C   UNL A   1      33.312  27.604  25.139  1.00  0.00     0.009 C 
ATOM     21  C   UNL A   1      33.319  28.702  24.071  1.00  0.00     0.005 C 
ATOM     22  C   UNL A   1      32.962  27.975  22.799  1.00  0.00     0.002 C 
ATOM     23  C   UNL A   1      33.443  26.552  23.014  1.00  0.00     0.026 C 
ENDBRANCH  10  18
ENDBRANCH   8   9
ENDBRANCH   7   8
ENDBRANCH   4   7
ENDBRANCH   2   3
ENDBRANCH   1   2
BRANCH   1  24
ATOM     24  C   UNL A   1      41.571  19.525  25.990  1.00  0.00     0.023 C 
BRANCH  24  25
ATOM     25  C   UNL A   1      42.993  18.960  26.051  1.00  0.00     0.116 C 
BRANCH  25  26
ATOM     26  N   UNL A   1      43.860  19.363  24.963  1.00  0.00    -0.352 N 
ATOM     27  C   UNL A   1      44.558  20.494  24.651  1.00  0.00     0.251 C 
ATOM     28  H   UNL A   1      43.972  18.654  24.289  1.00  0.00     0.163 HD
ATOM     29  O   UNL A   1      45.359  20.390  23.712  1.00  0.00    -0.269 OA
BRANCH  27  30
ATOM     30  C   UNL A   1      44.383  21.824  25.289  1.00  0.00     0.039 A 
ATOM     31  C   UNL A   1      45.070  22.278  26.412  1.00  0.00     0.014 A 
ATOM     32  C   UNL A   1      43.394  22.656  24.725  1.00  0.00     0.014 A 
ATOM     33  C   UNL A   1      44.703  23.475  27.018  1.00  0.00     0.010 A 
ATOM     34  C   UNL A   1      43.040  23.867  25.312  1.00  0.00     0.010 A 
ATOM     35  C   UNL A   1      43.667  24.255  26.488  1.00  0.00    -0.014 A 
BRANCH  35  36
ATOM     36  C   UNL A   1      43.414  25.551  27.115  1.00  0.00     0.031 A 
ATOM     37  C   UNL A   1      44.448  26.567  26.783  1.00  0.00     0.074 A 
ATOM     38  C   UNL A   1      42.331  25.857  27.858  1.00  0.00     0.049 A 
ATOM     39  N   UNL A   1      45.318  27.091  27.581  1.00  0.00    -0.248 NA
ATOM     40  C   UNL A   1      44.646  26.916  25.367  1.00  0.00     0.031 C 
ATOM     41  C   UNL A   1      41.122  25.054  28.049  1.00  0.00     0.029 A 
ATOM     42  N   UNL A   1      42.048  27.005  28.547  1.00  0.00    -0.354 N 
ATOM     43  C   UNL A   1      46.038  28.001  26.810  1.00  0.00     0.074 A 
ATOM     44  C   UNL A   1      45.705  27.725  25.439  1.00  0.00     0.031 C 
ATOM     45  C   UNL A   1      40.158  25.820  28.609  1.00  0.00     0.029 A 
ATOM     46  C   UNL A   1      40.718  27.118  28.942  1.00  0.00     0.049 A 
ATOM     47  H   UNL A   1      42.725  27.691  28.745  1.00  0.00     0.167 HD
ATOM     48  C   UNL A   1      46.617  29.087  27.392  1.00  0.00     0.037 A 
ATOM     49  C   UNL A   1      40.110  28.213  29.470  1.00  0.00     0.037 A 
ATOM     50  C   UNL A   1      46.770  28.883  28.814  1.00  0.00     0.049 A 
ATOM     51  C   UNL A   1      41.163  29.093  30.019  1.00  0.00     0.074 A 
ATOM     52  C   UNL A   1      47.467  28.024  29.637  1.00  0.00     0.029 A 
ATOM     53  N   UNL A   1      45.812  29.475  29.593  1.00  0.00    -0.354 N 
ATOM     54  N   UNL A   1      41.855  28.824  31.087  1.00  0.00    -0.248 NA
ATOM     55  C   UNL A   1      41.708  30.143  29.172  1.00  0.00     0.031 C 
ATOM     56  C   UNL A   1      46.654  27.867  30.802  1.00  0.00     0.029 A 
ATOM     57  C   UNL A   1      45.523  28.673  30.659  1.00  0.00     0.049 A 
ATOM     58  H   UNL A   1      45.395  30.347  29.411  1.00  0.00     0.167 HD
ATOM     59  C   UNL A   1      43.120  29.309  30.809  1.00  0.00     0.074 A 
ATOM     60  C   UNL A   1      42.924  30.252  29.712  1.00  0.00     0.031 C 
ATOM     61  C   UNL A   1      44.224  28.668  31.294  1.00  0.00     0.037 A 
BRANCH  48  62
ATOM     62  C   UNL A   1      46.527  30.491  26.809  1.00  0.00     0.057 A 
ATOM     63  C   UNL A   1      45.323  31.190  26.583  1.00  0.00     0.134 A 
ATOM     64  C   UNL A   1      47.681  31.301  26.833  1.00  0.00     0.134 A 
ATOM     65  F   UNL A   1      44.129  30.590  26.543  1.00  0.00    -0.206 F 
ATOM     66  C   UNL A   1      45.259  32.583  26.485  1.00  0.00     0.040 A 
ATOM     67  C   UNL A   1      47.623  32.700  26.780  1.00  0.00     0.040 A 
ATOM     68  F   UNL A   1      48.896  30.763  27.023  1.00  0.00    -0.206 F 
ATOM     69  C   UNL A   1      46.405  33.347  26.627  1.00  0.00     0.006 A 
ENDBRANCH  48  62
BRANCH  49  70
ATOM     70  C   UNL A   1      38.705  28.672  29.355  1.00  0.00     0.057 A 
ATOM     71  C   UNL A   1      38.250  29.345  28.209  1.00  0.00     0.134 A 
ATOM     72  C   UNL A   1      37.858  28.724  30.474  1.00  0.00     0.134 A 
ATOM     73  F   UNL A   1      39.007  29.423  27.106  1.00  0.00    -0.206 F 
ATOM     74  C   UNL A   1      37.041  30.050  28.184  1.00  0.00     0.040 A 
ATOM     75  C   UNL A   1      36.647  29.432  30.464  1.00  0.00     0.040 A 
ATOM     76  F   UNL A   1      38.216  28.148  31.630  1.00  0.00    -0.206 F 
ATOM     77  C   UNL A   1      36.242  30.109  29.319  1.00  0.00     0.006 A 
ENDBRANCH  49  70
BRANCH  61  78
ATOM     78  C   UNL A   1      44.020  27.744  32.460  1.00  0.00     0.057 A 
ATOM     79  C   UNL A   1      44.037  28.294  33.748  1.00  0.00     0.134 A 
ATOM     80  C   UNL A   1      43.863  26.354  32.365  1.00  0.00     0.134 A 
ATOM     81  F   UNL A   1      44.234  29.611  33.919  1.00  0.00    -0.206 F 
ATOM     82  C   UNL A   1      43.876  27.506  34.888  1.00  0.00     0.040 A 
ATOM     83  C   UNL A   1      43.660  25.559  33.497  1.00  0.00     0.040 A 
ATOM     84  F   UNL A   1      43.933  25.723  31.184  1.00  0.00    -0.206 F 
ATOM     85  C   UNL A   1      43.667  26.137  34.765  1.00  0.00     0.006 A 
ENDBRANCH  61  78
ENDBRANCH  35  36
ENDBRANCH  27  30
ENDBRANCH  25  26
ENDBRANCH  24  25
ENDBRANCH   1  24
TORSDOF 14
ENDMDL
MODEL 3
REMARK VINA RESULT:     -11.0      4.400      9.537
REMARK SMILES C[C@H]1CCC[C@@H]1n1c(SCC(=O)NCCCCNC(=O)c2ccc(-c3c4nc(c(-c5c(F)cccc5F)c5ccc([nH]5)c(-c5c(F)cccc5F)c5nc(c(-c6c(F)cccc6F)c6ccc3[nH]6)C=C5)C=C4)cc2)nc2cnccc21
REMARK SMILES IDX 15 1 14 2 13 3 11 4 12 5 10 7 9 8 8 9 7 10 81 11 75 12 76 13
REMARK SMILES IDX 80 14 77 15 79 16 78 17 6 18 1 19 2 20 3 21 4 22 5 23 16 24
REMARK SMILES IDX 17 25 18 26 19 27 20 29 21 30 22 31 74 32 23 33 73 34 24 35
REMARK SMILES IDX 25 36 26 37 67 38 27 39 72 40 66 41 68 42 28 43 71 44 65 45
REMARK SMILES IDX 64 46 29 48 55 49 38 50 54 51 39 52 42 53 53 54 69 55 40 56
REMARK SMILES IDX 41 57 52 59 70 60 43 61 30 62 31 63 36 64 32 65 33 66 35 67
REMARK SMILES IDX 37 68 34 69 56 70 57 71 62 72 58 73 59 74 61 75 63 76 60 77
REMARK SMILES IDX 44 78 45 79 50 80 46 81 47 82 49 83 51 84 48 85
REMARK H PARENT 13 6 18 28 68 47 42 58
REMARK Flexibility Score: inf
ROOT
ATOM      1  C   UNL A   1      34.265  34.743  28.021  1.00  0.00     0.023 C 
ENDROOT
BRANCH   1   2
ATOM      2  C   UNL A   1      33.449  33.459  28.021  1.00  0.00     0.116 C 
BRANCH   2   3
ATOM      3  N   UNL A   1      34.269  32.285  28.208  1.00  0.00    -0.355 N 
ATOM      4  C   UNL A   1      34.119  31.066  27.641  1.00  0.00     0.230 C 
ATOM      5  O   UNL A   1      35.157  30.406  27.506  1.00  0.00    -0.274 OA
ATOM      6  H   UNL A   1      35.029  32.384  28.825  1.00  0.00     0.163 HD
BRANCH   4   7
ATOM      7  C   UNL A   1      32.816  30.574  27.063  1.00  0.00     0.178 C 
BRANCH   7   8
ATOM      8  S   UNL A   1      32.438  28.851  26.808  1.00  0.00    -0.078 SA
BRANCH   8   9
ATOM      9  C   UNL A   1      32.635  28.107  25.255  1.00  0.00     0.169 A 
ATOM     10  N   UNL A   1      31.772  27.980  24.159  1.00  0.00    -0.315 N 
ATOM     11  C   UNL A   1      32.373  27.053  23.295  1.00  0.00     0.072 A 
ATOM     12  N   UNL A   1      33.589  27.195  25.195  1.00  0.00    -0.221 NA
ATOM     13  C   UNL A   1      33.397  26.485  24.049  1.00  0.00     0.108 A 
ATOM     14  C   UNL A   1      32.131  26.579  21.999  1.00  0.00     0.049 A 
ATOM     15  C   UNL A   1      34.055  25.339  23.582  1.00  0.00     0.141 A 
ATOM     16  C   UNL A   1      32.840  25.449  21.609  1.00  0.00     0.113 A 
ATOM     17  N   UNL A   1      33.753  24.812  22.368  1.00  0.00    -0.262 NA
BRANCH  10  18
ATOM     18  C   UNL A   1      30.378  28.436  24.075  1.00  0.00     0.093 C 
ATOM     19  C   UNL A   1      28.760  26.398  24.075  1.00  0.00     0.010 C 
ATOM     20  C   UNL A   1      29.334  27.584  23.305  1.00  0.00     0.009 C 
ATOM     21  C   UNL A   1      28.217  28.573  22.960  1.00  0.00     0.005 C 
ATOM     22  C   UNL A   1      28.952  29.834  22.580  1.00  0.00     0.002 C 
ATOM     23  C   UNL A   1      30.259  29.770  23.348  1.00  0.00     0.026 C 
ENDBRANCH  10  18
ENDBRANCH   8   9
ENDBRANCH   7   8
ENDBRANCH   4   7
ENDBRANCH   2   3
ENDBRANCH   1   2
BRANCH   1  24
ATOM     24  C   UNL A   1      34.006  35.713  29.182  1.00  0.00     0.023 C 
BRANCH  24  25
ATOM     25  C   UNL A   1      32.891  35.327  30.158  1.00  0.00     0.116 C 
BRANCH  25  26
ATOM     26  N   UNL A   1      33.182  35.587  31.553  1.00  0.00    -0.352 N 
ATOM     27  C   UNL A   1      34.215  35.293  32.397  1.00  0.00     0.251 C 
ATOM     28  H   UNL A   1      32.466  36.095  31.999  1.00  0.00     0.163 HD
ATOM     29  O   UNL A   1      34.192  35.865  33.495  1.00  0.00    -0.269 OA
BRANCH  27  30
ATOM     30  C   UNL A   1      35.299  34.312  32.132  1.00  0.00     0.039 A 
ATOM     31  C   UNL A   1      35.112  32.977  31.783  1.00  0.00     0.014 A 
ATOM     32  C   UNL A   1      36.617  34.781  32.310  1.00  0.00     0.014 A 
ATOM     33  C   UNL A   1      36.199  32.112  31.722  1.00  0.00     0.010 A 
ATOM     34  C   UNL A   1      37.711  33.927  32.227  1.00  0.00     0.010 A 
ATOM     35  C   UNL A   1      37.496  32.578  31.975  1.00  0.00    -0.014 A 
BRANCH  35  36
ATOM     36  C   UNL A   1      38.597  31.636  31.785  1.00  0.00     0.031 A 
ATOM     37  C   UNL A   1      39.306  31.310  33.050  1.00  0.00     0.074 A 
ATOM     38  C   UNL A   1      38.920  31.043  30.617  1.00  0.00     0.049 A 
ATOM     39  N   UNL A   1      40.512  31.634  33.381  1.00  0.00    -0.248 NA
ATOM     40  C   UNL A   1      38.530  30.698  34.141  1.00  0.00     0.031 C 
ATOM     41  C   UNL A   1      38.162  31.063  29.365  1.00  0.00     0.029 A 
ATOM     42  N   UNL A   1      39.972  30.218  30.325  1.00  0.00    -0.354 N 
ATOM     43  C   UNL A   1      40.722  31.079  34.641  1.00  0.00     0.074 A 
ATOM     44  C   UNL A   1      39.430  30.674  35.125  1.00  0.00     0.031 C 
ATOM     45  C   UNL A   1      38.653  30.121  28.528  1.00  0.00     0.029 A 
ATOM     46  C   UNL A   1      39.839  29.528  29.123  1.00  0.00     0.049 A 
ATOM     47  H   UNL A   1      40.756  30.122  30.913  1.00  0.00     0.167 HD
ATOM     48  C   UNL A   1      41.978  30.741  35.042  1.00  0.00     0.037 A 
ATOM     49  C   UNL A   1      40.622  28.517  28.667  1.00  0.00     0.037 A 
ATOM     50  C   UNL A   1      42.969  31.435  34.254  1.00  0.00     0.049 A 
ATOM     51  C   UNL A   1      41.912  28.586  29.385  1.00  0.00     0.074 A 
ATOM     52  C   UNL A   1      43.350  32.743  34.041  1.00  0.00     0.029 A 
ATOM     53  N   UNL A   1      43.526  30.701  33.241  1.00  0.00    -0.354 N 
ATOM     54  N   UNL A   1      42.804  29.514  29.193  1.00  0.00    -0.248 NA
ATOM     55  C   UNL A   1      42.080  27.803  30.599  1.00  0.00     0.031 C 
ATOM     56  C   UNL A   1      43.822  32.790  32.693  1.00  0.00     0.029 A 
ATOM     57  C   UNL A   1      43.754  31.502  32.160  1.00  0.00     0.049 A 
ATOM     58  H   UNL A   1      43.731  29.739  33.286  1.00  0.00     0.167 HD
ATOM     59  C   UNL A   1      43.339  29.742  30.448  1.00  0.00     0.074 A 
ATOM     60  C   UNL A   1      42.988  28.556  31.223  1.00  0.00     0.031 C 
ATOM     61  C   UNL A   1      43.743  30.997  30.805  1.00  0.00     0.037 A 
BRANCH  48  62
ATOM     62  C   UNL A   1      42.307  29.419  35.724  1.00  0.00     0.057 A 
ATOM     63  C   UNL A   1      41.987  28.148  35.204  1.00  0.00     0.134 A 
ATOM     64  C   UNL A   1      43.296  29.412  36.728  1.00  0.00     0.134 A 
ATOM     65  F   UNL A   1      41.084  27.962  34.236  1.00  0.00    -0.206 F 
ATOM     66  C   UNL A   1      42.660  26.981  35.581  1.00  0.00     0.040 A 
ATOM     67  C   UNL A   1      44.007  28.257  37.080  1.00  0.00     0.040 A 
ATOM     68  F   UNL A   1      43.684  30.553  37.320  1.00  0.00    -0.206 F 
ATOM     69  C   UNL A   1      43.703  27.038  36.489  1.00  0.00     0.006 A 
ENDBRANCH  48  62
BRANCH  49  70
ATOM     70  C   UNL A   1      40.279  27.355  27.812  1.00  0.00     0.057 A 
ATOM     71  C   UNL A   1      39.562  26.260  28.323  1.00  0.00     0.134 A 
ATOM     72  C   UNL A   1      40.893  27.158  26.564  1.00  0.00     0.134 A 
ATOM     73  F   UNL A   1      38.996  26.310  29.537  1.00  0.00    -0.206 F 
ATOM     74  C   UNL A   1      39.483  25.036  27.649  1.00  0.00     0.040 A 
ATOM     75  C   UNL A   1      40.826  25.935  25.882  1.00  0.00     0.040 A 
ATOM     76  F   UNL A   1      41.633  28.126  26.006  1.00  0.00    -0.206 F 
ATOM     77  C   UNL A   1      40.129  24.864  26.432  1.00  0.00     0.006 A 
ENDBRANCH  49  70
BRANCH  61  78
ATOM     78  C   UNL A   1      44.007  31.971  29.693  1.00  0.00     0.057 A 
ATOM     79  C   UNL A   1      45.267  31.951  29.085  1.00  0.00     0.134 A 
ATOM     80  C   UNL A   1      43.101  32.944  29.246  1.00  0.00     0.134 A 
ATOM     81  F   UNL A   1      46.204  31.081  29.497  1.00  0.00    -0.206 F 
ATOM     82  C   UNL A   1      45.606  32.834  28.059  1.00  0.00     0.040 A 
ATOM     83  C   UNL A   1      43.414  33.807  28.191  1.00  0.00     0.040 A 
ATOM     84  F   UNL A   1      41.907  33.108  29.833  1.00  0.00    -0.206 F 
ATOM     85  C   UNL A   1      44.671  33.753  27.596  1.00  0.00     0.006 A 
ENDBRANCH  61  78
ENDBRANCH  35  36
ENDBRANCH  27  30
ENDBRANCH  25  26
ENDBRANCH  24  25
ENDBRANCH   1  24
TORSDOF 14
ENDMDL
