MODEL 1
REMARK VINA RESULT:     -12.6      0.000      0.000
REMARK SMILES Cc1ccccc1CSCC(=O)Nc1ccc(C)c(C(=O)NCCCCNC(=O)c2ccc(-c3c4nc(c(-c5c(F)cccc5F)c5ccc([nH]5)c(-c5c(F)cccc5F)c5nc(c(-c6c(F)cccc6F)c6ccc3[nH]6)C=C5)C=C4)cc2)c1
REMARK SMILES IDX 23 1 22 2 20 3 21 4 19 6 14 7 15 8 84 9 16 10 17 11 18 12
REMARK SMILES IDX 13 13 11 14 12 15 10 17 9 18 8 19 7 20 1 21 2 22 3 23 4 24
REMARK SMILES IDX 6 25 5 26 24 27 25 28 26 29 27 30 28 31 29 33 30 34 31 35
REMARK SMILES IDX 83 36 32 37 82 38 33 39 34 40 35 41 76 42 36 43 81 44 75 45
REMARK SMILES IDX 77 46 37 47 80 48 74 49 73 50 38 52 64 53 47 54 63 55 48 56
REMARK SMILES IDX 51 57 62 58 78 59 49 60 50 61 61 63 79 64 52 65 39 66 40 67
REMARK SMILES IDX 45 68 41 69 42 70 44 71 46 72 43 73 65 74 66 75 71 76 67 77
REMARK SMILES IDX 68 78 70 79 72 80 69 81 53 82 54 83 59 84 55 85 56 86 58 87
REMARK SMILES IDX 60 88 57 89
REMARK H PARENT 22 5 13 16 27 32 77 51 51 62
REMARK Flexibility Score: inf
ROOT
ATOM      1  C   UNL A   1      32.147  29.522  26.636  1.00  0.00     0.116 C 
ENDROOT
BRANCH   1   2
ATOM      2  N   UNL A   1      31.681  29.696  25.278  1.00  0.00    -0.352 N 
ATOM      3  C   UNL A   1      31.109  28.922  24.305  1.00  0.00     0.251 C 
ATOM      4  O   UNL A   1      30.570  29.591  23.412  1.00  0.00    -0.269 OA
ATOM      5  H   UNL A   1      31.809  30.622  24.971  1.00  0.00     0.163 HD
BRANCH   3   6
ATOM      6  C   UNL A   1      31.156  27.427  24.126  1.00  0.00     0.044 A 
ATOM      7  C   UNL A   1      30.358  25.343  25.168  1.00  0.00     0.042 A 
ATOM      8  C   UNL A   1      30.666  24.653  24.014  1.00  0.00     0.026 A 
ATOM      9  C   UNL A   1      30.479  26.729  25.167  1.00  0.00     0.040 A 
ATOM     10  C   UNL A   1      31.383  25.282  23.014  1.00  0.00     0.006 A 
ATOM     11  C   UNL A   1      31.749  26.638  23.122  1.00  0.00    -0.038 A 
ATOM     12  C   UNL A   1      32.853  27.034  22.197  1.00  0.00     0.045 C 
BRANCH   7  13
ATOM     13  N   UNL A   1      29.865  24.670  26.288  1.00  0.00    -0.325 N 
ATOM     14  C   UNL A   1      30.367  23.532  26.876  1.00  0.00     0.234 C 
ATOM     15  O   UNL A   1      29.616  22.879  27.609  1.00  0.00    -0.274 OA
ATOM     16  H   UNL A   1      29.062  25.057  26.706  1.00  0.00     0.169 HD
BRANCH  14  17
ATOM     17  C   UNL A   1      31.868  23.232  26.843  1.00  0.00     0.170 C 
BRANCH  17  18
ATOM     18  S   UNL A   1      32.441  21.690  26.090  1.00  0.00    -0.147 SA
BRANCH  18  19
ATOM     19  C   UNL A   1      33.319  22.305  24.619  1.00  0.00     0.105 C 
BRANCH  19  20
ATOM     20  C   UNL A   1      34.791  22.515  24.858  1.00  0.00    -0.035 A 
ATOM     21  C   UNL A   1      34.594  25.057  25.249  1.00  0.00     0.044 C 
ATOM     22  C   UNL A   1      35.367  23.771  25.133  1.00  0.00    -0.047 A 
ATOM     23  C   UNL A   1      36.763  23.858  25.288  1.00  0.00     0.004 A 
ATOM     24  C   UNL A   1      37.575  22.726  25.220  1.00  0.00     0.000 A 
ATOM     25  C   UNL A   1      35.627  21.378  24.827  1.00  0.00     0.005 A 
ATOM     26  C   UNL A   1      37.005  21.480  25.001  1.00  0.00     0.000 A 
ENDBRANCH  19  20
ENDBRANCH  18  19
ENDBRANCH  17  18
ENDBRANCH  14  17
ENDBRANCH   7  13
ENDBRANCH   3   6
ENDBRANCH   1   2
BRANCH   1  27
ATOM     27  C   UNL A   1      33.615  29.897  26.879  1.00  0.00     0.023 C 
BRANCH  27  28
ATOM     28  C   UNL A   1      33.831  31.174  27.699  1.00  0.00     0.023 C 
BRANCH  28  29
ATOM     29  C   UNL A   1      35.282  31.649  27.732  1.00  0.00     0.116 C 
BRANCH  29  30
ATOM     30  N   UNL A   1      35.819  32.010  29.038  1.00  0.00    -0.352 N 
ATOM     31  C   UNL A   1      36.616  31.242  29.887  1.00  0.00     0.251 C 
ATOM     32  H   UNL A   1      35.589  32.909  29.362  1.00  0.00     0.163 HD
ATOM     33  O   UNL A   1      36.940  31.663  30.977  1.00  0.00    -0.269 OA
BRANCH  31  34
ATOM     34  C   UNL A   1      37.187  29.962  29.375  1.00  0.00     0.039 A 
ATOM     35  C   UNL A   1      37.448  28.955  30.309  1.00  0.00     0.014 A 
ATOM     36  C   UNL A   1      37.697  29.863  28.082  1.00  0.00     0.014 A 
ATOM     37  C   UNL A   1      38.450  28.024  30.044  1.00  0.00     0.010 A 
ATOM     38  C   UNL A   1      38.754  28.999  27.849  1.00  0.00     0.010 A 
ATOM     39  C   UNL A   1      39.186  28.137  28.861  1.00  0.00    -0.014 A 
BRANCH  39  40
ATOM     40  C   UNL A   1      40.495  27.510  28.699  1.00  0.00     0.031 A 
ATOM     41  C   UNL A   1      40.626  26.076  28.384  1.00  0.00     0.074 A 
ATOM     42  C   UNL A   1      41.633  28.216  28.894  1.00  0.00     0.049 A 
ATOM     43  N   UNL A   1      41.527  25.314  28.915  1.00  0.00    -0.248 NA
ATOM     44  C   UNL A   1      39.744  25.385  27.452  1.00  0.00     0.031 C 
ATOM     45  C   UNL A   1      42.999  27.770  28.633  1.00  0.00     0.029 A 
ATOM     46  N   UNL A   1      41.787  29.422  29.578  1.00  0.00    -0.354 N 
ATOM     47  C   UNL A   1      41.529  24.141  28.205  1.00  0.00     0.074 A 
ATOM     48  C   UNL A   1      40.350  24.196  27.367  1.00  0.00     0.031 C 
ATOM     49  C   UNL A   1      43.847  28.515  29.359  1.00  0.00     0.029 A 
ATOM     50  C   UNL A   1      43.057  29.405  30.187  1.00  0.00     0.049 A 
ATOM     51  H   UNL A   1      41.129  30.153  29.625  1.00  0.00     0.167 HD
ATOM     52  C   UNL A   1      42.600  23.300  28.257  1.00  0.00     0.037 A 
ATOM     53  C   UNL A   1      43.216  29.597  31.527  1.00  0.00     0.037 A 
ATOM     54  C   UNL A   1      43.691  23.835  29.061  1.00  0.00     0.049 A 
ATOM     55  C   UNL A   1      43.855  28.431  32.243  1.00  0.00     0.074 A 
ATOM     56  C   UNL A   1      44.850  24.511  28.714  1.00  0.00     0.029 A 
ATOM     57  N   UNL A   1      43.550  23.985  30.437  1.00  0.00    -0.354 N 
ATOM     58  N   UNL A   1      44.009  27.251  31.713  1.00  0.00    -0.248 NA
ATOM     59  C   UNL A   1      44.318  28.479  33.627  1.00  0.00     0.031 C 
ATOM     60  C   UNL A   1      45.408  25.073  29.882  1.00  0.00     0.029 A 
ATOM     61  C   UNL A   1      44.587  24.746  30.946  1.00  0.00     0.049 A 
ATOM     62  H   UNL A   1      42.816  23.605  30.971  1.00  0.00     0.167 HD
ATOM     63  C   UNL A   1      44.511  26.383  32.650  1.00  0.00     0.074 A 
ATOM     64  C   UNL A   1      44.725  27.211  33.821  1.00  0.00     0.031 C 
ATOM     65  C   UNL A   1      44.679  25.056  32.366  1.00  0.00     0.037 A 
BRANCH  52  66
ATOM     66  C   UNL A   1      42.738  22.156  27.289  1.00  0.00     0.057 A 
ATOM     67  C   UNL A   1      41.985  20.975  27.414  1.00  0.00     0.134 A 
ATOM     68  C   UNL A   1      43.658  22.162  26.226  1.00  0.00     0.134 A 
ATOM     69  F   UNL A   1      41.009  20.851  28.322  1.00  0.00    -0.206 F 
ATOM     70  C   UNL A   1      42.212  19.845  26.621  1.00  0.00     0.040 A 
ATOM     71  C   UNL A   1      43.927  21.024  25.453  1.00  0.00     0.040 A 
ATOM     72  F   UNL A   1      44.334  23.276  25.906  1.00  0.00    -0.206 F 
ATOM     73  C   UNL A   1      43.212  19.853  25.661  1.00  0.00     0.006 A 
ENDBRANCH  52  66
BRANCH  53  74
ATOM     74  C   UNL A   1      42.178  30.490  32.102  1.00  0.00     0.057 A 
ATOM     75  C   UNL A   1      42.343  31.880  31.954  1.00  0.00     0.134 A 
ATOM     76  C   UNL A   1      40.894  30.023  32.388  1.00  0.00     0.134 A 
ATOM     77  F   UNL A   1      43.553  32.392  31.677  1.00  0.00    -0.206 F 
ATOM     78  C   UNL A   1      41.253  32.753  31.946  1.00  0.00     0.040 A 
ATOM     79  C   UNL A   1      39.798  30.891  32.400  1.00  0.00     0.040 A 
ATOM     80  F   UNL A   1      40.661  28.710  32.530  1.00  0.00    -0.206 F 
ATOM     81  C   UNL A   1      39.969  32.249  32.130  1.00  0.00     0.006 A 
ENDBRANCH  53  74
BRANCH  65  82
ATOM     82  C   UNL A   1      45.048  23.947  33.330  1.00  0.00     0.057 A 
ATOM     83  C   UNL A   1      44.203  22.893  33.707  1.00  0.00     0.134 A 
ATOM     84  C   UNL A   1      46.367  23.852  33.837  1.00  0.00     0.134 A 
ATOM     85  F   UNL A   1      42.964  22.772  33.214  1.00  0.00    -0.206 F 
ATOM     86  C   UNL A   1      44.614  21.866  34.572  1.00  0.00     0.040 A 
ATOM     87  C   UNL A   1      46.803  22.804  34.655  1.00  0.00     0.040 A 
ATOM     88  F   UNL A   1      47.307  24.763  33.545  1.00  0.00    -0.206 F 
ATOM     89  C   UNL A   1      45.918  21.813  35.043  1.00  0.00     0.006 A 
ENDBRANCH  65  82
ENDBRANCH  39  40
ENDBRANCH  31  34
ENDBRANCH  29  30
ENDBRANCH  28  29
ENDBRANCH  27  28
ENDBRANCH   1  27
TORSDOF 16
ENDMDL
MODEL 2
REMARK VINA RESULT:     -12.5      1.337      2.184
REMARK SMILES Cc1ccccc1CSCC(=O)Nc1ccc(C)c(C(=O)NCCCCNC(=O)c2ccc(-c3c4nc(c(-c5c(F)cccc5F)c5ccc([nH]5)c(-c5c(F)cccc5F)c5nc(c(-c6c(F)cccc6F)c6ccc3[nH]6)C=C5)C=C4)cc2)c1
REMARK SMILES IDX 23 1 22 2 20 3 21 4 19 6 14 7 15 8 84 9 16 10 17 11 18 12
REMARK SMILES IDX 13 13 11 14 12 15 10 17 9 18 8 19 7 20 1 21 2 22 3 23 4 24
REMARK SMILES IDX 6 25 5 26 24 27 25 28 26 29 27 30 28 31 29 33 30 34 31 35
REMARK SMILES IDX 83 36 32 37 82 38 33 39 34 40 35 41 76 42 36 43 81 44 75 45
REMARK SMILES IDX 77 46 37 47 80 48 74 49 73 50 38 52 64 53 47 54 63 55 48 56
REMARK SMILES IDX 51 57 62 58 78 59 49 60 50 61 61 63 79 64 52 65 39 66 40 67
REMARK SMILES IDX 45 68 41 69 42 70 44 71 46 72 43 73 65 74 66 75 71 76 67 77
REMARK SMILES IDX 68 78 70 79 72 80 69 81 53 82 54 83 59 84 55 85 56 86 58 87
REMARK SMILES IDX 60 88 57 89
REMARK H PARENT 22 5 13 16 27 32 77 51 51 62
REMARK Flexibility Score: inf
ROOT
ATOM      1  C   UNL A   1      32.830  29.449  25.058  1.00  0.00     0.116 C 
ENDROOT
BRANCH   1   2
ATOM      2  N   UNL A   1      31.921  29.384  23.936  1.00  0.00    -0.352 N 
ATOM      3  C   UNL A   1      31.105  28.451  23.357  1.00  0.00     0.251 C 
ATOM      4  O   UNL A   1      30.253  28.952  22.611  1.00  0.00    -0.269 OA
ATOM      5  H   UNL A   1      31.877  30.244  23.460  1.00  0.00     0.163 HD
BRANCH   3   6
ATOM      6  C   UNL A   1      31.186  26.947  23.413  1.00  0.00     0.044 A 
ATOM      7  C   UNL A   1      30.441  25.035  24.774  1.00  0.00     0.042 A 
ATOM      8  C   UNL A   1      30.760  24.179  23.740  1.00  0.00     0.026 A 
ATOM      9  C   UNL A   1      30.529  26.405  24.556  1.00  0.00     0.040 A 
ATOM     10  C   UNL A   1      31.458  24.660  22.648  1.00  0.00     0.006 A 
ATOM     11  C   UNL A   1      31.793  26.025  22.541  1.00  0.00    -0.038 A 
ATOM     12  C   UNL A   1      32.884  26.296  21.556  1.00  0.00     0.045 C 
BRANCH   7  13
ATOM     13  N   UNL A   1      29.967  24.534  25.989  1.00  0.00    -0.325 N 
ATOM     14  C   UNL A   1      30.458  23.470  26.710  1.00  0.00     0.234 C 
ATOM     15  O   UNL A   1      29.714  22.946  27.546  1.00  0.00    -0.274 OA
ATOM     16  H   UNL A   1      29.190  24.999  26.375  1.00  0.00     0.169 HD
BRANCH  14  17
ATOM     17  C   UNL A   1      31.948  23.121  26.673  1.00  0.00     0.170 C 
BRANCH  17  18
ATOM     18  S   UNL A   1      32.465  21.547  25.948  1.00  0.00    -0.147 SA
BRANCH  18  19
ATOM     19  C   UNL A   1      33.433  22.106  24.511  1.00  0.00     0.105 C 
BRANCH  19  20
ATOM     20  C   UNL A   1      34.879  22.369  24.842  1.00  0.00    -0.035 A 
ATOM     21  C   UNL A   1      34.620  24.933  24.950  1.00  0.00     0.044 C 
ATOM     22  C   UNL A   1      35.416  23.657  25.029  1.00  0.00    -0.047 A 
ATOM     23  C   UNL A   1      36.794  23.788  25.284  1.00  0.00     0.004 A 
ATOM     24  C   UNL A   1      37.621  22.672  25.398  1.00  0.00     0.000 A 
ATOM     25  C   UNL A   1      35.728  21.251  24.995  1.00  0.00     0.005 A 
ATOM     26  C   UNL A   1      37.085  21.398  25.266  1.00  0.00     0.000 A 
ENDBRANCH  19  20
ENDBRANCH  18  19
ENDBRANCH  17  18
ENDBRANCH  14  17
ENDBRANCH   7  13
ENDBRANCH   3   6
ENDBRANCH   1   2
BRANCH   1  27
ATOM     27  C   UNL A   1      32.183  29.276  26.439  1.00  0.00     0.023 C 
BRANCH  27  28
ATOM     28  C   UNL A   1      33.055  29.709  27.623  1.00  0.00     0.023 C 
BRANCH  28  29
ATOM     29  C   UNL A   1      33.878  30.968  27.356  1.00  0.00     0.116 C 
BRANCH  29  30
ATOM     30  N   UNL A   1      34.368  31.686  28.525  1.00  0.00    -0.352 N 
ATOM     31  C   UNL A   1      35.412  31.336  29.380  1.00  0.00     0.251 C 
ATOM     32  H   UNL A   1      33.900  32.525  28.739  1.00  0.00     0.163 HD
ATOM     33  O   UNL A   1      35.666  32.014  30.354  1.00  0.00    -0.269 OA
BRANCH  31  34
ATOM     34  C   UNL A   1      36.305  30.203  28.999  1.00  0.00     0.039 A 
ATOM     35  C   UNL A   1      36.676  29.309  30.007  1.00  0.00     0.014 A 
ATOM     36  C   UNL A   1      36.965  30.183  27.772  1.00  0.00     0.014 A 
ATOM     37  C   UNL A   1      37.882  28.620  29.896  1.00  0.00     0.010 A 
ATOM     38  C   UNL A   1      38.206  29.573  27.694  1.00  0.00     0.010 A 
ATOM     39  C   UNL A   1      38.702  28.861  28.790  1.00  0.00    -0.014 A 
BRANCH  39  40
ATOM     40  C   UNL A   1      40.127  28.540  28.796  1.00  0.00     0.031 A 
ATOM     41  C   UNL A   1      40.628  27.260  28.264  1.00  0.00     0.074 A 
ATOM     42  C   UNL A   1      41.027  29.387  29.347  1.00  0.00     0.049 A 
ATOM     43  N   UNL A   1      41.576  26.583  28.827  1.00  0.00    -0.248 NA
ATOM     44  C   UNL A   1      40.093  26.637  27.061  1.00  0.00     0.031 C 
ATOM     45  C   UNL A   1      42.483  29.272  29.302  1.00  0.00     0.029 A 
ATOM     46  N   UNL A   1      40.789  30.421  30.252  1.00  0.00    -0.354 N 
ATOM     47  C   UNL A   1      41.961  25.615  27.936  1.00  0.00     0.074 A 
ATOM     48  C   UNL A   1      40.957  25.630  26.893  1.00  0.00     0.031 C 
ATOM     49  C   UNL A   1      43.007  29.985  30.311  1.00  0.00     0.029 A 
ATOM     50  C   UNL A   1      41.910  30.509  31.100  1.00  0.00     0.049 A 
ATOM     51  H   UNL A   1      39.984  30.988  30.290  1.00  0.00     0.167 HD
ATOM     52  C   UNL A   1      43.170  24.998  28.059  1.00  0.00     0.037 A 
ATOM     53  C   UNL A   1      41.795  30.430  32.457  1.00  0.00     0.037 A 
ATOM     54  C   UNL A   1      43.962  25.539  29.157  1.00  0.00     0.049 A 
ATOM     55  C   UNL A   1      42.552  29.277  33.070  1.00  0.00     0.074 A 
ATOM     56  C   UNL A   1      44.980  26.479  29.186  1.00  0.00     0.029 A 
ATOM     57  N   UNL A   1      43.563  25.356  30.476  1.00  0.00    -0.354 N 
ATOM     58  N   UNL A   1      43.055  28.291  32.382  1.00  0.00    -0.248 NA
ATOM     59  C   UNL A   1      42.755  29.107  34.507  1.00  0.00     0.031 C 
ATOM     60  C   UNL A   1      45.194  26.866  30.526  1.00  0.00     0.029 A 
ATOM     61  C   UNL A   1      44.302  26.167  31.318  1.00  0.00     0.049 A 
ATOM     62  H   UNL A   1      42.855  24.738  30.768  1.00  0.00     0.167 HD
ATOM     63  C   UNL A   1      43.576  27.348  33.234  1.00  0.00     0.074 A 
ATOM     64  C   UNL A   1      43.398  27.926  34.552  1.00  0.00     0.031 C 
ATOM     65  C   UNL A   1      44.083  26.171  32.758  1.00  0.00     0.037 A 
BRANCH  52  66
ATOM     66  C   UNL A   1      43.722  24.140  26.953  1.00  0.00     0.057 A 
ATOM     67  C   UNL A   1      44.556  24.660  25.949  1.00  0.00     0.134 A 
ATOM     68  C   UNL A   1      43.405  22.777  26.815  1.00  0.00     0.134 A 
ATOM     69  F   UNL A   1      45.015  25.917  25.990  1.00  0.00    -0.206 F 
ATOM     70  C   UNL A   1      44.948  23.916  24.830  1.00  0.00     0.040 A 
ATOM     71  C   UNL A   1      43.754  22.033  25.679  1.00  0.00     0.040 A 
ATOM     72  F   UNL A   1      42.740  22.123  27.778  1.00  0.00    -0.206 F 
ATOM     73  C   UNL A   1      44.516  22.609  24.672  1.00  0.00     0.006 A 
ENDBRANCH  52  66
BRANCH  53  74
ATOM     74  C   UNL A   1      40.502  30.966  32.952  1.00  0.00     0.057 A 
ATOM     75  C   UNL A   1      39.478  30.051  33.260  1.00  0.00     0.134 A 
ATOM     76  C   UNL A   1      40.411  32.244  33.508  1.00  0.00     0.134 A 
ATOM     77  F   UNL A   1      39.511  28.806  32.757  1.00  0.00    -0.206 F 
ATOM     78  C   UNL A   1      38.486  30.347  34.197  1.00  0.00     0.040 A 
ATOM     79  C   UNL A   1      39.410  32.555  34.434  1.00  0.00     0.040 A 
ATOM     80  F   UNL A   1      41.356  33.163  33.268  1.00  0.00    -0.206 F 
ATOM     81  C   UNL A   1      38.476  31.592  34.817  1.00  0.00     0.006 A 
ENDBRANCH  53  74
BRANCH  65  82
ATOM     82  C   UNL A   1      44.526  24.967  33.564  1.00  0.00     0.057 A 
ATOM     83  C   UNL A   1      45.834  24.461  33.604  1.00  0.00     0.134 A 
ATOM     84  C   UNL A   1      43.622  24.328  34.448  1.00  0.00     0.134 A 
ATOM     85  F   UNL A   1      46.832  25.033  32.921  1.00  0.00    -0.206 F 
ATOM     86  C   UNL A   1      46.197  23.366  34.406  1.00  0.00     0.040 A 
ATOM     87  C   UNL A   1      43.986  23.273  35.290  1.00  0.00     0.040 A 
ATOM     88  F   UNL A   1      42.341  24.713  34.553  1.00  0.00    -0.206 F 
ATOM     89  C   UNL A   1      45.276  22.773  35.258  1.00  0.00     0.006 A 
ENDBRANCH  65  82
ENDBRANCH  39  40
ENDBRANCH  31  34
ENDBRANCH  29  30
ENDBRANCH  28  29
ENDBRANCH  27  28
ENDBRANCH   1  27
TORSDOF 16
ENDMDL
MODEL 3
REMARK VINA RESULT:     -12.3      1.776      2.688
REMARK SMILES Cc1ccccc1CSCC(=O)Nc1ccc(C)c(C(=O)NCCCCNC(=O)c2ccc(-c3c4nc(c(-c5c(F)cccc5F)c5ccc([nH]5)c(-c5c(F)cccc5F)c5nc(c(-c6c(F)cccc6F)c6ccc3[nH]6)C=C5)C=C4)cc2)c1
REMARK SMILES IDX 23 1 22 2 20 3 21 4 19 6 14 7 15 8 84 9 16 10 17 11 18 12
REMARK SMILES IDX 13 13 11 14 12 15 10 17 9 18 8 19 7 20 1 21 2 22 3 23 4 24
REMARK SMILES IDX 6 25 5 26 24 27 25 28 26 29 27 30 28 31 29 33 30 34 31 35
REMARK SMILES IDX 83 36 32 37 82 38 33 39 34 40 35 41 76 42 36 43 81 44 75 45
REMARK SMILES IDX 77 46 37 47 80 48 74 49 73 50 38 52 64 53 47 54 63 55 48 56
REMARK SMILES IDX 51 57 62 58 78 59 49 60 50 61 61 63 79 64 52 65 39 66 40 67
REMARK SMILES IDX 45 68 41 69 42 70 44 71 46 72 43 73 65 74 66 75 71 76 67 77
REMARK SMILES IDX 68 78 70 79 72 80 69 81 53 82 54 83 59 84 55 85 56 86 58 87
REMARK SMILES IDX 60 88 57 89
REMARK H PARENT 22 5 13 16 27 32 77 51 51 62
REMARK Flexibility Score: inf
ROOT
ATOM      1  C   UNL A   1      30.923  29.812  25.233  1.00  0.00     0.116 C 
ENDROOT
BRANCH   1   2
ATOM      2  N   UNL A   1      30.566  29.731  23.834  1.00  0.00    -0.352 N 
ATOM      3  C   UNL A   1      30.715  28.839  22.809  1.00  0.00     0.251 C 
ATOM      4  O   UNL A   1      29.943  29.056  21.864  1.00  0.00    -0.269 OA
ATOM      5  H   UNL A   1      30.084  30.538  23.541  1.00  0.00     0.163 HD
BRANCH   3   6
ATOM      6  C   UNL A   1      31.738  27.746  22.636  1.00  0.00     0.044 A 
ATOM      7  C   UNL A   1      31.924  25.293  22.517  1.00  0.00     0.042 A 
ATOM      8  C   UNL A   1      33.197  25.419  22.001  1.00  0.00     0.026 A 
ATOM      9  C   UNL A   1      31.164  26.443  22.702  1.00  0.00     0.040 A 
ATOM     10  C   UNL A   1      33.808  26.659  21.987  1.00  0.00     0.006 A 
ATOM     11  C   UNL A   1      33.128  27.811  22.431  1.00  0.00    -0.038 A 
ATOM     12  C   UNL A   1      34.036  28.953  22.751  1.00  0.00     0.045 C 
BRANCH   7  13
ATOM     13  N   UNL A   1      31.385  24.031  22.776  1.00  0.00    -0.325 N 
ATOM     14  C   UNL A   1      32.055  22.835  22.884  1.00  0.00     0.234 C 
ATOM     15  O   UNL A   1      31.405  21.793  22.749  1.00  0.00    -0.274 OA
ATOM     16  H   UNL A   1      30.408  23.995  22.895  1.00  0.00     0.169 HD
BRANCH  14  17
ATOM     17  C   UNL A   1      33.489  22.787  23.418  1.00  0.00     0.170 C 
BRANCH  17  18
ATOM     18  S   UNL A   1      33.911  21.581  24.698  1.00  0.00    -0.147 SA
BRANCH  18  19
ATOM     19  C   UNL A   1      34.419  22.665  26.070  1.00  0.00     0.105 C 
BRANCH  19  20
ATOM     20  C   UNL A   1      33.676  23.975  26.090  1.00  0.00    -0.035 A 
ATOM     21  C   UNL A   1      31.443  22.953  26.878  1.00  0.00     0.044 C 
ATOM     22  C   UNL A   1      32.319  24.098  26.446  1.00  0.00    -0.047 A 
ATOM     23  C   UNL A   1      31.712  25.366  26.378  1.00  0.00     0.004 A 
ATOM     24  C   UNL A   1      32.435  26.500  26.010  1.00  0.00     0.000 A 
ATOM     25  C   UNL A   1      34.397  25.141  25.752  1.00  0.00     0.005 A 
ATOM     26  C   UNL A   1      33.785  26.390  25.708  1.00  0.00     0.000 A 
ENDBRANCH  19  20
ENDBRANCH  18  19
ENDBRANCH  17  18
ENDBRANCH  14  17
ENDBRANCH   7  13
ENDBRANCH   3   6
ENDBRANCH   1   2
BRANCH   1  27
ATOM     27  C   UNL A   1      32.409  30.073  25.517  1.00  0.00     0.023 C 
BRANCH  27  28
ATOM     28  C   UNL A   1      32.778  30.166  27.002  1.00  0.00     0.023 C 
BRANCH  28  29
ATOM     29  C   UNL A   1      34.281  30.125  27.268  1.00  0.00     0.116 C 
BRANCH  29  30
ATOM     30  N   UNL A   1      34.787  31.036  28.287  1.00  0.00    -0.352 N 
ATOM     31  C   UNL A   1      35.924  30.897  29.083  1.00  0.00     0.251 C 
ATOM     32  H   UNL A   1      34.258  31.852  28.433  1.00  0.00     0.163 HD
ATOM     33  O   UNL A   1      36.185  31.720  29.935  1.00  0.00    -0.269 OA
BRANCH  31  34
ATOM     34  C   UNL A   1      36.891  29.805  28.771  1.00  0.00     0.039 A 
ATOM     35  C   UNL A   1      37.210  28.914  29.802  1.00  0.00     0.014 A 
ATOM     36  C   UNL A   1      37.654  29.824  27.606  1.00  0.00     0.014 A 
ATOM     37  C   UNL A   1      38.448  28.275  29.789  1.00  0.00     0.010 A 
ATOM     38  C   UNL A   1      38.920  29.264  27.630  1.00  0.00     0.010 A 
ATOM     39  C   UNL A   1      39.349  28.561  28.760  1.00  0.00    -0.014 A 
BRANCH  39  40
ATOM     40  C   UNL A   1      40.780  28.296  28.885  1.00  0.00     0.031 A 
ATOM     41  C   UNL A   1      41.405  27.127  28.241  1.00  0.00     0.074 A 
ATOM     42  C   UNL A   1      41.568  29.086  29.651  1.00  0.00     0.049 A 
ATOM     43  N   UNL A   1      42.321  26.411  28.809  1.00  0.00    -0.248 NA
ATOM     44  C   UNL A   1      41.039  26.666  26.908  1.00  0.00     0.031 C 
ATOM     45  C   UNL A   1      43.024  29.034  29.760  1.00  0.00     0.029 A 
ATOM     46  N   UNL A   1      41.176  29.968  30.658  1.00  0.00    -0.354 N 
ATOM     47  C   UNL A   1      42.853  25.599  27.841  1.00  0.00     0.074 A 
ATOM     48  C   UNL A   1      41.969  25.727  26.702  1.00  0.00     0.031 C 
ATOM     49  C   UNL A   1      43.396  29.612  30.912  1.00  0.00     0.029 A 
ATOM     50  C   UNL A   1      42.191  29.974  31.635  1.00  0.00     0.049 A 
ATOM     51  H   UNL A   1      40.343  30.493  30.682  1.00  0.00     0.167 HD
ATOM     52  C   UNL A   1      44.072  25.016  28.017  1.00  0.00     0.037 A 
ATOM     53  C   UNL A   1      41.934  29.694  32.944  1.00  0.00     0.037 A 
ATOM     54  C   UNL A   1      44.709  25.421  29.263  1.00  0.00     0.049 A 
ATOM     55  C   UNL A   1      42.680  28.493  33.473  1.00  0.00     0.074 A 
ATOM     56  C   UNL A   1      45.666  26.384  29.542  1.00  0.00     0.029 A 
ATOM     57  N   UNL A   1      44.179  25.033  30.489  1.00  0.00    -0.354 N 
ATOM     58  N   UNL A   1      43.307  27.637  32.716  1.00  0.00    -0.248 NA
ATOM     59  C   UNL A   1      42.733  28.123  34.885  1.00  0.00     0.031 C 
ATOM     60  C   UNL A   1      45.711  26.580  30.940  1.00  0.00     0.029 A 
ATOM     61  C   UNL A   1      44.777  25.739  31.517  1.00  0.00     0.049 A 
ATOM     62  H   UNL A   1      43.477  24.352  30.607  1.00  0.00     0.167 HD
ATOM     63  C   UNL A   1      43.782  26.601  33.482  1.00  0.00     0.074 A 
ATOM     64  C   UNL A   1      43.431  26.973  34.838  1.00  0.00     0.031 C 
ATOM     65  C   UNL A   1      44.402  25.525  32.907  1.00  0.00     0.037 A 
BRANCH  52  66
ATOM     66  C   UNL A   1      44.787  24.349  26.872  1.00  0.00     0.057 A 
ATOM     67  C   UNL A   1      44.656  22.975  26.608  1.00  0.00     0.134 A 
ATOM     68  C   UNL A   1      45.670  25.036  26.021  1.00  0.00     0.134 A 
ATOM     69  F   UNL A   1      43.788  22.205  27.276  1.00  0.00    -0.206 F 
ATOM     70  C   UNL A   1      45.432  22.311  25.651  1.00  0.00     0.040 A 
ATOM     71  C   UNL A   1      46.486  24.378  25.090  1.00  0.00     0.040 A 
ATOM     72  F   UNL A   1      45.776  26.372  26.071  1.00  0.00    -0.206 F 
ATOM     73  C   UNL A   1      46.379  23.005  24.913  1.00  0.00     0.006 A 
ENDBRANCH  52  66
BRANCH  53  74
ATOM     74  C   UNL A   1      40.567  30.103  33.356  1.00  0.00     0.057 A 
ATOM     75  C   UNL A   1      40.319  31.472  33.566  1.00  0.00     0.134 A 
ATOM     76  C   UNL A   1      39.463  29.277  33.134  1.00  0.00     0.134 A 
ATOM     77  F   UNL A   1      41.339  32.318  33.783  1.00  0.00    -0.206 F 
ATOM     78  C   UNL A   1      39.043  32.019  33.416  1.00  0.00     0.040 A 
ATOM     79  C   UNL A   1      38.179  29.812  33.000  1.00  0.00     0.040 A 
ATOM     80  F   UNL A   1      39.626  27.964  32.915  1.00  0.00    -0.206 F 
ATOM     81  C   UNL A   1      37.974  31.190  33.092  1.00  0.00     0.006 A 
ENDBRANCH  53  74
BRANCH  65  82
ATOM     82  C   UNL A   1      44.818  24.234  33.582  1.00  0.00     0.057 A 
ATOM     83  C   UNL A   1      46.142  23.845  33.830  1.00  0.00     0.134 A 
ATOM     84  C   UNL A   1      43.839  23.364  34.124  1.00  0.00     0.134 A 
ATOM     85  F   UNL A   1      47.179  24.620  33.490  1.00  0.00    -0.206 F 
ATOM     86  C   UNL A   1      46.469  22.655  34.500  1.00  0.00     0.040 A 
ATOM     87  C   UNL A   1      44.153  22.205  34.840  1.00  0.00     0.040 A 
ATOM     88  F   UNL A   1      42.526  23.610  34.002  1.00  0.00    -0.206 F 
ATOM     89  C   UNL A   1      45.475  21.834  35.015  1.00  0.00     0.006 A 
ENDBRANCH  65  82
ENDBRANCH  39  40
ENDBRANCH  31  34
ENDBRANCH  29  30
ENDBRANCH  28  29
ENDBRANCH  27  28
ENDBRANCH   1  27
TORSDOF 16
ENDMDL
