MODEL 1
REMARK VINA RESULT:     -11.5      0.000      0.000
REMARK SMILES O=C(NCCCCNC(=O)c1ccc(F)cc1-c1ccc(F)c(Cl)c1)c1ccc(-c2c3nc(c(-c4c(F)cccc4F)c4ccc([nH]4)c(-c4c(F)cccc4F)c4nc(c(-c5c(F)cccc5F)c5ccc2[nH]5)C=C4)C=C3)cc1
REMARK SMILES IDX 5 1 4 2 3 3 1 4 2 5 26 7 27 8 79 9 28 10 78 11 29 12 30 13
REMARK SMILES IDX 31 14 72 15 32 16 77 17 71 18 73 19 33 20 76 21 70 22 69 23
REMARK SMILES IDX 34 25 60 26 43 27 59 28 44 29 47 30 58 31 74 32 45 33 46 34
REMARK SMILES IDX 57 36 75 37 48 38 35 39 36 40 41 41 37 42 38 43 40 44 42 45
REMARK SMILES IDX 39 46 61 47 62 48 67 49 63 50 64 51 66 52 68 53 65 54 49 55
REMARK SMILES IDX 50 56 55 57 51 58 52 59 54 60 56 61 53 62 6 63 7 64 8 65
REMARK SMILES IDX 9 66 10 68 11 69 12 70 17 71 13 72 16 73 14 74 15 75 18 76
REMARK SMILES IDX 19 77 25 78 20 79 23 80 21 81 24 82 22 83
REMARK H PARENT 3 6 73 24 47 35 8 67
REMARK Flexibility Score: inf
ROOT
ATOM      1  C   UNL A   1      39.128  21.573  25.661  1.00  0.00     0.023 C 
ENDROOT
BRANCH   1   2
ATOM      2  C   UNL A   1      39.321  20.245  26.381  1.00  0.00     0.116 C 
BRANCH   2   3
ATOM      3  N   UNL A   1      40.449  19.469  25.885  1.00  0.00    -0.352 N 
ATOM      4  O   UNL A   1      42.589  19.029  25.320  1.00  0.00    -0.269 OA
ATOM      5  C   UNL A   1      41.791  19.778  25.874  1.00  0.00     0.251 C 
ATOM      6  H   UNL A   1      40.218  18.594  25.500  1.00  0.00     0.163 HD
BRANCH   5   7
ATOM      7  C   UNL A   1      42.267  21.035  26.493  1.00  0.00     0.039 A 
ATOM      8  C   UNL A   1      42.306  21.178  27.880  1.00  0.00     0.014 A 
ATOM      9  C   UNL A   1      42.646  22.100  25.669  1.00  0.00     0.014 A 
ATOM     10  C   UNL A   1      42.531  22.432  28.435  1.00  0.00     0.010 A 
ATOM     11  C   UNL A   1      42.969  23.336  26.236  1.00  0.00     0.010 A 
ATOM     12  C   UNL A   1      42.861  23.528  27.620  1.00  0.00    -0.014 A 
BRANCH  12  13
ATOM     13  C   UNL A   1      43.095  24.853  28.254  1.00  0.00     0.031 A 
ATOM     14  C   UNL A   1      44.484  25.319  28.599  1.00  0.00     0.074 A 
ATOM     15  C   UNL A   1      42.043  25.671  28.453  1.00  0.00     0.049 A 
ATOM     16  N   UNL A   1      44.865  26.472  29.091  1.00  0.00    -0.248 NA
ATOM     17  C   UNL A   1      45.588  24.375  28.368  1.00  0.00     0.031 C 
ATOM     18  C   UNL A   1      40.649  25.330  28.166  1.00  0.00     0.029 A 
ATOM     19  N   UNL A   1      41.984  26.964  28.906  1.00  0.00    -0.354 N 
ATOM     20  C   UNL A   1      46.244  26.385  29.245  1.00  0.00     0.074 A 
ATOM     21  C   UNL A   1      46.631  25.057  28.819  1.00  0.00     0.031 C 
ATOM     22  C   UNL A   1      39.881  26.408  28.380  1.00  0.00     0.029 A 
ATOM     23  C   UNL A   1      40.718  27.495  28.877  1.00  0.00     0.049 A 
ATOM     24  H   UNL A   1      42.772  27.462  29.220  1.00  0.00     0.167 HD
ATOM     25  C   UNL A   1      47.107  27.330  29.689  1.00  0.00     0.037 A 
ATOM     26  C   UNL A   1      40.274  28.721  29.210  1.00  0.00     0.037 A 
ATOM     27  C   UNL A   1      46.723  28.659  30.091  1.00  0.00     0.049 A 
ATOM     28  C   UNL A   1      41.250  29.747  29.701  1.00  0.00     0.074 A 
ATOM     29  C   UNL A   1      47.531  29.689  30.542  1.00  0.00     0.029 A 
ATOM     30  N   UNL A   1      45.424  29.145  30.085  1.00  0.00    -0.354 N 
ATOM     31  N   UNL A   1      42.549  29.648  29.838  1.00  0.00    -0.248 NA
ATOM     32  C   UNL A   1      40.698  31.053  30.088  1.00  0.00     0.031 C 
ATOM     33  C   UNL A   1      46.716  30.786  30.842  1.00  0.00     0.029 A 
ATOM     34  C   UNL A   1      45.407  30.454  30.535  1.00  0.00     0.049 A 
ATOM     35  H   UNL A   1      44.632  28.634  29.802  1.00  0.00     0.167 HD
ATOM     36  C   UNL A   1      42.974  30.878  30.320  1.00  0.00     0.074 A 
ATOM     37  C   UNL A   1      41.796  31.715  30.432  1.00  0.00     0.031 C 
ATOM     38  C   UNL A   1      44.228  31.274  30.645  1.00  0.00     0.037 A 
BRANCH  25  39
ATOM     39  C   UNL A   1      48.560  26.963  29.772  1.00  0.00     0.057 A 
ATOM     40  C   UNL A   1      49.416  27.182  28.686  1.00  0.00     0.134 A 
ATOM     41  C   UNL A   1      49.099  26.338  30.904  1.00  0.00     0.134 A 
ATOM     42  F   UNL A   1      48.963  27.770  27.568  1.00  0.00    -0.206 F 
ATOM     43  C   UNL A   1      50.754  26.783  28.717  1.00  0.00     0.040 A 
ATOM     44  C   UNL A   1      50.441  25.954  30.955  1.00  0.00     0.040 A 
ATOM     45  F   UNL A   1      48.335  26.110  31.983  1.00  0.00    -0.206 F 
ATOM     46  C   UNL A   1      51.270  26.170  29.857  1.00  0.00     0.006 A 
ENDBRANCH  25  39
BRANCH  26  47
ATOM     47  C   UNL A   1      38.832  29.033  29.065  1.00  0.00     0.057 A 
ATOM     48  C   UNL A   1      38.301  29.467  27.844  1.00  0.00     0.134 A 
ATOM     49  C   UNL A   1      37.964  28.958  30.158  1.00  0.00     0.134 A 
ATOM     50  F   UNL A   1      39.087  29.569  26.762  1.00  0.00    -0.206 F 
ATOM     51  C   UNL A   1      36.963  29.842  27.722  1.00  0.00     0.040 A 
ATOM     52  C   UNL A   1      36.618  29.307  30.045  1.00  0.00     0.040 A 
ATOM     53  F   UNL A   1      38.413  28.536  31.349  1.00  0.00    -0.206 F 
ATOM     54  C   UNL A   1      36.117  29.761  28.826  1.00  0.00     0.006 A 
ENDBRANCH  26  47
BRANCH  38  55
ATOM     55  C   UNL A   1      44.397  32.679  31.141  1.00  0.00     0.057 A 
ATOM     56  C   UNL A   1      44.306  32.970  32.507  1.00  0.00     0.134 A 
ATOM     57  C   UNL A   1      44.597  33.749  30.260  1.00  0.00     0.134 A 
ATOM     58  F   UNL A   1      44.108  31.989  33.401  1.00  0.00    -0.206 F 
ATOM     59  C   UNL A   1      44.400  34.279  32.981  1.00  0.00     0.040 A 
ATOM     60  C   UNL A   1      44.713  35.061  30.724  1.00  0.00     0.040 A 
ATOM     61  F   UNL A   1      44.704  33.533  28.941  1.00  0.00    -0.206 F 
ATOM     62  C   UNL A   1      44.608  35.328  32.087  1.00  0.00     0.006 A 
ENDBRANCH  38  55
ENDBRANCH  12  13
ENDBRANCH   5   7
ENDBRANCH   2   3
ENDBRANCH   1   2
BRANCH   1  63
ATOM     63  C   UNL A   1      38.655  22.732  26.532  1.00  0.00     0.023 C 
BRANCH  63  64
ATOM     64  C   UNL A   1      37.521  23.570  25.952  1.00  0.00     0.116 C 
BRANCH  64  65
ATOM     65  N   UNL A   1      37.488  23.568  24.498  1.00  0.00    -0.352 N 
ATOM     66  C   UNL A   1      36.524  23.062  23.655  1.00  0.00     0.251 C 
ATOM     67  H   UNL A   1      38.260  23.986  24.054  1.00  0.00     0.163 HD
ATOM     68  O   UNL A   1      36.639  23.161  22.439  1.00  0.00    -0.269 OA
BRANCH  66  69
ATOM     69  C   UNL A   1      35.345  22.394  24.248  1.00  0.00     0.047 A 
ATOM     70  C   UNL A   1      35.497  21.052  24.646  1.00  0.00     0.017 A 
ATOM     71  C   UNL A   1      34.115  23.069  24.403  1.00  0.00    -0.003 A 
ATOM     72  C   UNL A   1      34.399  20.334  25.109  1.00  0.00     0.040 A 
ATOM     73  C   UNL A   1      33.021  22.312  24.866  1.00  0.00     0.048 A 
ATOM     74  C   UNL A   1      33.167  20.966  25.197  1.00  0.00     0.123 A 
ATOM     75  F   UNL A   1      32.101  20.274  25.615  1.00  0.00    -0.207 F 
BRANCH  71  76
ATOM     76  C   UNL A   1      33.928  24.509  24.142  1.00  0.00    -0.016 A 
ATOM     77  C   UNL A   1      33.633  25.009  22.863  1.00  0.00     0.012 A 
ATOM     78  C   UNL A   1      34.042  25.428  25.206  1.00  0.00     0.032 A 
ATOM     79  C   UNL A   1      33.466  26.382  22.651  1.00  0.00     0.041 A 
ATOM     80  C   UNL A   1      33.869  26.797  24.995  1.00  0.00     0.077 A 
ATOM     81  C   UNL A   1      33.584  27.267  23.718  1.00  0.00     0.141 A 
ATOM     82  Cl  UNL A   1      34.004  27.881  26.325  1.00  0.00    -0.081 Cl
ATOM     83  F   UNL A   1      33.411  28.578  23.492  1.00  0.00    -0.205 F 
ENDBRANCH  71  76
ENDBRANCH  66  69
ENDBRANCH  64  65
ENDBRANCH  63  64
ENDBRANCH   1  63
TORSDOF 12
ENDMDL
MODEL 2
REMARK VINA RESULT:     -11.5      3.426      8.265
REMARK SMILES O=C(NCCCCNC(=O)c1ccc(F)cc1-c1ccc(F)c(Cl)c1)c1ccc(-c2c3nc(c(-c4c(F)cccc4F)c4ccc([nH]4)c(-c4c(F)cccc4F)c4nc(c(-c5c(F)cccc5F)c5ccc2[nH]5)C=C4)C=C3)cc1
REMARK SMILES IDX 5 1 4 2 3 3 1 4 2 5 26 7 27 8 79 9 28 10 78 11 29 12 30 13
REMARK SMILES IDX 31 14 72 15 32 16 77 17 71 18 73 19 33 20 76 21 70 22 69 23
REMARK SMILES IDX 34 25 60 26 43 27 59 28 44 29 47 30 58 31 74 32 45 33 46 34
REMARK SMILES IDX 57 36 75 37 48 38 35 39 36 40 41 41 37 42 38 43 40 44 42 45
REMARK SMILES IDX 39 46 61 47 62 48 67 49 63 50 64 51 66 52 68 53 65 54 49 55
REMARK SMILES IDX 50 56 55 57 51 58 52 59 54 60 56 61 53 62 6 63 7 64 8 65
REMARK SMILES IDX 9 66 10 68 11 69 12 70 17 71 13 72 16 73 14 74 15 75 18 76
REMARK SMILES IDX 19 77 25 78 20 79 23 80 21 81 24 82 22 83
REMARK H PARENT 3 6 73 24 47 35 8 67
REMARK Flexibility Score: inf
ROOT
ATOM      1  C   UNL A   1      33.072  28.418  27.039  1.00  0.00     0.023 C 
ENDROOT
BRANCH   1   2
ATOM      2  C   UNL A   1      34.484  28.954  27.238  1.00  0.00     0.116 C 
BRANCH   2   3
ATOM      3  N   UNL A   1      34.579  29.989  28.257  1.00  0.00    -0.352 N 
ATOM      4  O   UNL A   1      35.509  31.200  29.918  1.00  0.00    -0.269 OA
ATOM      5  C   UNL A   1      35.652  30.360  29.037  1.00  0.00     0.251 C 
ATOM      6  H   UNL A   1      33.753  30.500  28.413  1.00  0.00     0.163 HD
BRANCH   5   7
ATOM      7  C   UNL A   1      36.968  29.713  28.840  1.00  0.00     0.039 A 
ATOM      8  C   UNL A   1      37.592  29.032  29.886  1.00  0.00     0.014 A 
ATOM      9  C   UNL A   1      37.602  29.820  27.598  1.00  0.00     0.014 A 
ATOM     10  C   UNL A   1      38.917  28.635  29.752  1.00  0.00     0.010 A 
ATOM     11  C   UNL A   1      38.901  29.330  27.436  1.00  0.00     0.010 A 
ATOM     12  C   UNL A   1      39.590  28.782  28.527  1.00  0.00    -0.014 A 
BRANCH  12  13
ATOM     13  C   UNL A   1      41.007  28.344  28.427  1.00  0.00     0.031 A 
ATOM     14  C   UNL A   1      41.363  26.932  28.046  1.00  0.00     0.074 A 
ATOM     15  C   UNL A   1      41.983  29.255  28.612  1.00  0.00     0.049 A 
ATOM     16  N   UNL A   1      42.547  26.407  27.848  1.00  0.00    -0.248 NA
ATOM     17  C   UNL A   1      40.253  25.983  27.869  1.00  0.00     0.031 C 
ATOM     18  C   UNL A   1      41.765  30.652  28.990  1.00  0.00     0.029 A 
ATOM     19  N   UNL A   1      43.343  29.156  28.472  1.00  0.00    -0.354 N 
ATOM     20  C   UNL A   1      42.326  25.070  27.542  1.00  0.00     0.074 A 
ATOM     21  C   UNL A   1      40.897  24.855  27.606  1.00  0.00     0.031 C 
ATOM     22  C   UNL A   1      42.940  31.298  28.982  1.00  0.00     0.029 A 
ATOM     23  C   UNL A   1      44.000  30.347  28.659  1.00  0.00     0.049 A 
ATOM     24  H   UNL A   1      43.803  28.313  28.259  1.00  0.00     0.167 HD
ATOM     25  C   UNL A   1      43.232  24.113  27.225  1.00  0.00     0.037 A 
ATOM     26  C   UNL A   1      45.309  30.649  28.579  1.00  0.00     0.037 A 
ATOM     27  C   UNL A   1      44.653  24.334  27.139  1.00  0.00     0.049 A 
ATOM     28  C   UNL A   1      46.290  29.571  28.229  1.00  0.00     0.074 A 
ATOM     29  C   UNL A   1      45.647  23.428  26.811  1.00  0.00     0.029 A 
ATOM     30  N   UNL A   1      45.282  25.548  27.375  1.00  0.00    -0.354 N 
ATOM     31  N   UNL A   1      46.064  28.314  27.941  1.00  0.00    -0.248 NA
ATOM     32  C   UNL A   1      47.709  29.953  28.197  1.00  0.00     0.031 C 
ATOM     33  C   UNL A   1      46.880  24.084  26.883  1.00  0.00     0.029 A 
ATOM     34  C   UNL A   1      46.650  25.410  27.212  1.00  0.00     0.049 A 
ATOM     35  H   UNL A   1      44.823  26.383  27.622  1.00  0.00     0.167 HD
ATOM     36  C   UNL A   1      47.307  27.753  27.686  1.00  0.00     0.074 A 
ATOM     37  C   UNL A   1      48.284  28.814  27.833  1.00  0.00     0.031 C 
ATOM     38  C   UNL A   1      47.611  26.472  27.365  1.00  0.00     0.037 A 
BRANCH  25  39
ATOM     39  C   UNL A   1      42.718  22.730  26.951  1.00  0.00     0.057 A 
ATOM     40  C   UNL A   1      42.321  21.894  28.002  1.00  0.00     0.134 A 
ATOM     41  C   UNL A   1      42.675  22.203  25.654  1.00  0.00     0.134 A 
ATOM     42  F   UNL A   1      42.346  22.334  29.269  1.00  0.00    -0.206 F 
ATOM     43  C   UNL A   1      41.908  20.579  27.775  1.00  0.00     0.040 A 
ATOM     44  C   UNL A   1      42.243  20.896  25.412  1.00  0.00     0.040 A 
ATOM     45  F   UNL A   1      43.031  22.955  24.602  1.00  0.00    -0.206 F 
ATOM     46  C   UNL A   1      41.866  20.079  26.475  1.00  0.00     0.006 A 
ENDBRANCH  25  39
BRANCH  26  47
ATOM     47  C   UNL A   1      45.746  32.044  28.819  1.00  0.00     0.057 A 
ATOM     48  C   UNL A   1      46.095  32.488  30.101  1.00  0.00     0.134 A 
ATOM     49  C   UNL A   1      45.771  32.981  27.782  1.00  0.00     0.134 A 
ATOM     50  F   UNL A   1      46.079  31.637  31.139  1.00  0.00    -0.206 F 
ATOM     51  C   UNL A   1      46.427  33.819  30.348  1.00  0.00     0.040 A 
ATOM     52  C   UNL A   1      46.124  34.312  28.009  1.00  0.00     0.040 A 
ATOM     53  F   UNL A   1      45.461  32.611  26.531  1.00  0.00    -0.206 F 
ATOM     54  C   UNL A   1      46.444  34.736  29.298  1.00  0.00     0.006 A 
ENDBRANCH  26  47
BRANCH  38  55
ATOM     55  C   UNL A   1      49.056  26.146  27.137  1.00  0.00     0.057 A 
ATOM     56  C   UNL A   1      49.894  25.824  28.211  1.00  0.00     0.134 A 
ATOM     57  C   UNL A   1      49.629  26.204  25.860  1.00  0.00     0.134 A 
ATOM     58  F   UNL A   1      49.407  25.758  29.459  1.00  0.00    -0.206 F 
ATOM     59  C   UNL A   1      51.254  25.577  28.025  1.00  0.00     0.040 A 
ATOM     60  C   UNL A   1      50.985  25.939  25.659  1.00  0.00     0.040 A 
ATOM     61  F   UNL A   1      48.876  26.497  24.790  1.00  0.00    -0.206 F 
ATOM     62  C   UNL A   1      51.802  25.631  26.745  1.00  0.00     0.006 A 
ENDBRANCH  38  55
ENDBRANCH  12  13
ENDBRANCH   5   7
ENDBRANCH   2   3
ENDBRANCH   1   2
BRANCH   1  63
ATOM     63  C   UNL A   1      31.978  29.473  26.918  1.00  0.00     0.023 C 
BRANCH  63  64
ATOM     64  C   UNL A   1      31.742  30.018  25.513  1.00  0.00     0.116 C 
BRANCH  64  65
ATOM     65  N   UNL A   1      32.440  29.268  24.480  1.00  0.00    -0.352 N 
ATOM     66  C   UNL A   1      31.916  28.549  23.430  1.00  0.00     0.251 C 
ATOM     67  H   UNL A   1      33.423  29.277  24.538  1.00  0.00     0.163 HD
ATOM     68  O   UNL A   1      32.651  27.987  22.626  1.00  0.00    -0.269 OA
BRANCH  66  69
ATOM     69  C   UNL A   1      30.446  28.467  23.291  1.00  0.00     0.047 A 
ATOM     70  C   UNL A   1      29.803  29.516  22.608  1.00  0.00     0.017 A 
ATOM     71  C   UNL A   1      29.714  27.385  23.828  1.00  0.00    -0.003 A 
ATOM     72  C   UNL A   1      28.414  29.555  22.539  1.00  0.00     0.040 A 
ATOM     73  C   UNL A   1      28.310  27.458  23.748  1.00  0.00     0.048 A 
ATOM     74  C   UNL A   1      27.681  28.534  23.126  1.00  0.00     0.123 A 
ATOM     75  F   UNL A   1      26.344  28.578  23.086  1.00  0.00    -0.207 F 
BRANCH  71  76
ATOM     76  C   UNL A   1      30.336  26.187  24.425  1.00  0.00    -0.016 A 
ATOM     77  C   UNL A   1      30.565  26.069  25.806  1.00  0.00     0.012 A 
ATOM     78  C   UNL A   1      30.713  25.113  23.593  1.00  0.00     0.032 A 
ATOM     79  C   UNL A   1      31.160  24.920  26.338  1.00  0.00     0.041 A 
ATOM     80  C   UNL A   1      31.301  23.964  24.126  1.00  0.00     0.077 A 
ATOM     81  C   UNL A   1      31.523  23.874  25.495  1.00  0.00     0.141 A 
ATOM     82  Cl  UNL A   1      31.734  22.672  23.075  1.00  0.00    -0.081 Cl
ATOM     83  F   UNL A   1      32.084  22.779  26.029  1.00  0.00    -0.205 F 
ENDBRANCH  71  76
ENDBRANCH  66  69
ENDBRANCH  64  65
ENDBRANCH  63  64
ENDBRANCH   1  63
TORSDOF 12
ENDMDL
MODEL 3
REMARK VINA RESULT:     -11.5      1.536      2.050
REMARK SMILES O=C(NCCCCNC(=O)c1ccc(F)cc1-c1ccc(F)c(Cl)c1)c1ccc(-c2c3nc(c(-c4c(F)cccc4F)c4ccc([nH]4)c(-c4c(F)cccc4F)c4nc(c(-c5c(F)cccc5F)c5ccc2[nH]5)C=C4)C=C3)cc1
REMARK SMILES IDX 5 1 4 2 3 3 1 4 2 5 26 7 27 8 79 9 28 10 78 11 29 12 30 13
REMARK SMILES IDX 31 14 72 15 32 16 77 17 71 18 73 19 33 20 76 21 70 22 69 23
REMARK SMILES IDX 34 25 60 26 43 27 59 28 44 29 47 30 58 31 74 32 45 33 46 34
REMARK SMILES IDX 57 36 75 37 48 38 35 39 36 40 41 41 37 42 38 43 40 44 42 45
REMARK SMILES IDX 39 46 61 47 62 48 67 49 63 50 64 51 66 52 68 53 65 54 49 55
REMARK SMILES IDX 50 56 55 57 51 58 52 59 54 60 56 61 53 62 6 63 7 64 8 65
REMARK SMILES IDX 9 66 10 68 11 69 12 70 17 71 13 72 16 73 14 74 15 75 18 76
REMARK SMILES IDX 19 77 25 78 20 79 23 80 21 81 24 82 22 83
REMARK H PARENT 3 6 73 24 47 35 8 67
REMARK Flexibility Score: inf
ROOT
ATOM      1  C   UNL A   1      37.783  20.432  24.647  1.00  0.00     0.023 C 
ENDROOT
BRANCH   1   2
ATOM      2  C   UNL A   1      38.811  20.549  25.764  1.00  0.00     0.116 C 
BRANCH   2   3
ATOM      3  N   UNL A   1      39.850  19.530  25.712  1.00  0.00    -0.352 N 
ATOM      4  O   UNL A   1      41.929  18.665  25.844  1.00  0.00    -0.269 OA
ATOM      5  C   UNL A   1      41.182  19.614  26.051  1.00  0.00     0.251 C 
ATOM      6  H   UNL A   1      39.556  18.650  25.385  1.00  0.00     0.163 HD
BRANCH   5   7
ATOM      7  C   UNL A   1      41.721  20.867  26.624  1.00  0.00     0.039 A 
ATOM      8  C   UNL A   1      41.772  21.057  28.005  1.00  0.00     0.014 A 
ATOM      9  C   UNL A   1      42.151  21.882  25.763  1.00  0.00     0.014 A 
ATOM     10  C   UNL A   1      42.062  22.317  28.515  1.00  0.00     0.010 A 
ATOM     11  C   UNL A   1      42.538  23.120  26.285  1.00  0.00     0.010 A 
ATOM     12  C   UNL A   1      42.444  23.366  27.662  1.00  0.00    -0.014 A 
BRANCH  12  13
ATOM     13  C   UNL A   1      42.745  24.698  28.248  1.00  0.00     0.031 A 
ATOM     14  C   UNL A   1      44.160  25.118  28.547  1.00  0.00     0.074 A 
ATOM     15  C   UNL A   1      41.733  25.565  28.444  1.00  0.00     0.049 A 
ATOM     16  N   UNL A   1      44.599  26.268  28.994  1.00  0.00    -0.248 NA
ATOM     17  C   UNL A   1      45.219  24.122  28.322  1.00  0.00     0.031 C 
ATOM     18  C   UNL A   1      40.319  25.273  28.198  1.00  0.00     0.029 A 
ATOM     19  N   UNL A   1      41.736  26.873  28.856  1.00  0.00    -0.354 N 
ATOM     20  C   UNL A   1      45.976  26.130  29.120  1.00  0.00     0.074 A 
ATOM     21  C   UNL A   1      46.299  24.775  28.729  1.00  0.00     0.031 C 
ATOM     22  C   UNL A   1      39.600  26.388  28.394  1.00  0.00     0.029 A 
ATOM     23  C   UNL A   1      40.492  27.454  28.838  1.00  0.00     0.049 A 
ATOM     24  H   UNL A   1      42.551  27.348  29.137  1.00  0.00     0.167 HD
ATOM     25  C   UNL A   1      46.887  27.051  29.515  1.00  0.00     0.037 A 
ATOM     26  C   UNL A   1      40.106  28.707  29.142  1.00  0.00     0.037 A 
ATOM     27  C   UNL A   1      46.566  28.407  29.883  1.00  0.00     0.049 A 
ATOM     28  C   UNL A   1      41.134  29.707  29.578  1.00  0.00     0.074 A 
ATOM     29  C   UNL A   1      47.425  29.416  30.284  1.00  0.00     0.029 A 
ATOM     30  N   UNL A   1      45.288  28.945  29.890  1.00  0.00    -0.354 N 
ATOM     31  N   UNL A   1      42.431  29.559  29.690  1.00  0.00    -0.248 NA
ATOM     32  C   UNL A   1      40.645  31.046  29.936  1.00  0.00     0.031 C 
ATOM     33  C   UNL A   1      46.663  30.555  30.566  1.00  0.00     0.029 A 
ATOM     34  C   UNL A   1      45.335  30.268  30.299  1.00  0.00     0.049 A 
ATOM     35  H   UNL A   1      44.470  28.459  29.641  1.00  0.00     0.167 HD
ATOM     36  C   UNL A   1      42.916  30.784  30.123  1.00  0.00     0.074 A 
ATOM     37  C   UNL A   1      41.776  31.672  30.234  1.00  0.00     0.031 C 
ATOM     38  C   UNL A   1      44.193  31.139  30.408  1.00  0.00     0.037 A 
BRANCH  25  39
ATOM     39  C   UNL A   1      48.325  26.628  29.578  1.00  0.00     0.057 A 
ATOM     40  C   UNL A   1      49.173  26.809  28.478  1.00  0.00     0.134 A 
ATOM     41  C   UNL A   1      48.856  25.985  30.704  1.00  0.00     0.134 A 
ATOM     42  F   UNL A   1      48.726  27.410  27.365  1.00  0.00    -0.206 F 
ATOM     43  C   UNL A   1      50.494  26.358  28.491  1.00  0.00     0.040 A 
ATOM     44  C   UNL A   1      50.183  25.549  30.737  1.00  0.00     0.040 A 
ATOM     45  F   UNL A   1      48.100  25.791  31.796  1.00  0.00    -0.206 F 
ATOM     46  C   UNL A   1      51.003  25.728  29.626  1.00  0.00     0.006 A 
ENDBRANCH  25  39
BRANCH  26  47
ATOM     47  C   UNL A   1      38.675  29.074  29.018  1.00  0.00     0.057 A 
ATOM     48  C   UNL A   1      38.149  29.556  27.813  1.00  0.00     0.134 A 
ATOM     49  C   UNL A   1      37.815  29.003  30.118  1.00  0.00     0.134 A 
ATOM     50  F   UNL A   1      38.929  29.658  26.727  1.00  0.00    -0.206 F 
ATOM     51  C   UNL A   1      36.825  29.982  27.714  1.00  0.00     0.040 A 
ATOM     52  C   UNL A   1      36.481  29.402  30.027  1.00  0.00     0.040 A 
ATOM     53  F   UNL A   1      38.259  28.535  31.294  1.00  0.00    -0.206 F 
ATOM     54  C   UNL A   1      35.986  29.903  28.824  1.00  0.00     0.006 A 
ENDBRANCH  26  47
BRANCH  38  55
ATOM     55  C   UNL A   1      44.430  32.549  30.855  1.00  0.00     0.057 A 
ATOM     56  C   UNL A   1      44.707  33.557  29.923  1.00  0.00     0.134 A 
ATOM     57  C   UNL A   1      44.438  32.898  32.211  1.00  0.00     0.134 A 
ATOM     58  F   UNL A   1      44.721  33.285  28.610  1.00  0.00    -0.206 F 
ATOM     59  C   UNL A   1      44.990  34.863  30.326  1.00  0.00     0.040 A 
ATOM     60  C   UNL A   1      44.699  34.206  32.625  1.00  0.00     0.040 A 
ATOM     61  F   UNL A   1      44.169  31.980  33.151  1.00  0.00    -0.206 F 
ATOM     62  C   UNL A   1      44.983  35.190  31.680  1.00  0.00     0.006 A 
ENDBRANCH  38  55
ENDBRANCH  12  13
ENDBRANCH   5   7
ENDBRANCH   2   3
ENDBRANCH   1   2
BRANCH   1  63
ATOM     63  C   UNL A   1      36.325  20.561  25.076  1.00  0.00     0.023 C 
BRANCH  63  64
ATOM     64  C   UNL A   1      35.672  21.909  24.788  1.00  0.00     0.116 C 
BRANCH  64  65
ATOM     65  N   UNL A   1      34.623  22.255  25.736  1.00  0.00    -0.352 N 
ATOM     66  C   UNL A   1      33.333  21.782  25.808  1.00  0.00     0.251 C 
ATOM     67  H   UNL A   1      34.870  22.918  26.421  1.00  0.00     0.163 HD
ATOM     68  O   UNL A   1      32.573  22.164  26.691  1.00  0.00    -0.269 OA
BRANCH  66  69
ATOM     69  C   UNL A   1      32.879  20.803  24.796  1.00  0.00     0.047 A 
ATOM     70  C   UNL A   1      32.877  19.445  25.168  1.00  0.00     0.017 A 
ATOM     71  C   UNL A   1      32.472  21.210  23.507  1.00  0.00    -0.003 A 
ATOM     72  C   UNL A   1      32.567  18.467  24.230  1.00  0.00     0.040 A 
ATOM     73  C   UNL A   1      32.172  20.195  22.579  1.00  0.00     0.048 A 
ATOM     74  C   UNL A   1      32.235  18.850  22.938  1.00  0.00     0.123 A 
ATOM     75  F   UNL A   1      31.962  17.913  22.024  1.00  0.00    -0.207 F 
BRANCH  71  76
ATOM     76  C   UNL A   1      32.313  22.620  23.102  1.00  0.00    -0.016 A 
ATOM     77  C   UNL A   1      33.230  23.266  22.255  1.00  0.00     0.012 A 
ATOM     78  C   UNL A   1      31.205  23.356  23.568  1.00  0.00     0.032 A 
ATOM     79  C   UNL A   1      33.050  24.606  21.894  1.00  0.00     0.041 A 
ATOM     80  C   UNL A   1      31.023  24.691  23.202  1.00  0.00     0.077 A 
ATOM     81  C   UNL A   1      31.947  25.309  22.368  1.00  0.00     0.141 A 
ATOM     82  Cl  UNL A   1      29.648  25.547  23.783  1.00  0.00    -0.081 Cl
ATOM     83  F   UNL A   1      31.792  26.590  22.001  1.00  0.00    -0.205 F 
ENDBRANCH  71  76
ENDBRANCH  66  69
ENDBRANCH  64  65
ENDBRANCH  63  64
ENDBRANCH   1  63
TORSDOF 12
ENDMDL
