MODEL 1
REMARK VINA RESULT:     -10.6      0.000      0.000
REMARK SMILES Cc1ccc(N2CCC[C@@H](Cn3cc(C(=O)NCCCCNC(=O)c4ccc(-c5c6nc(c(-c7c(F)cccc7F)c7ccc([nH]7)c(-c7c(F)cccc7F)c7nc(c(-c8c(F)cccc8F)c8ccc5[nH]8)C=C7)C=C6)cc4)nn3)C2)nn1
REMARK SMILES IDX 19 1 18 2 17 3 15 4 16 5 14 7 12 8 13 9 80 10 79 11 11 12
REMARK SMILES IDX 10 13 6 14 7 15 81 16 8 17 9 18 5 19 1 20 2 21 3 22 83 23
REMARK SMILES IDX 4 24 82 25 20 26 21 27 22 28 23 29 24 31 25 32 26 33 78 34
REMARK SMILES IDX 27 35 77 36 28 37 29 38 30 39 71 40 31 41 76 42 70 43 72 44
REMARK SMILES IDX 32 45 75 46 69 47 68 48 33 50 59 51 42 52 58 53 43 54 46 55
REMARK SMILES IDX 57 56 73 57 44 58 45 59 56 61 74 62 47 63 34 64 35 65 40 66
REMARK SMILES IDX 36 67 37 68 39 69 41 70 38 71 60 72 61 73 66 74 62 75 63 76
REMARK SMILES IDX 65 77 67 78 64 79 48 80 49 81 54 82 50 83 51 84 53 85 55 86
REMARK SMILES IDX 52 87
REMARK H PARENT 17 6 22 30 72 49 46 60
REMARK Flexibility Score: inf
ROOT
ATOM      1  C   UNL A   1      33.531  35.197  29.418  1.00  0.00     0.023 C 
ENDROOT
BRANCH   1   2
ATOM      2  C   UNL A   1      33.482  36.661  29.858  1.00  0.00     0.116 C 
BRANCH   2   3
ATOM      3  N   UNL A   1      32.529  36.872  30.932  1.00  0.00    -0.351 N 
ATOM      4  C   UNL A   1      32.486  36.374  32.215  1.00  0.00     0.273 C 
ATOM      5  O   UNL A   1      31.604  36.829  32.957  1.00  0.00    -0.267 OA
ATOM      6  H   UNL A   1      31.786  37.476  30.705  1.00  0.00     0.163 HD
BRANCH   4   7
ATOM      7  C   UNL A   1      33.473  35.414  32.690  1.00  0.00     0.170 A 
ATOM      8  N   UNL A   1      35.067  34.401  33.736  1.00  0.00    -0.251 N 
ATOM      9  C   UNL A   1      34.762  35.597  33.156  1.00  0.00     0.145 A 
ATOM     10  N   UNL A   1      34.190  33.454  33.384  1.00  0.00    -0.067 NA
ATOM     11  N   UNL A   1      33.189  34.065  32.764  1.00  0.00    -0.125 NA
BRANCH   8  12
ATOM     12  C   UNL A   1      36.022  34.158  34.797  1.00  0.00     0.151 C 
BRANCH  12  13
ATOM     13  C   UNL A   1      37.267  33.356  34.356  1.00  0.00     0.030 C 
ATOM     14  N   UNL A   1      39.551  33.421  33.574  1.00  0.00    -0.355 N 
ATOM     15  C   UNL A   1      40.093  32.530  34.586  1.00  0.00     0.118 C 
ATOM     16  C   UNL A   1      38.446  34.269  33.969  1.00  0.00     0.123 C 
ATOM     17  C   UNL A   1      38.987  31.558  34.980  1.00  0.00     0.022 C 
ATOM     18  C   UNL A   1      37.714  32.305  35.400  1.00  0.00     0.009 C 
BRANCH  14  19
ATOM     19  C   UNL A   1      40.282  33.717  32.447  1.00  0.00     0.151 A 
ATOM     20  C   UNL A   1      42.417  34.799  28.946  1.00  0.00     0.069 C 
ATOM     21  C   UNL A   1      41.635  34.398  30.156  1.00  0.00     0.060 A 
ATOM     22  C   UNL A   1      40.568  33.524  30.065  1.00  0.00     0.029 A 
ATOM     23  N   UNL A   1      42.009  34.913  31.346  1.00  0.00    -0.154 NA
ATOM     24  C   UNL A   1      39.897  33.173  31.229  1.00  0.00     0.051 A 
ATOM     25  N   UNL A   1      41.312  34.586  32.491  1.00  0.00    -0.133 NA
ENDBRANCH  14  19
ENDBRANCH  12  13
ENDBRANCH   8  12
ENDBRANCH   4   7
ENDBRANCH   2   3
ENDBRANCH   1   2
BRANCH   1  26
ATOM     26  C   UNL A   1      34.935  34.575  29.425  1.00  0.00     0.023 C 
BRANCH  26  27
ATOM     27  C   UNL A   1      34.959  33.097  29.792  1.00  0.00     0.116 C 
BRANCH  27  28
ATOM     28  N   UNL A   1      34.256  32.262  28.820  1.00  0.00    -0.352 N 
ATOM     29  C   UNL A   1      34.794  31.299  27.995  1.00  0.00     0.251 C 
ATOM     30  H   UNL A   1      33.285  32.404  28.747  1.00  0.00     0.163 HD
ATOM     31  O   UNL A   1      34.230  30.978  26.949  1.00  0.00    -0.269 OA
BRANCH  29  32
ATOM     32  C   UNL A   1      36.049  30.641  28.389  1.00  0.00     0.039 A 
ATOM     33  C   UNL A   1      36.079  29.290  28.745  1.00  0.00     0.014 A 
ATOM     34  C   UNL A   1      37.210  31.416  28.426  1.00  0.00     0.014 A 
ATOM     35  C   UNL A   1      37.295  28.719  29.103  1.00  0.00     0.010 A 
ATOM     36  C   UNL A   1      38.427  30.825  28.640  1.00  0.00     0.010 A 
ATOM     37  C   UNL A   1      38.461  29.499  29.047  1.00  0.00    -0.014 A 
BRANCH  37  38
ATOM     38  C   UNL A   1      39.763  28.917  29.322  1.00  0.00     0.031 A 
ATOM     39  C   UNL A   1      40.089  28.847  30.767  1.00  0.00     0.074 A 
ATOM     40  C   UNL A   1      40.509  28.312  28.374  1.00  0.00     0.049 A 
ATOM     41  N   UNL A   1      40.922  29.589  31.414  1.00  0.00    -0.248 NA
ATOM     42  C   UNL A   1      39.272  27.978  31.629  1.00  0.00     0.031 C 
ATOM     43  C   UNL A   1      40.162  28.020  26.979  1.00  0.00     0.029 A 
ATOM     44  N   UNL A   1      41.741  27.752  28.496  1.00  0.00    -0.354 N 
ATOM     45  C   UNL A   1      40.912  29.120  32.724  1.00  0.00     0.074 A 
ATOM     46  C   UNL A   1      39.739  28.296  32.840  1.00  0.00     0.031 C 
ATOM     47  C   UNL A   1      41.065  27.159  26.455  1.00  0.00     0.029 A 
ATOM     48  C   UNL A   1      42.136  26.967  27.417  1.00  0.00     0.049 A 
ATOM     49  H   UNL A   1      42.311  27.891  29.286  1.00  0.00     0.167 HD
ATOM     50  C   UNL A   1      42.022  29.230  33.505  1.00  0.00     0.037 A 
ATOM     51  C   UNL A   1      43.258  26.205  27.346  1.00  0.00     0.037 A 
ATOM     52  C   UNL A   1      42.961  30.164  32.922  1.00  0.00     0.049 A 
ATOM     53  C   UNL A   1      44.197  26.704  28.382  1.00  0.00     0.074 A 
ATOM     54  C   UNL A   1      42.923  31.501  32.574  1.00  0.00     0.029 A 
ATOM     55  N   UNL A   1      44.031  29.635  32.242  1.00  0.00    -0.354 N 
ATOM     56  N   UNL A   1      44.783  27.866  28.321  1.00  0.00    -0.248 NA
ATOM     57  C   UNL A   1      44.095  26.126  29.714  1.00  0.00     0.031 C 
ATOM     58  C   UNL A   1      43.647  31.582  31.346  1.00  0.00     0.029 A 
ATOM     59  C   UNL A   1      44.154  30.315  31.059  1.00  0.00     0.049 A 
ATOM     60  H   UNL A   1      44.607  28.898  32.550  1.00  0.00     0.167 HD
ATOM     61  C   UNL A   1      44.708  28.366  29.613  1.00  0.00     0.074 A 
ATOM     62  C   UNL A   1      44.346  27.217  30.444  1.00  0.00     0.031 C 
ATOM     63  C   UNL A   1      44.651  29.711  29.844  1.00  0.00     0.037 A 
BRANCH  50  64
ATOM     64  C   UNL A   1      42.467  28.200  34.521  1.00  0.00     0.057 A 
ATOM     65  C   UNL A   1      42.301  28.315  35.915  1.00  0.00     0.134 A 
ATOM     66  C   UNL A   1      42.770  26.901  34.066  1.00  0.00     0.134 A 
ATOM     67  F   UNL A   1      41.988  29.467  36.517  1.00  0.00    -0.206 F 
ATOM     68  C   UNL A   1      42.346  27.216  36.778  1.00  0.00     0.040 A 
ATOM     69  C   UNL A   1      42.770  25.788  34.915  1.00  0.00     0.040 A 
ATOM     70  F   UNL A   1      42.976  26.657  32.763  1.00  0.00    -0.206 F 
ATOM     71  C   UNL A   1      42.537  25.941  36.274  1.00  0.00     0.006 A 
ENDBRANCH  50  64
BRANCH  51  72
ATOM     72  C   UNL A   1      43.473  24.910  26.660  1.00  0.00     0.057 A 
ATOM     73  C   UNL A   1      44.179  24.840  25.447  1.00  0.00     0.134 A 
ATOM     74  C   UNL A   1      42.745  23.764  27.014  1.00  0.00     0.134 A 
ATOM     75  F   UNL A   1      44.848  25.904  24.977  1.00  0.00    -0.206 F 
ATOM     76  C   UNL A   1      44.146  23.710  24.623  1.00  0.00     0.040 A 
ATOM     77  C   UNL A   1      42.702  22.625  26.198  1.00  0.00     0.040 A 
ATOM     78  F   UNL A   1      42.003  23.748  28.131  1.00  0.00    -0.206 F 
ATOM     79  C   UNL A   1      43.394  22.600  24.991  1.00  0.00     0.006 A 
ENDBRANCH  51  72
BRANCH  63  80
ATOM     80  C   UNL A   1      44.928  30.629  28.684  1.00  0.00     0.057 A 
ATOM     81  C   UNL A   1      46.216  31.152  28.539  1.00  0.00     0.134 A 
ATOM     82  C   UNL A   1      43.953  31.093  27.785  1.00  0.00     0.134 A 
ATOM     83  F   UNL A   1      47.188  30.802  29.396  1.00  0.00    -0.206 F 
ATOM     84  C   UNL A   1      46.532  32.071  27.536  1.00  0.00     0.040 A 
ATOM     85  C   UNL A   1      44.264  31.987  26.754  1.00  0.00     0.040 A 
ATOM     86  F   UNL A   1      42.670  30.734  27.905  1.00  0.00    -0.206 F 
ATOM     87  C   UNL A   1      45.558  32.480  26.629  1.00  0.00     0.006 A 
ENDBRANCH  63  80
ENDBRANCH  37  38
ENDBRANCH  29  32
ENDBRANCH  27  28
ENDBRANCH  26  27
ENDBRANCH   1  26
TORSDOF 14
ENDMDL
MODEL 2
REMARK VINA RESULT:     -10.6      4.923      8.376
REMARK SMILES Cc1ccc(N2CCC[C@@H](Cn3cc(C(=O)NCCCCNC(=O)c4ccc(-c5c6nc(c(-c7c(F)cccc7F)c7ccc([nH]7)c(-c7c(F)cccc7F)c7nc(c(-c8c(F)cccc8F)c8ccc5[nH]8)C=C7)C=C6)cc4)nn3)C2)nn1
REMARK SMILES IDX 19 1 18 2 17 3 15 4 16 5 14 7 12 8 13 9 80 10 79 11 11 12
REMARK SMILES IDX 10 13 6 14 7 15 81 16 8 17 9 18 5 19 1 20 2 21 3 22 83 23
REMARK SMILES IDX 4 24 82 25 20 26 21 27 22 28 23 29 24 31 25 32 26 33 78 34
REMARK SMILES IDX 27 35 77 36 28 37 29 38 30 39 71 40 31 41 76 42 70 43 72 44
REMARK SMILES IDX 32 45 75 46 69 47 68 48 33 50 59 51 42 52 58 53 43 54 46 55
REMARK SMILES IDX 57 56 73 57 44 58 45 59 56 61 74 62 47 63 34 64 35 65 40 66
REMARK SMILES IDX 36 67 37 68 39 69 41 70 38 71 60 72 61 73 66 74 62 75 63 76
REMARK SMILES IDX 65 77 67 78 64 79 48 80 49 81 54 82 50 83 51 84 53 85 55 86
REMARK SMILES IDX 52 87
REMARK H PARENT 17 6 22 30 72 49 46 60
REMARK Flexibility Score: inf
ROOT
ATOM      1  C   UNL A   1      32.241  30.203  25.923  1.00  0.00     0.023 C 
ENDROOT
BRANCH   1   2
ATOM      2  C   UNL A   1      32.148  29.043  24.931  1.00  0.00     0.116 C 
BRANCH   2   3
ATOM      3  N   UNL A   1      31.359  29.391  23.763  1.00  0.00    -0.351 N 
ATOM      4  C   UNL A   1      30.882  28.616  22.730  1.00  0.00     0.273 C 
ATOM      5  O   UNL A   1      30.127  29.173  21.921  1.00  0.00    -0.267 OA
ATOM      6  H   UNL A   1      31.125  30.344  23.698  1.00  0.00     0.163 HD
BRANCH   4   7
ATOM      7  C   UNL A   1      31.196  27.196  22.638  1.00  0.00     0.170 A 
ATOM      8  N   UNL A   1      32.179  25.278  22.523  1.00  0.00    -0.251 N 
ATOM      9  C   UNL A   1      32.238  26.540  22.009  1.00  0.00     0.145 A 
ATOM     10  N   UNL A   1      31.020  25.067  23.160  1.00  0.00    -0.067 NA
ATOM     11  N   UNL A   1      30.417  26.244  23.263  1.00  0.00    -0.125 NA
BRANCH   8  12
ATOM     12  C   UNL A   1      33.264  24.327  22.642  1.00  0.00     0.151 C 
BRANCH  12  13
ATOM     13  C   UNL A   1      33.196  23.444  23.909  1.00  0.00     0.030 C 
ATOM     14  N   UNL A   1      33.851  21.383  24.983  1.00  0.00    -0.355 N 
ATOM     15  C   UNL A   1      34.400  21.993  26.182  1.00  0.00     0.118 C 
ATOM     16  C   UNL A   1      33.980  22.127  23.748  1.00  0.00     0.123 C 
ATOM     17  C   UNL A   1      33.629  23.285  26.432  1.00  0.00     0.022 C 
ATOM     18  C   UNL A   1      33.641  24.188  25.191  1.00  0.00     0.009 C 
BRANCH  14  19
ATOM     19  C   UNL A   1      33.580  20.035  24.952  1.00  0.00     0.151 A 
ATOM     20  C   UNL A   1      32.800  15.867  25.057  1.00  0.00     0.069 C 
ATOM     21  C   UNL A   1      33.116  17.328  25.013  1.00  0.00     0.060 A 
ATOM     22  C   UNL A   1      34.356  17.783  24.604  1.00  0.00     0.029 A 
ATOM     23  N   UNL A   1      32.148  18.193  25.379  1.00  0.00    -0.154 NA
ATOM     24  C   UNL A   1      34.579  19.153  24.563  1.00  0.00     0.051 A 
ATOM     25  N   UNL A   1      32.392  19.551  25.369  1.00  0.00    -0.133 NA
ENDBRANCH  14  19
ENDBRANCH  12  13
ENDBRANCH   8  12
ENDBRANCH   4   7
ENDBRANCH   2   3
ENDBRANCH   1   2
BRANCH   1  26
ATOM     26  C   UNL A   1      33.039  29.891  27.197  1.00  0.00     0.023 C 
BRANCH  26  27
ATOM     27  C   UNL A   1      34.376  30.615  27.287  1.00  0.00     0.116 C 
BRANCH  27  28
ATOM     28  N   UNL A   1      34.349  31.738  28.220  1.00  0.00    -0.352 N 
ATOM     29  C   UNL A   1      35.036  31.859  29.408  1.00  0.00     0.251 C 
ATOM     30  H   UNL A   1      33.774  32.497  27.972  1.00  0.00     0.163 HD
ATOM     31  O   UNL A   1      34.629  32.605  30.300  1.00  0.00    -0.269 OA
BRANCH  29  32
ATOM     32  C   UNL A   1      36.279  31.096  29.596  1.00  0.00     0.039 A 
ATOM     33  C   UNL A   1      36.262  29.793  30.103  1.00  0.00     0.014 A 
ATOM     34  C   UNL A   1      37.486  31.725  29.281  1.00  0.00     0.014 A 
ATOM     35  C   UNL A   1      37.468  29.119  30.254  1.00  0.00     0.010 A 
ATOM     36  C   UNL A   1      38.657  31.015  29.295  1.00  0.00     0.010 A 
ATOM     37  C   UNL A   1      38.658  29.742  29.847  1.00  0.00    -0.014 A 
BRANCH  37  38
ATOM     38  C   UNL A   1      39.926  29.037  29.900  1.00  0.00     0.031 A 
ATOM     39  C   UNL A   1      40.480  28.913  31.271  1.00  0.00     0.074 A 
ATOM     40  C   UNL A   1      40.444  28.381  28.841  1.00  0.00     0.049 A 
ATOM     41  N   UNL A   1      41.476  29.564  31.771  1.00  0.00    -0.248 NA
ATOM     42  C   UNL A   1      39.739  28.110  32.257  1.00  0.00     0.031 C 
ATOM     43  C   UNL A   1      39.845  28.146  27.523  1.00  0.00     0.029 A 
ATOM     44  N   UNL A   1      41.621  27.707  28.755  1.00  0.00    -0.354 N 
ATOM     45  C   UNL A   1      41.639  29.076  33.063  1.00  0.00     0.074 A 
ATOM     46  C   UNL A   1      40.429  28.363  33.372  1.00  0.00     0.031 C 
ATOM     47  C   UNL A   1      40.563  27.213  26.855  1.00  0.00     0.029 A 
ATOM     48  C   UNL A   1      41.755  26.906  27.625  1.00  0.00     0.049 A 
ATOM     49  H   UNL A   1      42.325  27.779  29.439  1.00  0.00     0.167 HD
ATOM     50  C   UNL A   1      42.869  29.070  33.648  1.00  0.00     0.037 A 
ATOM     51  C   UNL A   1      42.773  26.044  27.367  1.00  0.00     0.037 A 
ATOM     52  C   UNL A   1      43.782  29.922  32.917  1.00  0.00     0.049 A 
ATOM     53  C   UNL A   1      43.914  26.437  28.233  1.00  0.00     0.074 A 
ATOM     54  C   UNL A   1      43.812  31.262  32.581  1.00  0.00     0.029 A 
ATOM     55  N   UNL A   1      44.669  29.306  32.067  1.00  0.00    -0.354 N 
ATOM     56  N   UNL A   1      44.589  27.540  28.075  1.00  0.00    -0.248 NA
ATOM     57  C   UNL A   1      43.981  25.849  29.562  1.00  0.00     0.031 C 
ATOM     58  C   UNL A   1      44.327  31.296  31.250  1.00  0.00     0.029 A 
ATOM     59  C   UNL A   1      44.658  29.991  30.881  1.00  0.00     0.049 A 
ATOM     60  H   UNL A   1      45.216  28.514  32.275  1.00  0.00     0.167 HD
ATOM     61  C   UNL A   1      44.777  28.024  29.362  1.00  0.00     0.074 A 
ATOM     62  C   UNL A   1      44.451  26.900  30.240  1.00  0.00     0.031 C 
ATOM     63  C   UNL A   1      44.887  29.365  29.600  1.00  0.00     0.037 A 
BRANCH  50  64
ATOM     64  C   UNL A   1      43.377  27.986  34.574  1.00  0.00     0.057 A 
ATOM     65  C   UNL A   1      43.661  26.661  34.189  1.00  0.00     0.134 A 
ATOM     66  C   UNL A   1      43.918  28.370  35.817  1.00  0.00     0.134 A 
ATOM     67  F   UNL A   1      43.248  26.136  33.031  1.00  0.00    -0.206 F 
ATOM     68  C   UNL A   1      44.485  25.814  34.936  1.00  0.00     0.040 A 
ATOM     69  C   UNL A   1      44.784  27.546  36.548  1.00  0.00     0.040 A 
ATOM     70  F   UNL A   1      43.705  29.598  36.313  1.00  0.00    -0.206 F 
ATOM     71  C   UNL A   1      45.085  26.269  36.097  1.00  0.00     0.006 A 
ENDBRANCH  50  64
BRANCH  51  72
ATOM     72  C   UNL A   1      42.747  24.747  26.654  1.00  0.00     0.057 A 
ATOM     73  C   UNL A   1      42.303  23.577  27.293  1.00  0.00     0.134 A 
ATOM     74  C   UNL A   1      43.429  24.564  25.442  1.00  0.00     0.134 A 
ATOM     75  F   UNL A   1      41.704  23.632  28.492  1.00  0.00    -0.206 F 
ATOM     76  C   UNL A   1      42.542  22.300  26.772  1.00  0.00     0.040 A 
ATOM     77  C   UNL A   1      43.677  23.291  24.909  1.00  0.00     0.040 A 
ATOM     78  F   UNL A   1      43.930  25.616  24.778  1.00  0.00    -0.206 F 
ATOM     79  C   UNL A   1      43.244  22.152  25.581  1.00  0.00     0.006 A 
ENDBRANCH  51  72
BRANCH  63  80
ATOM     80  C   UNL A   1      45.053  30.271  28.410  1.00  0.00     0.057 A 
ATOM     81  C   UNL A   1      46.343  30.658  28.040  1.00  0.00     0.134 A 
ATOM     82  C   UNL A   1      43.990  30.855  27.699  1.00  0.00     0.134 A 
ATOM     83  F   UNL A   1      47.407  30.189  28.711  1.00  0.00    -0.206 F 
ATOM     84  C   UNL A   1      46.575  31.559  26.998  1.00  0.00     0.040 A 
ATOM     85  C   UNL A   1      44.209  31.731  26.631  1.00  0.00     0.040 A 
ATOM     86  F   UNL A   1      42.717  30.631  28.045  1.00  0.00    -0.206 F 
ATOM     87  C   UNL A   1      45.507  32.087  26.279  1.00  0.00     0.006 A 
ENDBRANCH  63  80
ENDBRANCH  37  38
ENDBRANCH  29  32
ENDBRANCH  27  28
ENDBRANCH  26  27
ENDBRANCH   1  26
TORSDOF 14
ENDMDL
MODEL 3
REMARK VINA RESULT:     -10.5      5.395     11.722
REMARK SMILES Cc1ccc(N2CCC[C@@H](Cn3cc(C(=O)NCCCCNC(=O)c4ccc(-c5c6nc(c(-c7c(F)cccc7F)c7ccc([nH]7)c(-c7c(F)cccc7F)c7nc(c(-c8c(F)cccc8F)c8ccc5[nH]8)C=C7)C=C6)cc4)nn3)C2)nn1
REMARK SMILES IDX 19 1 18 2 17 3 15 4 16 5 14 7 12 8 13 9 80 10 79 11 11 12
REMARK SMILES IDX 10 13 6 14 7 15 81 16 8 17 9 18 5 19 1 20 2 21 3 22 83 23
REMARK SMILES IDX 4 24 82 25 20 26 21 27 22 28 23 29 24 31 25 32 26 33 78 34
REMARK SMILES IDX 27 35 77 36 28 37 29 38 30 39 71 40 31 41 76 42 70 43 72 44
REMARK SMILES IDX 32 45 75 46 69 47 68 48 33 50 59 51 42 52 58 53 43 54 46 55
REMARK SMILES IDX 57 56 73 57 44 58 45 59 56 61 74 62 47 63 34 64 35 65 40 66
REMARK SMILES IDX 36 67 37 68 39 69 41 70 38 71 60 72 61 73 66 74 62 75 63 76
REMARK SMILES IDX 65 77 67 78 64 79 48 80 49 81 54 82 50 83 51 84 53 85 55 86
REMARK SMILES IDX 52 87
REMARK H PARENT 17 6 22 30 72 49 46 60
REMARK Flexibility Score: inf
ROOT
ATOM      1  C   UNL A   1      43.136  22.827  27.520  1.00  0.00     0.023 C 
ENDROOT
BRANCH   1   2
ATOM      2  C   UNL A   1      42.845  22.080  26.218  1.00  0.00     0.116 C 
BRANCH   2   3
ATOM      3  N   UNL A   1      42.903  20.641  26.393  1.00  0.00    -0.351 N 
ATOM      4  C   UNL A   1      41.920  19.679  26.317  1.00  0.00     0.273 C 
ATOM      5  O   UNL A   1      42.290  18.501  26.398  1.00  0.00    -0.267 OA
ATOM      6  H   UNL A   1      43.799  20.291  26.603  1.00  0.00     0.163 HD
BRANCH   4   7
ATOM      7  C   UNL A   1      40.527  20.035  26.083  1.00  0.00     0.170 A 
ATOM      8  N   UNL A   1      38.673  21.069  25.691  1.00  0.00    -0.251 N 
ATOM      9  C   UNL A   1      39.810  21.163  26.439  1.00  0.00     0.145 A 
ATOM     10  N   UNL A   1      38.537  19.844  25.167  1.00  0.00    -0.067 NA
ATOM     11  N   UNL A   1      39.680  19.205  25.376  1.00  0.00    -0.125 NA
BRANCH   8  12
ATOM     12  C   UNL A   1      37.817  22.152  25.255  1.00  0.00     0.151 C 
BRANCH  12  13
ATOM     13  C   UNL A   1      36.514  21.689  24.564  1.00  0.00     0.030 C 
ATOM     14  N   UNL A   1      34.416  20.512  24.770  1.00  0.00    -0.355 N 
ATOM     15  C   UNL A   1      33.578  21.586  24.266  1.00  0.00     0.118 C 
ATOM     16  C   UNL A   1      35.598  20.893  25.514  1.00  0.00     0.123 C 
ATOM     17  C   UNL A   1      34.410  22.390  23.273  1.00  0.00     0.022 C 
ATOM     18  C   UNL A   1      35.733  22.850  23.902  1.00  0.00     0.009 C 
BRANCH  14  19
ATOM     19  C   UNL A   1      33.919  19.233  24.870  1.00  0.00     0.151 A 
ATOM     20  C   UNL A   1      32.460  15.282  25.373  1.00  0.00     0.069 C 
ATOM     21  C   UNL A   1      33.012  16.659  25.185  1.00  0.00     0.060 A 
ATOM     22  C   UNL A   1      34.258  16.863  24.622  1.00  0.00     0.029 A 
ATOM     23  N   UNL A   1      32.251  17.702  25.576  1.00  0.00    -0.154 NA
ATOM     24  C   UNL A   1      34.705  18.167  24.454  1.00  0.00     0.051 A 
ATOM     25  N   UNL A   1      32.719  18.993  25.438  1.00  0.00    -0.133 NA
ENDBRANCH  14  19
ENDBRANCH  12  13
ENDBRANCH   8  12
ENDBRANCH   4   7
ENDBRANCH   2   3
ENDBRANCH   1   2
BRANCH   1  26
ATOM     26  C   UNL A   1      42.278  24.081  27.743  1.00  0.00     0.023 C 
BRANCH  26  27
ATOM     27  C   UNL A   1      41.914  24.821  26.462  1.00  0.00     0.116 C 
BRANCH  27  28
ATOM     28  N   UNL A   1      40.490  24.736  26.146  1.00  0.00    -0.352 N 
ATOM     29  C   UNL A   1      39.438  25.250  26.871  1.00  0.00     0.251 C 
ATOM     30  H   UNL A   1      40.256  24.257  25.319  1.00  0.00     0.163 HD
ATOM     31  O   UNL A   1      38.308  24.771  26.770  1.00  0.00    -0.269 OA
BRANCH  29  32
ATOM     32  C   UNL A   1      39.675  26.397  27.760  1.00  0.00     0.039 A 
ATOM     33  C   UNL A   1      40.050  27.645  27.252  1.00  0.00     0.014 A 
ATOM     34  C   UNL A   1      39.544  26.197  29.135  1.00  0.00     0.014 A 
ATOM     35  C   UNL A   1      40.255  28.694  28.139  1.00  0.00     0.010 A 
ATOM     36  C   UNL A   1      39.606  27.260  29.996  1.00  0.00     0.010 A 
ATOM     37  C   UNL A   1      40.031  28.488  29.509  1.00  0.00    -0.014 A 
BRANCH  37  38
ATOM     38  C   UNL A   1      40.142  29.581  30.458  1.00  0.00     0.031 A 
ATOM     39  C   UNL A   1      38.868  30.306  30.683  1.00  0.00     0.074 A 
ATOM     40  C   UNL A   1      41.242  29.784  31.215  1.00  0.00     0.049 A 
ATOM     41  N   UNL A   1      38.552  31.478  30.246  1.00  0.00    -0.248 NA
ATOM     42  C   UNL A   1      37.750  29.582  31.309  1.00  0.00     0.031 C 
ATOM     43  C   UNL A   1      42.443  28.950  31.333  1.00  0.00     0.029 A 
ATOM     44  N   UNL A   1      41.478  30.772  32.117  1.00  0.00    -0.354 N 
ATOM     45  C   UNL A   1      37.280  31.740  30.747  1.00  0.00     0.074 A 
ATOM     46  C   UNL A   1      36.763  30.475  31.194  1.00  0.00     0.031 C 
ATOM     47  C   UNL A   1      43.174  29.352  32.398  1.00  0.00     0.029 A 
ATOM     48  C   UNL A   1      42.583  30.564  32.937  1.00  0.00     0.049 A 
ATOM     49  H   UNL A   1      40.912  31.575  32.185  1.00  0.00     0.167 HD
ATOM     50  C   UNL A   1      36.889  33.020  31.001  1.00  0.00     0.037 A 
ATOM     51  C   UNL A   1      42.958  31.334  33.991  1.00  0.00     0.037 A 
ATOM     52  C   UNL A   1      37.783  33.959  30.359  1.00  0.00     0.049 A 
ATOM     53  C   UNL A   1      42.292  32.652  33.834  1.00  0.00     0.074 A 
ATOM     54  C   UNL A   1      38.173  34.206  29.057  1.00  0.00     0.029 A 
ATOM     55  N   UNL A   1      38.733  34.561  31.150  1.00  0.00    -0.354 N 
ATOM     56  N   UNL A   1      42.594  33.502  32.893  1.00  0.00    -0.248 NA
ATOM     57  C   UNL A   1      40.966  32.806  34.413  1.00  0.00     0.031 C 
ATOM     58  C   UNL A   1      39.567  34.502  29.140  1.00  0.00     0.029 A 
ATOM     59  C   UNL A   1      39.930  34.502  30.487  1.00  0.00     0.049 A 
ATOM     60  H   UNL A   1      38.580  34.962  32.036  1.00  0.00     0.167 HD
ATOM     61  C   UNL A   1      41.370  33.983  32.449  1.00  0.00     0.074 A 
ATOM     62  C   UNL A   1      40.409  33.579  33.475  1.00  0.00     0.031 C 
ATOM     63  C   UNL A   1      41.205  34.396  31.157  1.00  0.00     0.037 A 
BRANCH  50  64
ATOM     64  C   UNL A   1      36.008  33.438  32.158  1.00  0.00     0.057 A 
ATOM     65  C   UNL A   1      36.315  33.241  33.519  1.00  0.00     0.134 A 
ATOM     66  C   UNL A   1      34.979  34.367  31.912  1.00  0.00     0.134 A 
ATOM     67  F   UNL A   1      37.279  32.414  33.935  1.00  0.00    -0.206 F 
ATOM     68  C   UNL A   1      35.708  33.970  34.547  1.00  0.00     0.040 A 
ATOM     69  C   UNL A   1      34.400  35.136  32.929  1.00  0.00     0.040 A 
ATOM     70  F   UNL A   1      34.572  34.632  30.661  1.00  0.00    -0.206 F 
ATOM     71  C   UNL A   1      34.779  34.952  34.251  1.00  0.00     0.006 A 
ENDBRANCH  50  64
BRANCH  51  72
ATOM     72  C   UNL A   1      43.607  30.936  35.261  1.00  0.00     0.057 A 
ATOM     73  C   UNL A   1      44.888  31.406  35.599  1.00  0.00     0.134 A 
ATOM     74  C   UNL A   1      43.123  29.865  36.026  1.00  0.00     0.134 A 
ATOM     75  F   UNL A   1      45.476  32.378  34.885  1.00  0.00    -0.206 F 
ATOM     76  C   UNL A   1      45.653  30.830  36.620  1.00  0.00     0.040 A 
ATOM     77  C   UNL A   1      43.879  29.278  37.051  1.00  0.00     0.040 A 
ATOM     78  F   UNL A   1      41.930  29.318  35.753  1.00  0.00    -0.206 F 
ATOM     79  C   UNL A   1      45.155  29.752  37.342  1.00  0.00     0.006 A 
ENDBRANCH  51  72
BRANCH  63  80
ATOM     80  C   UNL A   1      42.441  34.553  30.313  1.00  0.00     0.057 A 
ATOM     81  C   UNL A   1      42.844  33.480  29.513  1.00  0.00     0.134 A 
ATOM     82  C   UNL A   1      43.293  35.669  30.348  1.00  0.00     0.134 A 
ATOM     83  F   UNL A   1      42.113  32.355  29.474  1.00  0.00    -0.206 F 
ATOM     84  C   UNL A   1      44.021  33.518  28.763  1.00  0.00     0.040 A 
ATOM     85  C   UNL A   1      44.457  35.735  29.575  1.00  0.00     0.040 A 
ATOM     86  F   UNL A   1      43.051  36.704  31.162  1.00  0.00    -0.206 F 
ATOM     87  C   UNL A   1      44.825  34.655  28.780  1.00  0.00     0.006 A 
ENDBRANCH  63  80
ENDBRANCH  37  38
ENDBRANCH  29  32
ENDBRANCH  27  28
ENDBRANCH  26  27
ENDBRANCH   1  26
TORSDOF 14
ENDMDL
