MODEL 1
REMARK VINA RESULT:     -11.3      0.000      0.000
REMARK SMILES CCN(C(=O)c1ccccc1C(=O)NCCCCNC(=O)c1ccc(-c2c3nc(c(-c4c(F)cccc4F)c4ccc([nH]4)c(-c4c(F)cccc4F)c4nc(c(-c5c(F)cccc5F)c5ccc2[nH]5)C=C4)C=C3)cc1)[C@H](CCO)c1ccccc1
REMARK SMILES IDX 12 1 13 2 14 3 11 5 6 6 7 7 8 8 10 9 9 10 4 11 5 12 3 13
REMARK SMILES IDX 2 14 1 15 76 16 80 17 81 18 85 19 82 20 84 21 83 22 77 23
REMARK SMILES IDX 78 24 79 25 15 27 16 28 17 29 18 30 19 31 20 32 21 34 22 35
REMARK SMILES IDX 23 36 75 37 24 38 74 39 25 40 26 41 27 42 68 43 28 44 73 45
REMARK SMILES IDX 67 46 69 47 29 48 72 49 66 50 65 51 30 53 56 54 39 55 55 56
REMARK SMILES IDX 40 57 43 58 54 59 70 60 41 61 42 62 53 64 71 65 44 66 31 67
REMARK SMILES IDX 32 68 37 69 33 70 34 71 36 72 38 73 35 74 57 75 58 76 63 77
REMARK SMILES IDX 59 78 60 79 62 80 64 81 61 82 45 83 46 84 51 85 47 86 48 87
REMARK SMILES IDX 50 88 52 89 49 90
REMARK H PARENT 14 4 79 26 19 33 69 52 43 63
REMARK Flexibility Score: inf
ROOT
ATOM      1  C   UNL A   1      30.918  23.865  26.504  1.00  0.00     0.252 C 
ATOM      2  O   UNL A   1      30.634  23.114  27.453  1.00  0.00    -0.269 OA
ATOM      3  N   UNL A   1      30.818  25.195  26.877  1.00  0.00    -0.352 N 
ATOM      4  H   UNL A   1      30.395  25.317  27.758  1.00  0.00     0.163 HD
ENDROOT
BRANCH   1   5
ATOM      5  C   UNL A   1      31.240  23.167  25.169  1.00  0.00     0.052 A 
ATOM      6  C   UNL A   1      31.257  23.545  23.801  1.00  0.00     0.052 A 
ATOM      7  C   UNL A   1      31.724  22.645  22.795  1.00  0.00     0.014 A 
ATOM      8  C   UNL A   1      32.258  21.406  23.093  1.00  0.00     0.001 A 
ATOM      9  C   UNL A   1      31.780  21.865  25.408  1.00  0.00     0.014 A 
ATOM     10  C   UNL A   1      32.299  21.019  24.411  1.00  0.00     0.001 A 
BRANCH   6  11
ATOM     11  C   UNL A   1      31.070  24.877  23.166  1.00  0.00     0.255 C 
ATOM     12  O   UNL A   1      29.944  25.374  23.113  1.00  0.00    -0.269 OA
BRANCH  11  13
ATOM     13  N   UNL A   1      32.142  25.464  22.542  1.00  0.00    -0.332 N 
BRANCH  13  14
ATOM     14  C   UNL A   1      31.830  25.952  21.170  1.00  0.00     0.117 C 
ATOM     15  C   UNL A   1      32.533  25.327  19.968  1.00  0.00     0.027 C 
ENDBRANCH  13  14
BRANCH  13  16
ATOM     16  C   UNL A   1      33.245  25.996  23.429  1.00  0.00     0.118 C 
BRANCH  16  17
ATOM     17  C   UNL A   1      34.342  24.869  23.942  1.00  0.00    -0.025 A 
ATOM     18  C   UNL A   1      34.972  23.892  23.134  1.00  0.00     0.006 A 
ATOM     19  C   UNL A   1      34.698  24.677  25.283  1.00  0.00     0.006 A 
ATOM     20  C   UNL A   1      36.033  23.053  23.553  1.00  0.00     0.000 A 
ATOM     21  C   UNL A   1      35.840  23.948  25.715  1.00  0.00     0.000 A 
ATOM     22  C   UNL A   1      36.536  23.150  24.831  1.00  0.00     0.000 A 
ENDBRANCH  16  17
BRANCH  16  23
ATOM     23  C   UNL A   1      33.736  27.410  22.882  1.00  0.00     0.058 C 
BRANCH  23  24
ATOM     24  C   UNL A   1      33.066  28.785  23.214  1.00  0.00     0.158 C 
BRANCH  24  25
ATOM     25  O   UNL A   1      32.195  29.331  22.236  1.00  0.00    -0.396 OA
ATOM     26  H   UNL A   1      31.367  29.608  22.660  1.00  0.00     0.210 HD
ENDBRANCH  24  25
ENDBRANCH  23  24
ENDBRANCH  16  23
ENDBRANCH  13  16
ENDBRANCH  11  13
ENDBRANCH   6  11
ENDBRANCH   1   5
BRANCH   3  27
ATOM     27  C   UNL A   1      31.198  26.440  26.257  1.00  0.00     0.116 C 
BRANCH  27  28
ATOM     28  C   UNL A   1      32.495  27.165  26.708  1.00  0.00     0.023 C 
BRANCH  28  29
ATOM     29  C   UNL A   1      32.566  28.644  27.199  1.00  0.00     0.023 C 
BRANCH  29  30
ATOM     30  C   UNL A   1      33.684  29.726  26.994  1.00  0.00     0.116 C 
BRANCH  30  31
ATOM     31  N   UNL A   1      33.925  30.763  27.980  1.00  0.00    -0.352 N 
ATOM     32  C   UNL A   1      35.067  31.068  28.715  1.00  0.00     0.251 C 
ATOM     33  H   UNL A   1      33.152  31.347  28.159  1.00  0.00     0.163 HD
ATOM     34  O   UNL A   1      35.225  32.027  29.468  1.00  0.00    -0.269 OA
BRANCH  32  35
ATOM     35  C   UNL A   1      36.170  30.161  28.644  1.00  0.00     0.039 A 
ATOM     36  C   UNL A   1      37.009  30.232  27.527  1.00  0.00     0.014 A 
ATOM     37  C   UNL A   1      36.444  29.456  29.799  1.00  0.00     0.014 A 
ATOM     38  C   UNL A   1      38.271  29.698  27.645  1.00  0.00     0.010 A 
ATOM     39  C   UNL A   1      37.733  29.047  29.957  1.00  0.00     0.010 A 
ATOM     40  C   UNL A   1      38.645  29.183  28.889  1.00  0.00    -0.014 A 
BRANCH  40  41
ATOM     41  C   UNL A   1      40.002  28.723  29.167  1.00  0.00     0.031 A 
ATOM     42  C   UNL A   1      40.960  29.764  29.636  1.00  0.00     0.074 A 
ATOM     43  C   UNL A   1      40.361  27.497  28.755  1.00  0.00     0.049 A 
ATOM     44  N   UNL A   1      42.259  29.769  29.570  1.00  0.00    -0.248 NA
ATOM     45  C   UNL A   1      40.365  31.025  30.126  1.00  0.00     0.031 C 
ATOM     46  C   UNL A   1      39.464  26.473  28.207  1.00  0.00     0.029 A 
ATOM     47  N   UNL A   1      41.598  26.926  28.688  1.00  0.00    -0.354 N 
ATOM     48  C   UNL A   1      42.628  31.052  29.942  1.00  0.00     0.074 A 
ATOM     49  C   UNL A   1      41.422  31.817  30.150  1.00  0.00     0.031 C 
ATOM     50  C   UNL A   1      40.186  25.391  27.871  1.00  0.00     0.029 A 
ATOM     51  C   UNL A   1      41.592  25.671  28.133  1.00  0.00     0.049 A 
ATOM     52  H   UNL A   1      42.417  27.370  29.007  1.00  0.00     0.167 HD
ATOM     53  C   UNL A   1      43.879  31.525  30.117  1.00  0.00     0.037 A 
ATOM     54  C   UNL A   1      42.629  24.863  27.858  1.00  0.00     0.037 A 
ATOM     55  C   UNL A   1      45.036  30.688  29.980  1.00  0.00     0.049 A 
ATOM     56  C   UNL A   1      44.007  25.377  28.171  1.00  0.00     0.074 A 
ATOM     57  C   UNL A   1      46.352  30.982  30.261  1.00  0.00     0.029 A 
ATOM     58  N   UNL A   1      44.993  29.369  29.543  1.00  0.00    -0.354 N 
ATOM     59  N   UNL A   1      44.365  26.563  28.609  1.00  0.00    -0.248 NA
ATOM     60  C   UNL A   1      45.122  24.450  27.960  1.00  0.00     0.031 C 
ATOM     61  C   UNL A   1      47.114  29.846  29.968  1.00  0.00     0.029 A 
ATOM     62  C   UNL A   1      46.264  28.834  29.539  1.00  0.00     0.049 A 
ATOM     63  H   UNL A   1      44.176  28.888  29.274  1.00  0.00     0.167 HD
ATOM     64  C   UNL A   1      45.743  26.517  28.753  1.00  0.00     0.074 A 
ATOM     65  C   UNL A   1      46.151  25.180  28.367  1.00  0.00     0.031 C 
ATOM     66  C   UNL A   1      46.602  27.485  29.158  1.00  0.00     0.037 A 
BRANCH  53  67
ATOM     67  C   UNL A   1      44.029  32.966  30.499  1.00  0.00     0.057 A 
ATOM     68  C   UNL A   1      44.050  33.381  31.837  1.00  0.00     0.134 A 
ATOM     69  C   UNL A   1      44.139  33.954  29.515  1.00  0.00     0.134 A 
ATOM     70  F   UNL A   1      43.921  32.487  32.830  1.00  0.00    -0.206 F 
ATOM     71  C   UNL A   1      44.142  34.729  32.183  1.00  0.00     0.040 A 
ATOM     72  C   UNL A   1      44.267  35.303  29.850  1.00  0.00     0.040 A 
ATOM     73  F   UNL A   1      44.116  33.629  28.214  1.00  0.00    -0.206 F 
ATOM     74  C   UNL A   1      44.261  35.694  31.187  1.00  0.00     0.006 A 
ENDBRANCH  53  67
BRANCH  54  75
ATOM     75  C   UNL A   1      42.402  23.502  27.316  1.00  0.00     0.057 A 
ATOM     76  C   UNL A   1      42.522  23.254  25.943  1.00  0.00     0.134 A 
ATOM     77  C   UNL A   1      42.082  22.416  28.139  1.00  0.00     0.134 A 
ATOM     78  F   UNL A   1      42.825  24.254  25.102  1.00  0.00    -0.206 F 
ATOM     79  C   UNL A   1      42.302  21.985  25.403  1.00  0.00     0.040 A 
ATOM     80  C   UNL A   1      41.882  21.136  27.616  1.00  0.00     0.040 A 
ATOM     81  F   UNL A   1      41.976  22.579  29.466  1.00  0.00    -0.206 F 
ATOM     82  C   UNL A   1      41.982  20.920  26.243  1.00  0.00     0.006 A 
ENDBRANCH  54  75
BRANCH  66  83
ATOM     83  C   UNL A   1      48.049  27.111  29.231  1.00  0.00     0.057 A 
ATOM     84  C   UNL A   1      48.579  26.457  30.348  1.00  0.00     0.134 A 
ATOM     85  C   UNL A   1      48.896  27.345  28.143  1.00  0.00     0.134 A 
ATOM     86  F   UNL A   1      47.812  26.218  31.424  1.00  0.00    -0.206 F 
ATOM     87  C   UNL A   1      49.913  26.061  30.387  1.00  0.00     0.040 A 
ATOM     88  C   UNL A   1      50.225  26.928  28.159  1.00  0.00     0.040 A 
ATOM     89  F   UNL A   1      48.438  27.956  27.040  1.00  0.00    -0.206 F 
ATOM     90  C   UNL A   1      50.738  26.288  29.286  1.00  0.00     0.006 A 
ENDBRANCH  66  83
ENDBRANCH  40  41
ENDBRANCH  32  35
ENDBRANCH  30  31
ENDBRANCH  29  30
ENDBRANCH  28  29
ENDBRANCH  27  28
ENDBRANCH   3  27
TORSDOF 19
ENDMDL
MODEL 2
REMARK VINA RESULT:     -11.3      3.785      5.424
REMARK SMILES CCN(C(=O)c1ccccc1C(=O)NCCCCNC(=O)c1ccc(-c2c3nc(c(-c4c(F)cccc4F)c4ccc([nH]4)c(-c4c(F)cccc4F)c4nc(c(-c5c(F)cccc5F)c5ccc2[nH]5)C=C4)C=C3)cc1)[C@H](CCO)c1ccccc1
REMARK SMILES IDX 12 1 13 2 14 3 11 5 6 6 7 7 8 8 10 9 9 10 4 11 5 12 3 13
REMARK SMILES IDX 2 14 1 15 76 16 80 17 81 18 85 19 82 20 84 21 83 22 77 23
REMARK SMILES IDX 78 24 79 25 15 27 16 28 17 29 18 30 19 31 20 32 21 34 22 35
REMARK SMILES IDX 23 36 75 37 24 38 74 39 25 40 26 41 27 42 68 43 28 44 73 45
REMARK SMILES IDX 67 46 69 47 29 48 72 49 66 50 65 51 30 53 56 54 39 55 55 56
REMARK SMILES IDX 40 57 43 58 54 59 70 60 41 61 42 62 53 64 71 65 44 66 31 67
REMARK SMILES IDX 32 68 37 69 33 70 34 71 36 72 38 73 35 74 57 75 58 76 63 77
REMARK SMILES IDX 59 78 60 79 62 80 64 81 61 82 45 83 46 84 51 85 47 86 48 87
REMARK SMILES IDX 50 88 52 89 49 90
REMARK H PARENT 14 4 79 26 19 33 69 52 43 63
REMARK Flexibility Score: inf
ROOT
ATOM      1  C   UNL A   1      32.909  28.934  24.073  1.00  0.00     0.252 C 
ATOM      2  O   UNL A   1      33.617  28.998  23.053  1.00  0.00    -0.269 OA
ATOM      3  N   UNL A   1      33.560  29.486  25.164  1.00  0.00    -0.352 N 
ATOM      4  H   UNL A   1      34.509  29.682  24.987  1.00  0.00     0.163 HD
ENDROOT
BRANCH   1   5
ATOM      5  C   UNL A   1      31.551  28.226  23.903  1.00  0.00     0.052 A 
ATOM      6  C   UNL A   1      30.965  27.024  24.377  1.00  0.00     0.052 A 
ATOM      7  C   UNL A   1      29.598  26.714  24.100  1.00  0.00     0.014 A 
ATOM      8  C   UNL A   1      28.755  27.587  23.441  1.00  0.00     0.001 A 
ATOM      9  C   UNL A   1      30.634  29.073  23.206  1.00  0.00     0.014 A 
ATOM     10  C   UNL A   1      29.274  28.781  23.002  1.00  0.00     0.001 A 
BRANCH   6  11
ATOM     11  C   UNL A   1      31.463  26.032  25.367  1.00  0.00     0.255 C 
ATOM     12  O   UNL A   1      31.473  26.319  26.565  1.00  0.00    -0.269 OA
BRANCH  11  13
ATOM     13  N   UNL A   1      32.017  24.864  24.905  1.00  0.00    -0.332 N 
BRANCH  13  14
ATOM     14  C   UNL A   1      31.156  23.672  25.136  1.00  0.00     0.117 C 
ATOM     15  C   UNL A   1      31.796  22.295  25.289  1.00  0.00     0.027 C 
ENDBRANCH  13  14
BRANCH  13  16
ATOM     16  C   UNL A   1      33.073  24.984  23.829  1.00  0.00     0.118 C 
BRANCH  16  17
ATOM     17  C   UNL A   1      34.535  24.303  24.199  1.00  0.00    -0.025 A 
ATOM     18  C   UNL A   1      35.250  24.472  25.409  1.00  0.00     0.006 A 
ATOM     19  C   UNL A   1      35.300  23.556  23.295  1.00  0.00     0.006 A 
ATOM     20  C   UNL A   1      36.411  23.747  25.774  1.00  0.00     0.000 A 
ATOM     21  C   UNL A   1      36.387  22.716  23.665  1.00  0.00     0.000 A 
ATOM     22  C   UNL A   1      36.929  22.789  24.932  1.00  0.00     0.000 A 
ENDBRANCH  16  17
BRANCH  16  23
ATOM     23  C   UNL A   1      32.409  24.746  22.400  1.00  0.00     0.058 C 
BRANCH  23  24
ATOM     24  C   UNL A   1      32.468  25.751  21.202  1.00  0.00     0.158 C 
BRANCH  24  25
ATOM     25  O   UNL A   1      33.566  26.648  21.167  1.00  0.00    -0.396 OA
ATOM     26  H   UNL A   1      33.531  27.169  20.349  1.00  0.00     0.210 HD
ENDBRANCH  24  25
ENDBRANCH  23  24
ENDBRANCH  16  23
ENDBRANCH  13  16
ENDBRANCH  11  13
ENDBRANCH   6  11
ENDBRANCH   1   5
BRANCH   3  27
ATOM     27  C   UNL A   1      33.152  29.833  26.502  1.00  0.00     0.116 C 
BRANCH  27  28
ATOM     28  C   UNL A   1      31.750  30.456  26.747  1.00  0.00     0.023 C 
BRANCH  28  29
ATOM     29  C   UNL A   1      31.452  31.986  26.809  1.00  0.00     0.023 C 
BRANCH  29  30
ATOM     30  C   UNL A   1      32.429  33.211  26.742  1.00  0.00     0.116 C 
BRANCH  30  31
ATOM     31  N   UNL A   1      32.519  34.169  27.828  1.00  0.00    -0.352 N 
ATOM     32  C   UNL A   1      33.536  34.402  28.750  1.00  0.00     0.251 C 
ATOM     33  H   UNL A   1      31.730  34.750  27.930  1.00  0.00     0.163 HD
ATOM     34  O   UNL A   1      33.580  35.300  29.588  1.00  0.00    -0.269 OA
BRANCH  32  35
ATOM     35  C   UNL A   1      34.633  33.486  28.781  1.00  0.00     0.039 A 
ATOM     36  C   UNL A   1      35.929  34.012  28.792  1.00  0.00     0.014 A 
ATOM     37  C   UNL A   1      34.309  32.168  29.037  1.00  0.00     0.014 A 
ATOM     38  C   UNL A   1      36.941  33.200  29.249  1.00  0.00     0.010 A 
ATOM     39  C   UNL A   1      35.287  31.413  29.610  1.00  0.00     0.010 A 
ATOM     40  C   UNL A   1      36.592  31.935  29.731  1.00  0.00    -0.014 A 
BRANCH  40  41
ATOM     41  C   UNL A   1      37.560  31.049  30.369  1.00  0.00     0.031 A 
ATOM     42  C   UNL A   1      37.818  31.298  31.815  1.00  0.00     0.074 A 
ATOM     43  C   UNL A   1      38.321  30.263  29.591  1.00  0.00     0.049 A 
ATOM     44  N   UNL A   1      38.861  30.984  32.526  1.00  0.00    -0.248 NA
ATOM     45  C   UNL A   1      36.821  32.130  32.521  1.00  0.00     0.031 C 
ATOM     46  C   UNL A   1      38.156  30.056  28.147  1.00  0.00     0.029 A 
ATOM     47  N   UNL A   1      39.427  29.529  29.907  1.00  0.00    -0.354 N 
ATOM     48  C   UNL A   1      38.676  31.637  33.734  1.00  0.00     0.074 A 
ATOM     49  C   UNL A   1      37.472  32.426  33.632  1.00  0.00     0.031 C 
ATOM     50  C   UNL A   1      39.123  29.235  27.707  1.00  0.00     0.029 A 
ATOM     51  C   UNL A   1      39.997  28.906  28.825  1.00  0.00     0.049 A 
ATOM     52  H   UNL A   1      39.781  29.453  30.822  1.00  0.00     0.167 HD
ATOM     53  C   UNL A   1      39.447  31.548  34.838  1.00  0.00     0.037 A 
ATOM     54  C   UNL A   1      41.120  28.170  28.768  1.00  0.00     0.037 A 
ATOM     55  C   UNL A   1      40.583  30.676  34.905  1.00  0.00     0.049 A 
ATOM     56  C   UNL A   1      41.897  27.997  30.044  1.00  0.00     0.074 A 
ATOM     57  C   UNL A   1      41.375  30.371  35.991  1.00  0.00     0.029 A 
ATOM     58  N   UNL A   1      41.067  29.945  33.826  1.00  0.00    -0.354 N 
ATOM     59  N   UNL A   1      41.682  28.539  31.221  1.00  0.00    -0.248 NA
ATOM     60  C   UNL A   1      43.063  27.111  29.992  1.00  0.00     0.031 C 
ATOM     61  C   UNL A   1      42.357  29.472  35.563  1.00  0.00     0.029 A 
ATOM     62  C   UNL A   1      42.153  29.191  34.218  1.00  0.00     0.049 A 
ATOM     63  H   UNL A   1      40.690  29.963  32.916  1.00  0.00     0.167 HD
ATOM     64  C   UNL A   1      42.669  28.041  32.057  1.00  0.00     0.074 A 
ATOM     65  C   UNL A   1      43.473  27.141  31.252  1.00  0.00     0.031 C 
ATOM     66  C   UNL A   1      42.903  28.300  33.368  1.00  0.00     0.037 A 
BRANCH  53  67
ATOM     67  C   UNL A   1      39.056  32.375  36.024  1.00  0.00     0.057 A 
ATOM     68  C   UNL A   1      39.530  33.681  36.208  1.00  0.00     0.134 A 
ATOM     69  C   UNL A   1      38.205  31.854  37.005  1.00  0.00     0.134 A 
ATOM     70  F   UNL A   1      40.372  34.232  35.320  1.00  0.00    -0.206 F 
ATOM     71  C   UNL A   1      39.199  34.426  37.340  1.00  0.00     0.040 A 
ATOM     72  C   UNL A   1      37.838  32.602  38.124  1.00  0.00     0.040 A 
ATOM     73  F   UNL A   1      37.723  30.606  36.897  1.00  0.00    -0.206 F 
ATOM     74  C   UNL A   1      38.342  33.890  38.298  1.00  0.00     0.006 A 
ENDBRANCH  53  67
BRANCH  54  75
ATOM     75  C   UNL A   1      41.532  27.520  27.501  1.00  0.00     0.057 A 
ATOM     76  C   UNL A   1      42.338  28.202  26.581  1.00  0.00     0.134 A 
ATOM     77  C   UNL A   1      41.158  26.210  27.180  1.00  0.00     0.134 A 
ATOM     78  F   UNL A   1      42.728  29.460  26.830  1.00  0.00    -0.206 F 
ATOM     79  C   UNL A   1      42.731  27.618  25.375  1.00  0.00     0.040 A 
ATOM     80  C   UNL A   1      41.563  25.605  25.988  1.00  0.00     0.040 A 
ATOM     81  F   UNL A   1      40.408  25.492  28.029  1.00  0.00    -0.206 F 
ATOM     82  C   UNL A   1      42.344  26.314  25.077  1.00  0.00     0.006 A 
ENDBRANCH  54  75
BRANCH  66  83
ATOM     83  C   UNL A   1      44.048  27.575  34.001  1.00  0.00     0.057 A 
ATOM     84  C   UNL A   1      45.323  28.145  34.073  1.00  0.00     0.134 A 
ATOM     85  C   UNL A   1      43.849  26.328  34.604  1.00  0.00     0.134 A 
ATOM     86  F   UNL A   1      45.571  29.334  33.501  1.00  0.00    -0.206 F 
ATOM     87  C   UNL A   1      46.372  27.489  34.713  1.00  0.00     0.040 A 
ATOM     88  C   UNL A   1      44.883  25.675  35.272  1.00  0.00     0.040 A 
ATOM     89  F   UNL A   1      42.644  25.741  34.577  1.00  0.00    -0.206 F 
ATOM     90  C   UNL A   1      46.150  26.255  35.324  1.00  0.00     0.006 A 
ENDBRANCH  66  83
ENDBRANCH  40  41
ENDBRANCH  32  35
ENDBRANCH  30  31
ENDBRANCH  29  30
ENDBRANCH  28  29
ENDBRANCH  27  28
ENDBRANCH   3  27
TORSDOF 19
ENDMDL
MODEL 3
REMARK VINA RESULT:     -11.2      3.527      6.855
REMARK SMILES CCN(C(=O)c1ccccc1C(=O)NCCCCNC(=O)c1ccc(-c2c3nc(c(-c4c(F)cccc4F)c4ccc([nH]4)c(-c4c(F)cccc4F)c4nc(c(-c5c(F)cccc5F)c5ccc2[nH]5)C=C4)C=C3)cc1)[C@H](CCO)c1ccccc1
REMARK SMILES IDX 12 1 13 2 14 3 11 5 6 6 7 7 8 8 10 9 9 10 4 11 5 12 3 13
REMARK SMILES IDX 2 14 1 15 76 16 80 17 81 18 85 19 82 20 84 21 83 22 77 23
REMARK SMILES IDX 78 24 79 25 15 27 16 28 17 29 18 30 19 31 20 32 21 34 22 35
REMARK SMILES IDX 23 36 75 37 24 38 74 39 25 40 26 41 27 42 68 43 28 44 73 45
REMARK SMILES IDX 67 46 69 47 29 48 72 49 66 50 65 51 30 53 56 54 39 55 55 56
REMARK SMILES IDX 40 57 43 58 54 59 70 60 41 61 42 62 53 64 71 65 44 66 31 67
REMARK SMILES IDX 32 68 37 69 33 70 34 71 36 72 38 73 35 74 57 75 58 76 63 77
REMARK SMILES IDX 59 78 60 79 62 80 64 81 61 82 45 83 46 84 51 85 47 86 48 87
REMARK SMILES IDX 50 88 52 89 49 90
REMARK H PARENT 14 4 79 26 19 33 69 52 43 63
REMARK Flexibility Score: inf
ROOT
ATOM      1  C   UNL A   1      30.769  23.773  26.494  1.00  0.00     0.252 C 
ATOM      2  O   UNL A   1      30.494  23.024  27.448  1.00  0.00    -0.269 OA
ATOM      3  N   UNL A   1      30.591  25.102  26.839  1.00  0.00    -0.352 N 
ATOM      4  H   UNL A   1      30.135  25.217  27.704  1.00  0.00     0.163 HD
ENDROOT
BRANCH   1   5
ATOM      5  C   UNL A   1      31.168  23.069  25.182  1.00  0.00     0.052 A 
ATOM      6  C   UNL A   1      31.234  23.433  23.813  1.00  0.00     0.052 A 
ATOM      7  C   UNL A   1      31.768  22.536  22.838  1.00  0.00     0.014 A 
ATOM      8  C   UNL A   1      32.323  21.316  23.173  1.00  0.00     0.001 A 
ATOM      9  C   UNL A   1      31.733  21.786  25.460  1.00  0.00     0.014 A 
ATOM     10  C   UNL A   1      32.317  20.944  24.497  1.00  0.00     0.001 A 
BRANCH   6  11
ATOM     11  C   UNL A   1      31.037  24.752  23.154  1.00  0.00     0.255 C 
ATOM     12  O   UNL A   1      29.900  25.206  23.025  1.00  0.00    -0.269 OA
BRANCH  11  13
ATOM     13  N   UNL A   1      32.125  25.375  22.593  1.00  0.00    -0.332 N 
BRANCH  13  14
ATOM     14  C   UNL A   1      31.869  25.878  21.215  1.00  0.00     0.117 C 
ATOM     15  C   UNL A   1      32.632  25.277  20.038  1.00  0.00     0.027 C 
ENDBRANCH  13  14
BRANCH  13  16
ATOM     16  C   UNL A   1      33.169  25.919  23.542  1.00  0.00     0.118 C 
BRANCH  16  17
ATOM     17  C   UNL A   1      34.222  24.796  24.149  1.00  0.00    -0.025 A 
ATOM     18  C   UNL A   1      34.557  24.621  25.513  1.00  0.00     0.006 A 
ATOM     19  C   UNL A   1      35.002  23.946  23.355  1.00  0.00     0.006 A 
ATOM     20  C   UNL A   1      35.323  23.548  26.030  1.00  0.00     0.000 A 
ATOM     21  C   UNL A   1      35.669  22.786  23.836  1.00  0.00     0.000 A 
ATOM     22  C   UNL A   1      35.803  22.567  25.192  1.00  0.00     0.000 A 
ENDBRANCH  16  17
BRANCH  16  23
ATOM     23  C   UNL A   1      33.704  27.320  23.002  1.00  0.00     0.058 C 
BRANCH  23  24
ATOM     24  C   UNL A   1      33.036  28.707  23.283  1.00  0.00     0.158 C 
BRANCH  24  25
ATOM     25  O   UNL A   1      31.628  28.722  23.450  1.00  0.00    -0.396 OA
ATOM     26  H   UNL A   1      31.252  27.901  23.094  1.00  0.00     0.210 HD
ENDBRANCH  24  25
ENDBRANCH  23  24
ENDBRANCH  16  23
ENDBRANCH  13  16
ENDBRANCH  11  13
ENDBRANCH   6  11
ENDBRANCH   1   5
BRANCH   3  27
ATOM     27  C   UNL A   1      30.926  26.354  26.208  1.00  0.00     0.116 C 
BRANCH  27  28
ATOM     28  C   UNL A   1      32.056  27.241  26.800  1.00  0.00     0.023 C 
BRANCH  28  29
ATOM     29  C   UNL A   1      31.920  28.761  27.125  1.00  0.00     0.023 C 
BRANCH  29  30
ATOM     30  C   UNL A   1      32.824  29.971  26.700  1.00  0.00     0.116 C 
BRANCH  30  31
ATOM     31  N   UNL A   1      32.570  31.314  27.188  1.00  0.00    -0.352 N 
ATOM     32  C   UNL A   1      33.444  32.288  27.660  1.00  0.00     0.251 C 
ATOM     33  H   UNL A   1      31.621  31.580  27.183  1.00  0.00     0.163 HD
ATOM     34  O   UNL A   1      33.163  33.444  27.969  1.00  0.00    -0.269 OA
BRANCH  32  35
ATOM     35  C   UNL A   1      34.810  31.918  27.864  1.00  0.00     0.039 A 
ATOM     36  C   UNL A   1      35.776  32.929  27.841  1.00  0.00     0.014 A 
ATOM     37  C   UNL A   1      35.024  30.625  28.301  1.00  0.00     0.014 A 
ATOM     38  C   UNL A   1      36.983  32.670  28.447  1.00  0.00     0.010 A 
ATOM     39  C   UNL A   1      36.166  30.418  29.013  1.00  0.00     0.010 A 
ATOM     40  C   UNL A   1      37.132  31.443  29.099  1.00  0.00    -0.014 A 
BRANCH  40  41
ATOM     41  C   UNL A   1      38.313  31.120  29.894  1.00  0.00     0.031 A 
ATOM     42  C   UNL A   1      39.261  30.144  29.286  1.00  0.00     0.074 A 
ATOM     43  C   UNL A   1      38.345  31.503  31.180  1.00  0.00     0.049 A 
ATOM     44  N   UNL A   1      40.131  29.376  29.872  1.00  0.00    -0.248 NA
ATOM     45  C   UNL A   1      39.115  29.911  27.835  1.00  0.00     0.031 C 
ATOM     46  C   UNL A   1      37.382  32.392  31.841  1.00  0.00     0.029 A 
ATOM     47  N   UNL A   1      39.203  31.143  32.178  1.00  0.00    -0.354 N 
ATOM     48  C   UNL A   1      40.581  28.525  28.875  1.00  0.00     0.074 A 
ATOM     49  C   UNL A   1      39.834  28.814  27.675  1.00  0.00     0.031 C 
ATOM     50  C   UNL A   1      37.716  32.517  33.136  1.00  0.00     0.029 A 
ATOM     51  C   UNL A   1      38.878  31.678  33.399  1.00  0.00     0.049 A 
ATOM     52  H   UNL A   1      39.981  30.556  32.036  1.00  0.00     0.167 HD
ATOM     53  C   UNL A   1      41.562  27.603  28.968  1.00  0.00     0.037 A 
ATOM     54  C   UNL A   1      39.462  31.477  34.592  1.00  0.00     0.037 A 
ATOM     55  C   UNL A   1      42.329  27.425  30.167  1.00  0.00     0.049 A 
ATOM     56  C   UNL A   1      40.627  30.528  34.640  1.00  0.00     0.074 A 
ATOM     57  C   UNL A   1      43.441  26.636  30.371  1.00  0.00     0.029 A 
ATOM     58  N   UNL A   1      42.065  28.082  31.363  1.00  0.00    -0.354 N 
ATOM     59  N   UNL A   1      41.121  29.781  33.680  1.00  0.00    -0.248 NA
ATOM     60  C   UNL A   1      41.318  30.394  35.926  1.00  0.00     0.031 C 
ATOM     61  C   UNL A   1      43.836  26.796  31.704  1.00  0.00     0.029 A 
ATOM     62  C   UNL A   1      42.991  27.712  32.317  1.00  0.00     0.049 A 
ATOM     63  H   UNL A   1      41.326  28.717  31.509  1.00  0.00     0.167 HD
ATOM     64  C   UNL A   1      42.198  29.108  34.235  1.00  0.00     0.074 A 
ATOM     65  C   UNL A   1      42.290  29.549  35.615  1.00  0.00     0.031 C 
ATOM     66  C   UNL A   1      43.036  28.203  33.672  1.00  0.00     0.037 A 
BRANCH  53  67
ATOM     67  C   UNL A   1      41.855  26.779  27.753  1.00  0.00     0.057 A 
ATOM     68  C   UNL A   1      42.783  27.187  26.785  1.00  0.00     0.134 A 
ATOM     69  C   UNL A   1      41.192  25.565  27.539  1.00  0.00     0.134 A 
ATOM     70  F   UNL A   1      43.434  28.353  26.914  1.00  0.00    -0.206 F 
ATOM     71  C   UNL A   1      43.016  26.436  25.632  1.00  0.00     0.040 A 
ATOM     72  C   UNL A   1      41.442  24.788  26.407  1.00  0.00     0.040 A 
ATOM     73  F   UNL A   1      40.284  25.119  28.420  1.00  0.00    -0.206 F 
ATOM     74  C   UNL A   1      42.351  25.227  25.446  1.00  0.00     0.006 A 
ENDBRANCH  53  67
BRANCH  54  75
ATOM     75  C   UNL A   1      38.996  32.212  35.793  1.00  0.00     0.057 A 
ATOM     76  C   UNL A   1      38.196  31.576  36.750  1.00  0.00     0.134 A 
ATOM     77  C   UNL A   1      39.343  33.547  36.030  1.00  0.00     0.134 A 
ATOM     78  F   UNL A   1      37.828  30.298  36.578  1.00  0.00    -0.206 F 
ATOM     79  C   UNL A   1      37.733  32.246  37.884  1.00  0.00     0.040 A 
ATOM     80  C   UNL A   1      38.906  34.223  37.172  1.00  0.00     0.040 A 
ATOM     81  F   UNL A   1      40.127  34.208  35.167  1.00  0.00    -0.206 F 
ATOM     82  C   UNL A   1      38.091  33.575  38.098  1.00  0.00     0.006 A 
ENDBRANCH  54  75
BRANCH  66  83
ATOM     83  C   UNL A   1      44.131  27.668  34.541  1.00  0.00     0.057 A 
ATOM     84  C   UNL A   1      43.975  26.481  35.264  1.00  0.00     0.134 A 
ATOM     85  C   UNL A   1      45.371  28.314  34.594  1.00  0.00     0.134 A 
ATOM     86  F   UNL A   1      42.803  25.828  35.257  1.00  0.00    -0.206 F 
ATOM     87  C   UNL A   1      45.017  25.959  36.027  1.00  0.00     0.040 A 
ATOM     88  C   UNL A   1      46.429  27.787  35.331  1.00  0.00     0.040 A 
ATOM     89  F   UNL A   1      45.580  29.449  33.910  1.00  0.00    -0.206 F 
ATOM     90  C   UNL A   1      46.251  26.608  36.054  1.00  0.00     0.006 A 
ENDBRANCH  66  83
ENDBRANCH  40  41
ENDBRANCH  32  35
ENDBRANCH  30  31
ENDBRANCH  29  30
ENDBRANCH  28  29
ENDBRANCH  27  28
ENDBRANCH   3  27
TORSDOF 19
ENDMDL
