MODEL 1
REMARK VINA RESULT:     -12.2      0.000      0.000
REMARK SMILES Cc1ccc(S(=O)(=O)Nc2cccc(F)c2C(=O)NCCCCNC(=O)c2ccc(-c3c4nc(c(-c5c(F)cccc5F)c5ccc([nH]5)c(-c5c(F)cccc5F)c5nc(c(-c6c(F)cccc6F)c6ccc3[nH]6)C=C5)C=C4)cc2)cc1Cl
REMARK SMILES IDX 21 1 20 2 19 3 17 4 18 5 16 7 10 8 11 9 12 10 14 11 13 12
REMARK SMILES IDX 15 13 9 14 6 16 7 17 8 18 5 19 1 20 2 21 3 22 82 23 4 24
REMARK SMILES IDX 81 25 83 26 22 27 23 28 24 29 25 30 26 32 27 33 28 34 80 35
REMARK SMILES IDX 29 36 79 37 30 38 31 39 32 40 73 41 33 42 78 43 72 44 74 45
REMARK SMILES IDX 34 46 77 47 71 48 70 49 35 51 61 52 44 53 60 54 45 55 48 56
REMARK SMILES IDX 59 57 75 58 46 59 47 60 58 62 76 63 49 64 36 65 37 66 42 67
REMARK SMILES IDX 38 68 39 69 41 70 43 71 40 72 62 73 63 74 68 75 64 76 65 77
REMARK SMILES IDX 67 78 69 79 66 80 50 81 51 82 56 83 52 84 53 85 55 86 57 87
REMARK SMILES IDX 54 88
REMARK H PARENT 19 6 9 15 24 31 74 50 48 61
REMARK Flexibility Score: inf
ROOT
ATOM      1  C   UNL A   1      36.584  20.180  24.997  1.00  0.00     0.023 C 
ENDROOT
BRANCH   1   2
ATOM      2  C   UNL A   1      36.491  21.594  25.556  1.00  0.00     0.116 C 
BRANCH   2   3
ATOM      3  N   UNL A   1      35.446  21.790  26.545  1.00  0.00    -0.352 N 
ATOM      4  C   UNL A   1      34.087  21.589  26.489  1.00  0.00     0.256 C 
ATOM      5  O   UNL A   1      33.447  21.763  27.529  1.00  0.00    -0.269 OA
ATOM      6  H   UNL A   1      35.769  22.128  27.412  1.00  0.00     0.163 HD
BRANCH   4   7
ATOM      7  C   UNL A   1      33.340  21.279  25.238  1.00  0.00     0.099 A 
ATOM      8  C   UNL A   1      32.927  22.332  24.386  1.00  0.00     0.065 A 
ATOM      9  C   UNL A   1      32.427  22.049  23.109  1.00  0.00     0.028 A 
ATOM     10  C   UNL A   1      32.164  20.730  22.743  1.00  0.00     0.005 A 
ATOM     11  C   UNL A   1      32.934  19.990  24.905  1.00  0.00     0.138 A 
ATOM     12  C   UNL A   1      32.366  19.707  23.665  1.00  0.00     0.040 A 
ATOM     13  F   UNL A   1      32.990  18.993  25.801  1.00  0.00    -0.206 F 
BRANCH   8  14
ATOM     14  N   UNL A   1      32.914  23.679  24.879  1.00  0.00    -0.279 N 
ATOM     15  H   UNL A   1      32.200  23.947  25.502  1.00  0.00     0.180 HD
BRANCH  14  16
ATOM     16  S   UNL A   1      34.072  24.828  24.434  1.00  0.00     0.261 S 
ATOM     17  O   UNL A   1      34.187  24.750  22.984  1.00  0.00    -0.201 OA
ATOM     18  O   UNL A   1      35.213  24.607  25.280  1.00  0.00    -0.201 OA
BRANCH  16  19
ATOM     19  C   UNL A   1      33.499  26.485  24.781  1.00  0.00     0.089 A 
ATOM     20  C   UNL A   1      32.619  30.471  26.190  1.00  0.00     0.046 C 
ATOM     21  C   UNL A   1      32.871  29.072  25.700  1.00  0.00    -0.032 A 
ATOM     22  C   UNL A   1      33.515  28.880  24.467  1.00  0.00     0.006 A 
ATOM     23  C   UNL A   1      32.444  27.941  26.411  1.00  0.00     0.045 A 
ATOM     24  C   UNL A   1      33.792  27.592  23.990  1.00  0.00     0.022 A 
ATOM     25  C   UNL A   1      32.781  26.660  25.971  1.00  0.00     0.043 A 
ATOM     26  Cl  UNL A   1      31.504  28.075  27.852  1.00  0.00    -0.084 Cl
ENDBRANCH  16  19
ENDBRANCH  14  16
ENDBRANCH   8  14
ENDBRANCH   4   7
ENDBRANCH   2   3
ENDBRANCH   1   2
BRANCH   1  27
ATOM     27  C   UNL A   1      37.980  19.614  24.761  1.00  0.00     0.023 C 
BRANCH  27  28
ATOM     28  C   UNL A   1      39.067  20.043  25.738  1.00  0.00     0.116 C 
BRANCH  28  29
ATOM     29  N   UNL A   1      40.254  19.204  25.714  1.00  0.00    -0.352 N 
ATOM     30  C   UNL A   1      41.548  19.488  26.082  1.00  0.00     0.251 C 
ATOM     31  H   UNL A   1      40.107  18.288  25.383  1.00  0.00     0.163 HD
ATOM     32  O   UNL A   1      42.421  18.638  25.925  1.00  0.00    -0.269 OA
BRANCH  30  33
ATOM     33  C   UNL A   1      41.910  20.817  26.626  1.00  0.00     0.039 A 
ATOM     34  C   UNL A   1      42.228  21.843  25.729  1.00  0.00     0.014 A 
ATOM     35  C   UNL A   1      41.952  21.061  28.000  1.00  0.00     0.014 A 
ATOM     36  C   UNL A   1      42.522  23.122  26.208  1.00  0.00     0.010 A 
ATOM     37  C   UNL A   1      42.161  22.355  28.472  1.00  0.00     0.010 A 
ATOM     38  C   UNL A   1      42.459  23.397  27.582  1.00  0.00    -0.014 A 
BRANCH  38  39
ATOM     39  C   UNL A   1      42.730  24.760  28.107  1.00  0.00     0.031 A 
ATOM     40  C   UNL A   1      44.130  25.156  28.491  1.00  0.00     0.074 A 
ATOM     41  C   UNL A   1      41.715  25.627  28.287  1.00  0.00     0.049 A 
ATOM     42  N   UNL A   1      44.560  26.280  29.007  1.00  0.00    -0.248 NA
ATOM     43  C   UNL A   1      45.182  24.145  28.299  1.00  0.00     0.031 C 
ATOM     44  C   UNL A   1      40.305  25.349  28.007  1.00  0.00     0.029 A 
ATOM     45  N   UNL A   1      41.713  26.919  28.749  1.00  0.00    -0.354 N 
ATOM     46  C   UNL A   1      45.921  26.101  29.220  1.00  0.00     0.074 A 
ATOM     47  C   UNL A   1      46.236  24.745  28.830  1.00  0.00     0.031 C 
ATOM     48  C   UNL A   1      39.580  26.448  28.272  1.00  0.00     0.029 A 
ATOM     49  C   UNL A   1      40.468  27.497  28.765  1.00  0.00     0.049 A 
ATOM     50  H   UNL A   1      42.528  27.387  29.044  1.00  0.00     0.167 HD
ATOM     51  C   UNL A   1      46.832  26.994  29.673  1.00  0.00     0.037 A 
ATOM     52  C   UNL A   1      40.085  28.737  29.125  1.00  0.00     0.037 A 
ATOM     53  C   UNL A   1      46.527  28.356  30.020  1.00  0.00     0.049 A 
ATOM     54  C   UNL A   1      41.118  29.726  29.583  1.00  0.00     0.074 A 
ATOM     55  C   UNL A   1      47.391  29.354  30.435  1.00  0.00     0.029 A 
ATOM     56  N   UNL A   1      45.258  28.914  29.983  1.00  0.00    -0.354 N 
ATOM     57  N   UNL A   1      42.411  29.560  29.728  1.00  0.00    -0.248 NA
ATOM     58  C   UNL A   1      40.645  31.079  29.913  1.00  0.00     0.031 C 
ATOM     59  C   UNL A   1      46.641  30.509  30.677  1.00  0.00     0.029 A 
ATOM     60  C   UNL A   1      45.316  30.242  30.373  1.00  0.00     0.049 A 
ATOM     61  H   UNL A   1      44.438  28.438  29.720  1.00  0.00     0.167 HD
ATOM     62  C   UNL A   1      42.909  30.790  30.139  1.00  0.00     0.074 A 
ATOM     63  C   UNL A   1      41.781  31.696  30.212  1.00  0.00     0.031 C 
ATOM     64  C   UNL A   1      44.187  31.135  30.427  1.00  0.00     0.037 A 
BRANCH  51  65
ATOM     65  C   UNL A   1      48.253  26.528  29.802  1.00  0.00     0.057 A 
ATOM     66  C   UNL A   1      48.693  25.882  30.963  1.00  0.00     0.134 A 
ATOM     67  C   UNL A   1      49.195  26.750  28.788  1.00  0.00     0.134 A 
ATOM     68  F   UNL A   1      47.844  25.642  31.974  1.00  0.00    -0.206 F 
ATOM     69  C   UNL A   1      50.021  25.475  31.112  1.00  0.00     0.040 A 
ATOM     70  C   UNL A   1      50.518  26.324  28.915  1.00  0.00     0.040 A 
ATOM     71  F   UNL A   1      48.834  27.352  27.645  1.00  0.00    -0.206 F 
ATOM     72  C   UNL A   1      50.935  25.690  30.084  1.00  0.00     0.006 A 
ENDBRANCH  51  65
BRANCH  52  73
ATOM     73  C   UNL A   1      38.657  29.126  29.003  1.00  0.00     0.057 A 
ATOM     74  C   UNL A   1      37.783  29.066  30.095  1.00  0.00     0.134 A 
ATOM     75  C   UNL A   1      38.130  29.537  27.773  1.00  0.00     0.134 A 
ATOM     76  F   UNL A   1      38.228  28.669  31.296  1.00  0.00    -0.206 F 
ATOM     77  C   UNL A   1      36.432  29.388  29.965  1.00  0.00     0.040 A 
ATOM     78  C   UNL A   1      36.784  29.881  27.634  1.00  0.00     0.040 A 
ATOM     79  F   UNL A   1      38.923  29.630  26.696  1.00  0.00    -0.206 F 
ATOM     80  C   UNL A   1      35.929  29.799  28.731  1.00  0.00     0.006 A 
ENDBRANCH  52  73
BRANCH  64  81
ATOM     81  C   UNL A   1      44.451  32.559  30.816  1.00  0.00     0.057 A 
ATOM     82  C   UNL A   1      44.787  33.510  29.844  1.00  0.00     0.134 A 
ATOM     83  C   UNL A   1      44.442  32.973  32.154  1.00  0.00     0.134 A 
ATOM     84  F   UNL A   1      44.823  33.174  28.546  1.00  0.00    -0.206 F 
ATOM     85  C   UNL A   1      45.116  34.821  30.190  1.00  0.00     0.040 A 
ATOM     86  C   UNL A   1      44.748  34.288  32.510  1.00  0.00     0.040 A 
ATOM     87  F   UNL A   1      44.120  32.112  33.130  1.00  0.00    -0.206 F 
ATOM     88  C   UNL A   1      45.094  35.213  31.527  1.00  0.00     0.006 A 
ENDBRANCH  64  81
ENDBRANCH  38  39
ENDBRANCH  30  33
ENDBRANCH  28  29
ENDBRANCH  27  28
ENDBRANCH   1  27
TORSDOF 14
ENDMDL
MODEL 2
REMARK VINA RESULT:     -12.0      4.387      9.266
REMARK SMILES Cc1ccc(S(=O)(=O)Nc2cccc(F)c2C(=O)NCCCCNC(=O)c2ccc(-c3c4nc(c(-c5c(F)cccc5F)c5ccc([nH]5)c(-c5c(F)cccc5F)c5nc(c(-c6c(F)cccc6F)c6ccc3[nH]6)C=C5)C=C4)cc2)cc1Cl
REMARK SMILES IDX 21 1 20 2 19 3 17 4 18 5 16 7 10 8 11 9 12 10 14 11 13 12
REMARK SMILES IDX 15 13 9 14 6 16 7 17 8 18 5 19 1 20 2 21 3 22 82 23 4 24
REMARK SMILES IDX 81 25 83 26 22 27 23 28 24 29 25 30 26 32 27 33 28 34 80 35
REMARK SMILES IDX 29 36 79 37 30 38 31 39 32 40 73 41 33 42 78 43 72 44 74 45
REMARK SMILES IDX 34 46 77 47 71 48 70 49 35 51 61 52 44 53 60 54 45 55 48 56
REMARK SMILES IDX 59 57 75 58 46 59 47 60 58 62 76 63 49 64 36 65 37 66 42 67
REMARK SMILES IDX 38 68 39 69 41 70 43 71 40 72 62 73 63 74 68 75 64 76 65 77
REMARK SMILES IDX 67 78 69 79 66 80 50 81 51 82 56 83 52 84 53 85 55 86 57 87
REMARK SMILES IDX 54 88
REMARK H PARENT 19 6 9 15 24 31 74 50 48 61
REMARK Flexibility Score: inf
ROOT
ATOM      1  C   UNL A   1      31.492  30.578  26.272  1.00  0.00     0.023 C 
ENDROOT
BRANCH   1   2
ATOM      2  C   UNL A   1      31.752  29.543  27.359  1.00  0.00     0.116 C 
BRANCH   2   3
ATOM      3  N   UNL A   1      32.783  28.571  27.040  1.00  0.00    -0.352 N 
ATOM      4  C   UNL A   1      32.845  27.588  26.080  1.00  0.00     0.256 C 
ATOM      5  O   UNL A   1      33.901  26.957  25.986  1.00  0.00    -0.269 OA
ATOM      6  H   UNL A   1      33.581  28.626  27.614  1.00  0.00     0.163 HD
BRANCH   4   7
ATOM      7  C   UNL A   1      31.693  27.177  25.230  1.00  0.00     0.099 A 
ATOM      8  C   UNL A   1      30.826  26.147  25.670  1.00  0.00     0.065 A 
ATOM      9  C   UNL A   1      29.623  25.904  24.997  1.00  0.00     0.028 A 
ATOM     10  C   UNL A   1      29.360  26.551  23.790  1.00  0.00     0.005 A 
ATOM     11  C   UNL A   1      31.475  27.696  23.957  1.00  0.00     0.138 A 
ATOM     12  C   UNL A   1      30.314  27.404  23.244  1.00  0.00     0.040 A 
ATOM     13  F   UNL A   1      32.416  28.422  23.335  1.00  0.00    -0.206 F 
BRANCH   8  14
ATOM     14  N   UNL A   1      31.241  25.278  26.733  1.00  0.00    -0.279 N 
ATOM     15  H   UNL A   1      31.226  25.620  27.656  1.00  0.00     0.180 HD
BRANCH  14  16
ATOM     16  S   UNL A   1      31.756  23.688  26.467  1.00  0.00     0.261 S 
ATOM     17  O   UNL A   1      30.675  23.025  25.751  1.00  0.00    -0.201 OA
ATOM     18  O   UNL A   1      32.219  23.192  27.735  1.00  0.00    -0.201 OA
BRANCH  16  19
ATOM     19  C   UNL A   1      33.161  23.646  25.364  1.00  0.00     0.089 A 
ATOM     20  C   UNL A   1      36.711  22.876  23.029  1.00  0.00     0.046 C 
ATOM     21  C   UNL A   1      35.495  23.195  23.854  1.00  0.00    -0.032 A 
ATOM     22  C   UNL A   1      34.227  23.161  23.251  1.00  0.00     0.006 A 
ATOM     23  C   UNL A   1      35.581  23.572  25.201  1.00  0.00     0.045 A 
ATOM     24  C   UNL A   1      33.068  23.426  23.993  1.00  0.00     0.022 A 
ATOM     25  C   UNL A   1      34.425  23.766  25.958  1.00  0.00     0.043 A 
ATOM     26  Cl  UNL A   1      37.102  23.799  25.986  1.00  0.00    -0.084 Cl
ENDBRANCH  16  19
ENDBRANCH  14  16
ENDBRANCH   8  14
ENDBRANCH   4   7
ENDBRANCH   2   3
ENDBRANCH   1   2
BRANCH   1  27
ATOM     27  C   UNL A   1      31.370  32.033  26.710  1.00  0.00     0.023 C 
BRANCH  27  28
ATOM     28  C   UNL A   1      32.667  32.760  27.041  1.00  0.00     0.116 C 
BRANCH  28  29
ATOM     29  N   UNL A   1      32.479  34.065  27.653  1.00  0.00    -0.352 N 
ATOM     30  C   UNL A   1      33.194  34.689  28.647  1.00  0.00     0.251 C 
ATOM     31  H   UNL A   1      31.721  34.583  27.298  1.00  0.00     0.163 HD
ATOM     32  O   UNL A   1      32.824  35.785  29.061  1.00  0.00    -0.269 OA
BRANCH  30  33
ATOM     33  C   UNL A   1      34.379  34.041  29.254  1.00  0.00     0.039 A 
ATOM     34  C   UNL A   1      34.178  33.011  30.180  1.00  0.00     0.014 A 
ATOM     35  C   UNL A   1      35.679  34.440  28.934  1.00  0.00     0.014 A 
ATOM     36  C   UNL A   1      35.274  32.343  30.730  1.00  0.00     0.010 A 
ATOM     37  C   UNL A   1      36.768  33.718  29.418  1.00  0.00     0.010 A 
ATOM     38  C   UNL A   1      36.578  32.669  30.328  1.00  0.00    -0.014 A 
BRANCH  38  39
ATOM     39  C   UNL A   1      37.755  31.944  30.874  1.00  0.00     0.031 A 
ATOM     40  C   UNL A   1      38.272  32.270  32.248  1.00  0.00     0.074 A 
ATOM     41  C   UNL A   1      38.391  31.028  30.118  1.00  0.00     0.049 A 
ATOM     42  N   UNL A   1      39.309  31.781  32.880  1.00  0.00    -0.248 NA
ATOM     43  C   UNL A   1      37.547  33.306  33.002  1.00  0.00     0.031 C 
ATOM     44  C   UNL A   1      38.026  30.660  28.749  1.00  0.00     0.029 A 
ATOM     45  N   UNL A   1      39.481  30.241  30.394  1.00  0.00    -0.354 N 
ATOM     46  C   UNL A   1      39.372  32.462  34.088  1.00  0.00     0.074 A 
ATOM     47  C   UNL A   1      38.303  33.437  34.080  1.00  0.00     0.031 C 
ATOM     48  C   UNL A   1      38.855  29.695  28.318  1.00  0.00     0.029 A 
ATOM     49  C   UNL A   1      39.826  29.397  29.367  1.00  0.00     0.049 A 
ATOM     50  H   UNL A   1      39.971  30.279  31.248  1.00  0.00     0.167 HD
ATOM     51  C   UNL A   1      40.223  32.275  35.124  1.00  0.00     0.037 A 
ATOM     52  C   UNL A   1      40.806  28.478  29.284  1.00  0.00     0.037 A 
ATOM     53  C   UNL A   1      41.258  31.277  35.150  1.00  0.00     0.049 A 
ATOM     54  C   UNL A   1      41.713  28.256  30.461  1.00  0.00     0.074 A 
ATOM     55  C   UNL A   1      42.136  30.972  36.176  1.00  0.00     0.029 A 
ATOM     56  N   UNL A   1      41.548  30.414  34.104  1.00  0.00    -0.354 N 
ATOM     57  N   UNL A   1      41.726  28.870  31.619  1.00  0.00    -0.248 NA
ATOM     58  C   UNL A   1      42.731  27.203  30.327  1.00  0.00     0.031 C 
ATOM     59  C   UNL A   1      42.976  29.943  35.740  1.00  0.00     0.029 A 
ATOM     60  C   UNL A   1      42.595  29.579  34.459  1.00  0.00     0.049 A 
ATOM     61  H   UNL A   1      41.080  30.398  33.238  1.00  0.00     0.167 HD
ATOM     62  C   UNL A   1      42.731  28.264  32.361  1.00  0.00     0.074 A 
ATOM     63  C   UNL A   1      43.301  27.226  31.526  1.00  0.00     0.031 C 
ATOM     64  C   UNL A   1      43.142  28.543  33.622  1.00  0.00     0.037 A 
BRANCH  51  65
ATOM     65  C   UNL A   1      40.058  33.161  36.324  1.00  0.00     0.057 A 
ATOM     66  C   UNL A   1      40.826  34.322  36.470  1.00  0.00     0.134 A 
ATOM     67  C   UNL A   1      39.161  32.844  37.354  1.00  0.00     0.134 A 
ATOM     68  F   UNL A   1      41.707  34.680  35.524  1.00  0.00    -0.206 F 
ATOM     69  C   UNL A   1      40.710  35.136  37.599  1.00  0.00     0.040 A 
ATOM     70  C   UNL A   1      39.017  33.665  38.474  1.00  0.00     0.040 A 
ATOM     71  F   UNL A   1      38.386  31.752  37.269  1.00  0.00    -0.206 F 
ATOM     72  C   UNL A   1      39.798  34.811  38.601  1.00  0.00     0.006 A 
ENDBRANCH  51  65
BRANCH  52  73
ATOM     73  C   UNL A   1      40.936  27.655  28.055  1.00  0.00     0.057 A 
ATOM     74  C   UNL A   1      41.742  28.057  26.983  1.00  0.00     0.134 A 
ATOM     75  C   UNL A   1      40.223  26.459  27.916  1.00  0.00     0.134 A 
ATOM     76  F   UNL A   1      42.441  29.199  27.053  1.00  0.00    -0.206 F 
ATOM     77  C   UNL A   1      41.824  27.304  25.811  1.00  0.00     0.040 A 
ATOM     78  C   UNL A   1      40.312  25.686  26.757  1.00  0.00     0.040 A 
ATOM     79  F   UNL A   1      39.447  26.016  28.916  1.00  0.00    -0.206 F 
ATOM     80  C   UNL A   1      41.109  26.113  25.697  1.00  0.00     0.006 A 
ENDBRANCH  52  73
BRANCH  64  81
ATOM     81  C   UNL A   1      44.238  27.696  34.198  1.00  0.00     0.057 A 
ATOM     82  C   UNL A   1      45.572  28.117  34.129  1.00  0.00     0.134 A 
ATOM     83  C   UNL A   1      43.983  26.437  34.756  1.00  0.00     0.134 A 
ATOM     84  F   UNL A   1      45.884  29.308  33.597  1.00  0.00    -0.206 F 
ATOM     85  C   UNL A   1      46.615  27.310  34.584  1.00  0.00     0.040 A 
ATOM     86  C   UNL A   1      45.016  25.631  35.235  1.00  0.00     0.040 A 
ATOM     87  F   UNL A   1      42.725  25.982  34.859  1.00  0.00    -0.206 F 
ATOM     88  C   UNL A   1      46.338  26.064  35.142  1.00  0.00     0.006 A 
ENDBRANCH  64  81
ENDBRANCH  38  39
ENDBRANCH  30  33
ENDBRANCH  28  29
ENDBRANCH  27  28
ENDBRANCH   1  27
TORSDOF 14
ENDMDL
MODEL 3
REMARK VINA RESULT:     -12.0      1.542      2.056
REMARK SMILES Cc1ccc(S(=O)(=O)Nc2cccc(F)c2C(=O)NCCCCNC(=O)c2ccc(-c3c4nc(c(-c5c(F)cccc5F)c5ccc([nH]5)c(-c5c(F)cccc5F)c5nc(c(-c6c(F)cccc6F)c6ccc3[nH]6)C=C5)C=C4)cc2)cc1Cl
REMARK SMILES IDX 21 1 20 2 19 3 17 4 18 5 16 7 10 8 11 9 12 10 14 11 13 12
REMARK SMILES IDX 15 13 9 14 6 16 7 17 8 18 5 19 1 20 2 21 3 22 82 23 4 24
REMARK SMILES IDX 81 25 83 26 22 27 23 28 24 29 25 30 26 32 27 33 28 34 80 35
REMARK SMILES IDX 29 36 79 37 30 38 31 39 32 40 73 41 33 42 78 43 72 44 74 45
REMARK SMILES IDX 34 46 77 47 71 48 70 49 35 51 61 52 44 53 60 54 45 55 48 56
REMARK SMILES IDX 59 57 75 58 46 59 47 60 58 62 76 63 49 64 36 65 37 66 42 67
REMARK SMILES IDX 38 68 39 69 41 70 43 71 40 72 62 73 63 74 68 75 64 76 65 77
REMARK SMILES IDX 67 78 69 79 66 80 50 81 51 82 56 83 52 84 53 85 55 86 57 87
REMARK SMILES IDX 54 88
REMARK H PARENT 19 6 9 15 24 31 74 50 48 61
REMARK Flexibility Score: inf
ROOT
ATOM      1  C   UNL A   1      38.653  22.594  26.122  1.00  0.00     0.023 C 
ENDROOT
BRANCH   1   2
ATOM      2  C   UNL A   1      37.738  23.696  25.604  1.00  0.00     0.116 C 
BRANCH   2   3
ATOM      3  N   UNL A   1      37.027  23.372  24.380  1.00  0.00    -0.352 N 
ATOM      4  C   UNL A   1      35.683  23.293  24.099  1.00  0.00     0.256 C 
ATOM      5  O   UNL A   1      35.363  23.075  22.928  1.00  0.00    -0.269 OA
ATOM      6  H   UNL A   1      37.612  23.172  23.614  1.00  0.00     0.163 HD
BRANCH   4   7
ATOM      7  C   UNL A   1      34.610  23.353  25.129  1.00  0.00     0.099 A 
ATOM      8  C   UNL A   1      33.663  24.406  25.100  1.00  0.00     0.065 A 
ATOM      9  C   UNL A   1      32.527  24.355  25.917  1.00  0.00     0.028 A 
ATOM     10  C   UNL A   1      32.415  23.362  26.889  1.00  0.00     0.005 A 
ATOM     11  C   UNL A   1      34.545  22.464  26.199  1.00  0.00     0.138 A 
ATOM     12  C   UNL A   1      33.453  22.451  27.065  1.00  0.00     0.040 A 
ATOM     13  F   UNL A   1      35.572  21.652  26.488  1.00  0.00    -0.206 F 
BRANCH   8  14
ATOM     14  N   UNL A   1      33.932  25.579  24.318  1.00  0.00    -0.279 N 
ATOM     15  H   UNL A   1      34.632  26.200  24.625  1.00  0.00     0.180 HD
BRANCH  14  16
ATOM     16  S   UNL A   1      33.095  25.940  22.893  1.00  0.00     0.261 S 
ATOM     17  O   UNL A   1      32.377  24.728  22.526  1.00  0.00    -0.201 OA
ATOM     18  O   UNL A   1      34.051  26.535  21.999  1.00  0.00    -0.201 OA
BRANCH  16  19
ATOM     19  C   UNL A   1      31.838  27.175  23.184  1.00  0.00     0.089 A 
ATOM     20  C   UNL A   1      29.306  30.649  23.601  1.00  0.00     0.046 C 
ATOM     21  C   UNL A   1      30.177  29.427  23.509  1.00  0.00    -0.032 A 
ATOM     22  C   UNL A   1      29.869  28.432  22.566  1.00  0.00     0.006 A 
ATOM     23  C   UNL A   1      31.267  29.217  24.365  1.00  0.00     0.045 A 
ATOM     24  C   UNL A   1      30.672  27.292  22.431  1.00  0.00     0.022 A 
ATOM     25  C   UNL A   1      32.108  28.117  24.186  1.00  0.00     0.043 A 
ATOM     26  Cl  UNL A   1      31.627  30.301  25.660  1.00  0.00    -0.084 Cl
ENDBRANCH  16  19
ENDBRANCH  14  16
ENDBRANCH   8  14
ENDBRANCH   4   7
ENDBRANCH   2   3
ENDBRANCH   1   2
BRANCH   1  27
ATOM     27  C   UNL A   1      38.742  21.315  25.295  1.00  0.00     0.023 C 
BRANCH  27  28
ATOM     28  C   UNL A   1      38.868  20.009  26.066  1.00  0.00     0.116 C 
BRANCH  28  29
ATOM     29  N   UNL A   1      40.081  19.261  25.777  1.00  0.00    -0.352 N 
ATOM     30  C   UNL A   1      41.399  19.605  25.956  1.00  0.00     0.251 C 
ATOM     31  H   UNL A   1      39.934  18.366  25.391  1.00  0.00     0.163 HD
ATOM     32  O   UNL A   1      42.282  18.835  25.585  1.00  0.00    -0.269 OA
BRANCH  30  33
ATOM     33  C   UNL A   1      41.771  20.908  26.554  1.00  0.00     0.039 A 
ATOM     34  C   UNL A   1      42.260  21.914  25.714  1.00  0.00     0.014 A 
ATOM     35  C   UNL A   1      41.656  21.147  27.925  1.00  0.00     0.014 A 
ATOM     36  C   UNL A   1      42.568  23.172  26.237  1.00  0.00     0.010 A 
ATOM     37  C   UNL A   1      41.882  22.425  28.432  1.00  0.00     0.010 A 
ATOM     38  C   UNL A   1      42.351  23.448  27.596  1.00  0.00    -0.014 A 
BRANCH  38  39
ATOM     39  C   UNL A   1      42.637  24.792  28.163  1.00  0.00     0.031 A 
ATOM     40  C   UNL A   1      44.035  25.150  28.587  1.00  0.00     0.074 A 
ATOM     41  C   UNL A   1      41.635  25.672  28.345  1.00  0.00     0.049 A 
ATOM     42  N   UNL A   1      44.476  26.250  29.143  1.00  0.00    -0.248 NA
ATOM     43  C   UNL A   1      45.072  24.124  28.390  1.00  0.00     0.031 C 
ATOM     44  C   UNL A   1      40.226  25.429  28.029  1.00  0.00     0.029 A 
ATOM     45  N   UNL A   1      41.648  26.952  28.843  1.00  0.00    -0.354 N 
ATOM     46  C   UNL A   1      45.828  26.039  29.380  1.00  0.00     0.074 A 
ATOM     47  C   UNL A   1      46.126  24.688  28.959  1.00  0.00     0.031 C 
ATOM     48  C   UNL A   1      39.517  26.535  28.308  1.00  0.00     0.029 A 
ATOM     49  C   UNL A   1      40.413  27.553  28.848  1.00  0.00     0.049 A 
ATOM     50  H   UNL A   1      42.465  27.395  29.167  1.00  0.00     0.167 HD
ATOM     51  C   UNL A   1      46.746  26.902  29.876  1.00  0.00     0.037 A 
ATOM     52  C   UNL A   1      40.046  28.790  29.233  1.00  0.00     0.037 A 
ATOM     53  C   UNL A   1      46.459  28.259  30.253  1.00  0.00     0.049 A 
ATOM     54  C   UNL A   1      41.088  29.746  29.740  1.00  0.00     0.074 A 
ATOM     55  C   UNL A   1      47.333  29.229  30.713  1.00  0.00     0.029 A 
ATOM     56  N   UNL A   1      45.202  28.843  30.205  1.00  0.00    -0.354 N 
ATOM     57  N   UNL A   1      42.374  29.551  29.908  1.00  0.00    -0.248 NA
ATOM     58  C   UNL A   1      40.633  31.098  30.097  1.00  0.00     0.031 C 
ATOM     59  C   UNL A   1      46.600  30.391  30.971  1.00  0.00     0.029 A 
ATOM     60  C   UNL A   1      45.277  30.159  30.632  1.00  0.00     0.049 A 
ATOM     61  H   UNL A   1      44.379  28.390  29.911  1.00  0.00     0.167 HD
ATOM     62  C   UNL A   1      42.886  30.760  30.363  1.00  0.00     0.074 A 
ATOM     63  C   UNL A   1      41.774  31.685  30.437  1.00  0.00     0.031 C 
ATOM     64  C   UNL A   1      44.164  31.071  30.687  1.00  0.00     0.037 A 
BRANCH  51  65
ATOM     65  C   UNL A   1      48.154  26.404  30.021  1.00  0.00     0.057 A 
ATOM     66  C   UNL A   1      48.584  25.805  31.211  1.00  0.00     0.134 A 
ATOM     67  C   UNL A   1      49.096  26.551  28.994  1.00  0.00     0.134 A 
ATOM     68  F   UNL A   1      47.734  25.639  32.237  1.00  0.00    -0.206 F 
ATOM     69  C   UNL A   1      49.901  25.370  31.376  1.00  0.00     0.040 A 
ATOM     70  C   UNL A   1      50.408  26.096  29.137  1.00  0.00     0.040 A 
ATOM     71  F   UNL A   1      48.745  27.105  27.824  1.00  0.00    -0.206 F 
ATOM     72  C   UNL A   1      50.815  25.511  30.334  1.00  0.00     0.006 A 
ENDBRANCH  51  65
BRANCH  52  73
ATOM     73  C   UNL A   1      38.629  29.210  29.092  1.00  0.00     0.057 A 
ATOM     74  C   UNL A   1      37.741  29.176  30.174  1.00  0.00     0.134 A 
ATOM     75  C   UNL A   1      38.126  29.626  27.854  1.00  0.00     0.134 A 
ATOM     76  F   UNL A   1      38.162  28.777  31.383  1.00  0.00    -0.206 F 
ATOM     77  C   UNL A   1      36.399  29.527  30.026  1.00  0.00     0.040 A 
ATOM     78  C   UNL A   1      36.790  29.999  27.697  1.00  0.00     0.040 A 
ATOM     79  F   UNL A   1      38.933  29.693  26.786  1.00  0.00    -0.206 F 
ATOM     80  C   UNL A   1      35.920  29.942  28.784  1.00  0.00     0.006 A 
ENDBRANCH  52  73
BRANCH  64  81
ATOM     81  C   UNL A   1      44.446  32.479  31.120  1.00  0.00     0.057 A 
ATOM     82  C   UNL A   1      44.356  32.839  32.471  1.00  0.00     0.134 A 
ATOM     83  C   UNL A   1      44.737  33.492  30.197  1.00  0.00     0.134 A 
ATOM     84  F   UNL A   1      44.071  31.917  33.403  1.00  0.00    -0.206 F 
ATOM     85  C   UNL A   1      44.534  34.159  32.887  1.00  0.00     0.040 A 
ATOM     86  C   UNL A   1      44.939  34.811  30.605  1.00  0.00     0.040 A 
ATOM     87  F   UNL A   1      44.846  33.209  28.890  1.00  0.00    -0.206 F 
ATOM     88  C   UNL A   1      44.829  35.149  31.952  1.00  0.00     0.006 A 
ENDBRANCH  64  81
ENDBRANCH  38  39
ENDBRANCH  30  33
ENDBRANCH  28  29
ENDBRANCH  27  28
ENDBRANCH   1  27
TORSDOF 14
ENDMDL
