MODEL 1
REMARK VINA RESULT:     -11.7      0.000      0.000
REMARK SMILES CC[C@@](C)([NH2+]CC(=O)N[C@@H](C)c1ccc(F)cc1)C(=O)NCCCCNC(=O)c1ccc(-c2c3nc(c(-c4c(F)cccc4F)c4ccc([nH]4)c(-c4c(F)cccc4F)c4nc(c(-c5c(F)cccc5F)c5ccc2[nH]5)C=C4)C=C3)cc1
REMARK SMILES IDX 22 1 21 2 19 3 20 4 3 6 4 7 2 8 1 9 5 10 6 13 7 14 8 15 9 16
REMARK SMILES IDX 10 18 11 19 12 20 13 21 18 22 14 23 17 24 15 25 16 26 23 27
REMARK SMILES IDX 24 28 25 29 26 30 27 31 28 33 29 34 30 35 82 36 31 37 81 38
REMARK SMILES IDX 32 39 33 40 34 41 75 42 35 43 80 44 74 45 76 46 36 47 79 48
REMARK SMILES IDX 73 49 72 50 37 52 63 53 46 54 62 55 47 56 50 57 61 58 77 59
REMARK SMILES IDX 48 60 49 61 60 63 78 64 51 65 38 66 39 67 44 68 40 69 41 70
REMARK SMILES IDX 43 71 45 72 42 73 64 74 65 75 70 76 66 77 67 78 69 79 71 80
REMARK SMILES IDX 68 81 52 82 53 83 58 84 54 85 55 86 57 87 59 88 56 89
REMARK H PARENT 21 5 5 11 5 12 9 17 26 32 76 51 50 62
REMARK Flexibility Score: inf
ROOT
ATOM      1  C   UNL A   1      33.013  29.753  25.756  1.00  0.00     0.116 C 
ENDROOT
BRANCH   1   2
ATOM      2  N   UNL A   1      32.412  29.712  24.428  1.00  0.00    -0.351 N 
ATOM      3  C   UNL A   1      31.204  29.061  24.185  1.00  0.00     0.281 C 
ATOM      4  O   UNL A   1      30.230  29.763  23.897  1.00  0.00    -0.268 OA
ATOM      5  H   UNL A   1      32.874  30.157  23.680  1.00  0.00     0.163 HD
BRANCH   3   6
ATOM      6  C   UNL A   1      31.168  27.466  24.087  1.00  0.00     0.172 C 
ATOM      7  C   UNL A   1      30.893  26.573  25.310  1.00  0.00     0.090 C 
BRANCH   6   8
ATOM      8  C   UNL A   1      29.893  27.226  23.182  1.00  0.00     0.075 C 
ATOM      9  C   UNL A   1      28.734  26.497  23.915  1.00  0.00     0.011 C 
ENDBRANCH   6   8
BRANCH   6  10
ATOM     10  N   UNL A   1      32.440  27.064  23.465  1.00  0.00    -0.326 N 
ATOM     11  H   UNL A   1      32.725  26.197  23.921  1.00  0.00     0.347 HD
ATOM     12  H   UNL A   1      33.027  27.888  23.594  1.00  0.00     0.347 HD
BRANCH  10  13
ATOM     13  C   UNL A   1      32.528  26.823  22.007  1.00  0.00     0.362 C 
BRANCH  13  14
ATOM     14  C   UNL A   1      32.797  25.461  21.289  1.00  0.00     0.275 C 
ATOM     15  O   UNL A   1      32.822  25.523  20.042  1.00  0.00    -0.268 OA
ATOM     16  N   UNL A   1      32.936  24.180  21.712  1.00  0.00    -0.345 N 
ATOM     17  H   UNL A   1      33.044  23.585  20.936  1.00  0.00     0.164 HD
BRANCH  16  18
ATOM     18  C   UNL A   1      32.976  23.389  22.953  1.00  0.00     0.109 C 
ATOM     19  C   UNL A   1      32.633  21.916  22.675  1.00  0.00     0.036 C 
BRANCH  18  20
ATOM     20  C   UNL A   1      34.306  23.520  23.717  1.00  0.00    -0.026 A 
ATOM     21  C   UNL A   1      35.505  22.986  23.192  1.00  0.00     0.009 A 
ATOM     22  C   UNL A   1      34.364  24.085  25.002  1.00  0.00     0.009 A 
ATOM     23  C   UNL A   1      36.709  23.045  23.900  1.00  0.00     0.039 A 
ATOM     24  C   UNL A   1      35.565  24.121  25.721  1.00  0.00     0.039 A 
ATOM     25  C   UNL A   1      36.728  23.608  25.163  1.00  0.00     0.123 A 
ATOM     26  F   UNL A   1      37.872  23.651  25.856  1.00  0.00    -0.207 F 
ENDBRANCH  18  20
ENDBRANCH  16  18
ENDBRANCH  13  14
ENDBRANCH  10  13
ENDBRANCH   6  10
ENDBRANCH   3   6
ENDBRANCH   1   2
BRANCH   1  27
ATOM     27  C   UNL A   1      32.113  30.206  26.908  1.00  0.00     0.023 C 
BRANCH  27  28
ATOM     28  C   UNL A   1      31.753  31.700  26.889  1.00  0.00     0.023 C 
BRANCH  28  29
ATOM     29  C   UNL A   1      32.838  32.690  27.325  1.00  0.00     0.116 C 
BRANCH  29  30
ATOM     30  N   UNL A   1      32.373  34.035  27.627  1.00  0.00    -0.352 N 
ATOM     31  C   UNL A   1      32.937  34.944  28.502  1.00  0.00     0.251 C 
ATOM     32  H   UNL A   1      31.564  34.334  27.153  1.00  0.00     0.163 HD
ATOM     33  O   UNL A   1      32.421  36.041  28.697  1.00  0.00    -0.269 OA
BRANCH  31  34
ATOM     34  C   UNL A   1      34.154  34.562  29.254  1.00  0.00     0.039 A 
ATOM     35  C   UNL A   1      34.019  34.035  30.541  1.00  0.00     0.014 A 
ATOM     36  C   UNL A   1      35.413  34.642  28.656  1.00  0.00     0.014 A 
ATOM     37  C   UNL A   1      35.134  33.489  31.182  1.00  0.00     0.010 A 
ATOM     38  C   UNL A   1      36.511  34.041  29.268  1.00  0.00     0.010 A 
ATOM     39  C   UNL A   1      36.377  33.436  30.528  1.00  0.00    -0.014 A 
BRANCH  39  40
ATOM     40  C   UNL A   1      37.527  32.703  31.119  1.00  0.00     0.031 A 
ATOM     41  C   UNL A   1      38.140  33.151  32.414  1.00  0.00     0.074 A 
ATOM     42  C   UNL A   1      38.068  31.666  30.448  1.00  0.00     0.049 A 
ATOM     43  N   UNL A   1      39.174  32.662  33.051  1.00  0.00    -0.248 NA
ATOM     44  C   UNL A   1      37.526  34.316  33.071  1.00  0.00     0.031 C 
ATOM     45  C   UNL A   1      37.605  31.162  29.152  1.00  0.00     0.029 A 
ATOM     46  N   UNL A   1      39.128  30.849  30.758  1.00  0.00    -0.354 N 
ATOM     47  C   UNL A   1      39.339  33.461  34.174  1.00  0.00     0.074 A 
ATOM     48  C   UNL A   1      38.331  34.498  34.106  1.00  0.00     0.031 C 
ATOM     49  C   UNL A   1      38.352  30.105  28.798  1.00  0.00     0.029 A 
ATOM     50  C   UNL A   1      39.369  29.875  29.820  1.00  0.00     0.049 A 
ATOM     51  H   UNL A   1      39.666  30.953  31.577  1.00  0.00     0.167 HD
ATOM     52  C   UNL A   1      40.232  33.329  35.183  1.00  0.00     0.037 A 
ATOM     53  C   UNL A   1      40.301  28.903  29.784  1.00  0.00     0.037 A 
ATOM     54  C   UNL A   1      41.217  32.282  35.266  1.00  0.00     0.049 A 
ATOM     55  C   UNL A   1      41.284  28.778  30.914  1.00  0.00     0.074 A 
ATOM     56  C   UNL A   1      42.122  32.032  36.282  1.00  0.00     0.029 A 
ATOM     57  N   UNL A   1      41.426  31.314  34.296  1.00  0.00    -0.354 N 
ATOM     58  N   UNL A   1      41.387  29.504  32.000  1.00  0.00    -0.248 NA
ATOM     59  C   UNL A   1      42.279  27.699  30.816  1.00  0.00     0.031 C 
ATOM     60  C   UNL A   1      42.906  30.937  35.911  1.00  0.00     0.029 A 
ATOM     61  C   UNL A   1      42.459  30.476  34.683  1.00  0.00     0.049 A 
ATOM     62  H   UNL A   1      40.916  31.233  33.458  1.00  0.00     0.167 HD
ATOM     63  C   UNL A   1      42.439  28.959  32.724  1.00  0.00     0.074 A 
ATOM     64  C   UNL A   1      42.938  27.834  31.959  1.00  0.00     0.031 C 
ATOM     65  C   UNL A   1      42.944  29.357  33.916  1.00  0.00     0.037 A 
BRANCH  52  66
ATOM     66  C   UNL A   1      40.175  34.333  36.296  1.00  0.00     0.057 A 
ATOM     67  C   UNL A   1      39.362  34.118  37.415  1.00  0.00     0.134 A 
ATOM     68  C   UNL A   1      40.882  35.541  36.230  1.00  0.00     0.134 A 
ATOM     69  F   UNL A   1      38.653  32.986  37.535  1.00  0.00    -0.206 F 
ATOM     70  C   UNL A   1      39.250  35.073  38.428  1.00  0.00     0.040 A 
ATOM     71  C   UNL A   1      40.798  36.491  37.248  1.00  0.00     0.040 A 
ATOM     72  F   UNL A   1      41.685  35.803  35.188  1.00  0.00    -0.206 F 
ATOM     73  C   UNL A   1      39.973  36.261  38.348  1.00  0.00     0.006 A 
ENDBRANCH  52  66
BRANCH  53  74
ATOM     74  C   UNL A   1      40.319  27.942  28.652  1.00  0.00     0.057 A 
ATOM     75  C   UNL A   1      39.654  26.713  28.721  1.00  0.00     0.134 A 
ATOM     76  C   UNL A   1      41.028  28.230  27.480  1.00  0.00     0.134 A 
ATOM     77  F   UNL A   1      38.963  26.378  29.820  1.00  0.00    -0.206 F 
ATOM     78  C   UNL A   1      39.705  25.796  27.670  1.00  0.00     0.040 A 
ATOM     79  C   UNL A   1      41.071  27.330  26.413  1.00  0.00     0.040 A 
ATOM     80  F   UNL A   1      41.669  29.399  27.349  1.00  0.00    -0.206 F 
ATOM     81  C   UNL A   1      40.414  26.105  26.511  1.00  0.00     0.006 A 
ENDBRANCH  53  74
BRANCH  65  82
ATOM     82  C   UNL A   1      44.085  28.569  34.489  1.00  0.00     0.057 A 
ATOM     83  C   UNL A   1      43.843  27.468  35.322  1.00  0.00     0.134 A 
ATOM     84  C   UNL A   1      45.416  28.948  34.284  1.00  0.00     0.134 A 
ATOM     85  F   UNL A   1      42.588  27.061  35.565  1.00  0.00    -0.206 F 
ATOM     86  C   UNL A   1      44.886  26.784  35.945  1.00  0.00     0.040 A 
ATOM     87  C   UNL A   1      46.470  28.256  34.884  1.00  0.00     0.040 A 
ATOM     88  F   UNL A   1      45.713  29.985  33.487  1.00  0.00    -0.206 F 
ATOM     89  C   UNL A   1      46.205  27.177  35.726  1.00  0.00     0.006 A 
ENDBRANCH  65  82
ENDBRANCH  39  40
ENDBRANCH  31  34
ENDBRANCH  29  30
ENDBRANCH  28  29
ENDBRANCH  27  28
ENDBRANCH   1  27
TORSDOF 17
ENDMDL
MODEL 2
REMARK VINA RESULT:     -11.7      1.117      6.202
REMARK SMILES CC[C@@](C)([NH2+]CC(=O)N[C@@H](C)c1ccc(F)cc1)C(=O)NCCCCNC(=O)c1ccc(-c2c3nc(c(-c4c(F)cccc4F)c4ccc([nH]4)c(-c4c(F)cccc4F)c4nc(c(-c5c(F)cccc5F)c5ccc2[nH]5)C=C4)C=C3)cc1
REMARK SMILES IDX 22 1 21 2 19 3 20 4 3 6 4 7 2 8 1 9 5 10 6 13 7 14 8 15 9 16
REMARK SMILES IDX 10 18 11 19 12 20 13 21 18 22 14 23 17 24 15 25 16 26 23 27
REMARK SMILES IDX 24 28 25 29 26 30 27 31 28 33 29 34 30 35 82 36 31 37 81 38
REMARK SMILES IDX 32 39 33 40 34 41 75 42 35 43 80 44 74 45 76 46 36 47 79 48
REMARK SMILES IDX 73 49 72 50 37 52 63 53 46 54 62 55 47 56 50 57 61 58 77 59
REMARK SMILES IDX 48 60 49 61 60 63 78 64 51 65 38 66 39 67 44 68 40 69 41 70
REMARK SMILES IDX 43 71 45 72 42 73 64 74 65 75 70 76 66 77 67 78 69 79 71 80
REMARK SMILES IDX 68 81 52 82 53 83 58 84 54 85 55 86 57 87 59 88 56 89
REMARK H PARENT 21 5 5 11 5 12 9 17 26 32 76 51 50 62
REMARK Flexibility Score: inf
ROOT
ATOM      1  C   UNL A   1      32.974  29.809  25.928  1.00  0.00     0.116 C 
ENDROOT
BRANCH   1   2
ATOM      2  N   UNL A   1      32.668  29.681  24.508  1.00  0.00    -0.351 N 
ATOM      3  C   UNL A   1      31.594  28.918  24.051  1.00  0.00     0.281 C 
ATOM      4  O   UNL A   1      30.647  29.521  23.540  1.00  0.00    -0.268 OA
ATOM      5  H   UNL A   1      33.236  30.147  23.852  1.00  0.00     0.163 HD
BRANCH   3   6
ATOM      6  C   UNL A   1      31.713  27.324  24.018  1.00  0.00     0.172 C 
ATOM      7  C   UNL A   1      31.505  26.457  25.272  1.00  0.00     0.090 C 
BRANCH   6   8
ATOM      8  C   UNL A   1      30.480  26.928  23.108  1.00  0.00     0.075 C 
ATOM      9  C   UNL A   1      29.195  26.587  23.910  1.00  0.00     0.011 C 
ENDBRANCH   6   8
BRANCH   6  10
ATOM     10  N   UNL A   1      33.027  27.022  23.427  1.00  0.00    -0.326 N 
ATOM     11  H   UNL A   1      33.382  26.199  23.914  1.00  0.00     0.347 HD
ATOM     12  H   UNL A   1      33.533  27.900  23.537  1.00  0.00     0.347 HD
BRANCH  10  13
ATOM     13  C   UNL A   1      33.162  26.745  21.979  1.00  0.00     0.362 C 
BRANCH  13  14
ATOM     14  C   UNL A   1      33.011  25.363  21.263  1.00  0.00     0.275 C 
ATOM     15  O   UNL A   1      32.903  25.428  20.020  1.00  0.00    -0.268 OA
ATOM     16  N   UNL A   1      32.889  24.084  21.694  1.00  0.00    -0.345 N 
ATOM     17  H   UNL A   1      32.760  23.486  20.923  1.00  0.00     0.164 HD
BRANCH  16  18
ATOM     18  C   UNL A   1      32.887  23.296  22.937  1.00  0.00     0.109 C 
ATOM     19  C   UNL A   1      32.482  21.838  22.662  1.00  0.00     0.036 C 
BRANCH  18  20
ATOM     20  C   UNL A   1      34.215  23.372  23.711  1.00  0.00    -0.026 A 
ATOM     21  C   UNL A   1      34.278  23.949  25.001  1.00  0.00     0.009 A 
ATOM     22  C   UNL A   1      35.429  22.964  23.132  1.00  0.00     0.009 A 
ATOM     23  C   UNL A   1      35.486  24.078  25.692  1.00  0.00     0.039 A 
ATOM     24  C   UNL A   1      36.642  23.117  23.814  1.00  0.00     0.039 A 
ATOM     25  C   UNL A   1      36.660  23.665  25.088  1.00  0.00     0.123 A 
ATOM     26  F   UNL A   1      37.825  23.804  25.735  1.00  0.00    -0.207 F 
ENDBRANCH  18  20
ENDBRANCH  16  18
ENDBRANCH  13  14
ENDBRANCH  10  13
ENDBRANCH   6  10
ENDBRANCH   3   6
ENDBRANCH   1   2
BRANCH   1  27
ATOM     27  C   UNL A   1      31.796  30.074  26.869  1.00  0.00     0.023 C 
BRANCH  27  28
ATOM     28  C   UNL A   1      31.277  31.519  26.852  1.00  0.00     0.023 C 
BRANCH  28  29
ATOM     29  C   UNL A   1      32.280  32.623  26.502  1.00  0.00     0.116 C 
BRANCH  29  30
ATOM     30  N   UNL A   1      32.152  33.852  27.270  1.00  0.00    -0.352 N 
ATOM     31  C   UNL A   1      33.007  34.328  28.245  1.00  0.00     0.251 C 
ATOM     32  H   UNL A   1      31.366  34.411  27.071  1.00  0.00     0.163 HD
ATOM     33  O   UNL A   1      32.763  35.369  28.850  1.00  0.00    -0.269 OA
BRANCH  31  34
ATOM     34  C   UNL A   1      34.208  33.538  28.601  1.00  0.00     0.039 A 
ATOM     35  C   UNL A   1      35.460  34.157  28.577  1.00  0.00     0.014 A 
ATOM     36  C   UNL A   1      34.085  32.218  29.040  1.00  0.00     0.014 A 
ATOM     37  C   UNL A   1      36.570  33.486  29.097  1.00  0.00     0.010 A 
ATOM     38  C   UNL A   1      35.178  31.574  29.615  1.00  0.00     0.010 A 
ATOM     39  C   UNL A   1      36.427  32.211  29.672  1.00  0.00    -0.014 A 
BRANCH  39  40
ATOM     40  C   UNL A   1      37.555  31.559  30.388  1.00  0.00     0.031 A 
ATOM     41  C   UNL A   1      38.416  30.541  29.697  1.00  0.00     0.074 A 
ATOM     42  C   UNL A   1      37.762  31.835  31.691  1.00  0.00     0.049 A 
ATOM     43  N   UNL A   1      39.411  29.839  30.178  1.00  0.00    -0.248 NA
ATOM     44  C   UNL A   1      38.107  30.257  28.287  1.00  0.00     0.031 C 
ATOM     45  C   UNL A   1      36.963  32.763  32.497  1.00  0.00     0.029 A 
ATOM     46  N   UNL A   1      38.704  31.361  32.572  1.00  0.00    -0.354 N 
ATOM     47  C   UNL A   1      39.839  29.026  29.137  1.00  0.00     0.074 A 
ATOM     48  C   UNL A   1      38.964  29.285  28.013  1.00  0.00     0.031 C 
ATOM     49  C   UNL A   1      37.470  32.816  33.738  1.00  0.00     0.029 A 
ATOM     50  C   UNL A   1      38.605  31.902  33.831  1.00  0.00     0.049 A 
ATOM     51  H   UNL A   1      39.386  30.696  32.324  1.00  0.00     0.167 HD
ATOM     52  C   UNL A   1      40.881  28.162  29.112  1.00  0.00     0.037 A 
ATOM     53  C   UNL A   1      39.345  31.691  34.936  1.00  0.00     0.037 A 
ATOM     54  C   UNL A   1      41.768  27.924  30.219  1.00  0.00     0.049 A 
ATOM     55  C   UNL A   1      40.495  30.725  34.884  1.00  0.00     0.074 A 
ATOM     56  C   UNL A   1      42.888  27.113  30.265  1.00  0.00     0.029 A 
ATOM     57  N   UNL A   1      41.635  28.495  31.476  1.00  0.00    -0.354 N 
ATOM     58  N   UNL A   1      40.925  30.011  33.874  1.00  0.00    -0.248 NA
ATOM     59  C   UNL A   1      41.263  30.535  36.124  1.00  0.00     0.031 C 
ATOM     60  C   UNL A   1      43.412  27.162  31.560  1.00  0.00     0.029 A 
ATOM     61  C   UNL A   1      42.644  28.038  32.309  1.00  0.00     0.049 A 
ATOM     62  H   UNL A   1      40.930  29.130  31.737  1.00  0.00     0.167 HD
ATOM     63  C   UNL A   1      42.024  29.306  34.346  1.00  0.00     0.074 A 
ATOM     64  C   UNL A   1      42.202  29.685  35.733  1.00  0.00     0.031 C 
ATOM     65  C   UNL A   1      42.814  28.425  33.686  1.00  0.00     0.037 A 
BRANCH  52  66
ATOM     66  C   UNL A   1      41.134  27.419  27.834  1.00  0.00     0.057 A 
ATOM     67  C   UNL A   1      41.920  27.980  26.820  1.00  0.00     0.134 A 
ATOM     68  C   UNL A   1      40.549  26.170  27.583  1.00  0.00     0.134 A 
ATOM     69  F   UNL A   1      42.502  29.177  26.993  1.00  0.00    -0.206 F 
ATOM     70  C   UNL A   1      42.112  27.328  25.601  1.00  0.00     0.040 A 
ATOM     71  C   UNL A   1      40.754  25.497  26.379  1.00  0.00     0.040 A 
ATOM     72  F   UNL A   1      39.792  25.575  28.517  1.00  0.00    -0.206 F 
ATOM     73  C   UNL A   1      41.532  26.081  25.379  1.00  0.00     0.006 A 
ENDBRANCH  52  66
BRANCH  53  74
ATOM     74  C   UNL A   1      39.044  32.447  36.178  1.00  0.00     0.057 A 
ATOM     75  C   UNL A   1      38.166  31.948  37.148  1.00  0.00     0.134 A 
ATOM     76  C   UNL A   1      39.616  33.704  36.408  1.00  0.00     0.134 A 
ATOM     77  F   UNL A   1      37.582  30.753  36.982  1.00  0.00    -0.206 F 
ATOM     78  C   UNL A   1      37.855  32.679  38.295  1.00  0.00     0.040 A 
ATOM     79  C   UNL A   1      39.329  34.437  37.562  1.00  0.00     0.040 A 
ATOM     80  F   UNL A   1      40.478  34.225  35.524  1.00  0.00    -0.206 F 
ATOM     81  C   UNL A   1      38.440  33.927  38.505  1.00  0.00     0.006 A 
ENDBRANCH  53  74
BRANCH  65  82
ATOM     82  C   UNL A   1      43.959  27.815  34.440  1.00  0.00     0.057 A 
ATOM     83  C   UNL A   1      43.788  26.617  35.147  1.00  0.00     0.134 A 
ATOM     84  C   UNL A   1      45.201  28.453  34.534  1.00  0.00     0.134 A 
ATOM     85  F   UNL A   1      42.619  25.961  35.104  1.00  0.00    -0.206 F 
ATOM     86  C   UNL A   1      44.809  26.086  35.936  1.00  0.00     0.040 A 
ATOM     87  C   UNL A   1      46.237  27.919  35.302  1.00  0.00     0.040 A 
ATOM     88  F   UNL A   1      45.429  29.596  33.870  1.00  0.00    -0.206 F 
ATOM     89  C   UNL A   1      46.038  26.737  36.014  1.00  0.00     0.006 A 
ENDBRANCH  65  82
ENDBRANCH  39  40
ENDBRANCH  31  34
ENDBRANCH  29  30
ENDBRANCH  28  29
ENDBRANCH  27  28
ENDBRANCH   1  27
TORSDOF 17
ENDMDL
MODEL 3
REMARK VINA RESULT:     -11.3      1.408      6.438
REMARK SMILES CC[C@@](C)([NH2+]CC(=O)N[C@@H](C)c1ccc(F)cc1)C(=O)NCCCCNC(=O)c1ccc(-c2c3nc(c(-c4c(F)cccc4F)c4ccc([nH]4)c(-c4c(F)cccc4F)c4nc(c(-c5c(F)cccc5F)c5ccc2[nH]5)C=C4)C=C3)cc1
REMARK SMILES IDX 22 1 21 2 19 3 20 4 3 6 4 7 2 8 1 9 5 10 6 13 7 14 8 15 9 16
REMARK SMILES IDX 10 18 11 19 12 20 13 21 18 22 14 23 17 24 15 25 16 26 23 27
REMARK SMILES IDX 24 28 25 29 26 30 27 31 28 33 29 34 30 35 82 36 31 37 81 38
REMARK SMILES IDX 32 39 33 40 34 41 75 42 35 43 80 44 74 45 76 46 36 47 79 48
REMARK SMILES IDX 73 49 72 50 37 52 63 53 46 54 62 55 47 56 50 57 61 58 77 59
REMARK SMILES IDX 48 60 49 61 60 63 78 64 51 65 38 66 39 67 44 68 40 69 41 70
REMARK SMILES IDX 43 71 45 72 42 73 64 74 65 75 70 76 66 77 67 78 69 79 71 80
REMARK SMILES IDX 68 81 52 82 53 83 58 84 54 85 55 86 57 87 59 88 56 89
REMARK H PARENT 21 5 5 11 5 12 9 17 26 32 76 51 50 62
REMARK Flexibility Score: inf
ROOT
ATOM      1  C   UNL A   1      33.436  29.791  26.386  1.00  0.00     0.116 C 
ENDROOT
BRANCH   1   2
ATOM      2  N   UNL A   1      33.508  29.518  24.955  1.00  0.00    -0.351 N 
ATOM      3  C   UNL A   1      32.693  28.567  24.344  1.00  0.00     0.281 C 
ATOM      4  O   UNL A   1      31.828  28.978  23.567  1.00  0.00    -0.268 OA
ATOM      5  H   UNL A   1      34.153  30.021  24.404  1.00  0.00     0.163 HD
BRANCH   3   6
ATOM      6  C   UNL A   1      33.030  27.013  24.507  1.00  0.00     0.172 C 
ATOM      7  C   UNL A   1      33.821  26.464  25.708  1.00  0.00     0.090 C 
BRANCH   6   8
ATOM      8  C   UNL A   1      31.590  26.392  24.721  1.00  0.00     0.075 C 
ATOM      9  C   UNL A   1      31.000  26.653  26.133  1.00  0.00     0.011 C 
ENDBRANCH   6   8
BRANCH   6  10
ATOM     10  N   UNL A   1      33.691  26.602  23.258  1.00  0.00    -0.326 N 
ATOM     11  H   UNL A   1      34.545  26.115  23.527  1.00  0.00     0.347 HD
ATOM     12  H   UNL A   1      33.781  27.482  22.749  1.00  0.00     0.347 HD
BRANCH  10  13
ATOM     13  C   UNL A   1      32.996  25.730  22.284  1.00  0.00     0.362 C 
BRANCH  13  14
ATOM     14  C   UNL A   1      33.410  24.288  21.844  1.00  0.00     0.275 C 
ATOM     15  O   UNL A   1      33.241  24.044  20.630  1.00  0.00    -0.268 OA
ATOM     16  N   UNL A   1      33.847  23.188  22.503  1.00  0.00    -0.345 N 
ATOM     17  H   UNL A   1      33.952  22.442  21.869  1.00  0.00     0.164 HD
BRANCH  16  18
ATOM     18  C   UNL A   1      34.216  22.743  23.857  1.00  0.00     0.109 C 
ATOM     19  C   UNL A   1      35.479  23.470  24.348  1.00  0.00     0.036 C 
BRANCH  18  20
ATOM     20  C   UNL A   1      33.067  22.865  24.873  1.00  0.00    -0.026 A 
ATOM     21  C   UNL A   1      33.328  23.026  26.254  1.00  0.00     0.009 A 
ATOM     22  C   UNL A   1      31.723  22.726  24.487  1.00  0.00     0.009 A 
ATOM     23  C   UNL A   1      32.297  23.081  27.196  1.00  0.00     0.039 A 
ATOM     24  C   UNL A   1      30.693  22.755  25.434  1.00  0.00     0.039 A 
ATOM     25  C   UNL A   1      30.986  22.939  26.778  1.00  0.00     0.123 A 
ATOM     26  F   UNL A   1      29.993  22.969  27.676  1.00  0.00    -0.207 F 
ENDBRANCH  18  20
ENDBRANCH  16  18
ENDBRANCH  13  14
ENDBRANCH  10  13
ENDBRANCH   6  10
ENDBRANCH   3   6
ENDBRANCH   1   2
BRANCH   1  27
ATOM     27  C   UNL A   1      32.077  30.228  26.940  1.00  0.00     0.023 C 
BRANCH  27  28
ATOM     28  C   UNL A   1      31.801  31.736  26.840  1.00  0.00     0.023 C 
BRANCH  28  29
ATOM     29  C   UNL A   1      32.818  32.682  27.488  1.00  0.00     0.116 C 
BRANCH  29  30
ATOM     30  N   UNL A   1      32.358  34.046  27.700  1.00  0.00    -0.352 N 
ATOM     31  C   UNL A   1      32.919  35.004  28.522  1.00  0.00     0.251 C 
ATOM     32  H   UNL A   1      31.556  34.318  27.199  1.00  0.00     0.163 HD
ATOM     33  O   UNL A   1      32.407  36.115  28.641  1.00  0.00    -0.269 OA
BRANCH  31  34
ATOM     34  C   UNL A   1      34.125  34.664  29.310  1.00  0.00     0.039 A 
ATOM     35  C   UNL A   1      33.978  34.295  30.649  1.00  0.00     0.014 A 
ATOM     36  C   UNL A   1      35.382  34.625  28.703  1.00  0.00     0.014 A 
ATOM     37  C   UNL A   1      35.077  33.783  31.346  1.00  0.00     0.010 A 
ATOM     38  C   UNL A   1      36.460  34.056  29.378  1.00  0.00     0.010 A 
ATOM     39  C   UNL A   1      36.312  33.606  30.699  1.00  0.00    -0.014 A 
BRANCH  39  40
ATOM     40  C   UNL A   1      37.437  32.901  31.368  1.00  0.00     0.031 A 
ATOM     41  C   UNL A   1      38.075  31.699  30.733  1.00  0.00     0.074 A 
ATOM     42  C   UNL A   1      37.840  33.305  32.590  1.00  0.00     0.049 A 
ATOM     43  N   UNL A   1      39.033  30.934  31.193  1.00  0.00    -0.248 NA
ATOM     44  C   UNL A   1      37.557  31.289  29.419  1.00  0.00     0.031 C 
ATOM     45  C   UNL A   1      37.267  34.423  33.343  1.00  0.00     0.029 A 
ATOM     46  N   UNL A   1      38.823  32.820  33.417  1.00  0.00    -0.354 N 
ATOM     47  C   UNL A   1      39.224  29.949  30.233  1.00  0.00     0.074 A 
ATOM     48  C   UNL A   1      38.250  30.184  29.188  1.00  0.00     0.031 C 
ATOM     49  C   UNL A   1      37.931  34.560  34.502  1.00  0.00     0.029 A 
ATOM     50  C   UNL A   1      38.951  33.519  34.593  1.00  0.00     0.049 A 
ATOM     51  H   UNL A   1      39.384  32.043  33.189  1.00  0.00     0.167 HD
ATOM     52  C   UNL A   1      40.144  28.956  30.212  1.00  0.00     0.037 A 
ATOM     53  C   UNL A   1      39.796  33.348  35.628  1.00  0.00     0.037 A 
ATOM     54  C   UNL A   1      41.131  28.738  31.236  1.00  0.00     0.049 A 
ATOM     55  C   UNL A   1      40.807  32.236  35.582  1.00  0.00     0.074 A 
ATOM     56  C   UNL A   1      42.143  27.795  31.269  1.00  0.00     0.029 A 
ATOM     57  N   UNL A   1      41.228  29.471  32.409  1.00  0.00    -0.354 N 
ATOM     58  N   UNL A   1      41.016  31.352  34.639  1.00  0.00    -0.248 NA
ATOM     59  C   UNL A   1      41.699  32.098  36.744  1.00  0.00     0.031 C 
ATOM     60  C   UNL A   1      42.829  27.931  32.478  1.00  0.00     0.029 A 
ATOM     61  C   UNL A   1      42.273  28.988  33.180  1.00  0.00     0.049 A 
ATOM     62  H   UNL A   1      40.643  30.223  32.657  1.00  0.00     0.167 HD
ATOM     63  C   UNL A   1      42.075  30.569  35.078  1.00  0.00     0.074 A 
ATOM     64  C   UNL A   1      42.472  31.087  36.371  1.00  0.00     0.031 C 
ATOM     65  C   UNL A   1      42.663  29.515  34.463  1.00  0.00     0.037 A 
BRANCH  52  66
ATOM     66  C   UNL A   1      40.141  28.034  29.029  1.00  0.00     0.057 A 
ATOM     67  C   UNL A   1      39.477  26.802  29.081  1.00  0.00     0.134 A 
ATOM     68  C   UNL A   1      40.847  28.340  27.858  1.00  0.00     0.134 A 
ATOM     69  F   UNL A   1      38.789  26.444  30.175  1.00  0.00    -0.206 F 
ATOM     70  C   UNL A   1      39.519  25.907  28.011  1.00  0.00     0.040 A 
ATOM     71  C   UNL A   1      40.875  27.464  26.773  1.00  0.00     0.040 A 
ATOM     72  F   UNL A   1      41.497  29.508  27.742  1.00  0.00    -0.206 F 
ATOM     73  C   UNL A   1      40.215  26.238  26.851  1.00  0.00     0.006 A 
ENDBRANCH  52  66
BRANCH  53  74
ATOM     74  C   UNL A   1      39.748  34.284  36.779  1.00  0.00     0.057 A 
ATOM     75  C   UNL A   1      40.440  35.500  36.768  1.00  0.00     0.134 A 
ATOM     76  C   UNL A   1      39.021  33.964  37.932  1.00  0.00     0.134 A 
ATOM     77  F   UNL A   1      41.159  35.860  35.695  1.00  0.00    -0.206 F 
ATOM     78  C   UNL A   1      40.424  36.359  37.868  1.00  0.00     0.040 A 
ATOM     79  C   UNL A   1      38.980  34.823  39.032  1.00  0.00     0.040 A 
ATOM     80  F   UNL A   1      38.323  32.821  37.994  1.00  0.00    -0.206 F 
ATOM     81  C   UNL A   1      39.690  36.021  39.004  1.00  0.00     0.006 A 
ENDBRANCH  53  74
BRANCH  65  82
ATOM     82  C   UNL A   1      43.814  28.853  35.162  1.00  0.00     0.057 A 
ATOM     83  C   UNL A   1      45.132  29.228  34.875  1.00  0.00     0.134 A 
ATOM     84  C   UNL A   1      43.620  27.791  36.053  1.00  0.00     0.134 A 
ATOM     85  F   UNL A   1      45.385  30.233  34.023  1.00  0.00    -0.206 F 
ATOM     86  C   UNL A   1      46.219  28.558  35.437  1.00  0.00     0.040 A 
ATOM     87  C   UNL A   1      44.700  27.127  36.640  1.00  0.00     0.040 A 
ATOM     88  F   UNL A   1      42.381  27.392  36.377  1.00  0.00    -0.206 F 
ATOM     89  C   UNL A   1      46.004  27.505  36.323  1.00  0.00     0.006 A 
ENDBRANCH  65  82
ENDBRANCH  39  40
ENDBRANCH  31  34
ENDBRANCH  29  30
ENDBRANCH  28  29
ENDBRANCH  27  28
ENDBRANCH   1  27
TORSDOF 17
ENDMDL
