MODEL 1
REMARK VINA RESULT:     -11.5      0.000      0.000
REMARK SMILES CCOc1cccc(-c2ccc([C@@H](C)C(=O)NCCCCNC(=O)c3ccc(-c4c5nc(c(-c6c(F)cccc6F)c6ccc([nH]6)c(-c6c(F)cccc6F)c6nc(c(-c7c(F)cccc7F)c7ccc4[nH]7)C=C6)C=C5)cc3)cc2F)c1
REMARK SMILES IDX 18 1 17 2 15 3 16 4 13 6 14 7 12 8 9 9 10 10 80 11 11 12
REMARK SMILES IDX 79 13 81 14 8 15 4 16 5 17 82 18 6 19 7 20 3 21 2 22 1 23
REMARK SMILES IDX 19 24 20 25 21 26 22 27 23 28 24 30 25 31 26 32 78 33 27 34
REMARK SMILES IDX 77 35 28 36 29 37 30 38 71 39 31 40 76 41 70 42 72 43 32 44
REMARK SMILES IDX 75 45 69 46 68 47 33 49 59 50 42 51 58 52 43 53 46 54 57 55
REMARK SMILES IDX 73 56 44 57 45 58 56 60 74 61 47 62 34 63 35 64 40 65 36 66
REMARK SMILES IDX 37 67 39 68 41 69 38 70 60 71 61 72 66 73 62 74 63 75 65 76
REMARK SMILES IDX 67 77 64 78 48 79 49 80 54 81 50 82 51 83 53 84 55 85 52 86
REMARK H PARENT 17 5 22 29 72 48 46 59
REMARK Flexibility Score: inf
ROOT
ATOM      1  C   UNL A   1      31.144  29.674  25.020  1.00  0.00     0.116 C 
ENDROOT
BRANCH   1   2
ATOM      2  N   UNL A   1      30.789  29.949  23.644  1.00  0.00    -0.356 N 
ATOM      3  C   UNL A   1      30.309  29.139  22.660  1.00  0.00     0.227 C 
ATOM      4  O   UNL A   1      30.185  29.652  21.541  1.00  0.00    -0.274 OA
ATOM      5  H   UNL A   1      30.918  30.885  23.371  1.00  0.00     0.163 HD
BRANCH   3   6
ATOM      6  C   UNL A   1      29.923  27.666  22.877  1.00  0.00     0.105 C 
ATOM      7  C   UNL A   1      28.577  27.466  23.569  1.00  0.00     0.023 C 
BRANCH   6   8
ATOM      8  C   UNL A   1      31.072  26.810  23.384  1.00  0.00    -0.033 A 
ATOM      9  C   UNL A   1      33.076  24.960  24.286  1.00  0.00     0.018 A 
ATOM     10  C   UNL A   1      33.274  25.782  23.163  1.00  0.00     0.012 A 
ATOM     11  C   UNL A   1      31.872  25.158  24.983  1.00  0.00     0.131 A 
ATOM     12  C   UNL A   1      32.309  26.712  22.742  1.00  0.00     0.005 A 
ATOM     13  C   UNL A   1      30.883  26.036  24.534  1.00  0.00     0.044 A 
ATOM     14  F   UNL A   1      31.616  24.494  26.120  1.00  0.00    -0.206 F 
BRANCH   9  15
ATOM     15  C   UNL A   1      34.063  23.912  24.663  1.00  0.00    -0.012 A 
ATOM     16  C   UNL A   1      34.701  21.549  24.791  1.00  0.00     0.119 A 
ATOM     17  C   UNL A   1      35.945  21.882  25.308  1.00  0.00     0.046 A 
ATOM     18  C   UNL A   1      33.774  22.546  24.489  1.00  0.00     0.055 A 
ATOM     19  C   UNL A   1      36.267  23.225  25.493  1.00  0.00     0.004 A 
ATOM     20  C   UNL A   1      35.336  24.224  25.178  1.00  0.00     0.009 A 
BRANCH  16  21
ATOM     21  O   UNL A   1      34.364  20.227  24.702  1.00  0.00    -0.494 OA
BRANCH  21  22
ATOM     22  C   UNL A   1      33.121  19.916  25.344  1.00  0.00     0.226 C 
ATOM     23  C   UNL A   1      32.891  18.416  25.445  1.00  0.00     0.049 C 
ENDBRANCH  21  22
ENDBRANCH  16  21
ENDBRANCH   9  15
ENDBRANCH   6   8
ENDBRANCH   3   6
ENDBRANCH   1   2
BRANCH   1  24
ATOM     24  C   UNL A   1      32.654  29.736  25.246  1.00  0.00     0.023 C 
BRANCH  24  25
ATOM     25  C   UNL A   1      33.259  28.498  25.904  1.00  0.00     0.023 C 
BRANCH  25  26
ATOM     26  C   UNL A   1      33.729  28.687  27.343  1.00  0.00     0.116 C 
BRANCH  26  27
ATOM     27  N   UNL A   1      33.752  30.076  27.784  1.00  0.00    -0.352 N 
ATOM     28  C   UNL A   1      34.805  30.782  28.319  1.00  0.00     0.251 C 
ATOM     29  H   UNL A   1      32.907  30.571  27.685  1.00  0.00     0.163 HD
ATOM     30  O   UNL A   1      34.651  31.931  28.710  1.00  0.00    -0.269 OA
BRANCH  28  31
ATOM     31  C   UNL A   1      36.115  30.114  28.464  1.00  0.00     0.039 A 
ATOM     32  C   UNL A   1      37.018  30.164  27.399  1.00  0.00     0.014 A 
ATOM     33  C   UNL A   1      36.473  29.505  29.670  1.00  0.00     0.014 A 
ATOM     34  C   UNL A   1      38.315  29.679  27.574  1.00  0.00     0.010 A 
ATOM     35  C   UNL A   1      37.784  29.088  29.865  1.00  0.00     0.010 A 
ATOM     36  C   UNL A   1      38.720  29.180  28.823  1.00  0.00    -0.014 A 
BRANCH  36  37
ATOM     37  C   UNL A   1      40.122  28.763  29.070  1.00  0.00     0.031 A 
ATOM     38  C   UNL A   1      41.089  29.717  29.711  1.00  0.00     0.074 A 
ATOM     39  C   UNL A   1      40.544  27.558  28.640  1.00  0.00     0.049 A 
ATOM     40  N   UNL A   1      42.372  29.577  29.921  1.00  0.00    -0.248 NA
ATOM     41  C   UNL A   1      40.546  31.016  30.141  1.00  0.00     0.031 C 
ATOM     42  C   UNL A   1      39.717  26.565  27.952  1.00  0.00     0.029 A 
ATOM     43  N   UNL A   1      41.783  26.970  28.705  1.00  0.00    -0.354 N 
ATOM     44  C   UNL A   1      42.793  30.772  30.488  1.00  0.00     0.074 A 
ATOM     45  C   UNL A   1      41.641  31.645  30.544  1.00  0.00     0.031 C 
ATOM     46  C   UNL A   1      40.464  25.484  27.678  1.00  0.00     0.029 A 
ATOM     47  C   UNL A   1      41.829  25.720  28.139  1.00  0.00     0.049 A 
ATOM     48  H   UNL A   1      42.564  27.404  29.118  1.00  0.00     0.167 HD
ATOM     49  C   UNL A   1      44.025  31.106  30.941  1.00  0.00     0.037 A 
ATOM     50  C   UNL A   1      42.858  24.863  28.002  1.00  0.00     0.037 A 
ATOM     51  C   UNL A   1      45.162  30.223  30.919  1.00  0.00     0.049 A 
ATOM     52  C   UNL A   1      44.211  25.248  28.533  1.00  0.00     0.074 A 
ATOM     53  C   UNL A   1      46.432  30.442  31.419  1.00  0.00     0.029 A 
ATOM     54  N   UNL A   1      45.160  28.951  30.369  1.00  0.00    -0.354 N 
ATOM     55  N   UNL A   1      44.580  26.357  29.126  1.00  0.00    -0.248 NA
ATOM     56  C   UNL A   1      45.288  24.261  28.378  1.00  0.00     0.031 C 
ATOM     57  C   UNL A   1      47.211  29.313  31.142  1.00  0.00     0.029 A 
ATOM     58  C   UNL A   1      46.413  28.377  30.503  1.00  0.00     0.049 A 
ATOM     59  H   UNL A   1      44.383  28.519  29.945  1.00  0.00     0.167 HD
ATOM     60  C   UNL A   1      45.923  26.193  29.436  1.00  0.00     0.074 A 
ATOM     61  C   UNL A   1      46.300  24.872  28.977  1.00  0.00     0.031 C 
ATOM     62  C   UNL A   1      46.769  27.058  30.046  1.00  0.00     0.037 A 
BRANCH  49  63
ATOM     63  C   UNL A   1      44.199  32.481  31.511  1.00  0.00     0.057 A 
ATOM     64  C   UNL A   1      44.056  32.735  32.882  1.00  0.00     0.134 A 
ATOM     65  C   UNL A   1      44.533  33.561  30.685  1.00  0.00     0.134 A 
ATOM     66  F   UNL A   1      43.722  31.746  33.724  1.00  0.00    -0.206 F 
ATOM     67  C   UNL A   1      44.214  34.018  33.407  1.00  0.00     0.040 A 
ATOM     68  C   UNL A   1      44.719  34.845  31.202  1.00  0.00     0.040 A 
ATOM     69  F   UNL A   1      44.688  33.387  29.364  1.00  0.00    -0.206 F 
ATOM     70  C   UNL A   1      44.552  35.076  32.567  1.00  0.00     0.006 A 
ENDBRANCH  49  63
BRANCH  50  71
ATOM     71  C   UNL A   1      42.645  23.541  27.362  1.00  0.00     0.057 A 
ATOM     72  C   UNL A   1      42.290  22.422  28.125  1.00  0.00     0.134 A 
ATOM     73  C   UNL A   1      42.795  23.362  25.982  1.00  0.00     0.134 A 
ATOM     74  F   UNL A   1      42.149  22.530  29.454  1.00  0.00    -0.206 F 
ATOM     75  C   UNL A   1      42.108  21.168  27.541  1.00  0.00     0.040 A 
ATOM     76  C   UNL A   1      42.595  22.118  25.382  1.00  0.00     0.040 A 
ATOM     77  F   UNL A   1      43.128  24.398  25.197  1.00  0.00    -0.206 F 
ATOM     78  C   UNL A   1      42.257  21.014  26.163  1.00  0.00     0.006 A 
ENDBRANCH  50  71
BRANCH  62  79
ATOM     79  C   UNL A   1      48.174  26.593  30.277  1.00  0.00     0.057 A 
ATOM     80  C   UNL A   1      48.529  25.863  31.419  1.00  0.00     0.134 A 
ATOM     81  C   UNL A   1      49.174  26.844  29.330  1.00  0.00     0.134 A 
ATOM     82  F   UNL A   1      47.618  25.602  32.368  1.00  0.00    -0.206 F 
ATOM     83  C   UNL A   1      49.835  25.414  31.618  1.00  0.00     0.040 A 
ATOM     84  C   UNL A   1      50.478  26.383  29.508  1.00  0.00     0.040 A 
ATOM     85  F   UNL A   1      48.895  27.533  28.212  1.00  0.00    -0.206 F 
ATOM     86  C   UNL A   1      50.812  25.669  30.657  1.00  0.00     0.006 A 
ENDBRANCH  62  79
ENDBRANCH  36  37
ENDBRANCH  28  31
ENDBRANCH  26  27
ENDBRANCH  25  26
ENDBRANCH  24  25
ENDBRANCH   1  24
TORSDOF 15
ENDMDL
MODEL 2
REMARK VINA RESULT:     -11.2      3.584      7.413
REMARK SMILES CCOc1cccc(-c2ccc([C@@H](C)C(=O)NCCCCNC(=O)c3ccc(-c4c5nc(c(-c6c(F)cccc6F)c6ccc([nH]6)c(-c6c(F)cccc6F)c6nc(c(-c7c(F)cccc7F)c7ccc4[nH]7)C=C6)C=C5)cc3)cc2F)c1
REMARK SMILES IDX 18 1 17 2 15 3 16 4 13 6 14 7 12 8 9 9 10 10 80 11 11 12
REMARK SMILES IDX 79 13 81 14 8 15 4 16 5 17 82 18 6 19 7 20 3 21 2 22 1 23
REMARK SMILES IDX 19 24 20 25 21 26 22 27 23 28 24 30 25 31 26 32 78 33 27 34
REMARK SMILES IDX 77 35 28 36 29 37 30 38 71 39 31 40 76 41 70 42 72 43 32 44
REMARK SMILES IDX 75 45 69 46 68 47 33 49 59 50 42 51 58 52 43 53 46 54 57 55
REMARK SMILES IDX 73 56 44 57 45 58 56 60 74 61 47 62 34 63 35 64 40 65 36 66
REMARK SMILES IDX 37 67 39 68 41 69 38 70 60 71 61 72 66 73 62 74 63 75 65 76
REMARK SMILES IDX 67 77 64 78 48 79 49 80 54 81 50 82 51 83 53 84 55 85 52 86
REMARK H PARENT 17 5 22 29 72 48 46 59
REMARK Flexibility Score: inf
ROOT
ATOM      1  C   UNL A   1      32.499  30.021  25.738  1.00  0.00     0.116 C 
ENDROOT
BRANCH   1   2
ATOM      2  N   UNL A   1      31.692  29.341  24.748  1.00  0.00    -0.356 N 
ATOM      3  C   UNL A   1      32.035  28.501  23.732  1.00  0.00     0.227 C 
ATOM      4  O   UNL A   1      31.115  28.143  22.986  1.00  0.00    -0.274 OA
ATOM      5  H   UNL A   1      30.727  29.516  24.822  1.00  0.00     0.163 HD
BRANCH   3   6
ATOM      6  C   UNL A   1      33.465  27.992  23.487  1.00  0.00     0.105 C 
ATOM      7  C   UNL A   1      34.083  28.468  22.175  1.00  0.00     0.023 C 
BRANCH   6   8
ATOM      8  C   UNL A   1      33.647  26.521  23.820  1.00  0.00    -0.033 A 
ATOM      9  C   UNL A   1      34.242  23.751  24.300  1.00  0.00     0.018 A 
ATOM     10  C   UNL A   1      34.181  24.691  25.344  1.00  0.00     0.012 A 
ATOM     11  C   UNL A   1      33.915  24.237  23.022  1.00  0.00     0.131 A 
ATOM     12  C   UNL A   1      33.856  26.038  25.115  1.00  0.00     0.005 A 
ATOM     13  C   UNL A   1      33.653  25.587  22.779  1.00  0.00     0.044 A 
ATOM     14  F   UNL A   1      33.853  23.411  21.966  1.00  0.00    -0.206 F 
BRANCH   9  15
ATOM     15  C   UNL A   1      34.683  22.351  24.542  1.00  0.00    -0.012 A 
ATOM     16  C   UNL A   1      34.173  19.955  24.647  1.00  0.00     0.119 A 
ATOM     17  C   UNL A   1      35.498  19.656  24.931  1.00  0.00     0.046 A 
ATOM     18  C   UNL A   1      33.772  21.280  24.470  1.00  0.00     0.055 A 
ATOM     19  C   UNL A   1      36.427  20.690  25.008  1.00  0.00     0.004 A 
ATOM     20  C   UNL A   1      36.022  22.019  24.820  1.00  0.00     0.009 A 
BRANCH  16  21
ATOM     21  O   UNL A   1      33.255  18.942  24.666  1.00  0.00    -0.494 OA
BRANCH  21  22
ATOM     22  C   UNL A   1      33.851  17.639  24.692  1.00  0.00     0.226 C 
ATOM     23  C   UNL A   1      33.877  16.996  23.314  1.00  0.00     0.049 C 
ENDBRANCH  21  22
ENDBRANCH  16  21
ENDBRANCH   9  15
ENDBRANCH   6   8
ENDBRANCH   3   6
ENDBRANCH   1   2
BRANCH   1  24
ATOM     24  C   UNL A   1      31.656  30.563  26.892  1.00  0.00     0.023 C 
BRANCH  24  25
ATOM     25  C   UNL A   1      31.352  32.058  26.824  1.00  0.00     0.023 C 
BRANCH  25  26
ATOM     26  C   UNL A   1      32.573  32.973  26.837  1.00  0.00     0.116 C 
BRANCH  26  27
ATOM     27  N   UNL A   1      32.401  34.182  27.631  1.00  0.00    -0.352 N 
ATOM     28  C   UNL A   1      33.168  34.624  28.685  1.00  0.00     0.251 C 
ATOM     29  H   UNL A   1      31.641  34.754  27.382  1.00  0.00     0.163 HD
ATOM     30  O   UNL A   1      32.856  35.633  29.304  1.00  0.00    -0.269 OA
BRANCH  28  31
ATOM     31  C   UNL A   1      34.349  33.835  29.093  1.00  0.00     0.039 A 
ATOM     32  C   UNL A   1      35.621  34.300  28.752  1.00  0.00     0.014 A 
ATOM     33  C   UNL A   1      34.199  32.682  29.868  1.00  0.00     0.014 A 
ATOM     34  C   UNL A   1      36.749  33.656  29.263  1.00  0.00     0.010 A 
ATOM     35  C   UNL A   1      35.320  32.085  30.433  1.00  0.00     0.010 A 
ATOM     36  C   UNL A   1      36.604  32.572  30.144  1.00  0.00    -0.014 A 
BRANCH  36  37
ATOM     37  C   UNL A   1      37.780  31.940  30.791  1.00  0.00     0.031 A 
ATOM     38  C   UNL A   1      38.552  30.872  30.071  1.00  0.00     0.074 A 
ATOM     39  C   UNL A   1      38.100  32.269  32.059  1.00  0.00     0.049 A 
ATOM     40  N   UNL A   1      39.543  30.136  30.503  1.00  0.00    -0.248 NA
ATOM     41  C   UNL A   1      38.130  30.568  28.694  1.00  0.00     0.031 C 
ATOM     42  C   UNL A   1      37.392  33.250  32.885  1.00  0.00     0.029 A 
ATOM     43  N   UNL A   1      39.094  31.800  32.880  1.00  0.00    -0.354 N 
ATOM     44  C   UNL A   1      39.849  29.269  29.461  1.00  0.00     0.074 A 
ATOM     45  C   UNL A   1      38.908  29.538  28.396  1.00  0.00     0.031 C 
ATOM     46  C   UNL A   1      37.988  33.324  34.086  1.00  0.00     0.029 A 
ATOM     47  C   UNL A   1      39.095  32.374  34.127  1.00  0.00     0.049 A 
ATOM     48  H   UNL A   1      39.745  31.116  32.600  1.00  0.00     0.167 HD
ATOM     49  C   UNL A   1      40.839  28.349  29.390  1.00  0.00     0.037 A 
ATOM     50  C   UNL A   1      39.897  32.156  35.186  1.00  0.00     0.037 A 
ATOM     51  C   UNL A   1      41.798  28.109  30.437  1.00  0.00     0.049 A 
ATOM     52  C   UNL A   1      41.001  31.143  35.075  1.00  0.00     0.074 A 
ATOM     53  C   UNL A   1      42.881  27.248  30.433  1.00  0.00     0.029 A 
ATOM     54  N   UNL A   1      41.787  28.736  31.673  1.00  0.00    -0.354 N 
ATOM     55  N   UNL A   1      41.321  30.377  34.060  1.00  0.00    -0.248 NA
ATOM     56  C   UNL A   1      41.859  30.966  36.255  1.00  0.00     0.031 C 
ATOM     57  C   UNL A   1      43.509  27.331  31.681  1.00  0.00     0.029 A 
ATOM     58  C   UNL A   1      42.837  28.270  32.447  1.00  0.00     0.049 A 
ATOM     59  H   UNL A   1      41.131  29.412  31.959  1.00  0.00     0.167 HD
ATOM     60  C   UNL A   1      42.428  29.647  34.469  1.00  0.00     0.074 A 
ATOM     61  C   UNL A   1      42.734  30.071  35.820  1.00  0.00     0.031 C 
ATOM     62  C   UNL A   1      43.130  28.709  33.788  1.00  0.00     0.037 A 
BRANCH  49  63
ATOM     63  C   UNL A   1      40.939  27.542  28.131  1.00  0.00     0.057 A 
ATOM     64  C   UNL A   1      41.737  27.952  27.054  1.00  0.00     0.134 A 
ATOM     65  C   UNL A   1      40.248  26.332  27.999  1.00  0.00     0.134 A 
ATOM     66  F   UNL A   1      42.412  29.110  27.112  1.00  0.00    -0.206 F 
ATOM     67  C   UNL A   1      41.823  27.201  25.882  1.00  0.00     0.040 A 
ATOM     68  C   UNL A   1      40.346  25.558  26.841  1.00  0.00     0.040 A 
ATOM     69  F   UNL A   1      39.470  25.880  28.994  1.00  0.00    -0.206 F 
ATOM     70  C   UNL A   1      41.130  25.997  25.775  1.00  0.00     0.006 A 
ENDBRANCH  49  63
BRANCH  50  71
ATOM     71  C   UNL A   1      39.705  32.932  36.436  1.00  0.00     0.057 A 
ATOM     72  C   UNL A   1      40.460  34.082  36.690  1.00  0.00     0.134 A 
ATOM     73  C   UNL A   1      38.773  32.543  37.405  1.00  0.00     0.134 A 
ATOM     74  F   UNL A   1      41.381  34.493  35.806  1.00  0.00    -0.206 F 
ATOM     75  C   UNL A   1      40.308  34.811  37.870  1.00  0.00     0.040 A 
ATOM     76  C   UNL A   1      38.595  33.274  38.581  1.00  0.00     0.040 A 
ATOM     77  F   UNL A   1      38.014  31.453  37.216  1.00  0.00    -0.206 F 
ATOM     78  C   UNL A   1      39.369  34.408  38.819  1.00  0.00     0.006 A 
ENDBRANCH  50  71
BRANCH  62  79
ATOM     79  C   UNL A   1      44.311  28.101  34.480  1.00  0.00     0.057 A 
ATOM     80  C   UNL A   1      45.581  28.687  34.421  1.00  0.00     0.134 A 
ATOM     81  C   UNL A   1      44.167  26.937  35.246  1.00  0.00     0.134 A 
ATOM     82  F   UNL A   1      45.784  29.795  33.692  1.00  0.00    -0.206 F 
ATOM     83  C   UNL A   1      46.672  28.127  35.086  1.00  0.00     0.040 A 
ATOM     84  C   UNL A   1      45.246  26.380  35.933  1.00  0.00     0.040 A 
ATOM     85  F   UNL A   1      42.974  26.331  35.347  1.00  0.00    -0.206 F 
ATOM     86  C   UNL A   1      46.504  26.973  35.850  1.00  0.00     0.006 A 
ENDBRANCH  62  79
ENDBRANCH  36  37
ENDBRANCH  28  31
ENDBRANCH  26  27
ENDBRANCH  25  26
ENDBRANCH  24  25
ENDBRANCH   1  24
TORSDOF 15
ENDMDL
MODEL 3
REMARK VINA RESULT:     -11.2      2.664      7.221
REMARK SMILES CCOc1cccc(-c2ccc([C@@H](C)C(=O)NCCCCNC(=O)c3ccc(-c4c5nc(c(-c6c(F)cccc6F)c6ccc([nH]6)c(-c6c(F)cccc6F)c6nc(c(-c7c(F)cccc7F)c7ccc4[nH]7)C=C6)C=C5)cc3)cc2F)c1
REMARK SMILES IDX 18 1 17 2 15 3 16 4 13 6 14 7 12 8 9 9 10 10 80 11 11 12
REMARK SMILES IDX 79 13 81 14 8 15 4 16 5 17 82 18 6 19 7 20 3 21 2 22 1 23
REMARK SMILES IDX 19 24 20 25 21 26 22 27 23 28 24 30 25 31 26 32 78 33 27 34
REMARK SMILES IDX 77 35 28 36 29 37 30 38 71 39 31 40 76 41 70 42 72 43 32 44
REMARK SMILES IDX 75 45 69 46 68 47 33 49 59 50 42 51 58 52 43 53 46 54 57 55
REMARK SMILES IDX 73 56 44 57 45 58 56 60 74 61 47 62 34 63 35 64 40 65 36 66
REMARK SMILES IDX 37 67 39 68 41 69 38 70 60 71 61 72 66 73 62 74 63 75 65 76
REMARK SMILES IDX 67 77 64 78 48 79 49 80 54 81 50 82 51 83 53 84 55 85 52 86
REMARK H PARENT 17 5 22 29 72 48 46 59
REMARK Flexibility Score: inf
ROOT
ATOM      1  C   UNL A   1      31.468  27.753  26.422  1.00  0.00     0.116 C 
ENDROOT
BRANCH   1   2
ATOM      2  N   UNL A   1      31.108  28.129  25.072  1.00  0.00    -0.356 N 
ATOM      3  C   UNL A   1      31.867  28.310  23.956  1.00  0.00     0.227 C 
ATOM      4  O   UNL A   1      31.275  28.725  22.952  1.00  0.00    -0.274 OA
ATOM      5  H   UNL A   1      30.145  28.281  24.936  1.00  0.00     0.163 HD
BRANCH   3   6
ATOM      6  C   UNL A   1      33.377  28.023  23.892  1.00  0.00     0.105 C 
ATOM      7  C   UNL A   1      34.089  28.673  22.708  1.00  0.00     0.023 C 
BRANCH   6   8
ATOM      8  C   UNL A   1      33.727  26.571  24.172  1.00  0.00    -0.033 A 
ATOM      9  C   UNL A   1      34.612  23.859  24.513  1.00  0.00     0.018 A 
ATOM     10  C   UNL A   1      34.637  24.788  25.568  1.00  0.00     0.012 A 
ATOM     11  C   UNL A   1      34.055  24.319  23.308  1.00  0.00     0.131 A 
ATOM     12  C   UNL A   1      34.171  26.104  25.412  1.00  0.00     0.005 A 
ATOM     13  C   UNL A   1      33.649  25.643  23.127  1.00  0.00     0.044 A 
ATOM     14  F   UNL A   1      33.898  23.493  22.261  1.00  0.00    -0.206 F 
BRANCH   9  15
ATOM     15  C   UNL A   1      35.198  22.500  24.664  1.00  0.00    -0.012 A 
ATOM     16  C   UNL A   1      34.913  20.066  24.750  1.00  0.00     0.119 A 
ATOM     17  C   UNL A   1      36.283  19.882  24.881  1.00  0.00     0.046 A 
ATOM     18  C   UNL A   1      34.382  21.353  24.658  1.00  0.00     0.055 A 
ATOM     19  C   UNL A   1      37.121  20.994  24.890  1.00  0.00     0.004 A 
ATOM     20  C   UNL A   1      36.584  22.284  24.787  1.00  0.00     0.009 A 
BRANCH  16  21
ATOM     21  O   UNL A   1      34.095  18.974  24.837  1.00  0.00    -0.494 OA
BRANCH  21  22
ATOM     22  C   UNL A   1      33.002  19.011  23.910  1.00  0.00     0.226 C 
ATOM     23  C   UNL A   1      32.851  17.700  23.155  1.00  0.00     0.049 C 
ENDBRANCH  21  22
ENDBRANCH  16  21
ENDBRANCH   9  15
ENDBRANCH   6   8
ENDBRANCH   3   6
ENDBRANCH   1   2
BRANCH   1  24
ATOM     24  C   UNL A   1      31.758  28.971  27.298  1.00  0.00     0.023 C 
BRANCH  24  25
ATOM     25  C   UNL A   1      31.798  30.305  26.557  1.00  0.00     0.023 C 
BRANCH  25  26
ATOM     26  C   UNL A   1      32.876  31.279  27.023  1.00  0.00     0.116 C 
BRANCH  26  27
ATOM     27  N   UNL A   1      32.378  32.614  27.330  1.00  0.00    -0.352 N 
ATOM     28  C   UNL A   1      32.984  33.597  28.079  1.00  0.00     0.251 C 
ATOM     29  H   UNL A   1      31.499  32.841  26.953  1.00  0.00     0.163 HD
ATOM     30  O   UNL A   1      32.407  34.651  28.308  1.00  0.00    -0.269 OA
BRANCH  28  31
ATOM     31  C   UNL A   1      34.324  33.341  28.648  1.00  0.00     0.039 A 
ATOM     32  C   UNL A   1      34.419  32.688  29.879  1.00  0.00     0.014 A 
ATOM     33  C   UNL A   1      35.475  33.682  27.934  1.00  0.00     0.014 A 
ATOM     34  C   UNL A   1      35.672  32.298  30.355  1.00  0.00     0.010 A 
ATOM     35  C   UNL A   1      36.714  33.230  28.374  1.00  0.00     0.010 A 
ATOM     36  C   UNL A   1      36.823  32.526  29.583  1.00  0.00    -0.014 A 
BRANCH  36  37
ATOM     37  C   UNL A   1      38.151  32.022  30.010  1.00  0.00     0.031 A 
ATOM     38  C   UNL A   1      38.656  30.703  29.498  1.00  0.00     0.074 A 
ATOM     39  C   UNL A   1      38.863  32.711  30.924  1.00  0.00     0.049 A 
ATOM     40  N   UNL A   1      39.740  30.050  29.826  1.00  0.00    -0.248 NA
ATOM     41  C   UNL A   1      37.812  30.012  28.510  1.00  0.00     0.031 C 
ATOM     42  C   UNL A   1      38.454  33.974  31.541  1.00  0.00     0.029 A 
ATOM     43  N   UNL A   1      40.075  32.435  31.506  1.00  0.00    -0.354 N 
ATOM     44  C   UNL A   1      39.699  28.865  29.103  1.00  0.00     0.074 A 
ATOM     45  C   UNL A   1      38.459  28.867  28.357  1.00  0.00     0.031 C 
ATOM     46  C   UNL A   1      39.408  34.374  32.397  1.00  0.00     0.029 A 
ATOM     47  C   UNL A   1      40.477  33.381  32.416  1.00  0.00     0.049 A 
ATOM     48  H   UNL A   1      40.605  31.634  31.290  1.00  0.00     0.167 HD
ATOM     49  C   UNL A   1      40.620  27.874  29.049  1.00  0.00     0.037 A 
ATOM     50  C   UNL A   1      41.582  33.438  33.183  1.00  0.00     0.037 A 
ATOM     51  C   UNL A   1      41.869  27.891  29.763  1.00  0.00     0.049 A 
ATOM     52  C   UNL A   1      42.599  32.336  33.089  1.00  0.00     0.074 A 
ATOM     53  C   UNL A   1      42.900  26.969  29.719  1.00  0.00     0.029 A 
ATOM     54  N   UNL A   1      42.256  28.884  30.649  1.00  0.00    -0.354 N 
ATOM     55  N   UNL A   1      42.578  31.253  32.351  1.00  0.00    -0.248 NA
ATOM     56  C   UNL A   1      43.796  32.466  33.931  1.00  0.00     0.031 C 
ATOM     57  C   UNL A   1      43.899  27.389  30.605  1.00  0.00     0.029 A 
ATOM     58  C   UNL A   1      43.505  28.591  31.171  1.00  0.00     0.049 A 
ATOM     59  H   UNL A   1      41.722  29.681  30.875  1.00  0.00     0.167 HD
ATOM     60  C   UNL A   1      43.765  30.586  32.622  1.00  0.00     0.074 A 
ATOM     61  C   UNL A   1      44.489  31.393  33.581  1.00  0.00     0.031 C 
ATOM     62  C   UNL A   1      44.214  29.410  32.121  1.00  0.00     0.037 A 
BRANCH  49  63
ATOM     63  C   UNL A   1      40.312  26.695  28.176  1.00  0.00     0.057 A 
ATOM     64  C   UNL A   1      40.878  26.554  26.901  1.00  0.00     0.134 A 
ATOM     65  C   UNL A   1      39.458  25.679  28.620  1.00  0.00     0.134 A 
ATOM     66  F   UNL A   1      41.692  27.500  26.412  1.00  0.00    -0.206 F 
ATOM     67  C   UNL A   1      40.584  25.458  26.091  1.00  0.00     0.040 A 
ATOM     68  C   UNL A   1      39.175  24.565  27.828  1.00  0.00     0.040 A 
ATOM     69  F   UNL A   1      38.886  25.751  29.831  1.00  0.00    -0.206 F 
ATOM     70  C   UNL A   1      39.735  24.456  26.556  1.00  0.00     0.006 A 
ENDBRANCH  49  63
BRANCH  50  71
ATOM     71  C   UNL A   1      41.800  34.595  34.086  1.00  0.00     0.057 A 
ATOM     72  C   UNL A   1      42.410  35.765  33.620  1.00  0.00     0.134 A 
ATOM     73  C   UNL A   1      41.414  34.558  35.431  1.00  0.00     0.134 A 
ATOM     74  F   UNL A   1      42.817  35.851  32.345  1.00  0.00    -0.206 F 
ATOM     75  C   UNL A   1      42.643  36.853  34.462  1.00  0.00     0.040 A 
ATOM     76  C   UNL A   1      41.622  35.647  36.280  1.00  0.00     0.040 A 
ATOM     77  F   UNL A   1      40.818  33.467  35.936  1.00  0.00    -0.206 F 
ATOM     78  C   UNL A   1      42.245  36.797  35.797  1.00  0.00     0.006 A 
ENDBRANCH  50  71
BRANCH  62  79
ATOM     79  C   UNL A   1      45.562  28.942  32.578  1.00  0.00     0.057 A 
ATOM     80  C   UNL A   1      46.736  29.322  31.916  1.00  0.00     0.134 A 
ATOM     81  C   UNL A   1      45.689  28.135  33.715  1.00  0.00     0.134 A 
ATOM     82  F   UNL A   1      46.679  30.083  30.813  1.00  0.00    -0.206 F 
ATOM     83  C   UNL A   1      47.990  28.900  32.360  1.00  0.00     0.040 A 
ATOM     84  C   UNL A   1      46.938  27.724  34.181  1.00  0.00     0.040 A 
ATOM     85  F   UNL A   1      44.602  27.742  34.396  1.00  0.00    -0.206 F 
ATOM     86  C   UNL A   1      48.093  28.104  33.500  1.00  0.00     0.006 A 
ENDBRANCH  62  79
ENDBRANCH  36  37
ENDBRANCH  28  31
ENDBRANCH  26  27
ENDBRANCH  25  26
ENDBRANCH  24  25
ENDBRANCH   1  24
TORSDOF 15
ENDMDL
