MODEL 1
REMARK VINA RESULT:     -12.3      0.000      0.000
REMARK SMILES O=C(NCCCCNC(=O)[C@@H]1CCCC[C@@H]1C(=O)Nc1nc(-c2ccc(Cl)c(Cl)c2)cs1)c1ccc(-c2c3nc(c(-c4c(F)cccc4F)c4ccc([nH]4)c(-c4c(F)cccc4F)c4nc(c(-c5c(F)cccc5F)c5ccc2[nH]5)C=C4)C=C3)cc1
REMARK SMILES IDX 6 1 5 2 4 3 3 4 1 5 2 6 33 8 34 9 86 10 35 11 85 12 36 13
REMARK SMILES IDX 37 14 38 15 79 16 39 17 84 18 78 19 80 20 40 21 83 22 77 23
REMARK SMILES IDX 76 24 41 26 67 27 50 28 66 29 51 30 54 31 65 32 81 33 52 34
REMARK SMILES IDX 53 35 64 37 82 38 55 39 42 40 43 41 48 42 44 43 45 44 47 45
REMARK SMILES IDX 49 46 46 47 68 48 69 49 74 50 70 51 71 52 73 53 75 54 72 55
REMARK SMILES IDX 56 56 57 57 62 58 58 59 59 60 61 61 63 62 60 63 7 64 8 65
REMARK SMILES IDX 9 66 10 68 11 69 12 70 16 71 13 72 15 73 14 74 17 75 18 76
REMARK SMILES IDX 19 77 20 79 21 80 32 81 22 82 31 83 23 84 24 85 30 86 25 87
REMARK SMILES IDX 28 88 26 89 29 90 27 91
REMARK H PARENT 3 7 80 25 54 36 8 67 19 78
REMARK Flexibility Score: inf
ROOT
ATOM      1  C   UNL A   1      33.911  27.781  24.540  1.00  0.00     0.023 C 
ENDROOT
BRANCH   1   2
ATOM      2  C   UNL A   1      33.280  28.641  25.638  1.00  0.00     0.023 C 
BRANCH   2   3
ATOM      3  C   UNL A   1      34.130  28.803  26.891  1.00  0.00     0.116 C 
BRANCH   3   4
ATOM      4  N   UNL A   1      33.924  30.084  27.549  1.00  0.00    -0.352 N 
ATOM      5  O   UNL A   1      34.360  31.727  29.035  1.00  0.00    -0.269 OA
ATOM      6  C   UNL A   1      34.758  30.745  28.417  1.00  0.00     0.251 C 
ATOM      7  H   UNL A   1      33.075  30.536  27.344  1.00  0.00     0.163 HD
BRANCH   6   8
ATOM      8  C   UNL A   1      36.137  30.252  28.614  1.00  0.00     0.039 A 
ATOM      9  C   UNL A   1      37.075  30.358  27.584  1.00  0.00     0.014 A 
ATOM     10  C   UNL A   1      36.500  29.692  29.840  1.00  0.00     0.014 A 
ATOM     11  C   UNL A   1      38.340  29.808  27.736  1.00  0.00     0.010 A 
ATOM     12  C   UNL A   1      37.800  29.211  30.022  1.00  0.00     0.010 A 
ATOM     13  C   UNL A   1      38.725  29.258  28.967  1.00  0.00    -0.014 A 
BRANCH  13  14
ATOM     14  C   UNL A   1      40.135  28.847  29.166  1.00  0.00     0.031 A 
ATOM     15  C   UNL A   1      41.151  29.794  29.732  1.00  0.00     0.074 A 
ATOM     16  C   UNL A   1      40.487  27.595  28.812  1.00  0.00     0.049 A 
ATOM     17  N   UNL A   1      42.433  29.605  29.920  1.00  0.00    -0.248 NA
ATOM     18  C   UNL A   1      40.675  31.126  30.137  1.00  0.00     0.031 C 
ATOM     19  C   UNL A   1      39.579  26.594  28.243  1.00  0.00     0.029 A 
ATOM     20  N   UNL A   1      41.695  26.950  28.870  1.00  0.00    -0.354 N 
ATOM     21  C   UNL A   1      42.922  30.797  30.439  1.00  0.00     0.074 A 
ATOM     22  C   UNL A   1      41.801  31.708  30.529  1.00  0.00     0.031 C 
ATOM     23  C   UNL A   1      40.256  25.461  28.018  1.00  0.00     0.029 A 
ATOM     24  C   UNL A   1      41.657  25.675  28.359  1.00  0.00     0.049 A 
ATOM     25  H   UNL A   1      42.509  27.359  29.241  1.00  0.00     0.167 HD
ATOM     26  C   UNL A   1      44.192  31.094  30.801  1.00  0.00     0.037 A 
ATOM     27  C   UNL A   1      42.647  24.790  28.141  1.00  0.00     0.037 A 
ATOM     28  C   UNL A   1      45.293  30.167  30.722  1.00  0.00     0.049 A 
ATOM     29  C   UNL A   1      44.050  25.170  28.511  1.00  0.00     0.074 A 
ATOM     30  C   UNL A   1      46.601  30.350  31.139  1.00  0.00     0.029 A 
ATOM     31  N   UNL A   1      45.221  28.893  30.177  1.00  0.00    -0.354 N 
ATOM     32  N   UNL A   1      44.487  26.274  29.067  1.00  0.00    -0.248 NA
ATOM     33  C   UNL A   1      45.103  24.189  28.214  1.00  0.00     0.031 C 
ATOM     34  C   UNL A   1      47.334  29.213  30.785  1.00  0.00     0.029 A 
ATOM     35  C   UNL A   1      46.472  28.299  30.202  1.00  0.00     0.049 A 
ATOM     36  H   UNL A   1      44.402  28.475  29.826  1.00  0.00     0.167 HD
ATOM     37  C   UNL A   1      45.859  26.116  29.198  1.00  0.00     0.074 A 
ATOM     38  C   UNL A   1      46.180  24.799  28.687  1.00  0.00     0.031 C 
ATOM     39  C   UNL A   1      46.773  26.987  29.688  1.00  0.00     0.037 A 
BRANCH  26  40
ATOM     40  C   UNL A   1      44.485  32.480  31.293  1.00  0.00     0.057 A 
ATOM     41  C   UNL A   1      44.462  32.810  32.653  1.00  0.00     0.134 A 
ATOM     42  C   UNL A   1      44.888  33.478  30.394  1.00  0.00     0.134 A 
ATOM     43  F   UNL A   1      44.080  31.904  33.566  1.00  0.00    -0.206 F 
ATOM     44  C   UNL A   1      44.822  34.083  33.101  1.00  0.00     0.040 A 
ATOM     45  C   UNL A   1      45.271  34.747  30.831  1.00  0.00     0.040 A 
ATOM     46  F   UNL A   1      44.940  33.226  29.077  1.00  0.00    -0.206 F 
ATOM     47  C   UNL A   1      45.238  35.052  32.190  1.00  0.00     0.006 A 
ENDBRANCH  26  40
BRANCH  27  48
ATOM     48  C   UNL A   1      42.351  23.487  27.495  1.00  0.00     0.057 A 
ATOM     49  C   UNL A   1      42.424  23.328  26.109  1.00  0.00     0.134 A 
ATOM     50  C   UNL A   1      41.972  22.371  28.254  1.00  0.00     0.134 A 
ATOM     51  F   UNL A   1      42.765  24.362  25.327  1.00  0.00    -0.206 F 
ATOM     52  C   UNL A   1      42.108  22.114  25.495  1.00  0.00     0.040 A 
ATOM     53  C   UNL A   1      41.684  21.143  27.658  1.00  0.00     0.040 A 
ATOM     54  F   UNL A   1      41.890  22.455  29.590  1.00  0.00    -0.206 F 
ATOM     55  C   UNL A   1      41.741  21.017  26.272  1.00  0.00     0.006 A 
ENDBRANCH  27  48
BRANCH  39  56
ATOM     56  C   UNL A   1      48.203  26.537  29.709  1.00  0.00     0.057 A 
ATOM     57  C   UNL A   1      49.083  26.836  28.661  1.00  0.00     0.134 A 
ATOM     58  C   UNL A   1      48.717  25.838  30.809  1.00  0.00     0.134 A 
ATOM     59  F   UNL A   1      48.646  27.486  27.572  1.00  0.00    -0.206 F 
ATOM     60  C   UNL A   1      50.421  26.441  28.699  1.00  0.00     0.040 A 
ATOM     61  C   UNL A   1      50.060  25.465  30.871  1.00  0.00     0.040 A 
ATOM     62  F   UNL A   1      47.928  25.527  31.848  1.00  0.00    -0.206 F 
ATOM     63  C   UNL A   1      50.915  25.762  29.811  1.00  0.00     0.006 A 
ENDBRANCH  39  56
ENDBRANCH  13  14
ENDBRANCH   6   8
ENDBRANCH   3   4
ENDBRANCH   2   3
ENDBRANCH   1   2
BRANCH   1  64
ATOM     64  C   UNL A   1      33.917  26.281  24.838  1.00  0.00     0.116 C 
BRANCH  64  65
ATOM     65  N   UNL A   1      33.750  25.504  23.623  1.00  0.00    -0.356 N 
ATOM     66  C   UNL A   1      34.302  24.318  23.245  1.00  0.00     0.223 C 
ATOM     67  H   UNL A   1      33.137  25.901  22.963  1.00  0.00     0.163 HD
ATOM     68  O   UNL A   1      34.079  23.924  22.100  1.00  0.00    -0.275 OA
BRANCH  66  69
ATOM     69  C   UNL A   1      35.124  23.510  24.237  1.00  0.00     0.091 C 
ATOM     70  C   UNL A   1      36.179  22.654  23.532  1.00  0.00     0.014 C 
ATOM     71  C   UNL A   1      34.209  22.700  25.166  1.00  0.00     0.091 C 
ATOM     72  C   UNL A   1      37.012  21.887  24.558  1.00  0.00     0.001 C 
ATOM     73  C   UNL A   1      35.026  21.829  26.137  1.00  0.00     0.014 C 
ATOM     74  C   UNL A   1      36.141  21.026  25.467  1.00  0.00     0.001 C 
BRANCH  71  75
ATOM     75  C   UNL A   1      33.192  21.811  24.434  1.00  0.00     0.230 C 
ATOM     76  O   UNL A   1      33.528  20.726  23.945  1.00  0.00    -0.274 OA
ATOM     77  N   UNL A   1      31.862  22.103  24.440  1.00  0.00    -0.302 N 
ATOM     78  H   UNL A   1      31.253  21.372  24.185  1.00  0.00     0.172 HD
BRANCH  77  79
ATOM     79  C   UNL A   1      31.281  23.289  24.761  1.00  0.00     0.189 A 
ATOM     80  N   UNL A   1      30.890  24.255  23.971  1.00  0.00    -0.220 NA
ATOM     81  S   UNL A   1      31.014  23.517  26.432  1.00  0.00    -0.105 S 
ATOM     82  C   UNL A   1      30.357  25.273  24.729  1.00  0.00     0.084 A 
ATOM     83  C   UNL A   1      30.396  25.086  26.097  1.00  0.00     0.097 A 
BRANCH  82  84
ATOM     84  C   UNL A   1      29.743  26.418  24.099  1.00  0.00     0.003 A 
ATOM     85  C   UNL A   1      28.350  26.532  24.116  1.00  0.00     0.012 A 
ATOM     86  C   UNL A   1      30.516  27.392  23.458  1.00  0.00     0.032 A 
ATOM     87  C   UNL A   1      27.731  27.627  23.516  1.00  0.00     0.023 A 
ATOM     88  C   UNL A   1      29.893  28.481  22.840  1.00  0.00     0.060 A 
ATOM     89  C   UNL A   1      28.498  28.600  22.870  1.00  0.00     0.059 A 
ATOM     90  Cl  UNL A   1      30.902  29.644  22.059  1.00  0.00    -0.083 Cl
ATOM     91  Cl  UNL A   1      27.657  29.915  22.131  1.00  0.00    -0.083 Cl
ENDBRANCH  82  84
ENDBRANCH  77  79
ENDBRANCH  71  75
ENDBRANCH  66  69
ENDBRANCH  64  65
ENDBRANCH   1  64
TORSDOF 14
ENDMDL
MODEL 2
REMARK VINA RESULT:     -12.1      1.946      2.648
REMARK SMILES O=C(NCCCCNC(=O)[C@@H]1CCCC[C@@H]1C(=O)Nc1nc(-c2ccc(Cl)c(Cl)c2)cs1)c1ccc(-c2c3nc(c(-c4c(F)cccc4F)c4ccc([nH]4)c(-c4c(F)cccc4F)c4nc(c(-c5c(F)cccc5F)c5ccc2[nH]5)C=C4)C=C3)cc1
REMARK SMILES IDX 6 1 5 2 4 3 3 4 1 5 2 6 33 8 34 9 86 10 35 11 85 12 36 13
REMARK SMILES IDX 37 14 38 15 79 16 39 17 84 18 78 19 80 20 40 21 83 22 77 23
REMARK SMILES IDX 76 24 41 26 67 27 50 28 66 29 51 30 54 31 65 32 81 33 52 34
REMARK SMILES IDX 53 35 64 37 82 38 55 39 42 40 43 41 48 42 44 43 45 44 47 45
REMARK SMILES IDX 49 46 46 47 68 48 69 49 74 50 70 51 71 52 73 53 75 54 72 55
REMARK SMILES IDX 56 56 57 57 62 58 58 59 59 60 61 61 63 62 60 63 7 64 8 65
REMARK SMILES IDX 9 66 10 68 11 69 12 70 16 71 13 72 15 73 14 74 17 75 18 76
REMARK SMILES IDX 19 77 20 79 21 80 32 81 22 82 31 83 23 84 24 85 30 86 25 87
REMARK SMILES IDX 28 88 26 89 29 90 27 91
REMARK H PARENT 3 7 80 25 54 36 8 67 19 78
REMARK Flexibility Score: inf
ROOT
ATOM      1  C   UNL A   1      33.363  26.538  25.534  1.00  0.00     0.023 C 
ENDROOT
BRANCH   1   2
ATOM      2  C   UNL A   1      33.235  27.793  26.401  1.00  0.00     0.023 C 
BRANCH   2   3
ATOM      3  C   UNL A   1      34.310  28.846  26.164  1.00  0.00     0.116 C 
BRANCH   3   4
ATOM      4  N   UNL A   1      33.942  30.152  26.685  1.00  0.00    -0.352 N 
ATOM      5  O   UNL A   1      33.979  31.865  28.157  1.00  0.00    -0.269 OA
ATOM      6  C   UNL A   1      34.522  30.859  27.711  1.00  0.00     0.251 C 
ATOM      7  H   UNL A   1      33.177  30.588  26.245  1.00  0.00     0.163 HD
BRANCH   6   8
ATOM      8  C   UNL A   1      35.799  30.388  28.284  1.00  0.00     0.039 A 
ATOM      9  C   UNL A   1      35.807  29.631  29.457  1.00  0.00     0.014 A 
ATOM     10  C   UNL A   1      36.999  30.694  27.638  1.00  0.00     0.014 A 
ATOM     11  C   UNL A   1      37.011  29.272  30.047  1.00  0.00     0.010 A 
ATOM     12  C   UNL A   1      38.209  30.263  28.188  1.00  0.00     0.010 A 
ATOM     13  C   UNL A   1      38.222  29.557  29.401  1.00  0.00    -0.014 A 
BRANCH  13  14
ATOM     14  C   UNL A   1      39.482  29.003  29.951  1.00  0.00     0.031 A 
ATOM     15  C   UNL A   1      40.128  29.594  31.169  1.00  0.00     0.074 A 
ATOM     16  C   UNL A   1      40.043  27.953  29.318  1.00  0.00     0.049 A 
ATOM     17  N   UNL A   1      41.256  29.258  31.744  1.00  0.00    -0.248 NA
ATOM     18  C   UNL A   1      39.427  30.707  31.828  1.00  0.00     0.031 C 
ATOM     19  C   UNL A   1      39.502  27.307  28.118  1.00  0.00     0.029 A 
ATOM     20  N   UNL A   1      41.189  27.250  29.584  1.00  0.00    -0.354 N 
ATOM     21  C   UNL A   1      41.414  30.130  32.813  1.00  0.00     0.074 A 
ATOM     22  C   UNL A   1      40.271  31.018  32.804  1.00  0.00     0.031 C 
ATOM     23  C   UNL A   1      40.304  26.295  27.763  1.00  0.00     0.029 A 
ATOM     24  C   UNL A   1      41.451  26.266  28.662  1.00  0.00     0.049 A 
ATOM     25  H   UNL A   1      41.766  27.431  30.360  1.00  0.00     0.167 HD
ATOM     26  C   UNL A   1      42.425  30.179  33.711  1.00  0.00     0.037 A 
ATOM     27  C   UNL A   1      42.519  25.460  28.523  1.00  0.00     0.037 A 
ATOM     28  C   UNL A   1      43.546  29.274  33.717  1.00  0.00     0.049 A 
ATOM     29  C   UNL A   1      43.643  25.573  29.510  1.00  0.00     0.074 A 
ATOM     30  C   UNL A   1      44.581  29.194  34.633  1.00  0.00     0.029 A 
ATOM     31  N   UNL A   1      43.789  28.306  32.753  1.00  0.00    -0.354 N 
ATOM     32  N   UNL A   1      43.746  26.353  30.558  1.00  0.00    -0.248 NA
ATOM     33  C   UNL A   1      44.807  24.703  29.292  1.00  0.00     0.031 C 
ATOM     34  C   UNL A   1      45.484  28.223  34.188  1.00  0.00     0.029 A 
ATOM     35  C   UNL A   1      44.983  27.659  33.026  1.00  0.00     0.049 A 
ATOM     36  H   UNL A   1      43.201  28.109  31.989  1.00  0.00     0.167 HD
ATOM     37  C   UNL A   1      44.976  26.061  31.130  1.00  0.00     0.074 A 
ATOM     38  C   UNL A   1      45.572  25.013  30.328  1.00  0.00     0.031 C 
ATOM     39  C   UNL A   1      45.562  26.618  32.216  1.00  0.00     0.037 A 
BRANCH  26  40
ATOM     40  C   UNL A   1      42.395  31.255  34.756  1.00  0.00     0.057 A 
ATOM     41  C   UNL A   1      42.938  32.526  34.534  1.00  0.00     0.134 A 
ATOM     42  C   UNL A   1      41.728  31.041  35.970  1.00  0.00     0.134 A 
ATOM     43  F   UNL A   1      43.594  32.796  33.396  1.00  0.00    -0.206 F 
ATOM     44  C   UNL A   1      42.825  33.544  35.485  1.00  0.00     0.040 A 
ATOM     45  C   UNL A   1      41.589  32.056  36.919  1.00  0.00     0.040 A 
ATOM     46  F   UNL A   1      41.178  29.848  36.243  1.00  0.00    -0.206 F 
ATOM     47  C   UNL A   1      42.139  33.312  36.676  1.00  0.00     0.006 A 
ENDBRANCH  26  40
BRANCH  27  48
ATOM     48  C   UNL A   1      42.597  24.518  27.378  1.00  0.00     0.057 A 
ATOM     49  C   UNL A   1      42.146  23.200  27.488  1.00  0.00     0.134 A 
ATOM     50  C   UNL A   1      43.140  24.915  26.148  1.00  0.00     0.134 A 
ATOM     51  F   UNL A   1      41.630  22.756  28.642  1.00  0.00    -0.206 F 
ATOM     52  C   UNL A   1      42.254  22.300  26.425  1.00  0.00     0.040 A 
ATOM     53  C   UNL A   1      43.225  24.037  25.068  1.00  0.00     0.040 A 
ATOM     54  F   UNL A   1      43.584  26.169  25.976  1.00  0.00    -0.206 F 
ATOM     55  C   UNL A   1      42.791  22.721  25.210  1.00  0.00     0.006 A 
ENDBRANCH  27  48
BRANCH  39  56
ATOM     56  C   UNL A   1      46.911  26.093  32.609  1.00  0.00     0.057 A 
ATOM     57  C   UNL A   1      48.092  26.645  32.097  1.00  0.00     0.134 A 
ATOM     58  C   UNL A   1      47.031  25.055  33.542  1.00  0.00     0.134 A 
ATOM     59  F   UNL A   1      48.043  27.628  31.185  1.00  0.00    -0.206 F 
ATOM     60  C   UNL A   1      49.346  26.173  32.488  1.00  0.00     0.040 A 
ATOM     61  C   UNL A   1      48.279  24.596  33.962  1.00  0.00     0.040 A 
ATOM     62  F   UNL A   1      45.939  24.488  34.075  1.00  0.00    -0.206 F 
ATOM     63  C   UNL A   1      49.442  25.152  33.431  1.00  0.00     0.006 A 
ENDBRANCH  39  56
ENDBRANCH  13  14
ENDBRANCH   6   8
ENDBRANCH   3   4
ENDBRANCH   2   3
ENDBRANCH   1   2
BRANCH   1  64
ATOM     64  C   UNL A   1      34.083  26.760  24.204  1.00  0.00     0.116 C 
BRANCH  64  65
ATOM     65  N   UNL A   1      33.670  25.780  23.215  1.00  0.00    -0.356 N 
ATOM     66  C   UNL A   1      34.068  24.492  23.021  1.00  0.00     0.223 C 
ATOM     67  H   UNL A   1      32.990  26.100  22.578  1.00  0.00     0.163 HD
ATOM     68  O   UNL A   1      33.638  23.906  22.027  1.00  0.00    -0.275 OA
BRANCH  66  69
ATOM     69  C   UNL A   1      34.976  23.815  24.036  1.00  0.00     0.091 C 
ATOM     70  C   UNL A   1      36.047  22.961  23.354  1.00  0.00     0.014 C 
ATOM     71  C   UNL A   1      34.147  23.038  25.070  1.00  0.00     0.091 C 
ATOM     72  C   UNL A   1      36.964  22.328  24.399  1.00  0.00     0.001 C 
ATOM     73  C   UNL A   1      35.054  22.295  26.069  1.00  0.00     0.014 C 
ATOM     74  C   UNL A   1      36.183  21.500  25.414  1.00  0.00     0.001 C 
BRANCH  71  75
ATOM     75  C   UNL A   1      33.153  22.037  24.460  1.00  0.00     0.230 C 
ATOM     76  O   UNL A   1      33.534  20.948  24.016  1.00  0.00    -0.274 OA
ATOM     77  N   UNL A   1      31.809  22.240  24.536  1.00  0.00    -0.302 N 
ATOM     78  H   UNL A   1      31.238  21.455  24.365  1.00  0.00     0.172 HD
BRANCH  77  79
ATOM     79  C   UNL A   1      31.166  23.403  24.822  1.00  0.00     0.189 A 
ATOM     80  N   UNL A   1      30.846  24.386  24.022  1.00  0.00    -0.220 NA
ATOM     81  S   UNL A   1      30.701  23.570  26.457  1.00  0.00    -0.105 S 
ATOM     82  C   UNL A   1      30.205  25.367  24.744  1.00  0.00     0.084 A 
ATOM     83  C   UNL A   1      30.089  25.136  26.101  1.00  0.00     0.097 A 
BRANCH  82  84
ATOM     84  C   UNL A   1      29.641  26.520  24.081  1.00  0.00     0.003 A 
ATOM     85  C   UNL A   1      28.252  26.673  24.058  1.00  0.00     0.012 A 
ATOM     86  C   UNL A   1      30.458  27.463  23.450  1.00  0.00     0.032 A 
ATOM     87  C   UNL A   1      27.681  27.776  23.426  1.00  0.00     0.023 A 
ATOM     88  C   UNL A   1      29.883  28.560  22.800  1.00  0.00     0.060 A 
ATOM     89  C   UNL A   1      28.492  28.718  22.789  1.00  0.00     0.059 A 
ATOM     90  Cl  UNL A   1      30.946  29.684  22.032  1.00  0.00    -0.083 Cl
ATOM     91  Cl  UNL A   1      27.709  30.045  22.009  1.00  0.00    -0.083 Cl
ENDBRANCH  82  84
ENDBRANCH  77  79
ENDBRANCH  71  75
ENDBRANCH  66  69
ENDBRANCH  64  65
ENDBRANCH   1  64
TORSDOF 14
ENDMDL
MODEL 3
REMARK VINA RESULT:     -11.9      3.418      8.016
REMARK SMILES O=C(NCCCCNC(=O)[C@@H]1CCCC[C@@H]1C(=O)Nc1nc(-c2ccc(Cl)c(Cl)c2)cs1)c1ccc(-c2c3nc(c(-c4c(F)cccc4F)c4ccc([nH]4)c(-c4c(F)cccc4F)c4nc(c(-c5c(F)cccc5F)c5ccc2[nH]5)C=C4)C=C3)cc1
REMARK SMILES IDX 6 1 5 2 4 3 3 4 1 5 2 6 33 8 34 9 86 10 35 11 85 12 36 13
REMARK SMILES IDX 37 14 38 15 79 16 39 17 84 18 78 19 80 20 40 21 83 22 77 23
REMARK SMILES IDX 76 24 41 26 67 27 50 28 66 29 51 30 54 31 65 32 81 33 52 34
REMARK SMILES IDX 53 35 64 37 82 38 55 39 42 40 43 41 48 42 44 43 45 44 47 45
REMARK SMILES IDX 49 46 46 47 68 48 69 49 74 50 70 51 71 52 73 53 75 54 72 55
REMARK SMILES IDX 56 56 57 57 62 58 58 59 59 60 61 61 63 62 60 63 7 64 8 65
REMARK SMILES IDX 9 66 10 68 11 69 12 70 16 71 13 72 15 73 14 74 17 75 18 76
REMARK SMILES IDX 19 77 20 79 21 80 32 81 22 82 31 83 23 84 24 85 30 86 25 87
REMARK SMILES IDX 28 88 26 89 29 90 27 91
REMARK H PARENT 3 7 80 25 54 36 8 67 19 78
REMARK Flexibility Score: inf
ROOT
ATOM      1  C   UNL A   1      34.519  24.468  25.222  1.00  0.00     0.023 C 
ENDROOT
BRANCH   1   2
ATOM      2  C   UNL A   1      35.629  23.457  24.921  1.00  0.00     0.023 C 
BRANCH   2   3
ATOM      3  C   UNL A   1      37.042  23.968  25.164  1.00  0.00     0.116 C 
BRANCH   3   4
ATOM      4  N   UNL A   1      37.977  22.905  25.495  1.00  0.00    -0.352 N 
ATOM      5  O   UNL A   1      39.931  22.034  26.216  1.00  0.00    -0.269 OA
ATOM      6  C   UNL A   1      39.163  22.990  26.182  1.00  0.00     0.251 C 
ATOM      7  H   UNL A   1      37.725  22.005  25.186  1.00  0.00     0.163 HD
BRANCH   6   8
ATOM      8  C   UNL A   1      39.515  24.251  26.866  1.00  0.00     0.039 A 
ATOM      9  C   UNL A   1      39.129  24.463  28.192  1.00  0.00     0.014 A 
ATOM     10  C   UNL A   1      40.248  25.224  26.184  1.00  0.00     0.014 A 
ATOM     11  C   UNL A   1      39.376  25.685  28.802  1.00  0.00     0.010 A 
ATOM     12  C   UNL A   1      40.568  26.423  26.825  1.00  0.00     0.010 A 
ATOM     13  C   UNL A   1      40.125  26.665  28.135  1.00  0.00    -0.014 A 
BRANCH  13  14
ATOM     14  C   UNL A   1      40.536  27.884  28.870  1.00  0.00     0.031 A 
ATOM     15  C   UNL A   1      41.898  28.001  29.488  1.00  0.00     0.074 A 
ATOM     16  C   UNL A   1      39.645  28.890  28.981  1.00  0.00     0.049 A 
ATOM     17  N   UNL A   1      42.391  28.979  30.206  1.00  0.00    -0.248 NA
ATOM     18  C   UNL A   1      42.827  26.880  29.282  1.00  0.00     0.031 C 
ATOM     19  C   UNL A   1      38.287  28.875  28.424  1.00  0.00     0.029 A 
ATOM     20  N   UNL A   1      39.736  30.109  29.598  1.00  0.00    -0.354 N 
ATOM     21  C   UNL A   1      43.675  28.583  30.558  1.00  0.00     0.074 A 
ATOM     22  C   UNL A   1      43.884  27.271  29.983  1.00  0.00     0.031 C 
ATOM     23  C   UNL A   1      37.681  30.035  28.712  1.00  0.00     0.029 A 
ATOM     24  C   UNL A   1      38.575  30.842  29.531  1.00  0.00     0.049 A 
ATOM     25  H   UNL A   1      40.552  30.430  30.044  1.00  0.00     0.167 HD
ATOM     26  C   UNL A   1      44.587  29.258  31.296  1.00  0.00     0.037 A 
ATOM     27  C   UNL A   1      38.247  32.014  30.106  1.00  0.00     0.037 A 
ATOM     28  C   UNL A   1      44.369  30.574  31.845  1.00  0.00     0.049 A 
ATOM     29  C   UNL A   1      39.266  32.713  30.957  1.00  0.00     0.074 A 
ATOM     30  C   UNL A   1      45.261  31.372  32.541  1.00  0.00     0.029 A 
ATOM     31  N   UNL A   1      43.173  31.273  31.777  1.00  0.00    -0.354 N 
ATOM     32  N   UNL A   1      40.501  32.361  31.222  1.00  0.00    -0.248 NA
ATOM     33  C   UNL A   1      38.847  33.966  31.598  1.00  0.00     0.031 C 
ATOM     34  C   UNL A   1      44.585  32.526  32.951  1.00  0.00     0.029 A 
ATOM     35  C   UNL A   1      43.290  32.472  32.461  1.00  0.00     0.049 A 
ATOM     36  H   UNL A   1      42.363  30.964  31.312  1.00  0.00     0.167 HD
ATOM     37  C   UNL A   1      41.009  33.352  32.049  1.00  0.00     0.074 A 
ATOM     38  C   UNL A   1      39.958  34.334  32.220  1.00  0.00     0.031 C 
ATOM     39  C   UNL A   1      42.233  33.437  32.623  1.00  0.00     0.037 A 
BRANCH  26  40
ATOM     40  C   UNL A   1      45.900  28.593  31.585  1.00  0.00     0.057 A 
ATOM     41  C   UNL A   1      46.086  27.758  32.693  1.00  0.00     0.134 A 
ATOM     42  C   UNL A   1      46.968  28.720  30.686  1.00  0.00     0.134 A 
ATOM     43  F   UNL A   1      45.106  27.598  33.595  1.00  0.00    -0.206 F 
ATOM     44  C   UNL A   1      47.288  27.078  32.900  1.00  0.00     0.040 A 
ATOM     45  C   UNL A   1      48.166  28.028  30.869  1.00  0.00     0.040 A 
ATOM     46  F   UNL A   1      46.854  29.498  29.599  1.00  0.00    -0.206 F 
ATOM     47  C   UNL A   1      48.328  27.204  31.981  1.00  0.00     0.006 A 
ENDBRANCH  26  40
BRANCH  27  48
ATOM     48  C   UNL A   1      36.880  32.567  29.939  1.00  0.00     0.057 A 
ATOM     49  C   UNL A   1      36.574  33.452  28.902  1.00  0.00     0.134 A 
ATOM     50  C   UNL A   1      35.848  32.232  30.827  1.00  0.00     0.134 A 
ATOM     51  F   UNL A   1      37.521  33.824  28.029  1.00  0.00    -0.206 F 
ATOM     52  C   UNL A   1      35.299  34.006  28.766  1.00  0.00     0.040 A 
ATOM     53  C   UNL A   1      34.562  32.751  30.685  1.00  0.00     0.040 A 
ATOM     54  F   UNL A   1      36.075  31.381  31.839  1.00  0.00    -0.206 F 
ATOM     55  C   UNL A   1      34.288  33.650  29.657  1.00  0.00     0.006 A 
ENDBRANCH  27  48
BRANCH  39  56
ATOM     56  C   UNL A   1      42.505  34.639  33.476  1.00  0.00     0.057 A 
ATOM     57  C   UNL A   1      42.991  35.834  32.930  1.00  0.00     0.134 A 
ATOM     58  C   UNL A   1      42.237  34.617  34.851  1.00  0.00     0.134 A 
ATOM     59  F   UNL A   1      43.286  35.913  31.623  1.00  0.00    -0.206 F 
ATOM     60  C   UNL A   1      43.215  36.960  33.723  1.00  0.00     0.040 A 
ATOM     61  C   UNL A   1      42.428  35.745  35.648  1.00  0.00     0.040 A 
ATOM     62  F   UNL A   1      41.764  33.506  35.435  1.00  0.00    -0.206 F 
ATOM     63  C   UNL A   1      42.924  36.920  35.085  1.00  0.00     0.006 A 
ENDBRANCH  39  56
ENDBRANCH  13  14
ENDBRANCH   6   8
ENDBRANCH   3   4
ENDBRANCH   2   3
ENDBRANCH   1   2
BRANCH   1  64
ATOM     64  C   UNL A   1      33.803  24.242  26.554  1.00  0.00     0.116 C 
BRANCH  64  65
ATOM     65  N   UNL A   1      32.365  24.379  26.406  1.00  0.00    -0.356 N 
ATOM     66  C   UNL A   1      31.580  25.491  26.351  1.00  0.00     0.223 C 
ATOM     67  H   UNL A   1      31.876  23.528  26.335  1.00  0.00     0.163 HD
ATOM     68  O   UNL A   1      30.360  25.327  26.334  1.00  0.00    -0.275 OA
BRANCH  66  69
ATOM     69  C   UNL A   1      32.217  26.869  26.269  1.00  0.00     0.091 C 
ATOM     70  C   UNL A   1      31.500  27.878  27.168  1.00  0.00     0.014 C 
ATOM     71  C   UNL A   1      32.327  27.330  24.808  1.00  0.00     0.091 C 
ATOM     72  C   UNL A   1      32.188  29.240  27.093  1.00  0.00     0.001 C 
ATOM     73  C   UNL A   1      32.914  28.750  24.711  1.00  0.00     0.014 C 
ATOM     74  C   UNL A   1      32.267  29.758  25.661  1.00  0.00     0.001 C 
BRANCH  71  75
ATOM     75  C   UNL A   1      31.002  27.283  24.030  1.00  0.00     0.230 C 
ATOM     76  O   UNL A   1      30.127  28.139  24.207  1.00  0.00    -0.274 OA
ATOM     77  N   UNL A   1      30.813  26.405  23.008  1.00  0.00    -0.302 N 
ATOM     78  H   UNL A   1      30.065  26.600  22.397  1.00  0.00     0.172 HD
BRANCH  77  79
ATOM     79  C   UNL A   1      31.539  25.289  22.734  1.00  0.00     0.189 A 
ATOM     80  N   UNL A   1      31.429  24.089  23.242  1.00  0.00    -0.220 NA
ATOM     81  S   UNL A   1      32.744  25.504  21.543  1.00  0.00    -0.105 S 
ATOM     82  C   UNL A   1      32.378  23.268  22.675  1.00  0.00     0.084 A 
ATOM     83  C   UNL A   1      33.233  23.872  21.774  1.00  0.00     0.097 A 
BRANCH  82  84
ATOM     84  C   UNL A   1      32.404  21.855  22.975  1.00  0.00     0.003 A 
ATOM     85  C   UNL A   1      32.055  20.947  21.971  1.00  0.00     0.012 A 
ATOM     86  C   UNL A   1      32.748  21.393  24.248  1.00  0.00     0.032 A 
ATOM     87  C   UNL A   1      32.072  19.578  22.233  1.00  0.00     0.023 A 
ATOM     88  C   UNL A   1      32.748  20.019  24.514  1.00  0.00     0.060 A 
ATOM     89  C   UNL A   1      32.410  19.109  23.505  1.00  0.00     0.059 A 
ATOM     90  Cl  UNL A   1      33.174  19.512  26.109  1.00  0.00    -0.083 Cl
ATOM     91  Cl  UNL A   1      32.387  17.401  23.757  1.00  0.00    -0.083 Cl
ENDBRANCH  82  84
ENDBRANCH  77  79
ENDBRANCH  71  75
ENDBRANCH  66  69
ENDBRANCH  64  65
ENDBRANCH   1  64
TORSDOF 14
ENDMDL
