MODEL 1
REMARK VINA RESULT:     -11.7      0.000      0.000
REMARK SMILES O=C(NCCCCNC(=O)[C@@H]1[C@H](C(=O)NCc2ccncc2)[C@H]2C=C[C@@H]1O2)c1ccc(-c2c3nc(c(-c4c(F)cccc4F)c4ccc([nH]4)c(-c4c(F)cccc4F)c4nc(c(-c5c(F)cccc5F)c5ccc2[nH]5)C=C4)C=C3)cc1
REMARK SMILES IDX 6 1 5 2 4 3 3 4 1 5 2 6 28 8 29 9 81 10 30 11 80 12 31 13
REMARK SMILES IDX 32 14 33 15 74 16 34 17 79 18 73 19 75 20 35 21 78 22 72 23
REMARK SMILES IDX 71 24 36 26 62 27 45 28 61 29 46 30 49 31 60 32 76 33 47 34
REMARK SMILES IDX 48 35 59 37 77 38 50 39 37 40 38 41 43 42 39 43 40 44 42 45
REMARK SMILES IDX 44 46 41 47 63 48 64 49 69 50 65 51 66 52 68 53 70 54 67 55
REMARK SMILES IDX 51 56 52 57 57 58 53 59 54 60 56 61 58 62 55 63 7 64 8 65
REMARK SMILES IDX 9 66 10 68 11 69 12 70 26 71 23 72 25 73 27 74 24 75 13 76
REMARK SMILES IDX 14 77 15 78 16 80 17 81 18 82 22 83 19 84 21 85 20 86
REMARK H PARENT 3 7 75 25 49 36 8 67 15 79
REMARK Flexibility Score: inf
ROOT
ATOM      1  C   UNL A   1      36.544  20.117  25.029  1.00  0.00     0.023 C 
ENDROOT
BRANCH   1   2
ATOM      2  C   UNL A   1      37.996  19.724  24.748  1.00  0.00     0.023 C 
BRANCH   2   3
ATOM      3  C   UNL A   1      38.994  20.092  25.842  1.00  0.00     0.116 C 
BRANCH   3   4
ATOM      4  N   UNL A   1      40.186  19.259  25.831  1.00  0.00    -0.352 N 
ATOM      5  O   UNL A   1      42.371  18.728  25.906  1.00  0.00    -0.269 OA
ATOM      6  C   UNL A   1      41.495  19.564  26.123  1.00  0.00     0.251 C 
ATOM      7  H   UNL A   1      40.031  18.322  25.571  1.00  0.00     0.163 HD
BRANCH   6   8
ATOM      8  C   UNL A   1      41.874  20.892  26.659  1.00  0.00     0.039 A 
ATOM      9  C   UNL A   1      41.946  21.128  28.031  1.00  0.00     0.014 A 
ATOM     10  C   UNL A   1      42.207  21.917  25.765  1.00  0.00     0.014 A 
ATOM     11  C   UNL A   1      42.172  22.417  28.505  1.00  0.00     0.010 A 
ATOM     12  C   UNL A   1      42.539  23.191  26.245  1.00  0.00     0.010 A 
ATOM     13  C   UNL A   1      42.489  23.462  27.619  1.00  0.00    -0.014 A 
BRANCH  13  14
ATOM     14  C   UNL A   1      42.830  24.798  28.179  1.00  0.00     0.031 A 
ATOM     15  C   UNL A   1      44.255  25.212  28.425  1.00  0.00     0.074 A 
ATOM     16  C   UNL A   1      41.829  25.669  28.416  1.00  0.00     0.049 A 
ATOM     17  N   UNL A   1      44.718  26.368  28.832  1.00  0.00    -0.248 NA
ATOM     18  C   UNL A   1      45.298  24.201  28.194  1.00  0.00     0.031 C 
ATOM     19  C   UNL A   1      40.403  25.375  28.251  1.00  0.00     0.029 A 
ATOM     20  N   UNL A   1      41.852  26.980  28.814  1.00  0.00    -0.354 N 
ATOM     21  C   UNL A   1      46.098  26.227  28.907  1.00  0.00     0.074 A 
ATOM     22  C   UNL A   1      46.397  24.858  28.541  1.00  0.00     0.031 C 
ATOM     23  C   UNL A   1      39.693  26.487  28.487  1.00  0.00     0.029 A 
ATOM     24  C   UNL A   1      40.606  27.557  28.873  1.00  0.00     0.049 A 
ATOM     25  H   UNL A   1      42.681  27.463  29.037  1.00  0.00     0.167 HD
ATOM     26  C   UNL A   1      47.028  27.155  29.236  1.00  0.00     0.037 A 
ATOM     27  C   UNL A   1      40.232  28.805  29.206  1.00  0.00     0.037 A 
ATOM     28  C   UNL A   1      46.729  28.519  29.595  1.00  0.00     0.049 A 
ATOM     29  C   UNL A   1      41.286  29.812  29.564  1.00  0.00     0.074 A 
ATOM     30  C   UNL A   1      47.607  29.537  29.933  1.00  0.00     0.029 A 
ATOM     31  N   UNL A   1      45.452  29.059  29.662  1.00  0.00    -0.354 N 
ATOM     32  N   UNL A   1      42.587  29.666  29.600  1.00  0.00    -0.248 NA
ATOM     33  C   UNL A   1      40.818  31.156  29.925  1.00  0.00     0.031 C 
ATOM     34  C   UNL A   1      46.860  30.680  30.239  1.00  0.00     0.029 A 
ATOM     35  C   UNL A   1      45.520  30.388  30.048  1.00  0.00     0.049 A 
ATOM     36  H   UNL A   1      44.621  28.569  29.464  1.00  0.00     0.167 HD
ATOM     37  C   UNL A   1      43.096  30.900  29.983  1.00  0.00     0.074 A 
ATOM     38  C   UNL A   1      41.963  31.790  30.131  1.00  0.00     0.031 C 
ATOM     39  C   UNL A   1      44.383  31.260  30.203  1.00  0.00     0.037 A 
BRANCH  26  40
ATOM     40  C   UNL A   1      48.470  26.734  29.223  1.00  0.00     0.057 A 
ATOM     41  C   UNL A   1      49.276  26.905  28.090  1.00  0.00     0.134 A 
ATOM     42  C   UNL A   1      49.077  26.215  30.375  1.00  0.00     0.134 A 
ATOM     43  F   UNL A   1      48.756  27.386  26.953  1.00  0.00    -0.206 F 
ATOM     44  C   UNL A   1      50.631  26.563  28.099  1.00  0.00     0.040 A 
ATOM     45  C   UNL A   1      50.435  25.891  30.402  1.00  0.00     0.040 A 
ATOM     46  F   UNL A   1      48.365  26.033  31.498  1.00  0.00    -0.206 F 
ATOM     47  C   UNL A   1      51.215  26.062  29.261  1.00  0.00     0.006 A 
ENDBRANCH  26  40
BRANCH  27  48
ATOM     48  C   UNL A   1      38.793  29.166  29.222  1.00  0.00     0.057 A 
ATOM     49  C   UNL A   1      38.033  29.083  30.394  1.00  0.00     0.134 A 
ATOM     50  C   UNL A   1      38.145  29.605  28.061  1.00  0.00     0.134 A 
ATOM     51  F   UNL A   1      38.593  28.653  31.534  1.00  0.00    -0.206 F 
ATOM     52  C   UNL A   1      36.674  29.403  30.406  1.00  0.00     0.040 A 
ATOM     53  C   UNL A   1      36.795  29.956  28.066  1.00  0.00     0.040 A 
ATOM     54  F   UNL A   1      38.821  29.714  26.908  1.00  0.00    -0.206 F 
ATOM     55  C   UNL A   1      36.054  29.848  29.241  1.00  0.00     0.006 A 
ENDBRANCH  27  48
BRANCH  39  56
ATOM     56  C   UNL A   1      44.623  32.681  30.619  1.00  0.00     0.057 A 
ATOM     57  C   UNL A   1      44.821  33.699  29.678  1.00  0.00     0.134 A 
ATOM     58  C   UNL A   1      44.658  33.035  31.973  1.00  0.00     0.134 A 
ATOM     59  F   UNL A   1      44.813  33.422  28.365  1.00  0.00    -0.206 F 
ATOM     60  C   UNL A   1      45.080  35.013  30.069  1.00  0.00     0.040 A 
ATOM     61  C   UNL A   1      44.891  34.350  32.376  1.00  0.00     0.040 A 
ATOM     62  F   UNL A   1      44.469  32.109  32.925  1.00  0.00    -0.206 F 
ATOM     63  C   UNL A   1      45.112  35.342  31.423  1.00  0.00     0.006 A 
ENDBRANCH  39  56
ENDBRANCH  13  14
ENDBRANCH   6   8
ENDBRANCH   3   4
ENDBRANCH   2   3
ENDBRANCH   1   2
BRANCH   1  64
ATOM     64  C   UNL A   1      36.278  21.618  25.153  1.00  0.00     0.116 C 
BRANCH  64  65
ATOM     65  N   UNL A   1      35.846  22.232  23.917  1.00  0.00    -0.356 N 
ATOM     66  C   UNL A   1      35.008  23.273  23.675  1.00  0.00     0.227 C 
ATOM     67  H   UNL A   1      36.226  21.822  23.107  1.00  0.00     0.163 HD
ATOM     68  O   UNL A   1      34.923  23.610  22.490  1.00  0.00    -0.275 OA
BRANCH  66  69
ATOM     69  C   UNL A   1      34.070  23.864  24.705  1.00  0.00     0.127 C 
ATOM     70  C   UNL A   1      32.764  23.045  24.963  1.00  0.00     0.127 C 
ATOM     71  C   UNL A   1      33.497  25.285  24.592  1.00  0.00     0.155 C 
ATOM     72  C   UNL A   1      31.703  24.146  25.058  1.00  0.00     0.155 C 
ATOM     73  C   UNL A   1      33.070  25.729  25.964  1.00  0.00     0.004 C 
ATOM     74  O   UNL A   1      32.183  25.051  24.031  1.00  0.00    -0.365 OA
ATOM     75  C   UNL A   1      31.970  25.018  26.255  1.00  0.00     0.004 C 
BRANCH  70  76
ATOM     76  C   UNL A   1      32.329  21.898  24.053  1.00  0.00     0.227 C 
ATOM     77  O   UNL A   1      31.833  22.187  22.953  1.00  0.00    -0.275 OA
ATOM     78  N   UNL A   1      32.478  20.574  24.289  1.00  0.00    -0.352 N 
ATOM     79  H   UNL A   1      32.055  20.013  23.600  1.00  0.00     0.163 HD
BRANCH  78  80
ATOM     80  C   UNL A   1      33.119  19.796  25.328  1.00  0.00     0.151 C 
BRANCH  80  81
ATOM     81  C   UNL A   1      33.188  18.332  24.970  1.00  0.00    -0.026 A 
ATOM     82  C   UNL A   1      32.513  17.394  25.755  1.00  0.00     0.025 A 
ATOM     83  C   UNL A   1      33.927  17.856  23.885  1.00  0.00     0.025 A 
ATOM     84  C   UNL A   1      32.630  16.046  25.469  1.00  0.00     0.111 A 
ATOM     85  C   UNL A   1      33.984  16.484  23.673  1.00  0.00     0.111 A 
ATOM     86  N   UNL A   1      33.372  15.566  24.455  1.00  0.00    -0.265 NA
ENDBRANCH  80  81
ENDBRANCH  78  80
ENDBRANCH  70  76
ENDBRANCH  66  69
ENDBRANCH  64  65
ENDBRANCH   1  64
TORSDOF 14
ENDMDL
MODEL 2
REMARK VINA RESULT:     -11.7      4.996      9.810
REMARK SMILES O=C(NCCCCNC(=O)[C@@H]1[C@H](C(=O)NCc2ccncc2)[C@H]2C=C[C@@H]1O2)c1ccc(-c2c3nc(c(-c4c(F)cccc4F)c4ccc([nH]4)c(-c4c(F)cccc4F)c4nc(c(-c5c(F)cccc5F)c5ccc2[nH]5)C=C4)C=C3)cc1
REMARK SMILES IDX 6 1 5 2 4 3 3 4 1 5 2 6 28 8 29 9 81 10 30 11 80 12 31 13
REMARK SMILES IDX 32 14 33 15 74 16 34 17 79 18 73 19 75 20 35 21 78 22 72 23
REMARK SMILES IDX 71 24 36 26 62 27 45 28 61 29 46 30 49 31 60 32 76 33 47 34
REMARK SMILES IDX 48 35 59 37 77 38 50 39 37 40 38 41 43 42 39 43 40 44 42 45
REMARK SMILES IDX 44 46 41 47 63 48 64 49 69 50 65 51 66 52 68 53 70 54 67 55
REMARK SMILES IDX 51 56 52 57 57 58 53 59 54 60 56 61 58 62 55 63 7 64 8 65
REMARK SMILES IDX 9 66 10 68 11 69 12 70 26 71 23 72 25 73 27 74 24 75 13 76
REMARK SMILES IDX 14 77 15 78 16 80 17 81 18 82 22 83 19 84 21 85 20 86
REMARK H PARENT 3 7 75 25 49 36 8 67 15 79
REMARK Flexibility Score: inf
ROOT
ATOM      1  C   UNL A   1      31.143  30.428  25.406  1.00  0.00     0.023 C 
ENDROOT
BRANCH   1   2
ATOM      2  C   UNL A   1      31.053  31.773  26.132  1.00  0.00     0.023 C 
BRANCH   2   3
ATOM      3  C   UNL A   1      32.341  32.240  26.802  1.00  0.00     0.116 C 
BRANCH   3   4
ATOM      4  N   UNL A   1      32.256  33.596  27.320  1.00  0.00    -0.352 N 
ATOM      5  O   UNL A   1      32.685  35.363  28.645  1.00  0.00    -0.269 OA
ATOM      6  C   UNL A   1      33.031  34.252  28.249  1.00  0.00     0.251 C 
ATOM      7  H   UNL A   1      31.521  34.134  26.945  1.00  0.00     0.163 HD
BRANCH   6   8
ATOM      8  C   UNL A   1      34.254  33.628  28.807  1.00  0.00     0.039 A 
ATOM      9  C   UNL A   1      34.195  32.449  29.548  1.00  0.00     0.014 A 
ATOM     10  C   UNL A   1      35.497  34.216  28.546  1.00  0.00     0.014 A 
ATOM     11  C   UNL A   1      35.339  31.961  30.171  1.00  0.00     0.010 A 
ATOM     12  C   UNL A   1      36.665  33.665  29.087  1.00  0.00     0.010 A 
ATOM     13  C   UNL A   1      36.593  32.551  29.935  1.00  0.00    -0.014 A 
BRANCH  13  14
ATOM     14  C   UNL A   1      37.804  31.929  30.536  1.00  0.00     0.031 A 
ATOM     15  C   UNL A   1      38.263  32.274  31.926  1.00  0.00     0.074 A 
ATOM     16  C   UNL A   1      38.465  30.994  29.824  1.00  0.00     0.049 A 
ATOM     17  N   UNL A   1      39.250  31.759  32.618  1.00  0.00    -0.248 NA
ATOM     18  C   UNL A   1      37.531  33.336  32.631  1.00  0.00     0.031 C 
ATOM     19  C   UNL A   1      38.139  30.596  28.452  1.00  0.00     0.029 A 
ATOM     20  N   UNL A   1      39.521  30.187  30.160  1.00  0.00    -0.354 N 
ATOM     21  C   UNL A   1      39.259  32.432  33.834  1.00  0.00     0.074 A 
ATOM     22  C   UNL A   1      38.202  33.421  33.772  1.00  0.00     0.031 C 
ATOM     23  C   UNL A   1      38.937  29.584  28.085  1.00  0.00     0.029 A 
ATOM     24  C   UNL A   1      39.866  29.297  29.172  1.00  0.00     0.049 A 
ATOM     25  H   UNL A   1      39.988  30.241  31.025  1.00  0.00     0.167 HD
ATOM     26  C   UNL A   1      40.063  32.232  34.906  1.00  0.00     0.037 A 
ATOM     27  C   UNL A   1      40.827  28.356  29.136  1.00  0.00     0.037 A 
ATOM     28  C   UNL A   1      41.110  31.243  34.969  1.00  0.00     0.049 A 
ATOM     29  C   UNL A   1      41.700  28.157  30.340  1.00  0.00     0.074 A 
ATOM     30  C   UNL A   1      41.969  30.959  36.018  1.00  0.00     0.029 A 
ATOM     31  N   UNL A   1      41.441  30.374  33.939  1.00  0.00    -0.354 N 
ATOM     32  N   UNL A   1      41.673  28.783  31.490  1.00  0.00    -0.248 NA
ATOM     33  C   UNL A   1      42.735  27.120  30.240  1.00  0.00     0.031 C 
ATOM     34  C   UNL A   1      42.842  29.944  35.611  1.00  0.00     0.029 A 
ATOM     35  C   UNL A   1      42.498  29.564  34.324  1.00  0.00     0.049 A 
ATOM     36  H   UNL A   1      40.990  30.337  33.064  1.00  0.00     0.167 HD
ATOM     37  C   UNL A   1      42.682  28.214  32.254  1.00  0.00     0.074 A 
ATOM     38  C   UNL A   1      43.278  27.168  31.448  1.00  0.00     0.031 C 
ATOM     39  C   UNL A   1      43.088  28.536  33.506  1.00  0.00     0.037 A 
BRANCH  26  40
ATOM     40  C   UNL A   1      39.844  33.100  36.113  1.00  0.00     0.057 A 
ATOM     41  C   UNL A   1      38.964  32.729  37.137  1.00  0.00     0.134 A 
ATOM     42  C   UNL A   1      40.573  34.285  36.287  1.00  0.00     0.134 A 
ATOM     43  F   UNL A   1      38.229  31.613  37.030  1.00  0.00    -0.206 F 
ATOM     44  C   UNL A   1      38.805  33.511  38.284  1.00  0.00     0.040 A 
ATOM     45  C   UNL A   1      40.439  35.062  37.438  1.00  0.00     0.040 A 
ATOM     46  F   UNL A   1      41.441  34.695  35.349  1.00  0.00    -0.206 F 
ATOM     47  C   UNL A   1      39.551  34.677  38.440  1.00  0.00     0.006 A 
ENDBRANCH  26  40
BRANCH  27  48
ATOM     48  C   UNL A   1      41.013  27.538  27.912  1.00  0.00     0.057 A 
ATOM     49  C   UNL A   1      41.811  27.982  26.851  1.00  0.00     0.134 A 
ATOM     50  C   UNL A   1      40.397  26.287  27.778  1.00  0.00     0.134 A 
ATOM     51  F   UNL A   1      42.413  29.179  26.914  1.00  0.00    -0.206 F 
ATOM     52  C   UNL A   1      41.971  27.222  25.692  1.00  0.00     0.040 A 
ATOM     53  C   UNL A   1      40.574  25.504  26.637  1.00  0.00     0.040 A 
ATOM     54  F   UNL A   1      39.628  25.801  28.763  1.00  0.00    -0.206 F 
ATOM     55  C   UNL A   1      41.357  25.976  25.586  1.00  0.00     0.006 A 
ENDBRANCH  27  48
BRANCH  39  56
ATOM     56  C   UNL A   1      44.224  27.736  34.072  1.00  0.00     0.057 A 
ATOM     57  C   UNL A   1      44.008  26.529  34.749  1.00  0.00     0.134 A 
ATOM     58  C   UNL A   1      45.546  28.177  33.941  1.00  0.00     0.134 A 
ATOM     59  F   UNL A   1      42.763  26.059  34.921  1.00  0.00    -0.206 F 
ATOM     60  C   UNL A   1      45.064  25.807  35.306  1.00  0.00     0.040 A 
ATOM     61  C   UNL A   1      46.613  27.451  34.471  1.00  0.00     0.040 A 
ATOM     62  F   UNL A   1      45.822  29.322  33.297  1.00  0.00    -0.206 F 
ATOM     63  C   UNL A   1      46.372  26.266  35.164  1.00  0.00     0.006 A 
ENDBRANCH  39  56
ENDBRANCH  13  14
ENDBRANCH   6   8
ENDBRANCH   3   4
ENDBRANCH   2   3
ENDBRANCH   1   2
BRANCH   1  64
ATOM     64  C   UNL A   1      32.471  29.684  25.558  1.00  0.00     0.116 C 
BRANCH  64  65
ATOM     65  N   UNL A   1      33.264  29.666  24.348  1.00  0.00    -0.356 N 
ATOM     66  C   UNL A   1      33.817  28.641  23.650  1.00  0.00     0.227 C 
ATOM     67  H   UNL A   1      33.433  30.556  23.963  1.00  0.00     0.163 HD
ATOM     68  O   UNL A   1      34.364  28.965  22.591  1.00  0.00    -0.275 OA
BRANCH  66  69
ATOM     69  C   UNL A   1      33.965  27.233  24.186  1.00  0.00     0.127 C 
ATOM     70  C   UNL A   1      33.458  26.103  23.233  1.00  0.00     0.127 C 
ATOM     71  C   UNL A   1      33.350  26.780  25.518  1.00  0.00     0.155 C 
ATOM     72  C   UNL A   1      32.741  25.158  24.203  1.00  0.00     0.155 C 
ATOM     73  C   UNL A   1      34.097  25.563  25.990  1.00  0.00     0.004 C 
ATOM     74  O   UNL A   1      32.130  26.124  25.095  1.00  0.00    -0.365 OA
ATOM     75  C   UNL A   1      33.729  24.565  25.171  1.00  0.00     0.004 C 
BRANCH  70  76
ATOM     76  C   UNL A   1      32.622  26.400  21.989  1.00  0.00     0.227 C 
ATOM     77  O   UNL A   1      33.111  26.126  20.883  1.00  0.00    -0.275 OA
ATOM     78  N   UNL A   1      31.359  26.885  21.957  1.00  0.00    -0.352 N 
ATOM     79  H   UNL A   1      31.044  27.071  21.044  1.00  0.00     0.163 HD
BRANCH  78  80
ATOM     80  C   UNL A   1      30.367  27.193  22.966  1.00  0.00     0.151 C 
BRANCH  80  81
ATOM     81  C   UNL A   1      29.616  28.461  22.642  1.00  0.00    -0.026 A 
ATOM     82  C   UNL A   1      28.280  28.593  23.028  1.00  0.00     0.025 A 
ATOM     83  C   UNL A   1      30.194  29.522  21.943  1.00  0.00     0.025 A 
ATOM     84  C   UNL A   1      27.569  29.725  22.674  1.00  0.00     0.111 A 
ATOM     85  C   UNL A   1      29.403  30.622  21.634  1.00  0.00     0.111 A 
ATOM     86  N   UNL A   1      28.097  30.737  21.963  1.00  0.00    -0.265 NA
ENDBRANCH  80  81
ENDBRANCH  78  80
ENDBRANCH  70  76
ENDBRANCH  66  69
ENDBRANCH  64  65
ENDBRANCH   1  64
TORSDOF 14
ENDMDL
MODEL 3
REMARK VINA RESULT:     -11.6      2.529      7.567
REMARK SMILES O=C(NCCCCNC(=O)[C@@H]1[C@H](C(=O)NCc2ccncc2)[C@H]2C=C[C@@H]1O2)c1ccc(-c2c3nc(c(-c4c(F)cccc4F)c4ccc([nH]4)c(-c4c(F)cccc4F)c4nc(c(-c5c(F)cccc5F)c5ccc2[nH]5)C=C4)C=C3)cc1
REMARK SMILES IDX 6 1 5 2 4 3 3 4 1 5 2 6 28 8 29 9 81 10 30 11 80 12 31 13
REMARK SMILES IDX 32 14 33 15 74 16 34 17 79 18 73 19 75 20 35 21 78 22 72 23
REMARK SMILES IDX 71 24 36 26 62 27 45 28 61 29 46 30 49 31 60 32 76 33 47 34
REMARK SMILES IDX 48 35 59 37 77 38 50 39 37 40 38 41 43 42 39 43 40 44 42 45
REMARK SMILES IDX 44 46 41 47 63 48 64 49 69 50 65 51 66 52 68 53 70 54 67 55
REMARK SMILES IDX 51 56 52 57 57 58 53 59 54 60 56 61 58 62 55 63 7 64 8 65
REMARK SMILES IDX 9 66 10 68 11 69 12 70 26 71 23 72 25 73 27 74 24 75 13 76
REMARK SMILES IDX 14 77 15 78 16 80 17 81 18 82 22 83 19 84 21 85 20 86
REMARK H PARENT 3 7 75 25 49 36 8 67 15 79
REMARK Flexibility Score: inf
ROOT
ATOM      1  C   UNL A   1      33.071  28.168  25.467  1.00  0.00     0.023 C 
ENDROOT
BRANCH   1   2
ATOM      2  C   UNL A   1      33.421  28.327  26.949  1.00  0.00     0.023 C 
BRANCH   2   3
ATOM      3  C   UNL A   1      34.782  28.955  27.233  1.00  0.00     0.116 C 
BRANCH   3   4
ATOM      4  N   UNL A   1      34.745  29.936  28.306  1.00  0.00    -0.352 N 
ATOM      5  O   UNL A   1      35.436  31.107  30.098  1.00  0.00    -0.269 OA
ATOM      6  C   UNL A   1      35.731  30.364  29.164  1.00  0.00     0.251 C 
ATOM      7  H   UNL A   1      33.869  30.365  28.440  1.00  0.00     0.163 HD
BRANCH   6   8
ATOM      8  C   UNL A   1      37.135  29.917  29.005  1.00  0.00     0.039 A 
ATOM      9  C   UNL A   1      37.804  30.040  27.788  1.00  0.00     0.014 A 
ATOM     10  C   UNL A   1      37.815  29.399  30.115  1.00  0.00     0.014 A 
ATOM     11  C   UNL A   1      39.073  29.491  27.632  1.00  0.00     0.010 A 
ATOM     12  C   UNL A   1      39.131  28.941  29.985  1.00  0.00     0.010 A 
ATOM     13  C   UNL A   1      39.762  28.950  28.732  1.00  0.00    -0.014 A 
BRANCH  13  14
ATOM     14  C   UNL A   1      41.158  28.474  28.540  1.00  0.00     0.031 A 
ATOM     15  C   UNL A   1      41.464  27.043  28.194  1.00  0.00     0.074 A 
ATOM     16  C   UNL A   1      42.160  29.371  28.630  1.00  0.00     0.049 A 
ATOM     17  N   UNL A   1      42.621  26.493  27.917  1.00  0.00    -0.248 NA
ATOM     18  C   UNL A   1      40.334  26.103  28.160  1.00  0.00     0.031 C 
ATOM     19  C   UNL A   1      41.995  30.781  28.994  1.00  0.00     0.029 A 
ATOM     20  N   UNL A   1      43.504  29.246  28.394  1.00  0.00    -0.354 N 
ATOM     21  C   UNL A   1      42.362  25.149  27.678  1.00  0.00     0.074 A 
ATOM     22  C   UNL A   1      40.940  24.956  27.880  1.00  0.00     0.031 C 
ATOM     23  C   UNL A   1      43.179  31.402  28.900  1.00  0.00     0.029 A 
ATOM     24  C   UNL A   1      44.195  30.426  28.523  1.00  0.00     0.049 A 
ATOM     25  H   UNL A   1      43.934  28.392  28.156  1.00  0.00     0.167 HD
ATOM     26  C   UNL A   1      43.225  24.172  27.309  1.00  0.00     0.037 A 
ATOM     27  C   UNL A   1      45.503  30.699  28.364  1.00  0.00     0.037 A 
ATOM     28  C   UNL A   1      44.638  24.367  27.102  1.00  0.00     0.049 A 
ATOM     29  C   UNL A   1      46.434  29.596  27.953  1.00  0.00     0.074 A 
ATOM     30  C   UNL A   1      45.591  23.438  26.716  1.00  0.00     0.029 A 
ATOM     31  N   UNL A   1      45.303  25.574  27.262  1.00  0.00    -0.354 N 
ATOM     32  N   UNL A   1      46.164  28.339  27.703  1.00  0.00    -0.248 NA
ATOM     33  C   UNL A   1      47.851  29.952  27.801  1.00  0.00     0.031 C 
ATOM     34  C   UNL A   1      46.837  24.074  26.678  1.00  0.00     0.029 A 
ATOM     35  C   UNL A   1      46.654  25.409  26.996  1.00  0.00     0.049 A 
ATOM     36  H   UNL A   1      44.878  26.422  27.526  1.00  0.00     0.167 HD
ATOM     37  C   UNL A   1      47.374  27.753  27.359  1.00  0.00     0.074 A 
ATOM     38  C   UNL A   1      48.372  28.802  27.398  1.00  0.00     0.031 C 
ATOM     39  C   UNL A   1      47.638  26.460  27.051  1.00  0.00     0.037 A 
BRANCH  26  40
ATOM     40  C   UNL A   1      42.669  22.792  27.099  1.00  0.00     0.057 A 
ATOM     41  C   UNL A   1      42.320  21.967  28.176  1.00  0.00     0.134 A 
ATOM     42  C   UNL A   1      42.415  22.309  25.808  1.00  0.00     0.134 A 
ATOM     43  F   UNL A   1      42.545  22.364  29.437  1.00  0.00    -0.206 F 
ATOM     44  C   UNL A   1      41.751  20.707  27.978  1.00  0.00     0.040 A 
ATOM     45  C   UNL A   1      41.826  21.061  25.598  1.00  0.00     0.040 A 
ATOM     46  F   UNL A   1      42.717  23.050  24.731  1.00  0.00    -0.206 F 
ATOM     47  C   UNL A   1      41.495  20.254  26.685  1.00  0.00     0.006 A 
ENDBRANCH  26  40
BRANCH  27  48
ATOM     48  C   UNL A   1      46.005  32.075  28.601  1.00  0.00     0.057 A 
ATOM     49  C   UNL A   1      46.411  32.494  29.874  1.00  0.00     0.134 A 
ATOM     50  C   UNL A   1      46.092  33.003  27.557  1.00  0.00     0.134 A 
ATOM     51  F   UNL A   1      46.335  31.656  30.918  1.00  0.00    -0.206 F 
ATOM     52  C   UNL A   1      46.864  33.794  30.102  1.00  0.00     0.040 A 
ATOM     53  C   UNL A   1      46.572  34.296  27.766  1.00  0.00     0.040 A 
ATOM     54  F   UNL A   1      45.727  32.659  26.313  1.00  0.00    -0.206 F 
ATOM     55  C   UNL A   1      46.952  34.697  29.045  1.00  0.00     0.006 A 
ENDBRANCH  27  48
BRANCH  39  56
ATOM     56  C   UNL A   1      49.062  26.123  26.725  1.00  0.00     0.057 A 
ATOM     57  C   UNL A   1      49.922  25.562  27.678  1.00  0.00     0.134 A 
ATOM     58  C   UNL A   1      49.581  26.362  25.446  1.00  0.00     0.134 A 
ATOM     59  F   UNL A   1      49.489  25.322  28.926  1.00  0.00    -0.206 F 
ATOM     60  C   UNL A   1      51.256  25.284  27.382  1.00  0.00     0.040 A 
ATOM     61  C   UNL A   1      50.907  26.065  25.131  1.00  0.00     0.040 A 
ATOM     62  F   UNL A   1      48.809  26.891  24.485  1.00  0.00    -0.206 F 
ATOM     63  C   UNL A   1      51.752  25.532  26.103  1.00  0.00     0.006 A 
ENDBRANCH  39  56
ENDBRANCH  13  14
ENDBRANCH   6   8
ENDBRANCH   3   4
ENDBRANCH   2   3
ENDBRANCH   1   2
BRANCH   1  64
ATOM     64  C   UNL A   1      33.549  26.872  24.810  1.00  0.00     0.116 C 
BRANCH  64  65
ATOM     65  N   UNL A   1      32.999  25.681  25.418  1.00  0.00    -0.356 N 
ATOM     66  C   UNL A   1      33.582  24.515  25.799  1.00  0.00     0.227 C 
ATOM     67  H   UNL A   1      32.030  25.722  25.586  1.00  0.00     0.163 HD
ATOM     68  O   UNL A   1      32.835  23.723  26.382  1.00  0.00    -0.275 OA
BRANCH  66  69
ATOM     69  C   UNL A   1      34.970  24.083  25.377  1.00  0.00     0.127 C 
ATOM     70  C   UNL A   1      35.059  23.411  23.969  1.00  0.00     0.127 C 
ATOM     71  C   UNL A   1      35.831  23.119  26.207  1.00  0.00     0.155 C 
ATOM     72  C   UNL A   1      36.032  22.255  24.220  1.00  0.00     0.155 C 
ATOM     73  C   UNL A   1      37.270  23.317  25.813  1.00  0.00     0.004 C 
ATOM     74  O   UNL A   1      35.608  21.850  25.547  1.00  0.00    -0.365 OA
ATOM     75  C   UNL A   1      37.390  22.794  24.583  1.00  0.00     0.004 C 
BRANCH  70  76
ATOM     76  C   UNL A   1      33.816  22.965  23.200  1.00  0.00     0.227 C 
ATOM     77  O   UNL A   1      33.568  23.528  22.122  1.00  0.00    -0.275 OA
ATOM     78  N   UNL A   1      32.968  21.966  23.537  1.00  0.00    -0.352 N 
ATOM     79  H   UNL A   1      32.192  21.904  22.936  1.00  0.00     0.163 HD
BRANCH  78  80
ATOM     80  C   UNL A   1      32.946  20.968  24.586  1.00  0.00     0.151 C 
BRANCH  80  81
ATOM     81  C   UNL A   1      33.197  19.582  24.044  1.00  0.00    -0.026 A 
ATOM     82  C   UNL A   1      32.365  19.067  23.048  1.00  0.00     0.025 A 
ATOM     83  C   UNL A   1      34.225  18.763  24.516  1.00  0.00     0.025 A 
ATOM     84  C   UNL A   1      32.551  17.772  22.598  1.00  0.00     0.111 A 
ATOM     85  C   UNL A   1      34.337  17.477  24.003  1.00  0.00     0.111 A 
ATOM     86  N   UNL A   1      33.508  16.955  23.071  1.00  0.00    -0.265 NA
ENDBRANCH  80  81
ENDBRANCH  78  80
ENDBRANCH  70  76
ENDBRANCH  66  69
ENDBRANCH  64  65
ENDBRANCH   1  64
TORSDOF 14
ENDMDL
