MODEL 1
REMARK VINA RESULT:     -11.9      0.000      0.000
REMARK SMILES C[C@@H](C(=O)NCCCCNC(=O)c1ccc(-c2c3nc(c(-c4c(F)cccc4F)c4ccc([nH]4)c(-c4c(F)cccc4F)c4nc(c(-c5c(F)cccc5F)c5ccc2[nH]5)C=C4)C=C3)cc1)c1ccc(C[C@@H]2CCC[C@@H]2O)cc1Br
REMARK SMILES IDX 6 1 5 2 3 3 4 4 2 6 1 7 67 8 68 9 79 10 69 11 78 12 80 13
REMARK SMILES IDX 70 14 71 15 72 16 73 17 76 18 74 19 75 20 77 21 7 23 8 24
REMARK SMILES IDX 9 25 10 26 11 27 12 29 13 30 14 31 66 32 15 33 65 34 16 35
REMARK SMILES IDX 17 36 18 37 59 38 19 39 64 40 58 41 60 42 20 43 63 44 57 45
REMARK SMILES IDX 56 46 21 48 47 49 30 50 46 51 31 52 34 53 45 54 61 55 32 56
REMARK SMILES IDX 33 57 44 59 62 60 35 61 22 62 23 63 28 64 24 65 25 66 27 67
REMARK SMILES IDX 29 68 26 69 48 70 49 71 54 72 50 73 51 74 53 75 55 76 52 77
REMARK SMILES IDX 36 78 37 79 42 80 38 81 39 82 41 83 43 84 40 85
REMARK H PARENT 5 5 77 22 10 28 60 47 34 58
REMARK Flexibility Score: inf
ROOT
ATOM      1  C   UNL A   1      31.578  28.422  26.365  1.00  0.00     0.116 C 
ENDROOT
BRANCH   1   2
ATOM      2  N   UNL A   1      31.190  27.705  25.169  1.00  0.00    -0.356 N 
ATOM      3  C   UNL A   1      31.585  26.488  24.692  1.00  0.00     0.227 C 
ATOM      4  O   UNL A   1      31.047  26.117  23.647  1.00  0.00    -0.274 OA
ATOM      5  H   UNL A   1      30.533  28.172  24.605  1.00  0.00     0.163 HD
BRANCH   3   6
ATOM      6  C   UNL A   1      32.562  25.617  25.497  1.00  0.00     0.106 C 
ATOM      7  C   UNL A   1      33.985  26.172  25.635  1.00  0.00     0.023 C 
BRANCH   6   8
ATOM      8  C   UNL A   1      32.600  24.164  25.017  1.00  0.00    -0.022 A 
ATOM      9  C   UNL A   1      33.591  23.819  24.077  1.00  0.00     0.006 A 
ATOM     10  C   UNL A   1      31.696  23.160  25.409  1.00  0.00     0.022 A 
ATOM     11  C   UNL A   1      33.632  22.553  23.490  1.00  0.00     0.004 A 
ATOM     12  C   UNL A   1      31.725  21.902  24.794  1.00  0.00     0.019 A 
ATOM     13  Br  UNL A   1      30.373  23.385  26.757  1.00  0.00    -0.051 Br
ATOM     14  C   UNL A   1      32.662  21.600  23.800  1.00  0.00    -0.047 A 
BRANCH  14  15
ATOM     15  C   UNL A   1      32.590  20.281  23.074  1.00  0.00     0.041 C 
BRANCH  15  16
ATOM     16  C   UNL A   1      32.479  18.994  23.924  1.00  0.00     0.022 C 
ATOM     17  C   UNL A   1      33.617  18.789  24.932  1.00  0.00     0.007 C 
ATOM     18  C   UNL A   1      32.443  17.649  23.187  1.00  0.00     0.117 C 
ATOM     19  C   UNL A   1      34.576  17.765  24.317  1.00  0.00     0.003 C 
ATOM     20  C   UNL A   1      33.902  17.236  23.054  1.00  0.00     0.032 C 
BRANCH  18  21
ATOM     21  O   UNL A   1      31.791  17.691  21.935  1.00  0.00    -0.393 OA
ATOM     22  H   UNL A   1      31.529  16.794  21.677  1.00  0.00     0.210 HD
ENDBRANCH  18  21
ENDBRANCH  15  16
ENDBRANCH  14  15
ENDBRANCH   6   8
ENDBRANCH   3   6
ENDBRANCH   1   2
BRANCH   1  23
ATOM     23  C   UNL A   1      32.463  29.623  26.032  1.00  0.00     0.023 C 
BRANCH  23  24
ATOM     24  C   UNL A   1      32.005  30.943  26.660  1.00  0.00     0.023 C 
BRANCH  24  25
ATOM     25  C   UNL A   1      33.119  31.825  27.217  1.00  0.00     0.116 C 
BRANCH  25  26
ATOM     26  N   UNL A   1      32.685  33.189  27.482  1.00  0.00    -0.352 N 
ATOM     27  C   UNL A   1      33.191  34.095  28.383  1.00  0.00     0.251 C 
ATOM     28  H   UNL A   1      31.926  33.507  26.942  1.00  0.00     0.163 HD
ATOM     29  O   UNL A   1      32.633  35.172  28.564  1.00  0.00    -0.269 OA
BRANCH  27  30
ATOM     30  C   UNL A   1      34.394  33.743  29.165  1.00  0.00     0.039 A 
ATOM     31  C   UNL A   1      34.255  32.911  30.279  1.00  0.00     0.014 A 
ATOM     32  C   UNL A   1      35.657  34.192  28.768  1.00  0.00     0.014 A 
ATOM     33  C   UNL A   1      35.394  32.448  30.940  1.00  0.00     0.010 A 
ATOM     34  C   UNL A   1      36.793  33.686  29.394  1.00  0.00     0.010 A 
ATOM     35  C   UNL A   1      36.671  32.790  30.469  1.00  0.00    -0.014 A 
BRANCH  35  36
ATOM     36  C   UNL A   1      37.896  32.174  31.038  1.00  0.00     0.031 A 
ATOM     37  C   UNL A   1      38.597  31.064  30.310  1.00  0.00     0.074 A 
ATOM     38  C   UNL A   1      38.307  32.542  32.268  1.00  0.00     0.049 A 
ATOM     39  N   UNL A   1      39.590  30.313  30.712  1.00  0.00    -0.248 NA
ATOM     40  C   UNL A   1      38.101  30.738  28.964  1.00  0.00     0.031 C 
ATOM     41  C   UNL A   1      37.678  33.573  33.098  1.00  0.00     0.029 A 
ATOM     42  N   UNL A   1      39.331  32.068  33.051  1.00  0.00    -0.354 N 
ATOM     43  C   UNL A   1      39.823  29.411  29.682  1.00  0.00     0.074 A 
ATOM     44  C   UNL A   1      38.852  29.691  28.646  1.00  0.00     0.031 C 
ATOM     45  C   UNL A   1      38.325  33.649  34.273  1.00  0.00     0.029 A 
ATOM     46  C   UNL A   1      39.386  32.647  34.297  1.00  0.00     0.049 A 
ATOM     47  H   UNL A   1      39.966  31.380  32.748  1.00  0.00     0.167 HD
ATOM     48  C   UNL A   1      40.769  28.446  29.606  1.00  0.00     0.037 A 
ATOM     49  C   UNL A   1      40.179  32.380  35.352  1.00  0.00     0.037 A 
ATOM     50  C   UNL A   1      41.758  28.197  30.622  1.00  0.00     0.049 A 
ATOM     51  C   UNL A   1      41.214  31.297  35.238  1.00  0.00     0.074 A 
ATOM     52  C   UNL A   1      42.826  27.316  30.584  1.00  0.00     0.029 A 
ATOM     53  N   UNL A   1      41.797  28.820  31.858  1.00  0.00    -0.354 N 
ATOM     54  N   UNL A   1      41.485  30.517  34.221  1.00  0.00    -0.248 NA
ATOM     55  C   UNL A   1      42.052  31.052  36.422  1.00  0.00     0.031 C 
ATOM     56  C   UNL A   1      43.481  27.371  31.817  1.00  0.00     0.029 A 
ATOM     57  C   UNL A   1      42.846  28.315  32.608  1.00  0.00     0.049 A 
ATOM     58  H   UNL A   1      41.171  29.518  32.160  1.00  0.00     0.167 HD
ATOM     59  C   UNL A   1      42.533  29.704  34.634  1.00  0.00     0.074 A 
ATOM     60  C   UNL A   1      42.862  30.097  35.987  1.00  0.00     0.031 C 
ATOM     61  C   UNL A   1      43.162  28.717  33.953  1.00  0.00     0.037 A 
BRANCH  48  62
ATOM     62  C   UNL A   1      40.793  27.580  28.383  1.00  0.00     0.057 A 
ATOM     63  C   UNL A   1      40.035  26.406  28.296  1.00  0.00     0.134 A 
ATOM     64  C   UNL A   1      41.519  27.969  27.251  1.00  0.00     0.134 A 
ATOM     65  F   UNL A   1      39.324  25.976  29.349  1.00  0.00    -0.206 F 
ATOM     66  C   UNL A   1      40.005  25.644  27.127  1.00  0.00     0.040 A 
ATOM     67  C   UNL A   1      41.481  27.226  26.070  1.00  0.00     0.040 A 
ATOM     68  F   UNL A   1      42.261  29.087  27.268  1.00  0.00    -0.206 F 
ATOM     69  C   UNL A   1      40.722  26.060  26.006  1.00  0.00     0.006 A 
ENDBRANCH  48  62
BRANCH  49  70
ATOM     70  C   UNL A   1      40.013  33.133  36.620  1.00  0.00     0.057 A 
ATOM     71  C   UNL A   1      39.065  32.746  37.573  1.00  0.00     0.134 A 
ATOM     72  C   UNL A   1      40.776  34.274  36.896  1.00  0.00     0.134 A 
ATOM     73  F   UNL A   1      38.288  31.674  37.355  1.00  0.00    -0.206 F 
ATOM     74  C   UNL A   1      38.862  33.479  38.744  1.00  0.00     0.040 A 
ATOM     75  C   UNL A   1      40.602  35.003  38.073  1.00  0.00     0.040 A 
ATOM     76  F   UNL A   1      41.705  34.694  36.025  1.00  0.00    -0.206 F 
ATOM     77  C   UNL A   1      39.636  34.610  38.997  1.00  0.00     0.006 A 
ENDBRANCH  49  70
BRANCH  61  78
ATOM     78  C   UNL A   1      44.278  28.002  34.654  1.00  0.00     0.057 A 
ATOM     79  C   UNL A   1      45.592  28.485  34.623  1.00  0.00     0.134 A 
ATOM     80  C   UNL A   1      44.027  26.847  35.406  1.00  0.00     0.134 A 
ATOM     81  F   UNL A   1      45.897  29.578  33.908  1.00  0.00    -0.206 F 
ATOM     82  C   UNL A   1      46.621  27.837  35.306  1.00  0.00     0.040 A 
ATOM     83  C   UNL A   1      45.044  26.204  36.112  1.00  0.00     0.040 A 
ATOM     84  F   UNL A   1      42.789  26.338  35.481  1.00  0.00    -0.206 F 
ATOM     85  C   UNL A   1      46.346  26.696  36.060  1.00  0.00     0.006 A 
ENDBRANCH  61  78
ENDBRANCH  35  36
ENDBRANCH  27  30
ENDBRANCH  25  26
ENDBRANCH  24  25
ENDBRANCH  23  24
ENDBRANCH   1  23
TORSDOF 15
ENDMDL
MODEL 2
REMARK VINA RESULT:     -11.9      1.708      2.192
REMARK SMILES C[C@@H](C(=O)NCCCCNC(=O)c1ccc(-c2c3nc(c(-c4c(F)cccc4F)c4ccc([nH]4)c(-c4c(F)cccc4F)c4nc(c(-c5c(F)cccc5F)c5ccc2[nH]5)C=C4)C=C3)cc1)c1ccc(C[C@@H]2CCC[C@@H]2O)cc1Br
REMARK SMILES IDX 6 1 5 2 3 3 4 4 2 6 1 7 67 8 68 9 79 10 69 11 78 12 80 13
REMARK SMILES IDX 70 14 71 15 72 16 73 17 76 18 74 19 75 20 77 21 7 23 8 24
REMARK SMILES IDX 9 25 10 26 11 27 12 29 13 30 14 31 66 32 15 33 65 34 16 35
REMARK SMILES IDX 17 36 18 37 59 38 19 39 64 40 58 41 60 42 20 43 63 44 57 45
REMARK SMILES IDX 56 46 21 48 47 49 30 50 46 51 31 52 34 53 45 54 61 55 32 56
REMARK SMILES IDX 33 57 44 59 62 60 35 61 22 62 23 63 28 64 24 65 25 66 27 67
REMARK SMILES IDX 29 68 26 69 48 70 49 71 54 72 50 73 51 74 53 75 55 76 52 77
REMARK SMILES IDX 36 78 37 79 42 80 38 81 39 82 41 83 43 84 40 85
REMARK H PARENT 5 5 77 22 10 28 60 47 34 58
REMARK Flexibility Score: inf
ROOT
ATOM      1  C   UNL A   1      32.351  27.726  26.691  1.00  0.00     0.116 C 
ENDROOT
BRANCH   1   2
ATOM      2  N   UNL A   1      31.532  26.543  26.853  1.00  0.00    -0.356 N 
ATOM      3  C   UNL A   1      31.488  25.384  26.133  1.00  0.00     0.227 C 
ATOM      4  O   UNL A   1      30.700  24.527  26.537  1.00  0.00    -0.274 OA
ATOM      5  H   UNL A   1      30.901  26.581  27.607  1.00  0.00     0.163 HD
BRANCH   3   6
ATOM      6  C   UNL A   1      32.458  25.158  24.963  1.00  0.00     0.106 C 
ATOM      7  C   UNL A   1      32.167  25.969  23.694  1.00  0.00     0.023 C 
BRANCH   6   8
ATOM      8  C   UNL A   1      32.645  23.678  24.620  1.00  0.00    -0.022 A 
ATOM      9  C   UNL A   1      31.904  23.169  23.535  1.00  0.00     0.006 A 
ATOM     10  C   UNL A   1      33.463  22.782  25.330  1.00  0.00     0.022 A 
ATOM     11  C   UNL A   1      31.913  21.809  23.220  1.00  0.00     0.004 A 
ATOM     12  C   UNL A   1      33.444  21.414  25.026  1.00  0.00     0.019 A 
ATOM     13  Br  UNL A   1      34.637  23.294  26.736  1.00  0.00    -0.051 Br
ATOM     14  C   UNL A   1      32.639  20.909  23.999  1.00  0.00    -0.047 A 
BRANCH  14  15
ATOM     15  C   UNL A   1      32.549  19.420  23.777  1.00  0.00     0.041 C 
BRANCH  15  16
ATOM     16  C   UNL A   1      33.667  18.532  24.372  1.00  0.00     0.022 C 
ATOM     17  C   UNL A   1      34.182  17.433  23.435  1.00  0.00     0.007 C 
ATOM     18  C   UNL A   1      33.358  17.755  25.657  1.00  0.00     0.117 C 
ATOM     19  C   UNL A   1      33.522  16.125  23.882  1.00  0.00     0.003 C 
ATOM     20  C   UNL A   1      32.786  16.427  25.183  1.00  0.00     0.032 C 
BRANCH  18  21
ATOM     21  O   UNL A   1      32.482  18.421  26.542  1.00  0.00    -0.393 OA
ATOM     22  H   UNL A   1      31.702  17.869  26.701  1.00  0.00     0.210 HD
ENDBRANCH  18  21
ENDBRANCH  15  16
ENDBRANCH  14  15
ENDBRANCH   6   8
ENDBRANCH   3   6
ENDBRANCH   1   2
BRANCH   1  23
ATOM     23  C   UNL A   1      31.747  28.926  27.422  1.00  0.00     0.023 C 
BRANCH  23  24
ATOM     24  C   UNL A   1      31.825  30.246  26.648  1.00  0.00     0.023 C 
BRANCH  24  25
ATOM     25  C   UNL A   1      32.917  31.209  27.104  1.00  0.00     0.116 C 
BRANCH  25  26
ATOM     26  N   UNL A   1      32.425  32.561  27.326  1.00  0.00    -0.352 N 
ATOM     27  C   UNL A   1      32.997  33.577  28.053  1.00  0.00     0.251 C 
ATOM     28  H   UNL A   1      31.566  32.777  26.897  1.00  0.00     0.163 HD
ATOM     29  O   UNL A   1      32.391  34.628  28.238  1.00  0.00    -0.269 OA
BRANCH  27  30
ATOM     30  C   UNL A   1      34.334  33.378  28.650  1.00  0.00     0.039 A 
ATOM     31  C   UNL A   1      34.430  32.740  29.889  1.00  0.00     0.014 A 
ATOM     32  C   UNL A   1      35.485  33.773  27.963  1.00  0.00     0.014 A 
ATOM     33  C   UNL A   1      35.688  32.409  30.398  1.00  0.00     0.010 A 
ATOM     34  C   UNL A   1      36.735  33.394  28.444  1.00  0.00     0.010 A 
ATOM     35  C   UNL A   1      36.846  32.688  29.653  1.00  0.00    -0.014 A 
BRANCH  35  36
ATOM     36  C   UNL A   1      38.178  32.193  30.080  1.00  0.00     0.031 A 
ATOM     37  C   UNL A   1      38.707  30.888  29.559  1.00  0.00     0.074 A 
ATOM     38  C   UNL A   1      38.858  32.869  31.029  1.00  0.00     0.049 A 
ATOM     39  N   UNL A   1      39.778  30.229  29.922  1.00  0.00    -0.248 NA
ATOM     40  C   UNL A   1      37.918  30.224  28.510  1.00  0.00     0.031 C 
ATOM     41  C   UNL A   1      38.423  34.122  31.651  1.00  0.00     0.029 A 
ATOM     42  N   UNL A   1      40.042  32.580  31.660  1.00  0.00    -0.354 N 
ATOM     43  C   UNL A   1      39.779  29.064  29.166  1.00  0.00     0.074 A 
ATOM     44  C   UNL A   1      38.590  29.093  28.342  1.00  0.00     0.031 C 
ATOM     45  C   UNL A   1      39.324  34.490  32.578  1.00  0.00     0.029 A 
ATOM     46  C   UNL A   1      40.376  33.481  32.644  1.00  0.00     0.049 A 
ATOM     47  H   UNL A   1      40.600  31.802  31.430  1.00  0.00     0.167 HD
ATOM     48  C   UNL A   1      40.696  28.069  29.156  1.00  0.00     0.037 A 
ATOM     49  C   UNL A   1      41.396  33.479  33.523  1.00  0.00     0.037 A 
ATOM     50  C   UNL A   1      41.897  28.063  29.949  1.00  0.00     0.049 A 
ATOM     51  C   UNL A   1      42.393  32.355  33.491  1.00  0.00     0.074 A 
ATOM     52  C   UNL A   1      42.940  27.152  29.922  1.00  0.00     0.029 A 
ATOM     53  N   UNL A   1      42.212  29.004  30.914  1.00  0.00    -0.354 N 
ATOM     54  N   UNL A   1      42.432  31.309  32.703  1.00  0.00    -0.248 NA
ATOM     55  C   UNL A   1      43.486  32.408  34.473  1.00  0.00     0.031 C 
ATOM     56  C   UNL A   1      43.863  27.515  30.907  1.00  0.00     0.029 A 
ATOM     57  C   UNL A   1      43.414  28.675  31.519  1.00  0.00     0.049 A 
ATOM     58  H   UNL A   1      41.663  29.790  31.139  1.00  0.00     0.167 HD
ATOM     59  C   UNL A   1      43.559  30.590  33.082  1.00  0.00     0.074 A 
ATOM     60  C   UNL A   1      44.187  31.329  34.156  1.00  0.00     0.031 C 
ATOM     61  C   UNL A   1      44.027  29.421  32.586  1.00  0.00     0.037 A 
BRANCH  48  62
ATOM     62  C   UNL A   1      40.448  26.894  28.258  1.00  0.00     0.057 A 
ATOM     63  C   UNL A   1      39.559  25.872  28.609  1.00  0.00     0.134 A 
ATOM     64  C   UNL A   1      41.045  26.829  26.992  1.00  0.00     0.134 A 
ATOM     65  F   UNL A   1      38.961  25.873  29.810  1.00  0.00    -0.206 F 
ATOM     66  C   UNL A   1      39.278  24.820  27.736  1.00  0.00     0.040 A 
ATOM     67  C   UNL A   1      40.757  25.794  26.103  1.00  0.00     0.040 A 
ATOM     68  F   UNL A   1      41.902  27.782  26.594  1.00  0.00    -0.206 F 
ATOM     69  C   UNL A   1      39.870  24.785  26.474  1.00  0.00     0.006 A 
ENDBRANCH  48  62
BRANCH  49  70
ATOM     70  C   UNL A   1      41.518  34.564  34.528  1.00  0.00     0.057 A 
ATOM     71  C   UNL A   1      42.251  35.725  34.256  1.00  0.00     0.134 A 
ATOM     72  C   UNL A   1      40.934  34.453  35.796  1.00  0.00     0.134 A 
ATOM     73  F   UNL A   1      42.853  35.878  33.067  1.00  0.00    -0.206 F 
ATOM     74  C   UNL A   1      42.419  36.726  35.214  1.00  0.00     0.040 A 
ATOM     75  C   UNL A   1      41.073  35.457  36.755  1.00  0.00     0.040 A 
ATOM     76  F   UNL A   1      40.214  33.368  36.118  1.00  0.00    -0.206 F 
ATOM     77  C   UNL A   1      41.825  36.594  36.468  1.00  0.00     0.006 A 
ENDBRANCH  49  70
BRANCH  61  78
ATOM     78  C   UNL A   1      45.286  28.874  33.189  1.00  0.00     0.057 A 
ATOM     79  C   UNL A   1      46.549  29.240  32.709  1.00  0.00     0.134 A 
ATOM     80  C   UNL A   1      45.236  28.010  34.291  1.00  0.00     0.134 A 
ATOM     81  F   UNL A   1      46.663  30.051  31.647  1.00  0.00    -0.206 F 
ATOM     82  C   UNL A   1      47.719  28.757  33.296  1.00  0.00     0.040 A 
ATOM     83  C   UNL A   1      46.398  27.539  34.901  1.00  0.00     0.040 A 
ATOM     84  F   UNL A   1      44.056  27.627  34.803  1.00  0.00    -0.206 F 
ATOM     85  C   UNL A   1      47.645  27.909  34.401  1.00  0.00     0.006 A 
ENDBRANCH  61  78
ENDBRANCH  35  36
ENDBRANCH  27  30
ENDBRANCH  25  26
ENDBRANCH  24  25
ENDBRANCH  23  24
ENDBRANCH   1  23
TORSDOF 15
ENDMDL
MODEL 3
REMARK VINA RESULT:     -11.9      4.497      9.364
REMARK SMILES C[C@@H](C(=O)NCCCCNC(=O)c1ccc(-c2c3nc(c(-c4c(F)cccc4F)c4ccc([nH]4)c(-c4c(F)cccc4F)c4nc(c(-c5c(F)cccc5F)c5ccc2[nH]5)C=C4)C=C3)cc1)c1ccc(C[C@@H]2CCC[C@@H]2O)cc1Br
REMARK SMILES IDX 6 1 5 2 3 3 4 4 2 6 1 7 67 8 68 9 79 10 69 11 78 12 80 13
REMARK SMILES IDX 70 14 71 15 72 16 73 17 76 18 74 19 75 20 77 21 7 23 8 24
REMARK SMILES IDX 9 25 10 26 11 27 12 29 13 30 14 31 66 32 15 33 65 34 16 35
REMARK SMILES IDX 17 36 18 37 59 38 19 39 64 40 58 41 60 42 20 43 63 44 57 45
REMARK SMILES IDX 56 46 21 48 47 49 30 50 46 51 31 52 34 53 45 54 61 55 32 56
REMARK SMILES IDX 33 57 44 59 62 60 35 61 22 62 23 63 28 64 24 65 25 66 27 67
REMARK SMILES IDX 29 68 26 69 48 70 49 71 54 72 50 73 51 74 53 75 55 76 52 77
REMARK SMILES IDX 36 78 37 79 42 80 38 81 39 82 41 83 43 84 40 85
REMARK H PARENT 5 5 77 22 10 28 60 47 34 58
REMARK Flexibility Score: inf
ROOT
ATOM      1  C   UNL A   1      35.669  22.833  23.890  1.00  0.00     0.116 C 
ENDROOT
BRANCH   1   2
ATOM      2  N   UNL A   1      34.615  21.906  24.245  1.00  0.00    -0.356 N 
ATOM      3  C   UNL A   1      33.843  21.822  25.368  1.00  0.00     0.227 C 
ATOM      4  O   UNL A   1      32.988  20.934  25.370  1.00  0.00    -0.274 OA
ATOM      5  H   UNL A   1      34.423  21.222  23.564  1.00  0.00     0.163 HD
BRANCH   3   6
ATOM      6  C   UNL A   1      33.989  22.860  26.491  1.00  0.00     0.106 C 
ATOM      7  C   UNL A   1      33.613  22.372  27.896  1.00  0.00     0.023 C 
BRANCH   6   8
ATOM      8  C   UNL A   1      33.283  24.182  26.179  1.00  0.00    -0.022 A 
ATOM      9  C   UNL A   1      34.089  25.265  25.776  1.00  0.00     0.006 A 
ATOM     10  C   UNL A   1      31.900  24.408  26.305  1.00  0.00     0.022 A 
ATOM     11  C   UNL A   1      33.555  26.541  25.586  1.00  0.00     0.004 A 
ATOM     12  C   UNL A   1      31.377  25.697  26.141  1.00  0.00     0.019 A 
ATOM     13  Br  UNL A   1      30.630  23.051  26.707  1.00  0.00    -0.051 Br
ATOM     14  C   UNL A   1      32.202  26.782  25.823  1.00  0.00    -0.047 A 
BRANCH  14  15
ATOM     15  C   UNL A   1      31.627  28.175  25.773  1.00  0.00     0.041 C 
BRANCH  15  16
ATOM     16  C   UNL A   1      31.087  28.685  24.416  1.00  0.00     0.022 C 
ATOM     17  C   UNL A   1      30.136  27.719  23.699  1.00  0.00     0.007 C 
ATOM     18  C   UNL A   1      32.106  29.021  23.321  1.00  0.00     0.117 C 
ATOM     19  C   UNL A   1      30.952  27.023  22.606  1.00  0.00     0.003 C 
ATOM     20  C   UNL A   1      32.309  27.719  22.561  1.00  0.00     0.032 C 
BRANCH  18  21
ATOM     21  O   UNL A   1      33.324  29.547  23.803  1.00  0.00    -0.393 OA
ATOM     22  H   UNL A   1      33.364  29.438  24.766  1.00  0.00     0.210 HD
ENDBRANCH  18  21
ENDBRANCH  15  16
ENDBRANCH  14  15
ENDBRANCH   6   8
ENDBRANCH   3   6
ENDBRANCH   1   2
BRANCH   1  23
ATOM     23  C   UNL A   1      37.021  22.127  23.790  1.00  0.00     0.023 C 
BRANCH  23  24
ATOM     24  C   UNL A   1      37.206  20.966  24.773  1.00  0.00     0.023 C 
BRANCH  24  25
ATOM     25  C   UNL A   1      38.421  21.072  25.689  1.00  0.00     0.116 C 
BRANCH  25  26
ATOM     26  N   UNL A   1      39.312  19.924  25.586  1.00  0.00    -0.352 N 
ATOM     27  C   UNL A   1      40.643  19.835  25.917  1.00  0.00     0.251 C 
ATOM     28  H   UNL A   1      38.906  19.101  25.232  1.00  0.00     0.163 HD
ATOM     29  O   UNL A   1      41.281  18.820  25.659  1.00  0.00    -0.269 OA
BRANCH  27  30
ATOM     30  C   UNL A   1      41.311  20.989  26.551  1.00  0.00     0.039 A 
ATOM     31  C   UNL A   1      41.990  21.903  25.741  1.00  0.00     0.014 A 
ATOM     32  C   UNL A   1      41.222  21.194  27.931  1.00  0.00     0.014 A 
ATOM     33  C   UNL A   1      42.499  23.076  26.302  1.00  0.00     0.010 A 
ATOM     34  C   UNL A   1      41.681  22.389  28.479  1.00  0.00     0.010 A 
ATOM     35  C   UNL A   1      42.301  23.350  27.665  1.00  0.00    -0.014 A 
BRANCH  35  36
ATOM     36  C   UNL A   1      42.671  24.662  28.252  1.00  0.00     0.031 A 
ATOM     37  C   UNL A   1      41.628  25.720  28.468  1.00  0.00     0.074 A 
ATOM     38  C   UNL A   1      43.971  24.937  28.481  1.00  0.00     0.049 A 
ATOM     39  N   UNL A   1      41.781  26.966  28.835  1.00  0.00    -0.248 NA
ATOM     40  C   UNL A   1      40.231  25.333  28.217  1.00  0.00     0.031 C 
ATOM     41  C   UNL A   1      45.085  24.010  28.260  1.00  0.00     0.029 A 
ATOM     42  N   UNL A   1      44.581  26.087  28.917  1.00  0.00    -0.354 N 
ATOM     43  C   UNL A   1      40.508  27.520  28.835  1.00  0.00     0.074 A 
ATOM     44  C   UNL A   1      39.594  26.482  28.408  1.00  0.00     0.031 C 
ATOM     45  C   UNL A   1      46.239  24.630  28.557  1.00  0.00     0.029 A 
ATOM     46  C   UNL A   1      45.953  26.006  28.948  1.00  0.00     0.049 A 
ATOM     47  H   UNL A   1      44.083  26.893  29.185  1.00  0.00     0.167 HD
ATOM     48  C   UNL A   1      40.137  28.777  29.172  1.00  0.00     0.037 A 
ATOM     49  C   UNL A   1      46.880  26.942  29.227  1.00  0.00     0.037 A 
ATOM     50  C   UNL A   1      41.043  29.795  29.634  1.00  0.00     0.049 A 
ATOM     51  C   UNL A   1      46.435  28.332  29.590  1.00  0.00     0.074 A 
ATOM     52  C   UNL A   1      40.745  31.063  30.105  1.00  0.00     0.029 A 
ATOM     53  N   UNL A   1      42.422  29.667  29.675  1.00  0.00    -0.354 N 
ATOM     54  N   UNL A   1      45.220  28.813  29.679  1.00  0.00    -0.248 NA
ATOM     55  C   UNL A   1      47.491  29.311  29.888  1.00  0.00     0.031 C 
ATOM     56  C   UNL A   1      41.946  31.719  30.384  1.00  0.00     0.029 A 
ATOM     57  C   UNL A   1      42.991  30.847  30.126  1.00  0.00     0.049 A 
ATOM     58  H   UNL A   1      42.923  28.858  29.421  1.00  0.00     0.167 HD
ATOM     59  C   UNL A   1      45.364  30.141  30.058  1.00  0.00     0.074 A 
ATOM     60  C   UNL A   1      46.783  30.386  30.201  1.00  0.00     0.031 C 
ATOM     61  C   UNL A   1      44.405  31.075  30.264  1.00  0.00     0.037 A 
BRANCH  48  62
ATOM     62  C   UNL A   1      38.686  29.135  29.060  1.00  0.00     0.057 A 
ATOM     63  C   UNL A   1      37.831  29.108  30.169  1.00  0.00     0.134 A 
ATOM     64  C   UNL A   1      38.158  29.592  27.846  1.00  0.00     0.134 A 
ATOM     65  F   UNL A   1      38.275  28.673  31.358  1.00  0.00    -0.206 F 
ATOM     66  C   UNL A   1      36.500  29.514  30.072  1.00  0.00     0.040 A 
ATOM     67  C   UNL A   1      36.834  30.019  27.741  1.00  0.00     0.040 A 
ATOM     68  F   UNL A   1      38.927  29.647  26.747  1.00  0.00    -0.206 F 
ATOM     69  C   UNL A   1      36.001  29.981  28.857  1.00  0.00     0.006 A 
ENDBRANCH  48  62
BRANCH  49  70
ATOM     70  C   UNL A   1      48.324  26.610  29.153  1.00  0.00     0.057 A 
ATOM     71  C   UNL A   1      49.068  26.867  27.996  1.00  0.00     0.134 A 
ATOM     72  C   UNL A   1      48.988  26.000  30.224  1.00  0.00     0.134 A 
ATOM     73  F   UNL A   1      48.481  27.428  26.929  1.00  0.00    -0.206 F 
ATOM     74  C   UNL A   1      50.413  26.507  27.896  1.00  0.00     0.040 A 
ATOM     75  C   UNL A   1      50.339  25.658  30.147  1.00  0.00     0.040 A 
ATOM     76  F   UNL A   1      48.333  25.733  31.363  1.00  0.00    -0.206 F 
ATOM     77  C   UNL A   1      51.053  25.903  28.976  1.00  0.00     0.006 A 
ENDBRANCH  49  70
BRANCH  61  78
ATOM     78  C   UNL A   1      44.857  32.443  30.680  1.00  0.00     0.057 A 
ATOM     79  C   UNL A   1      45.051  33.467  29.744  1.00  0.00     0.134 A 
ATOM     80  C   UNL A   1      45.052  32.752  32.031  1.00  0.00     0.134 A 
ATOM     81  F   UNL A   1      44.894  33.228  28.434  1.00  0.00    -0.206 F 
ATOM     82  C   UNL A   1      45.437  34.748  30.138  1.00  0.00     0.040 A 
ATOM     83  C   UNL A   1      45.416  34.036  32.439  1.00  0.00     0.040 A 
ATOM     84  F   UNL A   1      44.875  31.818  32.977  1.00  0.00    -0.206 F 
ATOM     85  C   UNL A   1      45.613  35.038  31.491  1.00  0.00     0.006 A 
ENDBRANCH  61  78
ENDBRANCH  35  36
ENDBRANCH  27  30
ENDBRANCH  25  26
ENDBRANCH  24  25
ENDBRANCH  23  24
ENDBRANCH   1  23
TORSDOF 15
ENDMDL
