MODEL 1
REMARK VINA RESULT:     -12.5      0.000      0.000
REMARK SMILES Cc1nn([C@@H](C)C(=O)NCCCCNC(=O)c2ccc(-c3c4nc(c(-c5c(F)cccc5F)c5ccc([nH]5)c(-c5c(F)cccc5F)c5nc(c(-c6c(F)cccc6F)c6ccc3[nH]6)C=C5)C=C4)cc2)c(=O)c2cc3cc(F)ccc3n12
REMARK SMILES IDX 12 1 11 2 10 3 9 4 7 5 8 6 5 8 6 9 4 10 1 11 2 12 3 13 82 14
REMARK SMILES IDX 73 15 81 16 71 17 74 18 75 19 80 20 72 21 76 22 79 23 77 24
REMARK SMILES IDX 78 25 13 26 14 27 15 28 16 30 17 31 18 32 70 33 19 34 69 35
REMARK SMILES IDX 20 36 21 37 22 38 63 39 23 40 68 41 62 42 64 43 24 44 67 45
REMARK SMILES IDX 61 46 60 47 25 49 51 50 34 51 50 52 35 53 38 54 49 55 65 56
REMARK SMILES IDX 36 57 37 58 48 60 66 61 39 62 26 63 27 64 32 65 28 66 29 67
REMARK SMILES IDX 31 68 33 69 30 70 52 71 53 72 58 73 54 74 55 75 57 76 59 77
REMARK SMILES IDX 56 78 40 79 41 80 46 81 42 82 43 83 45 84 47 85 44 86
REMARK H PARENT 9 7 14 29 64 48 38 59
REMARK Flexibility Score: inf
ROOT
ATOM      1  C   UNL A   1      41.229  19.615  26.376  1.00  0.00     0.023 C 
ENDROOT
BRANCH   1   2
ATOM      2  C   UNL A   1      40.869  20.958  27.024  1.00  0.00     0.023 C 
BRANCH   2   3
ATOM      3  C   UNL A   1      39.999  21.853  26.142  1.00  0.00     0.116 C 
BRANCH   3   4
ATOM      4  N   UNL A   1      38.770  21.203  25.760  1.00  0.00    -0.354 N 
ATOM      5  C   UNL A   1      37.569  21.711  25.372  1.00  0.00     0.244 C 
ATOM      6  O   UNL A   1      36.737  20.873  24.999  1.00  0.00    -0.273 OA
ATOM      7  H   UNL A   1      38.807  20.220  25.784  1.00  0.00     0.163 HD
BRANCH   5   8
ATOM      8  C   UNL A   1      37.228  23.221  25.312  1.00  0.00     0.197 C 
ATOM      9  C   UNL A   1      37.974  24.049  26.354  1.00  0.00     0.044 C 
BRANCH   8  10
ATOM     10  N   UNL A   1      35.789  23.522  25.151  1.00  0.00    -0.214 N 
ATOM     11  C   UNL A   1      32.860  23.311  27.427  1.00  0.00     0.090 C 
ATOM     12  C   UNL A   1      33.746  23.651  26.276  1.00  0.00     0.131 A 
ATOM     13  N   UNL A   1      35.004  23.315  26.294  1.00  0.00    -0.155 NA
ATOM     14  N   UNL A   1      33.175  24.335  25.194  1.00  0.00    -0.291 N 
ATOM     15  C   UNL A   1      33.929  24.506  24.062  1.00  0.00     0.115 A 
ATOM     16  C   UNL A   1      31.924  24.922  24.979  1.00  0.00     0.055 A 
ATOM     17  C   UNL A   1      35.212  23.874  23.927  1.00  0.00     0.291 A 
ATOM     18  C   UNL A   1      33.271  25.338  23.192  1.00  0.00     0.043 A 
ATOM     19  C   UNL A   1      32.003  25.605  23.750  1.00  0.00     0.004 A 
ATOM     20  C   UNL A   1      30.728  24.950  25.726  1.00  0.00     0.030 A 
ATOM     21  O   UNL A   1      35.715  23.693  22.833  1.00  0.00    -0.265 OA
ATOM     22  C   UNL A   1      30.906  26.352  23.283  1.00  0.00     0.049 A 
ATOM     23  C   UNL A   1      29.632  25.655  25.214  1.00  0.00     0.041 A 
ATOM     24  C   UNL A   1      29.730  26.350  24.021  1.00  0.00     0.123 A 
ATOM     25  F   UNL A   1      28.666  27.019  23.558  1.00  0.00    -0.207 F 
ENDBRANCH   8  10
ENDBRANCH   5   8
ENDBRANCH   3   4
ENDBRANCH   2   3
ENDBRANCH   1   2
BRANCH   1  26
ATOM     26  C   UNL A   1      42.731  19.315  26.390  1.00  0.00     0.116 C 
BRANCH  26  27
ATOM     27  N   UNL A   1      43.399  19.662  25.153  1.00  0.00    -0.352 N 
ATOM     28  C   UNL A   1      44.097  20.753  24.723  1.00  0.00     0.251 C 
ATOM     29  H   UNL A   1      43.335  18.953  24.472  1.00  0.00     0.163 HD
ATOM     30  O   UNL A   1      44.715  20.631  23.664  1.00  0.00    -0.269 OA
BRANCH  28  31
ATOM     31  C   UNL A   1      44.072  22.082  25.387  1.00  0.00     0.039 A 
ATOM     32  C   UNL A   1      44.764  22.419  26.549  1.00  0.00     0.014 A 
ATOM     33  C   UNL A   1      43.191  23.025  24.824  1.00  0.00     0.014 A 
ATOM     34  C   UNL A   1      44.484  23.602  27.211  1.00  0.00     0.010 A 
ATOM     35  C   UNL A   1      42.923  24.222  25.468  1.00  0.00     0.010 A 
ATOM     36  C   UNL A   1      43.530  24.476  26.691  1.00  0.00    -0.014 A 
BRANCH  36  37
ATOM     37  C   UNL A   1      43.346  25.748  27.375  1.00  0.00     0.031 A 
ATOM     38  C   UNL A   1      44.432  26.721  27.061  1.00  0.00     0.074 A 
ATOM     39  C   UNL A   1      42.254  26.018  28.120  1.00  0.00     0.049 A 
ATOM     40  N   UNL A   1      45.275  27.262  27.878  1.00  0.00    -0.248 NA
ATOM     41  C   UNL A   1      44.747  26.964  25.640  1.00  0.00     0.031 C 
ATOM     42  C   UNL A   1      41.056  25.192  28.286  1.00  0.00     0.029 A 
ATOM     43  N   UNL A   1      41.939  27.145  28.820  1.00  0.00    -0.354 N 
ATOM     44  C   UNL A   1      46.083  28.088  27.097  1.00  0.00     0.074 A 
ATOM     45  C   UNL A   1      45.842  27.717  25.732  1.00  0.00     0.031 C 
ATOM     46  C   UNL A   1      40.065  25.937  28.827  1.00  0.00     0.029 A 
ATOM     47  C   UNL A   1      40.591  27.246  29.166  1.00  0.00     0.049 A 
ATOM     48  H   UNL A   1      42.605  27.830  29.060  1.00  0.00     0.167 HD
ATOM     49  C   UNL A   1      46.665  29.194  27.637  1.00  0.00     0.037 A 
ATOM     50  C   UNL A   1      39.960  28.357  29.631  1.00  0.00     0.037 A 
ATOM     51  C   UNL A   1      46.772  29.056  29.069  1.00  0.00     0.049 A 
ATOM     52  C   UNL A   1      41.007  29.289  30.121  1.00  0.00     0.074 A 
ATOM     53  C   UNL A   1      47.425  28.186  29.919  1.00  0.00     0.029 A 
ATOM     54  N   UNL A   1      45.823  29.688  29.833  1.00  0.00    -0.354 N 
ATOM     55  N   UNL A   1      41.727  29.064  31.184  1.00  0.00    -0.248 NA
ATOM     56  C   UNL A   1      41.584  30.210  29.155  1.00  0.00     0.031 C 
ATOM     57  C   UNL A   1      46.529  27.997  31.013  1.00  0.00     0.029 A 
ATOM     58  C   UNL A   1      45.424  28.825  30.816  1.00  0.00     0.049 A 
ATOM     59  H   UNL A   1      45.488  30.604  29.697  1.00  0.00     0.167 HD
ATOM     60  C   UNL A   1      43.012  29.434  30.817  1.00  0.00     0.074 A 
ATOM     61  C   UNL A   1      42.852  30.193  29.577  1.00  0.00     0.031 C 
ATOM     62  C   UNL A   1      44.100  28.839  31.389  1.00  0.00     0.037 A 
BRANCH  49  63
ATOM     63  C   UNL A   1      46.662  30.552  26.955  1.00  0.00     0.057 A 
ATOM     64  C   UNL A   1      45.508  31.299  26.637  1.00  0.00     0.134 A 
ATOM     65  C   UNL A   1      47.862  31.290  26.932  1.00  0.00     0.134 A 
ATOM     66  F   UNL A   1      44.282  30.768  26.595  1.00  0.00    -0.206 F 
ATOM     67  C   UNL A   1      45.530  32.679  26.425  1.00  0.00     0.040 A 
ATOM     68  C   UNL A   1      47.889  32.679  26.759  1.00  0.00     0.040 A 
ATOM     69  F   UNL A   1      49.041  30.699  27.181  1.00  0.00    -0.206 F 
ATOM     70  C   UNL A   1      46.717  33.382  26.529  1.00  0.00     0.006 A 
ENDBRANCH  49  63
BRANCH  50  71
ATOM     71  C   UNL A   1      38.567  28.812  29.396  1.00  0.00     0.057 A 
ATOM     72  C   UNL A   1      38.185  29.403  28.180  1.00  0.00     0.134 A 
ATOM     73  C   UNL A   1      37.652  28.941  30.452  1.00  0.00     0.134 A 
ATOM     74  F   UNL A   1      39.014  29.416  27.126  1.00  0.00    -0.206 F 
ATOM     75  C   UNL A   1      36.974  30.088  28.024  1.00  0.00     0.040 A 
ATOM     76  C   UNL A   1      36.438  29.629  30.311  1.00  0.00     0.040 A 
ATOM     77  F   UNL A   1      37.944  28.458  31.669  1.00  0.00    -0.206 F 
ATOM     78  C   UNL A   1      36.100  30.215  29.096  1.00  0.00     0.006 A 
ENDBRANCH  50  71
BRANCH  62  79
ATOM     79  C   UNL A   1      43.870  27.970  32.592  1.00  0.00     0.057 A 
ATOM     80  C   UNL A   1      43.880  28.571  33.855  1.00  0.00     0.134 A 
ATOM     81  C   UNL A   1      43.770  26.570  32.556  1.00  0.00     0.134 A 
ATOM     82  F   UNL A   1      44.029  29.900  33.969  1.00  0.00    -0.206 F 
ATOM     83  C   UNL A   1      43.786  27.823  35.029  1.00  0.00     0.040 A 
ATOM     84  C   UNL A   1      43.639  25.811  33.724  1.00  0.00     0.040 A 
ATOM     85  F   UNL A   1      43.853  25.898  31.400  1.00  0.00    -0.206 F 
ATOM     86  C   UNL A   1      43.652  26.439  34.967  1.00  0.00     0.006 A 
ENDBRANCH  62  79
ENDBRANCH  36  37
ENDBRANCH  28  31
ENDBRANCH  26  27
ENDBRANCH   1  26
TORSDOF 12
ENDMDL
MODEL 2
REMARK VINA RESULT:     -12.1      3.261      8.014
REMARK SMILES Cc1nn([C@@H](C)C(=O)NCCCCNC(=O)c2ccc(-c3c4nc(c(-c5c(F)cccc5F)c5ccc([nH]5)c(-c5c(F)cccc5F)c5nc(c(-c6c(F)cccc6F)c6ccc3[nH]6)C=C5)C=C4)cc2)c(=O)c2cc3cc(F)ccc3n12
REMARK SMILES IDX 12 1 11 2 10 3 9 4 7 5 8 6 5 8 6 9 4 10 1 11 2 12 3 13 82 14
REMARK SMILES IDX 73 15 81 16 71 17 74 18 75 19 80 20 72 21 76 22 79 23 77 24
REMARK SMILES IDX 78 25 13 26 14 27 15 28 16 30 17 31 18 32 70 33 19 34 69 35
REMARK SMILES IDX 20 36 21 37 22 38 63 39 23 40 68 41 62 42 64 43 24 44 67 45
REMARK SMILES IDX 61 46 60 47 25 49 51 50 34 51 50 52 35 53 38 54 49 55 65 56
REMARK SMILES IDX 36 57 37 58 48 60 66 61 39 62 26 63 27 64 32 65 28 66 29 67
REMARK SMILES IDX 31 68 33 69 30 70 52 71 53 72 58 73 54 74 55 75 57 76 59 77
REMARK SMILES IDX 56 78 40 79 41 80 46 81 42 82 43 83 45 84 47 85 44 86
REMARK H PARENT 9 7 14 29 64 48 38 59
REMARK Flexibility Score: inf
ROOT
ATOM      1  C   UNL A   1      33.214  29.350  26.830  1.00  0.00     0.023 C 
ENDROOT
BRANCH   1   2
ATOM      2  C   UNL A   1      32.897  29.283  25.331  1.00  0.00     0.023 C 
BRANCH   2   3
ATOM      3  C   UNL A   1      31.402  29.203  25.023  1.00  0.00     0.116 C 
BRANCH   3   4
ATOM      4  N   UNL A   1      31.139  29.258  23.606  1.00  0.00    -0.354 N 
ATOM      5  C   UNL A   1      30.604  28.341  22.756  1.00  0.00     0.244 C 
ATOM      6  O   UNL A   1      30.406  28.743  21.601  1.00  0.00    -0.273 OA
ATOM      7  H   UNL A   1      31.391  30.109  23.180  1.00  0.00     0.163 HD
BRANCH   5   8
ATOM      8  C   UNL A   1      30.183  26.905  23.159  1.00  0.00     0.197 C 
ATOM      9  C   UNL A   1      29.033  26.873  24.160  1.00  0.00     0.044 C 
BRANCH   8  10
ATOM     10  N   UNL A   1      31.311  25.987  23.434  1.00  0.00    -0.214 N 
ATOM     11  C   UNL A   1      33.233  23.596  21.339  1.00  0.00     0.090 C 
ATOM     12  C   UNL A   1      32.817  24.494  22.454  1.00  0.00     0.131 A 
ATOM     13  N   UNL A   1      31.764  25.251  22.330  1.00  0.00    -0.155 NA
ATOM     14  N   UNL A   1      33.595  24.490  23.620  1.00  0.00    -0.291 N 
ATOM     15  C   UNL A   1      33.134  25.179  24.712  1.00  0.00     0.115 A 
ATOM     16  C   UNL A   1      34.816  23.899  23.959  1.00  0.00     0.055 A 
ATOM     17  C   UNL A   1      31.823  25.766  24.716  1.00  0.00     0.291 A 
ATOM     18  C   UNL A   1      34.103  25.201  25.684  1.00  0.00     0.043 A 
ATOM     19  C   UNL A   1      35.166  24.394  25.230  1.00  0.00     0.004 A 
ATOM     20  C   UNL A   1      35.670  22.995  23.294  1.00  0.00     0.030 A 
ATOM     21  O   UNL A   1      31.256  26.037  25.759  1.00  0.00    -0.265 OA
ATOM     22  C   UNL A   1      36.388  24.024  25.823  1.00  0.00     0.049 A 
ATOM     23  C   UNL A   1      36.855  22.599  23.928  1.00  0.00     0.041 A 
ATOM     24  C   UNL A   1      37.206  23.116  25.163  1.00  0.00     0.123 A 
ATOM     25  F   UNL A   1      38.347  22.722  25.743  1.00  0.00    -0.207 F 
ENDBRANCH   8  10
ENDBRANCH   5   8
ENDBRANCH   3   4
ENDBRANCH   2   3
ENDBRANCH   1   2
BRANCH   1  26
ATOM     26  C   UNL A   1      34.698  29.143  27.149  1.00  0.00     0.116 C 
BRANCH  26  27
ATOM     27  N   UNL A   1      35.324  30.299  27.755  1.00  0.00    -0.352 N 
ATOM     28  C   UNL A   1      36.603  30.607  28.118  1.00  0.00     0.251 C 
ATOM     29  H   UNL A   1      34.685  31.024  27.947  1.00  0.00     0.163 HD
ATOM     30  O   UNL A   1      36.822  31.780  28.426  1.00  0.00    -0.269 OA
BRANCH  28  31
ATOM     31  C   UNL A   1      37.698  29.614  28.260  1.00  0.00     0.039 A 
ATOM     32  C   UNL A   1      37.782  28.637  29.251  1.00  0.00     0.014 A 
ATOM     33  C   UNL A   1      38.772  29.762  27.361  1.00  0.00     0.014 A 
ATOM     34  C   UNL A   1      38.955  27.924  29.433  1.00  0.00     0.010 A 
ATOM     35  C   UNL A   1      39.941  29.036  27.521  1.00  0.00     0.010 A 
ATOM     36  C   UNL A   1      40.045  28.161  28.595  1.00  0.00    -0.014 A 
BRANCH  36  37
ATOM     37  C   UNL A   1      41.217  27.317  28.769  1.00  0.00     0.031 A 
ATOM     38  C   UNL A   1      41.954  27.625  30.030  1.00  0.00     0.074 A 
ATOM     39  C   UNL A   1      41.519  26.311  27.923  1.00  0.00     0.049 A 
ATOM     40  N   UNL A   1      43.169  28.047  30.157  1.00  0.00    -0.248 NA
ATOM     41  C   UNL A   1      41.180  27.665  31.286  1.00  0.00     0.031 C 
ATOM     42  C   UNL A   1      40.720  25.818  26.798  1.00  0.00     0.029 A 
ATOM     43  N   UNL A   1      42.571  25.444  27.945  1.00  0.00    -0.354 N 
ATOM     44  C   UNL A   1      43.380  28.188  31.529  1.00  0.00     0.074 A 
ATOM     45  C   UNL A   1      42.085  28.130  32.146  1.00  0.00     0.031 C 
ATOM     46  C   UNL A   1      41.188  24.610  26.407  1.00  0.00     0.029 A 
ATOM     47  C   UNL A   1      42.391  24.305  27.158  1.00  0.00     0.049 A 
ATOM     48  H   UNL A   1      43.387  25.607  28.471  1.00  0.00     0.167 HD
ATOM     49  C   UNL A   1      44.630  28.056  32.052  1.00  0.00     0.037 A 
ATOM     50  C   UNL A   1      43.148  23.176  27.192  1.00  0.00     0.037 A 
ATOM     51  C   UNL A   1      45.627  28.302  31.038  1.00  0.00     0.049 A 
ATOM     52  C   UNL A   1      44.429  23.521  27.858  1.00  0.00     0.074 A 
ATOM     53  C   UNL A   1      45.971  29.382  30.250  1.00  0.00     0.029 A 
ATOM     54  N   UNL A   1      46.205  27.206  30.448  1.00  0.00    -0.354 N 
ATOM     55  N   UNL A   1      45.330  24.297  27.324  1.00  0.00    -0.248 NA
ATOM     56  C   UNL A   1      44.477  23.409  29.307  1.00  0.00     0.031 C 
ATOM     57  C   UNL A   1      46.328  28.819  28.989  1.00  0.00     0.029 A 
ATOM     58  C   UNL A   1      46.268  27.431  29.101  1.00  0.00     0.049 A 
ATOM     59  H   UNL A   1      46.520  26.398  30.915  1.00  0.00     0.167 HD
ATOM     60  C   UNL A   1      45.748  25.112  28.364  1.00  0.00     0.074 A 
ATOM     61  C   UNL A   1      45.234  24.476  29.577  1.00  0.00     0.031 C 
ATOM     62  C   UNL A   1      46.210  26.374  28.121  1.00  0.00     0.037 A 
BRANCH  49  63
ATOM     63  C   UNL A   1      44.928  27.235  33.295  1.00  0.00     0.057 A 
ATOM     64  C   UNL A   1      44.777  25.836  33.400  1.00  0.00     0.134 A 
ATOM     65  C   UNL A   1      45.722  27.816  34.304  1.00  0.00     0.134 A 
ATOM     66  F   UNL A   1      44.050  25.112  32.543  1.00  0.00    -0.206 F 
ATOM     67  C   UNL A   1      45.446  25.069  34.357  1.00  0.00     0.040 A 
ATOM     68  C   UNL A   1      46.426  27.052  35.243  1.00  0.00     0.040 A 
ATOM     69  F   UNL A   1      45.922  29.142  34.348  1.00  0.00    -0.206 F 
ATOM     70  C   UNL A   1      46.309  25.670  35.255  1.00  0.00     0.006 A 
ENDBRANCH  49  63
BRANCH  50  71
ATOM     71  C   UNL A   1      42.738  21.765  26.987  1.00  0.00     0.057 A 
ATOM     72  C   UNL A   1      43.333  20.965  25.997  1.00  0.00     0.134 A 
ATOM     73  C   UNL A   1      41.563  21.254  27.560  1.00  0.00     0.134 A 
ATOM     74  F   UNL A   1      44.412  21.389  25.322  1.00  0.00    -0.206 F 
ATOM     75  C   UNL A   1      42.790  19.740  25.592  1.00  0.00     0.040 A 
ATOM     76  C   UNL A   1      41.005  20.031  27.160  1.00  0.00     0.040 A 
ATOM     77  F   UNL A   1      40.888  21.964  28.477  1.00  0.00    -0.206 F 
ATOM     78  C   UNL A   1      41.614  19.274  26.164  1.00  0.00     0.006 A 
ENDBRANCH  50  71
BRANCH  62  79
ATOM     79  C   UNL A   1      46.490  26.752  26.695  1.00  0.00     0.057 A 
ATOM     80  C   UNL A   1      47.798  26.616  26.218  1.00  0.00     0.134 A 
ATOM     81  C   UNL A   1      45.561  27.356  25.833  1.00  0.00     0.134 A 
ATOM     82  F   UNL A   1      48.754  26.100  27.007  1.00  0.00    -0.206 F 
ATOM     83  C   UNL A   1      48.169  27.048  24.945  1.00  0.00     0.040 A 
ATOM     84  C   UNL A   1      45.910  27.761  24.541  1.00  0.00     0.040 A 
ATOM     85  F   UNL A   1      44.311  27.620  26.236  1.00  0.00    -0.206 F 
ATOM     86  C   UNL A   1      47.220  27.612  24.095  1.00  0.00     0.006 A 
ENDBRANCH  62  79
ENDBRANCH  36  37
ENDBRANCH  28  31
ENDBRANCH  26  27
ENDBRANCH   1  26
TORSDOF 12
ENDMDL
MODEL 3
REMARK VINA RESULT:     -12.1      3.112      8.084
REMARK SMILES Cc1nn([C@@H](C)C(=O)NCCCCNC(=O)c2ccc(-c3c4nc(c(-c5c(F)cccc5F)c5ccc([nH]5)c(-c5c(F)cccc5F)c5nc(c(-c6c(F)cccc6F)c6ccc3[nH]6)C=C5)C=C4)cc2)c(=O)c2cc3cc(F)ccc3n12
REMARK SMILES IDX 12 1 11 2 10 3 9 4 7 5 8 6 5 8 6 9 4 10 1 11 2 12 3 13 82 14
REMARK SMILES IDX 73 15 81 16 71 17 74 18 75 19 80 20 72 21 76 22 79 23 77 24
REMARK SMILES IDX 78 25 13 26 14 27 15 28 16 30 17 31 18 32 70 33 19 34 69 35
REMARK SMILES IDX 20 36 21 37 22 38 63 39 23 40 68 41 62 42 64 43 24 44 67 45
REMARK SMILES IDX 61 46 60 47 25 49 51 50 34 51 50 52 35 53 38 54 49 55 65 56
REMARK SMILES IDX 36 57 37 58 48 60 66 61 39 62 26 63 27 64 32 65 28 66 29 67
REMARK SMILES IDX 31 68 33 69 30 70 52 71 53 72 58 73 54 74 55 75 57 76 59 77
REMARK SMILES IDX 56 78 40 79 41 80 46 81 42 82 43 83 45 84 47 85 44 86
REMARK H PARENT 9 7 14 29 64 48 38 59
REMARK Flexibility Score: inf
ROOT
ATOM      1  C   UNL A   1      32.043  29.813  26.751  1.00  0.00     0.023 C 
ENDROOT
BRANCH   1   2
ATOM      2  C   UNL A   1      31.787  28.452  27.408  1.00  0.00     0.023 C 
BRANCH   2   3
ATOM      3  C   UNL A   1      31.599  27.312  26.406  1.00  0.00     0.116 C 
BRANCH   3   4
ATOM      4  N   UNL A   1      31.126  27.787  25.130  1.00  0.00    -0.354 N 
ATOM      5  C   UNL A   1      31.733  27.850  23.915  1.00  0.00     0.244 C 
ATOM      6  O   UNL A   1      31.007  28.214  22.979  1.00  0.00    -0.273 OA
ATOM      7  H   UNL A   1      30.202  28.125  25.140  1.00  0.00     0.163 HD
BRANCH   5   8
ATOM      8  C   UNL A   1      33.203  27.443  23.641  1.00  0.00     0.197 C 
ATOM      9  C   UNL A   1      33.836  28.213  22.486  1.00  0.00     0.044 C 
BRANCH   8  10
ATOM     10  N   UNL A   1      33.454  25.985  23.665  1.00  0.00    -0.214 N 
ATOM     11  C   UNL A   1      35.719  23.810  25.650  1.00  0.00     0.090 C 
ATOM     12  C   UNL A   1      34.616  24.283  24.764  1.00  0.00     0.131 A 
ATOM     13  N   UNL A   1      34.405  25.558  24.601  1.00  0.00    -0.155 NA
ATOM     14  N   UNL A   1      33.829  23.313  24.128  1.00  0.00    -0.291 N 
ATOM     15  C   UNL A   1      32.924  23.726  23.184  1.00  0.00     0.115 A 
ATOM     16  C   UNL A   1      33.748  21.920  24.231  1.00  0.00     0.055 A 
ATOM     17  C   UNL A   1      32.884  25.094  22.749  1.00  0.00     0.291 A 
ATOM     18  C   UNL A   1      32.138  22.667  22.806  1.00  0.00     0.043 A 
ATOM     19  C   UNL A   1      32.648  21.520  23.449  1.00  0.00     0.004 A 
ATOM     20  C   UNL A   1      34.504  20.958  24.931  1.00  0.00     0.030 A 
ATOM     21  O   UNL A   1      32.382  25.404  21.684  1.00  0.00    -0.265 OA
ATOM     22  C   UNL A   1      32.271  20.165  23.399  1.00  0.00     0.049 A 
ATOM     23  C   UNL A   1      34.143  19.609  24.822  1.00  0.00     0.041 A 
ATOM     24  C   UNL A   1      33.040  19.229  24.077  1.00  0.00     0.123 A 
ATOM     25  F   UNL A   1      32.715  17.932  23.993  1.00  0.00    -0.207 F 
ENDBRANCH   8  10
ENDBRANCH   5   8
ENDBRANCH   3   4
ENDBRANCH   2   3
ENDBRANCH   1   2
BRANCH   1  26
ATOM     26  C   UNL A   1      33.490  30.296  26.895  1.00  0.00     0.116 C 
BRANCH  26  27
ATOM     27  N   UNL A   1      33.681  31.227  27.987  1.00  0.00    -0.352 N 
ATOM     28  C   UNL A   1      34.768  31.655  28.693  1.00  0.00     0.251 C 
ATOM     29  H   UNL A   1      32.840  31.644  28.287  1.00  0.00     0.163 HD
ATOM     30  O   UNL A   1      34.597  32.625  29.435  1.00  0.00    -0.269 OA
BRANCH  28  31
ATOM     31  C   UNL A   1      36.088  30.974  28.698  1.00  0.00     0.039 A 
ATOM     32  C   UNL A   1      36.295  29.607  28.520  1.00  0.00     0.014 A 
ATOM     33  C   UNL A   1      37.192  31.792  29.006  1.00  0.00     0.014 A 
ATOM     34  C   UNL A   1      37.534  29.048  28.779  1.00  0.00     0.010 A 
ATOM     35  C   UNL A   1      38.441  31.244  29.244  1.00  0.00     0.010 A 
ATOM     36  C   UNL A   1      38.589  29.864  29.186  1.00  0.00    -0.014 A 
BRANCH  36  37
ATOM     37  C   UNL A   1      39.893  29.238  29.351  1.00  0.00     0.031 A 
ATOM     38  C   UNL A   1      40.269  29.087  30.787  1.00  0.00     0.074 A 
ATOM     39  C   UNL A   1      40.607  28.766  28.310  1.00  0.00     0.049 A 
ATOM     40  N   UNL A   1      41.278  29.610  31.403  1.00  0.00    -0.248 NA
ATOM     41  C   UNL A   1      39.293  28.447  31.691  1.00  0.00     0.031 C 
ATOM     42  C   UNL A   1      40.197  28.683  26.906  1.00  0.00     0.029 A 
ATOM     43  N   UNL A   1      41.832  28.166  28.299  1.00  0.00    -0.354 N 
ATOM     44  C   UNL A   1      41.183  29.174  32.725  1.00  0.00     0.074 A 
ATOM     45  C   UNL A   1      39.861  28.638  32.880  1.00  0.00     0.031 C 
ATOM     46  C   UNL A   1      41.038  27.863  26.237  1.00  0.00     0.029 A 
ATOM     47  C   UNL A   1      42.117  27.468  27.123  1.00  0.00     0.049 A 
ATOM     48  H   UNL A   1      42.460  28.218  29.055  1.00  0.00     0.167 HD
ATOM     49  C   UNL A   1      42.302  29.040  33.489  1.00  0.00     0.037 A 
ATOM     50  C   UNL A   1      43.131  26.582  26.940  1.00  0.00     0.037 A 
ATOM     51  C   UNL A   1      43.366  29.865  32.971  1.00  0.00     0.049 A 
ATOM     52  C   UNL A   1      44.123  26.813  28.020  1.00  0.00     0.074 A 
ATOM     53  C   UNL A   1      43.546  31.221  32.783  1.00  0.00     0.029 A 
ATOM     54  N   UNL A   1      44.319  29.248  32.200  1.00  0.00    -0.354 N 
ATOM     55  N   UNL A   1      44.864  27.883  28.097  1.00  0.00    -0.248 NA
ATOM     56  C   UNL A   1      43.928  26.093  29.268  1.00  0.00     0.031 C 
ATOM     57  C   UNL A   1      44.272  31.330  31.559  1.00  0.00     0.029 A 
ATOM     58  C   UNL A   1      44.570  30.043  31.115  1.00  0.00     0.049 A 
ATOM     59  H   UNL A   1      44.748  28.383  32.395  1.00  0.00     0.167 HD
ATOM     60  C   UNL A   1      44.843  28.223  29.441  1.00  0.00     0.074 A 
ATOM     61  C   UNL A   1      44.304  27.047  30.124  1.00  0.00     0.031 C 
ATOM     62  C   UNL A   1      44.984  29.523  29.835  1.00  0.00     0.037 A 
BRANCH  49  63
ATOM     63  C   UNL A   1      42.574  27.824  34.358  1.00  0.00     0.057 A 
ATOM     64  C   UNL A   1      43.220  26.646  33.927  1.00  0.00     0.134 A 
ATOM     65  C   UNL A   1      42.500  27.973  35.758  1.00  0.00     0.134 A 
ATOM     66  F   UNL A   1      43.373  26.325  32.639  1.00  0.00    -0.206 F 
ATOM     67  C   UNL A   1      43.835  25.752  34.807  1.00  0.00     0.040 A 
ATOM     68  C   UNL A   1      43.147  27.103  36.644  1.00  0.00     0.040 A 
ATOM     69  F   UNL A   1      41.882  29.030  36.308  1.00  0.00    -0.206 F 
ATOM     70  C   UNL A   1      43.839  26.001  36.167  1.00  0.00     0.006 A 
ENDBRANCH  49  63
BRANCH  50  71
ATOM     71  C   UNL A   1      43.164  25.352  26.109  1.00  0.00     0.057 A 
ATOM     72  C   UNL A   1      42.333  24.256  26.392  1.00  0.00     0.134 A 
ATOM     73  C   UNL A   1      44.204  25.112  25.198  1.00  0.00     0.134 A 
ATOM     74  F   UNL A   1      41.358  24.344  27.309  1.00  0.00    -0.206 F 
ATOM     75  C   UNL A   1      42.529  22.994  25.815  1.00  0.00     0.040 A 
ATOM     76  C   UNL A   1      44.415  23.853  24.617  1.00  0.00     0.040 A 
ATOM     77  F   UNL A   1      45.085  26.079  24.900  1.00  0.00    -0.206 F 
ATOM     78  C   UNL A   1      43.582  22.785  24.934  1.00  0.00     0.006 A 
ENDBRANCH  50  71
BRANCH  62  79
ATOM     79  C   UNL A   1      45.412  30.524  28.800  1.00  0.00     0.057 A 
ATOM     80  C   UNL A   1      46.756  30.913  28.772  1.00  0.00     0.134 A 
ATOM     81  C   UNL A   1      44.538  31.199  27.935  1.00  0.00     0.134 A 
ATOM     82  F   UNL A   1      47.640  30.351  29.612  1.00  0.00    -0.206 F 
ATOM     83  C   UNL A   1      47.215  31.917  27.920  1.00  0.00     0.040 A 
ATOM     84  C   UNL A   1      44.992  32.183  27.050  1.00  0.00     0.040 A 
ATOM     85  F   UNL A   1      43.219  30.967  27.961  1.00  0.00    -0.206 F 
ATOM     86  C   UNL A   1      46.335  32.548  27.045  1.00  0.00     0.006 A 
ENDBRANCH  62  79
ENDBRANCH  36  37
ENDBRANCH  28  31
ENDBRANCH  26  27
ENDBRANCH   1  26
TORSDOF 12
ENDMDL
