MODEL 1
REMARK VINA RESULT:     -13.0      0.000      0.000
REMARK SMILES O=C(NCCCCNC(=O)[C@@H]1CN(C(=O)[C@H]2CC=CCC2)c2ccccc2O1)c1ccc(-c2c3nc(c(-c4c(F)cccc4F)c4ccc([nH]4)c(-c4c(F)cccc4F)c4nc(c(-c5c(F)cccc5F)c5ccc2[nH]5)C=C4)C=C3)cc1
REMARK SMILES IDX 5 1 4 2 3 3 1 4 2 5 29 7 30 8 82 9 31 10 81 11 32 12 33 13
REMARK SMILES IDX 34 14 75 15 35 16 80 17 74 18 76 19 36 20 79 21 73 22 72 23
REMARK SMILES IDX 37 25 63 26 46 27 62 28 47 29 50 30 61 31 77 32 48 33 49 34
REMARK SMILES IDX 60 36 78 37 51 38 38 39 39 40 44 41 40 42 41 43 43 44 45 45
REMARK SMILES IDX 42 46 64 47 65 48 70 49 66 50 67 51 69 52 71 53 68 54 52 55
REMARK SMILES IDX 53 56 58 57 54 58 55 59 57 60 59 61 56 62 6 63 7 64 8 65
REMARK SMILES IDX 9 66 10 68 11 69 12 70 28 71 13 72 27 73 22 74 26 75 23 76
REMARK SMILES IDX 25 77 24 78 14 79 15 80 16 81 17 82 21 83 18 84 20 85 19 86
REMARK H PARENT 3 6 76 24 50 35 8 67
REMARK Flexibility Score: inf
ROOT
ATOM      1  C   UNL A   1      35.386  21.779  25.181  1.00  0.00     0.023 C 
ENDROOT
BRANCH   1   2
ATOM      2  C   UNL A   1      36.822  22.201  24.894  1.00  0.00     0.116 C 
BRANCH   2   3
ATOM      3  N   UNL A   1      37.809  21.133  24.985  1.00  0.00    -0.352 N 
ATOM      4  O   UNL A   1      39.699  20.129  25.751  1.00  0.00    -0.269 OA
ATOM      5  C   UNL A   1      38.959  21.098  25.755  1.00  0.00     0.251 C 
ATOM      6  H   UNL A   1      37.637  20.337  24.430  1.00  0.00     0.163 HD
BRANCH   5   7
ATOM      7  C   UNL A   1      39.321  22.310  26.528  1.00  0.00     0.039 A 
ATOM      8  C   UNL A   1      38.746  23.540  26.212  1.00  0.00     0.014 A 
ATOM      9  C   UNL A   1      40.370  22.232  27.448  1.00  0.00     0.014 A 
ATOM     10  C   UNL A   1      39.387  24.704  26.619  1.00  0.00     0.010 A 
ATOM     11  C   UNL A   1      40.937  23.408  27.947  1.00  0.00     0.010 A 
ATOM     12  C   UNL A   1      40.506  24.656  27.472  1.00  0.00    -0.014 A 
BRANCH  12  13
ATOM     13  C   UNL A   1      41.218  25.919  27.810  1.00  0.00     0.031 A 
ATOM     14  C   UNL A   1      42.594  26.214  27.266  1.00  0.00     0.074 A 
ATOM     15  C   UNL A   1      40.581  26.848  28.551  1.00  0.00     0.049 A 
ATOM     16  N   UNL A   1      43.339  27.279  27.440  1.00  0.00    -0.248 NA
ATOM     17  C   UNL A   1      43.224  25.184  26.425  1.00  0.00     0.031 C 
ATOM     18  C   UNL A   1      39.246  26.689  29.131  1.00  0.00     0.029 A 
ATOM     19  N   UNL A   1      40.948  28.120  28.905  1.00  0.00    -0.354 N 
ATOM     20  C   UNL A   1      44.535  27.027  26.777  1.00  0.00     0.074 A 
ATOM     21  C   UNL A   1      44.421  25.707  26.197  1.00  0.00     0.031 C 
ATOM     22  C   UNL A   1      38.873  27.845  29.696  1.00  0.00     0.029 A 
ATOM     23  C   UNL A   1      39.968  28.801  29.585  1.00  0.00     0.049 A 
ATOM     24  H   UNL A   1      41.829  28.507  28.694  1.00  0.00     0.167 HD
ATOM     25  C   UNL A   1      45.625  27.823  26.660  1.00  0.00     0.037 A 
ATOM     26  C   UNL A   1      39.951  30.053  30.076  1.00  0.00     0.037 A 
ATOM     27  C   UNL A   1      45.720  29.159  27.190  1.00  0.00     0.049 A 
ATOM     28  C   UNL A   1      41.164  30.919  29.917  1.00  0.00     0.074 A 
ATOM     29  C   UNL A   1      46.770  30.057  27.089  1.00  0.00     0.029 A 
ATOM     30  N   UNL A   1      44.722  29.794  27.913  1.00  0.00    -0.354 N 
ATOM     31  N   UNL A   1      42.289  30.657  29.298  1.00  0.00    -0.248 NA
ATOM     32  C   UNL A   1      41.111  32.247  30.543  1.00  0.00     0.031 C 
ATOM     33  C   UNL A   1      46.419  31.224  27.777  1.00  0.00     0.029 A 
ATOM     34  C   UNL A   1      45.137  31.067  28.277  1.00  0.00     0.049 A 
ATOM     35  H   UNL A   1      43.848  29.400  28.135  1.00  0.00     0.167 HD
ATOM     36  C   UNL A   1      43.080  31.785  29.459  1.00  0.00     0.074 A 
ATOM     37  C   UNL A   1      42.295  32.744  30.211  1.00  0.00     0.031 C 
ATOM     38  C   UNL A   1      44.346  32.003  29.030  1.00  0.00     0.037 A 
BRANCH  25  39
ATOM     39  C   UNL A   1      46.825  27.265  25.948  1.00  0.00     0.057 A 
ATOM     40  C   UNL A   1      47.789  26.492  26.606  1.00  0.00     0.134 A 
ATOM     41  C   UNL A   1      46.988  27.465  24.571  1.00  0.00     0.134 A 
ATOM     42  F   UNL A   1      47.698  26.272  27.926  1.00  0.00    -0.206 F 
ATOM     43  C   UNL A   1      48.883  25.953  25.923  1.00  0.00     0.040 A 
ATOM     44  C   UNL A   1      48.064  26.914  23.873  1.00  0.00     0.040 A 
ATOM     45  F   UNL A   1      46.096  28.189  23.878  1.00  0.00    -0.206 F 
ATOM     46  C   UNL A   1      49.018  26.157  24.550  1.00  0.00     0.006 A 
ENDBRANCH  25  39
BRANCH  26  47
ATOM     47  C   UNL A   1      38.736  30.553  30.762  1.00  0.00     0.057 A 
ATOM     48  C   UNL A   1      37.744  31.242  30.058  1.00  0.00     0.134 A 
ATOM     49  C   UNL A   1      38.522  30.319  32.126  1.00  0.00     0.134 A 
ATOM     50  F   UNL A   1      37.902  31.508  28.754  1.00  0.00    -0.206 F 
ATOM     51  C   UNL A   1      36.577  31.682  30.686  1.00  0.00     0.040 A 
ATOM     52  C   UNL A   1      37.350  30.731  32.760  1.00  0.00     0.040 A 
ATOM     53  F   UNL A   1      39.434  29.656  32.851  1.00  0.00    -0.206 F 
ATOM     54  C   UNL A   1      36.375  31.418  32.040  1.00  0.00     0.006 A 
ENDBRANCH  26  47
BRANCH  38  55
ATOM     55  C   UNL A   1      44.948  33.335  29.361  1.00  0.00     0.057 A 
ATOM     56  C   UNL A   1      45.691  33.532  30.532  1.00  0.00     0.134 A 
ATOM     57  C   UNL A   1      44.788  34.426  28.500  1.00  0.00     0.134 A 
ATOM     58  F   UNL A   1      45.864  32.527  31.404  1.00  0.00    -0.206 F 
ATOM     59  C   UNL A   1      46.234  34.777  30.847  1.00  0.00     0.040 A 
ATOM     60  C   UNL A   1      45.342  35.672  28.795  1.00  0.00     0.040 A 
ATOM     61  F   UNL A   1      44.091  34.299  27.362  1.00  0.00    -0.206 F 
ATOM     62  C   UNL A   1      46.063  35.851  29.975  1.00  0.00     0.006 A 
ENDBRANCH  38  55
ENDBRANCH  12  13
ENDBRANCH   5   7
ENDBRANCH   2   3
ENDBRANCH   1   2
BRANCH   1  63
ATOM     63  C   UNL A   1      34.375  22.195  24.119  1.00  0.00     0.023 C 
BRANCH  63  64
ATOM     64  C   UNL A   1      33.485  23.364  24.540  1.00  0.00     0.116 C 
BRANCH  64  65
ATOM     65  N   UNL A   1      33.656  24.526  23.705  1.00  0.00    -0.353 N 
ATOM     66  C   UNL A   1      32.877  25.586  23.399  1.00  0.00     0.262 C 
ATOM     67  H   UNL A   1      34.534  24.553  23.261  1.00  0.00     0.163 HD
ATOM     68  O   UNL A   1      33.447  26.450  22.713  1.00  0.00    -0.271 OA
BRANCH  66  69
ATOM     69  C   UNL A   1      31.405  25.814  23.813  1.00  0.00     0.281 C 
ATOM     70  C   UNL A   1      30.443  26.804  23.175  1.00  0.00     0.181 C 
ATOM     71  O   UNL A   1      31.352  25.963  25.235  1.00  0.00    -0.477 OA
ATOM     72  N   UNL A   1      30.649  28.209  23.529  1.00  0.00    -0.304 N 
ATOM     73  C   UNL A   1      31.607  27.259  25.614  1.00  0.00     0.144 A 
ATOM     74  C   UNL A   1      31.284  28.388  24.828  1.00  0.00     0.086 A 
ATOM     75  C   UNL A   1      32.182  27.374  26.885  1.00  0.00     0.049 A 
ATOM     76  C   UNL A   1      31.569  29.638  25.397  1.00  0.00     0.030 A 
ATOM     77  C   UNL A   1      32.466  28.626  27.410  1.00  0.00     0.004 A 
ATOM     78  C   UNL A   1      32.156  29.757  26.666  1.00  0.00     0.002 A 
BRANCH  72  79
ATOM     79  C   UNL A   1      30.243  29.278  22.721  1.00  0.00     0.230 C 
ATOM     80  O   UNL A   1      30.939  29.702  21.788  1.00  0.00    -0.274 OA
BRANCH  79  81
ATOM     81  C   UNL A   1      28.891  30.021  22.896  1.00  0.00     0.083 C 
ATOM     82  C   UNL A   1      28.854  31.288  23.755  1.00  0.00     0.040 C 
ATOM     83  C   UNL A   1      28.008  30.078  21.648  1.00  0.00     0.018 C 
ATOM     84  C   UNL A   1      28.636  32.565  23.000  1.00  0.00    -0.030 C 
ATOM     85  C   UNL A   1      28.045  31.390  20.868  1.00  0.00     0.028 C 
ATOM     86  C   UNL A   1      28.288  32.606  21.707  1.00  0.00    -0.031 C 
ENDBRANCH  79  81
ENDBRANCH  72  79
ENDBRANCH  66  69
ENDBRANCH  64  65
ENDBRANCH  63  64
ENDBRANCH   1  63
TORSDOF 13
ENDMDL
MODEL 2
REMARK VINA RESULT:     -13.0      4.046      9.628
REMARK SMILES O=C(NCCCCNC(=O)[C@@H]1CN(C(=O)[C@H]2CC=CCC2)c2ccccc2O1)c1ccc(-c2c3nc(c(-c4c(F)cccc4F)c4ccc([nH]4)c(-c4c(F)cccc4F)c4nc(c(-c5c(F)cccc5F)c5ccc2[nH]5)C=C4)C=C3)cc1
REMARK SMILES IDX 5 1 4 2 3 3 1 4 2 5 29 7 30 8 82 9 31 10 81 11 32 12 33 13
REMARK SMILES IDX 34 14 75 15 35 16 80 17 74 18 76 19 36 20 79 21 73 22 72 23
REMARK SMILES IDX 37 25 63 26 46 27 62 28 47 29 50 30 61 31 77 32 48 33 49 34
REMARK SMILES IDX 60 36 78 37 51 38 38 39 39 40 44 41 40 42 41 43 43 44 45 45
REMARK SMILES IDX 42 46 64 47 65 48 70 49 66 50 67 51 69 52 71 53 68 54 52 55
REMARK SMILES IDX 53 56 58 57 54 58 55 59 57 60 59 61 56 62 6 63 7 64 8 65
REMARK SMILES IDX 9 66 10 68 11 69 12 70 28 71 13 72 27 73 22 74 26 75 23 76
REMARK SMILES IDX 25 77 24 78 14 79 15 80 16 81 17 82 21 83 18 84 20 85 19 86
REMARK H PARENT 3 6 76 24 50 35 8 67
REMARK Flexibility Score: inf
ROOT
ATOM      1  C   UNL A   1      31.763  28.881  26.449  1.00  0.00     0.023 C 
ENDROOT
BRANCH   1   2
ATOM      2  C   UNL A   1      32.624  30.065  26.024  1.00  0.00     0.116 C 
BRANCH   2   3
ATOM      3  N   UNL A   1      32.320  31.322  26.697  1.00  0.00    -0.352 N 
ATOM      4  O   UNL A   1      32.794  33.157  27.952  1.00  0.00    -0.269 OA
ATOM      5  C   UNL A   1      33.172  32.112  27.451  1.00  0.00     0.251 C 
ATOM      6  H   UNL A   1      31.397  31.650  26.604  1.00  0.00     0.163 HD
BRANCH   5   7
ATOM      7  C   UNL A   1      34.544  31.614  27.709  1.00  0.00     0.039 A 
ATOM      8  C   UNL A   1      34.759  30.267  27.995  1.00  0.00     0.014 A 
ATOM      9  C   UNL A   1      35.582  32.541  27.838  1.00  0.00     0.014 A 
ATOM     10  C   UNL A   1      35.928  29.898  28.649  1.00  0.00     0.010 A 
ATOM     11  C   UNL A   1      36.802  32.138  28.390  1.00  0.00     0.010 A 
ATOM     12  C   UNL A   1      36.956  30.832  28.878  1.00  0.00    -0.014 A 
BRANCH  12  13
ATOM     13  C   UNL A   1      38.153  30.418  29.663  1.00  0.00     0.031 A 
ATOM     14  C   UNL A   1      38.312  30.803  31.113  1.00  0.00     0.074 A 
ATOM     15  C   UNL A   1      39.068  29.617  29.081  1.00  0.00     0.049 A 
ATOM     16  N   UNL A   1      39.278  30.499  31.945  1.00  0.00    -0.248 NA
ATOM     17  C   UNL A   1      37.260  31.641  31.709  1.00  0.00     0.031 C 
ATOM     18  C   UNL A   1      39.028  29.168  27.689  1.00  0.00     0.029 A 
ATOM     19  N   UNL A   1      40.180  29.004  29.596  1.00  0.00    -0.354 N 
ATOM     20  C   UNL A   1      38.977  31.145  33.140  1.00  0.00     0.074 A 
ATOM     21  C   UNL A   1      37.739  31.862  32.926  1.00  0.00     0.031 C 
ATOM     22  C   UNL A   1      40.017  28.288  27.482  1.00  0.00     0.029 A 
ATOM     23  C   UNL A   1      40.806  28.169  28.703  1.00  0.00     0.049 A 
ATOM     24  H   UNL A   1      40.501  29.150  30.516  1.00  0.00     0.167 HD
ATOM     25  C   UNL A   1      39.667  31.140  34.306  1.00  0.00     0.037 A 
ATOM     26  C   UNL A   1      41.899  27.398  28.842  1.00  0.00     0.037 A 
ATOM     27  C   UNL A   1      40.871  30.384  34.537  1.00  0.00     0.049 A 
ATOM     28  C   UNL A   1      42.633  27.396  30.148  1.00  0.00     0.074 A 
ATOM     29  C   UNL A   1      41.621  30.285  35.698  1.00  0.00     0.029 A 
ATOM     30  N   UNL A   1      41.497  29.587  33.591  1.00  0.00    -0.354 N 
ATOM     31  N   UNL A   1      42.339  28.024  31.260  1.00  0.00    -0.248 NA
ATOM     32  C   UNL A   1      43.862  26.595  30.211  1.00  0.00     0.031 C 
ATOM     33  C   UNL A   1      42.717  29.452  35.444  1.00  0.00     0.029 A 
ATOM     34  C   UNL A   1      42.631  29.005  34.137  1.00  0.00     0.049 A 
ATOM     35  H   UNL A   1      41.182  29.454  32.668  1.00  0.00     0.167 HD
ATOM     36  C   UNL A   1      43.345  27.695  32.156  1.00  0.00     0.074 A 
ATOM     37  C   UNL A   1      44.243  26.791  31.466  1.00  0.00     0.031 C 
ATOM     38  C   UNL A   1      43.515  28.114  33.433  1.00  0.00     0.037 A 
BRANCH  25  39
ATOM     39  C   UNL A   1      39.153  31.999  35.426  1.00  0.00     0.057 A 
ATOM     40  C   UNL A   1      38.333  31.490  36.441  1.00  0.00     0.134 A 
ATOM     41  C   UNL A   1      39.529  33.346  35.514  1.00  0.00     0.134 A 
ATOM     42  F   UNL A   1      37.928  30.212  36.409  1.00  0.00    -0.206 F 
ATOM     43  C   UNL A   1      37.891  32.295  37.494  1.00  0.00     0.040 A 
ATOM     44  C   UNL A   1      39.111  34.155  36.573  1.00  0.00     0.040 A 
ATOM     45  F   UNL A   1      40.320  33.895  34.580  1.00  0.00    -0.206 F 
ATOM     46  C   UNL A   1      38.286  33.630  37.566  1.00  0.00     0.006 A 
ENDBRANCH  25  39
BRANCH  26  47
ATOM     47  C   UNL A   1      42.355  26.564  27.704  1.00  0.00     0.057 A 
ATOM     48  C   UNL A   1      41.922  25.243  27.560  1.00  0.00     0.134 A 
ATOM     49  C   UNL A   1      43.200  27.082  26.715  1.00  0.00     0.134 A 
ATOM     50  F   UNL A   1      41.124  24.689  28.485  1.00  0.00    -0.206 F 
ATOM     51  C   UNL A   1      42.314  24.461  26.472  1.00  0.00     0.040 A 
ATOM     52  C   UNL A   1      43.579  26.321  25.610  1.00  0.00     0.040 A 
ATOM     53  F   UNL A   1      43.641  28.346  26.794  1.00  0.00    -0.206 F 
ATOM     54  C   UNL A   1      43.138  25.005  25.487  1.00  0.00     0.006 A 
ENDBRANCH  26  47
BRANCH  38  55
ATOM     55  C   UNL A   1      44.714  27.584  34.161  1.00  0.00     0.057 A 
ATOM     56  C   UNL A   1      45.933  28.272  34.162  1.00  0.00     0.134 A 
ATOM     57  C   UNL A   1      44.646  26.379  34.869  1.00  0.00     0.134 A 
ATOM     58  F   UNL A   1      46.063  29.425  33.487  1.00  0.00    -0.206 F 
ATOM     59  C   UNL A   1      47.052  27.767  34.823  1.00  0.00     0.040 A 
ATOM     60  C   UNL A   1      45.753  25.873  35.550  1.00  0.00     0.040 A 
ATOM     61  F   UNL A   1      43.505  25.675  34.908  1.00  0.00    -0.206 F 
ATOM     62  C   UNL A   1      46.963  26.565  35.523  1.00  0.00     0.006 A 
ENDBRANCH  38  55
ENDBRANCH  12  13
ENDBRANCH   5   7
ENDBRANCH   2   3
ENDBRANCH   1   2
BRANCH   1  63
ATOM     63  C   UNL A   1      32.465  27.530  26.388  1.00  0.00     0.023 C 
BRANCH  63  64
ATOM     64  C   UNL A   1      31.539  26.371  26.019  1.00  0.00     0.116 C 
BRANCH  64  65
ATOM     65  N   UNL A   1      31.717  25.222  26.869  1.00  0.00    -0.353 N 
ATOM     66  C   UNL A   1      31.768  23.890  26.649  1.00  0.00     0.262 C 
ATOM     67  H   UNL A   1      31.826  25.459  27.818  1.00  0.00     0.163 HD
ATOM     68  O   UNL A   1      32.055  23.223  27.657  1.00  0.00    -0.271 OA
BRANCH  66  69
ATOM     69  C   UNL A   1      31.518  23.153  25.314  1.00  0.00     0.281 C 
ATOM     70  C   UNL A   1      31.416  21.646  25.133  1.00  0.00     0.181 C 
ATOM     71  O   UNL A   1      32.413  23.681  24.331  1.00  0.00    -0.477 OA
ATOM     72  N   UNL A   1      32.682  20.913  25.178  1.00  0.00    -0.304 N 
ATOM     73  C   UNL A   1      33.639  23.063  24.385  1.00  0.00     0.144 A 
ATOM     74  C   UNL A   1      33.829  21.721  24.784  1.00  0.00     0.086 A 
ATOM     75  C   UNL A   1      34.699  23.872  23.960  1.00  0.00     0.049 A 
ATOM     76  C   UNL A   1      35.145  21.241  24.728  1.00  0.00     0.030 A 
ATOM     77  C   UNL A   1      35.992  23.369  23.931  1.00  0.00     0.004 A 
ATOM     78  C   UNL A   1      36.213  22.053  24.313  1.00  0.00     0.002 A 
BRANCH  72  79
ATOM     79  C   UNL A   1      32.781  19.561  25.526  1.00  0.00     0.230 C 
ATOM     80  O   UNL A   1      33.243  19.191  26.615  1.00  0.00    -0.274 OA
BRANCH  79  81
ATOM     81  C   UNL A   1      32.314  18.401  24.605  1.00  0.00     0.083 C 
ATOM     82  C   UNL A   1      32.736  18.416  23.133  1.00  0.00     0.040 C 
ATOM     83  C   UNL A   1      32.316  17.012  25.248  1.00  0.00     0.018 C 
ATOM     84  C   UNL A   1      33.733  17.366  22.743  1.00  0.00    -0.030 C 
ATOM     85  C   UNL A   1      33.509  16.124  24.906  1.00  0.00     0.028 C 
ATOM     86  C   UNL A   1      34.085  16.351  23.544  1.00  0.00    -0.031 C 
ENDBRANCH  79  81
ENDBRANCH  72  79
ENDBRANCH  66  69
ENDBRANCH  64  65
ENDBRANCH  63  64
ENDBRANCH   1  63
TORSDOF 13
ENDMDL
MODEL 3
REMARK VINA RESULT:     -13.0      5.010      8.813
REMARK SMILES O=C(NCCCCNC(=O)[C@@H]1CN(C(=O)[C@H]2CC=CCC2)c2ccccc2O1)c1ccc(-c2c3nc(c(-c4c(F)cccc4F)c4ccc([nH]4)c(-c4c(F)cccc4F)c4nc(c(-c5c(F)cccc5F)c5ccc2[nH]5)C=C4)C=C3)cc1
REMARK SMILES IDX 5 1 4 2 3 3 1 4 2 5 29 7 30 8 82 9 31 10 81 11 32 12 33 13
REMARK SMILES IDX 34 14 75 15 35 16 80 17 74 18 76 19 36 20 79 21 73 22 72 23
REMARK SMILES IDX 37 25 63 26 46 27 62 28 47 29 50 30 61 31 77 32 48 33 49 34
REMARK SMILES IDX 60 36 78 37 51 38 38 39 39 40 44 41 40 42 41 43 43 44 45 45
REMARK SMILES IDX 42 46 64 47 65 48 70 49 66 50 67 51 69 52 71 53 68 54 52 55
REMARK SMILES IDX 53 56 58 57 54 58 55 59 57 60 59 61 56 62 6 63 7 64 8 65
REMARK SMILES IDX 9 66 10 68 11 69 12 70 28 71 13 72 27 73 22 74 26 75 23 76
REMARK SMILES IDX 25 77 24 78 14 79 15 80 16 81 17 82 21 83 18 84 20 85 19 86
REMARK H PARENT 3 6 76 24 50 35 8 67
REMARK Flexibility Score: inf
ROOT
ATOM      1  C   UNL A   1      33.686  33.526  28.599  1.00  0.00     0.023 C 
ENDROOT
BRANCH   1   2
ATOM      2  C   UNL A   1      34.048  34.808  29.340  1.00  0.00     0.116 C 
BRANCH   2   3
ATOM      3  N   UNL A   1      32.952  35.429  30.072  1.00  0.00    -0.352 N 
ATOM      4  O   UNL A   1      31.864  36.163  31.928  1.00  0.00    -0.269 OA
ATOM      5  C   UNL A   1      32.835  35.610  31.440  1.00  0.00     0.251 C 
ATOM      6  H   UNL A   1      32.201  35.760  29.527  1.00  0.00     0.163 HD
BRANCH   5   7
ATOM      7  C   UNL A   1      33.886  35.038  32.314  1.00  0.00     0.039 A 
ATOM      8  C   UNL A   1      35.104  35.698  32.471  1.00  0.00     0.014 A 
ATOM      9  C   UNL A   1      33.706  33.751  32.828  1.00  0.00     0.014 A 
ATOM     10  C   UNL A   1      36.207  34.976  32.909  1.00  0.00     0.010 A 
ATOM     11  C   UNL A   1      34.796  33.069  33.378  1.00  0.00     0.010 A 
ATOM     12  C   UNL A   1      36.075  33.644  33.346  1.00  0.00    -0.014 A 
BRANCH  12  13
ATOM     13  C   UNL A   1      37.295  32.877  33.722  1.00  0.00     0.031 A 
ATOM     14  C   UNL A   1      37.942  31.911  32.760  1.00  0.00     0.074 A 
ATOM     15  C   UNL A   1      37.873  33.116  34.916  1.00  0.00     0.049 A 
ATOM     16  N   UNL A   1      39.024  31.188  32.920  1.00  0.00    -0.248 NA
ATOM     17  C   UNL A   1      37.294  31.723  31.452  1.00  0.00     0.031 C 
ATOM     18  C   UNL A   1      37.352  34.031  35.934  1.00  0.00     0.029 A 
ATOM     19  N   UNL A   1      39.042  32.649  35.457  1.00  0.00    -0.354 N 
ATOM     20  C   UNL A   1      39.156  30.428  31.763  1.00  0.00     0.074 A 
ATOM     21  C   UNL A   1      38.043  30.775  30.906  1.00  0.00     0.031 C 
ATOM     22  C   UNL A   1      38.235  34.121  36.936  1.00  0.00     0.029 A 
ATOM     23  C   UNL A   1      39.347  33.216  36.670  1.00  0.00     0.049 A 
ATOM     24  H   UNL A   1      39.607  31.971  35.020  1.00  0.00     0.167 HD
ATOM     25  C   UNL A   1      40.117  29.528  31.443  1.00  0.00     0.037 A 
ATOM     26  C   UNL A   1      40.399  33.025  37.487  1.00  0.00     0.037 A 
ATOM     27  C   UNL A   1      41.255  29.222  32.271  1.00  0.00     0.049 A 
ATOM     28  C   UNL A   1      41.456  32.037  37.101  1.00  0.00     0.074 A 
ATOM     29  C   UNL A   1      42.302  28.351  32.014  1.00  0.00     0.029 A 
ATOM     30  N   UNL A   1      41.502  29.785  33.513  1.00  0.00    -0.354 N 
ATOM     31  N   UNL A   1      41.556  31.320  36.008  1.00  0.00    -0.248 NA
ATOM     32  C   UNL A   1      42.538  31.818  38.071  1.00  0.00     0.031 C 
ATOM     33  C   UNL A   1      43.166  28.366  33.115  1.00  0.00     0.029 A 
ATOM     34  C   UNL A   1      42.676  29.270  34.042  1.00  0.00     0.049 A 
ATOM     35  H   UNL A   1      40.929  30.452  33.955  1.00  0.00     0.167 HD
ATOM     36  C   UNL A   1      42.709  30.563  36.157  1.00  0.00     0.074 A 
ATOM     37  C   UNL A   1      43.289  30.929  37.435  1.00  0.00     0.031 C 
ATOM     38  C   UNL A   1      43.234  29.640  35.316  1.00  0.00     0.037 A 
BRANCH  25  39
ATOM     39  C   UNL A   1      39.972  28.782  30.147  1.00  0.00     0.057 A 
ATOM     40  C   UNL A   1      40.573  29.223  28.962  1.00  0.00     0.134 A 
ATOM     41  C   UNL A   1      39.260  27.576  30.100  1.00  0.00     0.134 A 
ATOM     42  F   UNL A   1      41.260  30.375  28.936  1.00  0.00    -0.206 F 
ATOM     43  C   UNL A   1      40.457  28.500  27.772  1.00  0.00     0.040 A 
ATOM     44  C   UNL A   1      39.154  26.834  28.922  1.00  0.00     0.040 A 
ATOM     45  F   UNL A   1      38.666  27.092  31.201  1.00  0.00    -0.206 F 
ATOM     46  C   UNL A   1      39.751  27.297  27.751  1.00  0.00     0.006 A 
ENDBRANCH  25  39
BRANCH  26  47
ATOM     47  C   UNL A   1      40.492  33.796  38.750  1.00  0.00     0.057 A 
ATOM     48  C   UNL A   1      41.278  34.950  38.833  1.00  0.00     0.134 A 
ATOM     49  C   UNL A   1      39.769  33.419  39.887  1.00  0.00     0.134 A 
ATOM     50  F   UNL A   1      42.005  35.349  37.779  1.00  0.00    -0.206 F 
ATOM     51  C   UNL A   1      41.343  35.705  40.005  1.00  0.00     0.040 A 
ATOM     52  C   UNL A   1      39.804  34.178  41.057  1.00  0.00     0.040 A 
ATOM     53  F   UNL A   1      38.992  32.327  39.865  1.00  0.00    -0.206 F 
ATOM     54  C   UNL A   1      40.595  35.323  41.119  1.00  0.00     0.006 A 
ENDBRANCH  26  47
BRANCH  38  55
ATOM     55  C   UNL A   1      44.503  28.975  35.755  1.00  0.00     0.057 A 
ATOM     56  C   UNL A   1      44.489  27.799  36.514  1.00  0.00     0.134 A 
ATOM     57  C   UNL A   1      45.748  29.514  35.410  1.00  0.00     0.134 A 
ATOM     58  F   UNL A   1      43.325  27.246  36.888  1.00  0.00    -0.206 F 
ATOM     59  C   UNL A   1      45.672  27.194  36.937  1.00  0.00     0.040 A 
ATOM     60  C   UNL A   1      46.938  28.906  35.811  1.00  0.00     0.040 A 
ATOM     61  F   UNL A   1      45.827  30.636  34.681  1.00  0.00    -0.206 F 
ATOM     62  C   UNL A   1      46.902  27.745  36.583  1.00  0.00     0.006 A 
ENDBRANCH  38  55
ENDBRANCH  12  13
ENDBRANCH   5   7
ENDBRANCH   2   3
ENDBRANCH   1   2
BRANCH   1  63
ATOM     63  C   UNL A   1      34.711  32.405  28.727  1.00  0.00     0.023 C 
BRANCH  63  64
ATOM     64  C   UNL A   1      34.559  31.308  27.673  1.00  0.00     0.116 C 
BRANCH  64  65
ATOM     65  N   UNL A   1      33.235  30.741  27.644  1.00  0.00    -0.353 N 
ATOM     66  C   UNL A   1      32.604  29.872  26.825  1.00  0.00     0.262 C 
ATOM     67  H   UNL A   1      32.667  31.054  28.384  1.00  0.00     0.163 HD
ATOM     68  O   UNL A   1      31.471  29.542  27.215  1.00  0.00    -0.271 OA
BRANCH  66  69
ATOM     69  C   UNL A   1      33.141  29.272  25.505  1.00  0.00     0.281 C 
ATOM     70  C   UNL A   1      32.511  29.434  24.131  1.00  0.00     0.181 C 
ATOM     71  O   UNL A   1      33.436  27.890  25.724  1.00  0.00    -0.477 OA
ATOM     72  N   UNL A   1      31.312  28.632  23.883  1.00  0.00    -0.304 N 
ATOM     73  C   UNL A   1      32.317  27.107  25.565  1.00  0.00     0.144 A 
ATOM     74  C   UNL A   1      31.257  27.416  24.683  1.00  0.00     0.086 A 
ATOM     75  C   UNL A   1      32.335  25.934  26.328  1.00  0.00     0.049 A 
ATOM     76  C   UNL A   1      30.220  26.475  24.612  1.00  0.00     0.030 A 
ATOM     77  C   UNL A   1      31.284  25.032  26.245  1.00  0.00     0.004 A 
ATOM     78  C   UNL A   1      30.229  25.303  25.384  1.00  0.00     0.002 A 
BRANCH  72  79
ATOM     79  C   UNL A   1      30.332  28.975  22.943  1.00  0.00     0.230 C 
ATOM     80  O   UNL A   1      30.397  28.613  21.760  1.00  0.00    -0.274 OA
BRANCH  79  81
ATOM     81  C   UNL A   1      29.073  29.817  23.284  1.00  0.00     0.083 C 
ATOM     82  C   UNL A   1      29.258  31.168  23.980  1.00  0.00     0.040 C 
ATOM     83  C   UNL A   1      27.966  29.797  22.228  1.00  0.00     0.018 C 
ATOM     84  C   UNL A   1      28.950  32.369  23.137  1.00  0.00    -0.030 C 
ATOM     85  C   UNL A   1      27.904  31.014  21.308  1.00  0.00     0.028 C 
ATOM     86  C   UNL A   1      28.357  32.294  21.938  1.00  0.00    -0.031 C 
ENDBRANCH  79  81
ENDBRANCH  72  79
ENDBRANCH  66  69
ENDBRANCH  64  65
ENDBRANCH  63  64
ENDBRANCH   1  63
TORSDOF 13
ENDMDL
