MODEL 1
REMARK VINA RESULT:     -13.6      0.000      0.000
REMARK SMILES O=C1C[C@@H](c2cccc(O)c2)c2c(c(C(=O)NCCCCNC(=O)c3ccc(-c4c5nc(c(-c6c(F)cccc6F)c6ccc([nH]6)c(-c6c(F)cccc6F)c6nc(c(-c7c(F)cccc7F)c7ccc4[nH]7)C=C6)C=C5)cc3)cn2-c2cccc(C(F)(F)F)c2)N1
REMARK SMILES IDX 19 1 18 2 17 3 15 4 16 5 14 7 1 8 2 9 3 10 91 11 4 12 13 13
REMARK SMILES IDX 12 15 80 16 79 17 5 18 6 19 11 20 7 21 9 22 8 23 10 24 81 26
REMARK SMILES IDX 82 27 90 28 83 29 85 30 84 31 86 32 87 33 88 34 89 35 20 36
REMARK SMILES IDX 21 37 22 38 23 39 24 41 25 42 26 43 78 44 27 45 77 46 28 47
REMARK SMILES IDX 29 48 30 49 71 50 31 51 76 52 70 53 72 54 32 55 75 56 69 57
REMARK SMILES IDX 68 58 33 60 59 61 42 62 58 63 43 64 46 65 57 66 73 67 44 68
REMARK SMILES IDX 45 69 56 71 74 72 47 73 34 74 35 75 40 76 36 77 37 78 39 79
REMARK SMILES IDX 41 80 38 81 60 82 61 83 66 84 62 85 63 86 65 87 67 88 64 89
REMARK SMILES IDX 48 90 49 91 54 92 50 93 51 94 53 95 55 96 52 97
REMARK H PARENT 17 6 91 14 10 25 22 40 72 59 46 70
REMARK Flexibility Score: inf
ROOT
ATOM      1  C   UNL A   1      36.451  21.422  25.132  1.00  0.00     0.023 C 
ENDROOT
BRANCH   1   2
ATOM      2  C   UNL A   1      35.037  21.594  25.694  1.00  0.00     0.116 C 
BRANCH   2   3
ATOM      3  N   UNL A   1      34.005  21.373  24.703  1.00  0.00    -0.352 N 
ATOM      4  C   UNL A   1      33.146  22.200  24.023  1.00  0.00     0.254 C 
ATOM      5  O   UNL A   1      32.370  21.646  23.239  1.00  0.00    -0.269 OA
ATOM      6  H   UNL A   1      33.895  20.424  24.466  1.00  0.00     0.163 HD
BRANCH   4   7
ATOM      7  C   UNL A   1      33.103  23.651  24.196  1.00  0.00     0.081 A 
ATOM      8  O   UNL A   1      32.748  25.198  19.670  1.00  0.00    -0.275 OA
ATOM      9  C   UNL A   1      32.931  25.412  20.868  1.00  0.00     0.225 C 
ATOM     10  C   UNL A   1      33.324  26.791  21.385  1.00  0.00     0.115 C 
ATOM     11  N   UNL A   1      32.914  24.386  21.781  1.00  0.00    -0.324 N 
ATOM     12  C   UNL A   1      32.813  27.111  22.805  1.00  0.00     0.078 C 
ATOM     13  C   UNL A   1      32.986  24.600  23.139  1.00  0.00     0.076 A 
ATOM     14  H   UNL A   1      32.848  23.460  21.451  1.00  0.00     0.170 HD
ATOM     15  C   UNL A   1      32.910  25.875  23.652  1.00  0.00     0.055 A 
ATOM     16  N   UNL A   1      33.010  25.774  25.021  1.00  0.00    -0.317 N 
ATOM     17  C   UNL A   1      33.179  24.433  25.333  1.00  0.00     0.107 A 
BRANCH  12  18
ATOM     18  C   UNL A   1      31.415  27.704  22.766  1.00  0.00    -0.035 A 
ATOM     19  C   UNL A   1      30.294  27.009  23.249  1.00  0.00     0.005 A 
ATOM     20  C   UNL A   1      31.239  29.016  22.294  1.00  0.00     0.050 A 
ATOM     21  C   UNL A   1      29.044  27.628  23.307  1.00  0.00     0.004 A 
ATOM     22  C   UNL A   1      29.997  29.633  22.390  1.00  0.00     0.115 A 
ATOM     23  C   UNL A   1      28.896  28.950  22.892  1.00  0.00     0.046 A 
BRANCH  22  24
ATOM     24  O   UNL A   1      29.914  30.943  22.024  1.00  0.00    -0.508 OA
ATOM     25  H   UNL A   1      30.519  31.295  21.401  1.00  0.00     0.293 HD
ENDBRANCH  22  24
ENDBRANCH  12  18
BRANCH  16  26
ATOM     26  C   UNL A   1      32.862  26.755  26.029  1.00  0.00     0.046 A 
ATOM     27  C   UNL A   1      31.592  26.997  26.567  1.00  0.00     0.026 A 
ATOM     28  C   UNL A   1      33.923  27.613  26.323  1.00  0.00     0.039 A 
ATOM     29  C   UNL A   1      31.399  28.070  27.436  1.00  0.00     0.003 A 
ATOM     30  C   UNL A   1      33.735  28.702  27.189  1.00  0.00     0.058 A 
ATOM     31  C   UNL A   1      32.466  28.914  27.748  1.00  0.00     0.013 A 
BRANCH  30  32
ATOM     32  C   UNL A   1      34.861  29.663  27.489  1.00  0.00     0.416 C 
ATOM     33  F   UNL A   1      34.518  30.956  27.222  1.00  0.00    -0.166 F 
ATOM     34  F   UNL A   1      35.232  29.643  28.798  1.00  0.00    -0.166 F 
ATOM     35  F   UNL A   1      35.995  29.434  26.771  1.00  0.00    -0.166 F 
ENDBRANCH  30  32
ENDBRANCH  16  26
ENDBRANCH   4   7
ENDBRANCH   2   3
ENDBRANCH   1   2
BRANCH   1  36
ATOM     36  C   UNL A   1      37.227  22.731  24.912  1.00  0.00     0.023 C 
BRANCH  36  37
ATOM     37  C   UNL A   1      38.124  23.160  26.072  1.00  0.00     0.116 C 
BRANCH  37  38
ATOM     38  N   UNL A   1      39.356  22.375  26.178  1.00  0.00    -0.352 N 
ATOM     39  C   UNL A   1      40.661  22.843  26.243  1.00  0.00     0.251 C 
ATOM     40  H   UNL A   1      39.245  21.398  26.206  1.00  0.00     0.163 HD
ATOM     41  O   UNL A   1      41.607  22.142  25.934  1.00  0.00    -0.269 OA
BRANCH  39  42
ATOM     42  C   UNL A   1      40.879  24.214  26.734  1.00  0.00     0.039 A 
ATOM     43  C   UNL A   1      40.377  25.336  26.070  1.00  0.00     0.014 A 
ATOM     44  C   UNL A   1      41.574  24.343  27.930  1.00  0.00     0.014 A 
ATOM     45  C   UNL A   1      40.514  26.584  26.673  1.00  0.00     0.010 A 
ATOM     46  C   UNL A   1      41.546  25.531  28.604  1.00  0.00     0.010 A 
ATOM     47  C   UNL A   1      41.085  26.669  27.954  1.00  0.00    -0.014 A 
BRANCH  47  48
ATOM     48  C   UNL A   1      41.118  27.924  28.691  1.00  0.00     0.031 A 
ATOM     49  C   UNL A   1      42.234  28.836  28.319  1.00  0.00     0.074 A 
ATOM     50  C   UNL A   1      40.084  28.334  29.461  1.00  0.00     0.049 A 
ATOM     51  N   UNL A   1      43.218  29.221  29.062  1.00  0.00    -0.248 NA
ATOM     52  C   UNL A   1      42.344  29.270  26.915  1.00  0.00     0.031 C 
ATOM     53  C   UNL A   1      38.778  27.693  29.664  1.00  0.00     0.029 A 
ATOM     54  N   UNL A   1      39.946  29.498  30.148  1.00  0.00    -0.354 N 
ATOM     55  C   UNL A   1      43.956  30.113  28.288  1.00  0.00     0.074 A 
ATOM     56  C   UNL A   1      43.484  29.964  26.937  1.00  0.00     0.031 C 
ATOM     57  C   UNL A   1      37.915  28.580  30.206  1.00  0.00     0.029 A 
ATOM     58  C   UNL A   1      38.647  29.782  30.553  1.00  0.00     0.049 A 
ATOM     59  H   UNL A   1      40.706  30.092  30.345  1.00  0.00     0.167 HD
ATOM     60  C   UNL A   1      44.731  31.075  28.864  1.00  0.00     0.037 A 
ATOM     61  C   UNL A   1      38.211  30.944  31.102  1.00  0.00     0.037 A 
ATOM     62  C   UNL A   1      44.976  30.785  30.255  1.00  0.00     0.049 A 
ATOM     63  C   UNL A   1      39.407  31.652  31.628  1.00  0.00     0.074 A 
ATOM     64  C   UNL A   1      45.542  29.718  30.928  1.00  0.00     0.029 A 
ATOM     65  N   UNL A   1      44.244  31.467  31.197  1.00  0.00    -0.354 N 
ATOM     66  N   UNL A   1      40.118  31.217  32.633  1.00  0.00    -0.248 NA
ATOM     67  C   UNL A   1      40.094  32.560  30.722  1.00  0.00     0.031 C 
ATOM     68  C   UNL A   1      44.701  29.521  32.064  1.00  0.00     0.029 A 
ATOM     69  C   UNL A   1      43.739  30.531  32.065  1.00  0.00     0.049 A 
ATOM     70  H   UNL A   1      44.107  32.441  31.240  1.00  0.00     0.167 HD
ATOM     71  C   UNL A   1      41.435  31.436  32.254  1.00  0.00     0.074 A 
ATOM     72  C   UNL A   1      41.355  32.328  31.096  1.00  0.00     0.031 C 
ATOM     73  C   UNL A   1      42.452  30.647  32.712  1.00  0.00     0.037 A 
BRANCH  60  74
ATOM     74  C   UNL A   1      44.962  32.439  28.270  1.00  0.00     0.057 A 
ATOM     75  C   UNL A   1      43.902  33.363  28.216  1.00  0.00     0.134 A 
ATOM     76  C   UNL A   1      46.096  32.784  27.506  1.00  0.00     0.134 A 
ATOM     77  F   UNL A   1      42.757  33.134  28.876  1.00  0.00    -0.206 F 
ATOM     78  C   UNL A   1      43.951  34.512  27.419  1.00  0.00     0.040 A 
ATOM     79  C   UNL A   1      46.175  33.955  26.749  1.00  0.00     0.040 A 
ATOM     80  F   UNL A   1      47.141  31.960  27.367  1.00  0.00    -0.206 F 
ATOM     81  C   UNL A   1      45.088  34.811  26.680  1.00  0.00     0.006 A 
ENDBRANCH  60  74
BRANCH  61  82
ATOM     82  C   UNL A   1      36.901  31.611  30.915  1.00  0.00     0.057 A 
ATOM     83  C   UNL A   1      36.043  31.850  31.998  1.00  0.00     0.134 A 
ATOM     84  C   UNL A   1      36.578  32.278  29.717  1.00  0.00     0.134 A 
ATOM     85  F   UNL A   1      36.289  31.295  33.193  1.00  0.00    -0.206 F 
ATOM     86  C   UNL A   1      34.944  32.715  31.903  1.00  0.00     0.040 A 
ATOM     87  C   UNL A   1      35.482  33.140  29.608  1.00  0.00     0.040 A 
ATOM     88  F   UNL A   1      37.367  32.184  28.638  1.00  0.00    -0.206 F 
ATOM     89  C   UNL A   1      34.667  33.373  30.708  1.00  0.00     0.006 A 
ENDBRANCH  61  82
BRANCH  73  90
ATOM     90  C   UNL A   1      42.152  29.651  33.805  1.00  0.00     0.057 A 
ATOM     91  C   UNL A   1      41.773  28.318  33.581  1.00  0.00     0.134 A 
ATOM     92  C   UNL A   1      42.427  30.007  35.130  1.00  0.00     0.134 A 
ATOM     93  F   UNL A   1      41.585  27.846  32.344  1.00  0.00    -0.206 F 
ATOM     94  C   UNL A   1      41.636  27.398  34.626  1.00  0.00     0.040 A 
ATOM     95  C   UNL A   1      42.328  29.089  36.180  1.00  0.00     0.040 A 
ATOM     96  F   UNL A   1      42.852  31.246  35.422  1.00  0.00    -0.206 F 
ATOM     97  C   UNL A   1      41.923  27.781  35.931  1.00  0.00     0.006 A 
ENDBRANCH  73  90
ENDBRANCH  47  48
ENDBRANCH  39  42
ENDBRANCH  37  38
ENDBRANCH  36  37
ENDBRANCH   1  36
TORSDOF 15
ENDMDL
MODEL 2
REMARK VINA RESULT:     -13.5      2.858      7.989
REMARK SMILES O=C1C[C@@H](c2cccc(O)c2)c2c(c(C(=O)NCCCCNC(=O)c3ccc(-c4c5nc(c(-c6c(F)cccc6F)c6ccc([nH]6)c(-c6c(F)cccc6F)c6nc(c(-c7c(F)cccc7F)c7ccc4[nH]7)C=C6)C=C5)cc3)cn2-c2cccc(C(F)(F)F)c2)N1
REMARK SMILES IDX 19 1 18 2 17 3 15 4 16 5 14 7 1 8 2 9 3 10 91 11 4 12 13 13
REMARK SMILES IDX 12 15 80 16 79 17 5 18 6 19 11 20 7 21 9 22 8 23 10 24 81 26
REMARK SMILES IDX 82 27 90 28 83 29 85 30 84 31 86 32 87 33 88 34 89 35 20 36
REMARK SMILES IDX 21 37 22 38 23 39 24 41 25 42 26 43 78 44 27 45 77 46 28 47
REMARK SMILES IDX 29 48 30 49 71 50 31 51 76 52 70 53 72 54 32 55 75 56 69 57
REMARK SMILES IDX 68 58 33 60 59 61 42 62 58 63 43 64 46 65 57 66 73 67 44 68
REMARK SMILES IDX 45 69 56 71 74 72 47 73 34 74 35 75 40 76 36 77 37 78 39 79
REMARK SMILES IDX 41 80 38 81 60 82 61 83 66 84 62 85 63 86 65 87 67 88 64 89
REMARK SMILES IDX 48 90 49 91 54 92 50 93 51 94 53 95 55 96 52 97
REMARK H PARENT 17 6 91 14 10 25 22 40 72 59 46 70
REMARK Flexibility Score: inf
ROOT
ATOM      1  C   UNL A   1      31.917  30.114  25.975  1.00  0.00     0.023 C 
ENDROOT
BRANCH   1   2
ATOM      2  C   UNL A   1      32.133  29.112  24.838  1.00  0.00     0.116 C 
BRANCH   2   3
ATOM      3  N   UNL A   1      30.953  28.326  24.546  1.00  0.00    -0.352 N 
ATOM      4  C   UNL A   1      30.686  26.980  24.529  1.00  0.00     0.254 C 
ATOM      5  O   UNL A   1      29.535  26.661  24.214  1.00  0.00    -0.269 OA
ATOM      6  H   UNL A   1      30.172  28.876  24.309  1.00  0.00     0.163 HD
BRANCH   4   7
ATOM      7  C   UNL A   1      31.674  25.948  24.838  1.00  0.00     0.081 A 
ATOM      8  O   UNL A   1      29.123  22.865  27.482  1.00  0.00    -0.275 OA
ATOM      9  C   UNL A   1      30.198  23.268  27.040  1.00  0.00     0.225 C 
ATOM     10  C   UNL A   1      31.526  22.663  27.483  1.00  0.00     0.115 C 
ATOM     11  N   UNL A   1      30.259  24.370  26.222  1.00  0.00    -0.324 N 
ATOM     12  C   UNL A   1      32.631  22.691  26.408  1.00  0.00     0.078 C 
ATOM     13  C   UNL A   1      31.421  24.774  25.606  1.00  0.00     0.076 A 
ATOM     14  H   UNL A   1      29.438  24.893  26.071  1.00  0.00     0.170 HD
ATOM     15  C   UNL A   1      32.549  23.986  25.652  1.00  0.00     0.055 A 
ATOM     16  N   UNL A   1      33.539  24.643  24.957  1.00  0.00    -0.317 N 
ATOM     17  C   UNL A   1      33.015  25.849  24.516  1.00  0.00     0.107 A 
BRANCH  12  18
ATOM     18  C   UNL A   1      32.559  21.467  25.512  1.00  0.00    -0.035 A 
ATOM     19  C   UNL A   1      32.196  21.551  24.158  1.00  0.00     0.005 A 
ATOM     20  C   UNL A   1      32.931  20.214  26.029  1.00  0.00     0.050 A 
ATOM     21  C   UNL A   1      32.253  20.425  23.334  1.00  0.00     0.004 A 
ATOM     22  C   UNL A   1      33.018  19.109  25.191  1.00  0.00     0.115 A 
ATOM     23  C   UNL A   1      32.682  19.203  23.846  1.00  0.00     0.046 A 
BRANCH  22  24
ATOM     24  O   UNL A   1      33.495  17.949  25.725  1.00  0.00    -0.508 OA
ATOM     25  H   UNL A   1      32.920  17.377  26.194  1.00  0.00     0.293 HD
ENDBRANCH  22  24
ENDBRANCH  12  18
BRANCH  16  26
ATOM     26  C   UNL A   1      34.838  24.223  24.589  1.00  0.00     0.046 A 
ATOM     27  C   UNL A   1      35.020  23.534  23.384  1.00  0.00     0.026 A 
ATOM     28  C   UNL A   1      35.881  24.302  25.514  1.00  0.00     0.039 A 
ATOM     29  C   UNL A   1      36.258  22.969  23.087  1.00  0.00     0.003 A 
ATOM     30  C   UNL A   1      37.129  23.727  25.228  1.00  0.00     0.058 A 
ATOM     31  C   UNL A   1      37.308  23.068  24.001  1.00  0.00     0.013 A 
BRANCH  30  32
ATOM     32  C   UNL A   1      38.257  23.770  26.231  1.00  0.00     0.416 C 
ATOM     33  F   UNL A   1      37.838  24.190  27.459  1.00  0.00    -0.166 F 
ATOM     34  F   UNL A   1      38.826  22.551  26.432  1.00  0.00    -0.166 F 
ATOM     35  F   UNL A   1      39.273  24.610  25.890  1.00  0.00    -0.166 F 
ENDBRANCH  30  32
ENDBRANCH  16  26
ENDBRANCH   4   7
ENDBRANCH   2   3
ENDBRANCH   1   2
BRANCH   1  36
ATOM     36  C   UNL A   1      32.791  29.883  27.220  1.00  0.00     0.023 C 
BRANCH  36  37
ATOM     37  C   UNL A   1      34.052  30.742  27.301  1.00  0.00     0.116 C 
BRANCH  37  38
ATOM     38  N   UNL A   1      34.036  31.699  28.409  1.00  0.00    -0.352 N 
ATOM     39  C   UNL A   1      34.900  31.762  29.492  1.00  0.00     0.251 C 
ATOM     40  H   UNL A   1      33.326  32.380  28.382  1.00  0.00     0.163 HD
ATOM     41  O   UNL A   1      34.584  32.312  30.531  1.00  0.00    -0.269 OA
BRANCH  39  42
ATOM     42  C   UNL A   1      36.240  31.169  29.341  1.00  0.00     0.039 A 
ATOM     43  C   UNL A   1      37.396  31.947  29.245  1.00  0.00     0.014 A 
ATOM     44  C   UNL A   1      36.310  29.782  29.346  1.00  0.00     0.014 A 
ATOM     45  C   UNL A   1      38.633  31.305  29.240  1.00  0.00     0.010 A 
ATOM     46  C   UNL A   1      37.517  29.166  29.526  1.00  0.00     0.010 A 
ATOM     47  C   UNL A   1      38.683  29.910  29.401  1.00  0.00    -0.014 A 
BRANCH  47  48
ATOM     48  C   UNL A   1      39.949  29.206  29.550  1.00  0.00     0.031 A 
ATOM     49  C   UNL A   1      40.408  29.040  30.957  1.00  0.00     0.074 A 
ATOM     50  C   UNL A   1      40.527  28.540  28.525  1.00  0.00     0.049 A 
ATOM     51  N   UNL A   1      41.463  29.543  31.505  1.00  0.00    -0.248 NA
ATOM     52  C   UNL A   1      39.523  28.340  31.903  1.00  0.00     0.031 C 
ATOM     53  C   UNL A   1      40.024  28.339  27.159  1.00  0.00     0.029 A 
ATOM     54  N   UNL A   1      41.661  27.792  28.529  1.00  0.00    -0.354 N 
ATOM     55  C   UNL A   1      41.490  29.052  32.807  1.00  0.00     0.074 A 
ATOM     56  C   UNL A   1      40.194  28.475  33.049  1.00  0.00     0.031 C 
ATOM     57  C   UNL A   1      40.710  27.340  26.563  1.00  0.00     0.029 A 
ATOM     58  C   UNL A   1      41.809  26.957  27.428  1.00  0.00     0.049 A 
ATOM     59  H   UNL A   1      42.325  27.839  29.254  1.00  0.00     0.167 HD
ATOM     60  C   UNL A   1      42.659  28.946  33.499  1.00  0.00     0.037 A 
ATOM     61  C   UNL A   1      42.754  25.996  27.268  1.00  0.00     0.037 A 
ATOM     62  C   UNL A   1      43.700  29.737  32.892  1.00  0.00     0.049 A 
ATOM     63  C   UNL A   1      43.856  26.309  28.215  1.00  0.00     0.074 A 
ATOM     64  C   UNL A   1      43.830  31.080  32.585  1.00  0.00     0.029 A 
ATOM     65  N   UNL A   1      44.637  29.092  32.121  1.00  0.00    -0.354 N 
ATOM     66  N   UNL A   1      44.625  27.358  28.104  1.00  0.00    -0.248 NA
ATOM     67  C   UNL A   1      43.771  25.734  29.549  1.00  0.00     0.031 C 
ATOM     68  C   UNL A   1      44.436  31.098  31.294  1.00  0.00     0.029 A 
ATOM     69  C   UNL A   1      44.724  29.781  30.936  1.00  0.00     0.049 A 
ATOM     70  H   UNL A   1      45.149  28.289  32.371  1.00  0.00     0.167 HD
ATOM     71  C   UNL A   1      44.767  27.831  29.401  1.00  0.00     0.074 A 
ATOM     72  C   UNL A   1      44.273  26.750  30.256  1.00  0.00     0.031 C 
ATOM     73  C   UNL A   1      44.983  29.155  29.659  1.00  0.00     0.037 A 
BRANCH  60  74
ATOM     74  C   UNL A   1      42.951  27.860  34.501  1.00  0.00     0.057 A 
ATOM     75  C   UNL A   1      43.208  26.552  34.054  1.00  0.00     0.134 A 
ATOM     76  C   UNL A   1      42.720  27.985  35.887  1.00  0.00     0.134 A 
ATOM     77  F   UNL A   1      43.415  26.299  32.753  1.00  0.00    -0.206 F 
ATOM     78  C   UNL A   1      43.184  25.448  34.915  1.00  0.00     0.040 A 
ATOM     79  C   UNL A   1      42.745  26.897  36.762  1.00  0.00     0.040 A 
ATOM     80  F   UNL A   1      42.354  29.143  36.449  1.00  0.00    -0.206 F 
ATOM     81  C   UNL A   1      42.949  25.618  36.273  1.00  0.00     0.006 A 
ENDBRANCH  60  74
BRANCH  61  82
ATOM     82  C   UNL A   1      42.619  24.680  26.600  1.00  0.00     0.057 A 
ATOM     83  C   UNL A   1      43.358  24.368  25.450  1.00  0.00     0.134 A 
ATOM     84  C   UNL A   1      41.973  23.598  27.228  1.00  0.00     0.134 A 
ATOM     85  F   UNL A   1      44.043  25.322  24.804  1.00  0.00    -0.206 F 
ATOM     86  C   UNL A   1      43.465  23.057  24.964  1.00  0.00     0.040 A 
ATOM     87  C   UNL A   1      42.069  22.286  26.751  1.00  0.00     0.040 A 
ATOM     88  F   UNL A   1      41.300  23.763  28.375  1.00  0.00    -0.206 F 
ATOM     89  C   UNL A   1      42.829  22.009  25.622  1.00  0.00     0.006 A 
ENDBRANCH  61  82
BRANCH  73  90
ATOM     90  C   UNL A   1      45.273  30.076  28.500  1.00  0.00     0.057 A 
ATOM     91  C   UNL A   1      44.292  30.777  27.780  1.00  0.00     0.134 A 
ATOM     92  C   UNL A   1      46.604  30.400  28.218  1.00  0.00     0.134 A 
ATOM     93  F   UNL A   1      42.990  30.619  28.043  1.00  0.00    -0.206 F 
ATOM     94  C   UNL A   1      44.621  31.721  26.802  1.00  0.00     0.040 A 
ATOM     95  C   UNL A   1      46.946  31.366  27.268  1.00  0.00     0.040 A 
ATOM     96  F   UNL A   1      47.601  29.818  28.904  1.00  0.00    -0.206 F 
ATOM     97  C   UNL A   1      45.953  32.024  26.549  1.00  0.00     0.006 A 
ENDBRANCH  73  90
ENDBRANCH  47  48
ENDBRANCH  39  42
ENDBRANCH  37  38
ENDBRANCH  36  37
ENDBRANCH   1  36
TORSDOF 15
ENDMDL
MODEL 3
REMARK VINA RESULT:     -13.3      3.617      8.074
REMARK SMILES O=C1C[C@@H](c2cccc(O)c2)c2c(c(C(=O)NCCCCNC(=O)c3ccc(-c4c5nc(c(-c6c(F)cccc6F)c6ccc([nH]6)c(-c6c(F)cccc6F)c6nc(c(-c7c(F)cccc7F)c7ccc4[nH]7)C=C6)C=C5)cc3)cn2-c2cccc(C(F)(F)F)c2)N1
REMARK SMILES IDX 19 1 18 2 17 3 15 4 16 5 14 7 1 8 2 9 3 10 91 11 4 12 13 13
REMARK SMILES IDX 12 15 80 16 79 17 5 18 6 19 11 20 7 21 9 22 8 23 10 24 81 26
REMARK SMILES IDX 82 27 90 28 83 29 85 30 84 31 86 32 87 33 88 34 89 35 20 36
REMARK SMILES IDX 21 37 22 38 23 39 24 41 25 42 26 43 78 44 27 45 77 46 28 47
REMARK SMILES IDX 29 48 30 49 71 50 31 51 76 52 70 53 72 54 32 55 75 56 69 57
REMARK SMILES IDX 68 58 33 60 59 61 42 62 58 63 43 64 46 65 57 66 73 67 44 68
REMARK SMILES IDX 45 69 56 71 74 72 47 73 34 74 35 75 40 76 36 77 37 78 39 79
REMARK SMILES IDX 41 80 38 81 60 82 61 83 66 84 62 85 63 86 65 87 67 88 64 89
REMARK SMILES IDX 48 90 49 91 54 92 50 93 51 94 53 95 55 96 52 97
REMARK H PARENT 17 6 91 14 10 25 22 40 72 59 46 70
REMARK Flexibility Score: inf
ROOT
ATOM      1  C   UNL A   1      33.156  29.199  26.883  1.00  0.00     0.023 C 
ENDROOT
BRANCH   1   2
ATOM      2  C   UNL A   1      33.672  27.815  26.482  1.00  0.00     0.116 C 
BRANCH   2   3
ATOM      3  N   UNL A   1      33.491  27.531  25.074  1.00  0.00    -0.352 N 
ATOM      4  C   UNL A   1      33.658  26.411  24.300  1.00  0.00     0.254 C 
ATOM      5  O   UNL A   1      33.412  26.544  23.097  1.00  0.00    -0.269 OA
ATOM      6  H   UNL A   1      33.182  28.312  24.560  1.00  0.00     0.163 HD
BRANCH   4   7
ATOM      7  C   UNL A   1      34.113  25.122  24.818  1.00  0.00     0.081 A 
ATOM      8  O   UNL A   1      30.236  23.549  27.161  1.00  0.00    -0.275 OA
ATOM      9  C   UNL A   1      31.431  23.462  26.881  1.00  0.00     0.225 C 
ATOM     10  C   UNL A   1      32.344  22.450  27.564  1.00  0.00     0.115 C 
ATOM     11  N   UNL A   1      32.025  24.362  26.029  1.00  0.00    -0.324 N 
ATOM     12  C   UNL A   1      33.502  21.939  26.684  1.00  0.00     0.078 C 
ATOM     13  C   UNL A   1      33.322  24.224  25.592  1.00  0.00     0.076 A 
ATOM     14  H   UNL A   1      31.501  25.137  25.720  1.00  0.00     0.170 HD
ATOM     15  C   UNL A   1      34.034  23.077  25.861  1.00  0.00     0.055 A 
ATOM     16  N   UNL A   1      35.284  23.227  25.304  1.00  0.00    -0.317 N 
ATOM     17  C   UNL A   1      35.337  24.486  24.724  1.00  0.00     0.107 A 
BRANCH  12  18
ATOM     18  C   UNL A   1      33.073  20.743  25.850  1.00  0.00    -0.035 A 
ATOM     19  C   UNL A   1      32.607  20.879  24.533  1.00  0.00     0.005 A 
ATOM     20  C   UNL A   1      33.208  19.451  26.384  1.00  0.00     0.050 A 
ATOM     21  C   UNL A   1      32.333  19.752  23.755  1.00  0.00     0.004 A 
ATOM     22  C   UNL A   1      32.966  18.336  25.589  1.00  0.00     0.115 A 
ATOM     23  C   UNL A   1      32.528  18.475  24.277  1.00  0.00     0.046 A 
BRANCH  22  24
ATOM     24  O   UNL A   1      33.225  17.111  26.126  1.00  0.00    -0.508 OA
ATOM     25  H   UNL A   1      32.519  16.527  26.326  1.00  0.00     0.293 HD
ENDBRANCH  22  24
ENDBRANCH  12  18
BRANCH  16  26
ATOM     26  C   UNL A   1      36.350  22.308  25.175  1.00  0.00     0.046 A 
ATOM     27  C   UNL A   1      36.105  21.051  24.609  1.00  0.00     0.026 A 
ATOM     28  C   UNL A   1      37.571  22.568  25.800  1.00  0.00     0.039 A 
ATOM     29  C   UNL A   1      37.101  20.075  24.627  1.00  0.00     0.003 A 
ATOM     30  C   UNL A   1      38.575  21.588  25.832  1.00  0.00     0.058 A 
ATOM     31  C   UNL A   1      38.330  20.344  25.231  1.00  0.00     0.013 A 
BRANCH  30  32
ATOM     32  C   UNL A   1      39.888  21.838  26.536  1.00  0.00     0.416 C 
ATOM     33  F   UNL A   1      40.861  22.255  25.676  1.00  0.00    -0.166 F 
ATOM     34  F   UNL A   1      39.797  22.808  27.486  1.00  0.00    -0.166 F 
ATOM     35  F   UNL A   1      40.402  20.743  27.160  1.00  0.00    -0.166 F 
ENDBRANCH  30  32
ENDBRANCH  16  26
ENDBRANCH   4   7
ENDBRANCH   2   3
ENDBRANCH   1   2
BRANCH   1  36
ATOM     36  C   UNL A   1      34.249  30.236  27.195  1.00  0.00     0.023 C 
BRANCH  36  37
ATOM     37  C   UNL A   1      35.496  29.683  27.883  1.00  0.00     0.116 C 
BRANCH  37  38
ATOM     38  N   UNL A   1      35.582  30.031  29.303  1.00  0.00    -0.352 N 
ATOM     39  C   UNL A   1      36.512  29.590  30.232  1.00  0.00     0.251 C 
ATOM     40  H   UNL A   1      34.897  30.653  29.638  1.00  0.00     0.163 HD
ATOM     41  O   UNL A   1      36.280  29.609  31.427  1.00  0.00    -0.269 OA
BRANCH  39  42
ATOM     42  C   UNL A   1      37.818  29.125  29.735  1.00  0.00     0.039 A 
ATOM     43  C   UNL A   1      38.530  29.808  28.747  1.00  0.00     0.014 A 
ATOM     44  C   UNL A   1      38.341  27.985  30.334  1.00  0.00     0.014 A 
ATOM     45  C   UNL A   1      39.816  29.375  28.431  1.00  0.00     0.010 A 
ATOM     46  C   UNL A   1      39.660  27.673  30.159  1.00  0.00     0.010 A 
ATOM     47  C   UNL A   1      40.381  28.315  29.160  1.00  0.00    -0.014 A 
BRANCH  47  48
ATOM     48  C   UNL A   1      41.770  27.918  28.973  1.00  0.00     0.031 A 
ATOM     49  C   UNL A   1      41.961  26.669  28.186  1.00  0.00     0.074 A 
ATOM     50  C   UNL A   1      42.800  28.744  29.267  1.00  0.00     0.049 A 
ATOM     51  N   UNL A   1      42.462  25.551  28.592  1.00  0.00    -0.248 NA
ATOM     52  C   UNL A   1      41.410  26.612  26.820  1.00  0.00     0.031 C 
ATOM     53  C   UNL A   1      42.757  30.132  29.744  1.00  0.00     0.029 A 
ATOM     54  N   UNL A   1      44.130  28.539  29.087  1.00  0.00    -0.354 N 
ATOM     55  C   UNL A   1      42.487  24.714  27.480  1.00  0.00     0.074 A 
ATOM     56  C   UNL A   1      41.670  25.348  26.479  1.00  0.00     0.031 C 
ATOM     57  C   UNL A   1      43.968  30.709  29.577  1.00  0.00     0.029 A 
ATOM     58  C   UNL A   1      44.909  29.689  29.156  1.00  0.00     0.049 A 
ATOM     59  H   UNL A   1      44.513  27.648  28.922  1.00  0.00     0.167 HD
ATOM     60  C   UNL A   1      43.375  23.684  27.390  1.00  0.00     0.037 A 
ATOM     61  C   UNL A   1      46.227  29.788  28.851  1.00  0.00     0.037 A 
ATOM     62  C   UNL A   1      43.939  23.366  28.677  1.00  0.00     0.049 A 
ATOM     63  C   UNL A   1      46.789  28.413  28.901  1.00  0.00     0.074 A 
ATOM     64  C   UNL A   1      43.402  22.991  29.895  1.00  0.00     0.029 A 
ATOM     65  N   UNL A   1      45.206  23.820  28.958  1.00  0.00    -0.354 N 
ATOM     66  N   UNL A   1      46.896  27.718  30.001  1.00  0.00    -0.248 NA
ATOM     67  C   UNL A   1      46.759  27.637  27.671  1.00  0.00     0.031 C 
ATOM     68  C   UNL A   1      44.147  23.730  30.861  1.00  0.00     0.029 A 
ATOM     69  C   UNL A   1      45.148  24.430  30.187  1.00  0.00     0.049 A 
ATOM     70  H   UNL A   1      46.002  23.725  28.387  1.00  0.00     0.167 HD
ATOM     71  C   UNL A   1      46.510  26.433  29.646  1.00  0.00     0.074 A 
ATOM     72  C   UNL A   1      46.502  26.430  28.182  1.00  0.00     0.031 C 
ATOM     73  C   UNL A   1      45.942  25.582  30.550  1.00  0.00     0.037 A 
BRANCH  60  74
ATOM     74  C   UNL A   1      43.990  23.212  26.098  1.00  0.00     0.057 A 
ATOM     75  C   UNL A   1      43.983  21.841  25.785  1.00  0.00     0.134 A 
ATOM     76  C   UNL A   1      44.826  24.007  25.288  1.00  0.00     0.134 A 
ATOM     77  F   UNL A   1      43.250  20.976  26.502  1.00  0.00    -0.206 F 
ATOM     78  C   UNL A   1      44.788  21.299  24.776  1.00  0.00     0.040 A 
ATOM     79  C   UNL A   1      45.594  23.484  24.244  1.00  0.00     0.040 A 
ATOM     80  F   UNL A   1      45.027  25.308  25.527  1.00  0.00    -0.206 F 
ATOM     81  C   UNL A   1      45.599  22.120  24.003  1.00  0.00     0.006 A 
ENDBRANCH  60  74
BRANCH  61  82
ATOM     82  C   UNL A   1      46.938  30.923  28.217  1.00  0.00     0.057 A 
ATOM     83  C   UNL A   1      46.522  31.448  26.985  1.00  0.00     0.134 A 
ATOM     84  C   UNL A   1      47.872  31.699  28.931  1.00  0.00     0.134 A 
ATOM     85  F   UNL A   1      45.605  30.804  26.249  1.00  0.00    -0.206 F 
ATOM     86  C   UNL A   1      46.988  32.678  26.501  1.00  0.00     0.040 A 
ATOM     87  C   UNL A   1      48.348  32.926  28.457  1.00  0.00     0.040 A 
ATOM     88  F   UNL A   1      48.285  31.335  30.153  1.00  0.00    -0.206 F 
ATOM     89  C   UNL A   1      47.896  33.428  27.244  1.00  0.00     0.006 A 
ENDBRANCH  61  82
BRANCH  73  90
ATOM     90  C   UNL A   1      45.926  25.984  32.004  1.00  0.00     0.057 A 
ATOM     91  C   UNL A   1      44.828  26.574  32.651  1.00  0.00     0.134 A 
ATOM     92  C   UNL A   1      46.996  25.599  32.818  1.00  0.00     0.134 A 
ATOM     93  F   UNL A   1      43.712  26.886  31.983  1.00  0.00    -0.206 F 
ATOM     94  C   UNL A   1      44.815  26.805  34.031  1.00  0.00     0.040 A 
ATOM     95  C   UNL A   1      46.981  25.792  34.203  1.00  0.00     0.040 A 
ATOM     96  F   UNL A   1      48.059  24.975  32.286  1.00  0.00    -0.206 F 
ATOM     97  C   UNL A   1      45.892  26.406  34.813  1.00  0.00     0.006 A 
ENDBRANCH  73  90
ENDBRANCH  47  48
ENDBRANCH  39  42
ENDBRANCH  37  38
ENDBRANCH  36  37
ENDBRANCH   1  36
TORSDOF 15
ENDMDL
