MODEL 1
REMARK VINA RESULT:     -10.6      0.000      0.000
REMARK SMILES CC(C)CCC(=O)NCc1ccc(C(=O)NCCCCNC(=O)c2ccc(-c3c4nc(c(-c5c(F)cccc5F)c5ccc([nH]5)c(-c5c(F)cccc5F)c5nc(c(-c6c(F)cccc6F)c6ccc3[nH]6)C=C5)C=C4)cc2)o1
REMARK SMILES IDX 17 1 16 2 14 3 15 4 13 6 10 7 11 8 78 9 12 10 9 11 8 12 6 13
REMARK SMILES IDX 7 14 5 16 4 17 2 18 1 19 3 20 18 21 19 22 20 23 21 24 22 25
REMARK SMILES IDX 23 27 24 28 25 29 77 30 26 31 76 32 27 33 28 34 29 35 70 36
REMARK SMILES IDX 30 37 75 38 69 39 71 40 31 41 74 42 68 43 67 44 32 46 58 47
REMARK SMILES IDX 41 48 57 49 42 50 45 51 56 52 72 53 43 54 44 55 55 57 73 58
REMARK SMILES IDX 46 59 33 60 34 61 39 62 35 63 36 64 38 65 40 66 37 67 59 68
REMARK SMILES IDX 60 69 65 70 61 71 62 72 64 73 66 74 63 75 47 76 48 77 53 78
REMARK SMILES IDX 49 79 50 80 52 81 54 82 51 83
REMARK H PARENT 16 5 8 15 21 26 71 45 45 56
REMARK Flexibility Score: inf
ROOT
ATOM      1  C   UNL A   1      35.227  21.211  25.904  1.00  0.00     0.116 C 
ENDROOT
BRANCH   1   2
ATOM      2  N   UNL A   1      34.199  20.240  25.605  1.00  0.00    -0.349 N 
ATOM      3  C   UNL A   1      32.862  20.374  25.315  1.00  0.00     0.286 C 
ATOM      4  O   UNL A   1      32.294  19.328  24.988  1.00  0.00    -0.266 OA
ATOM      5  H   UNL A   1      34.516  19.307  25.611  1.00  0.00     0.163 HD
BRANCH   3   6
ATOM      6  C   UNL A   1      32.174  21.653  25.383  1.00  0.00     0.191 A 
ATOM      7  C   UNL A   1      31.246  23.422  24.403  1.00  0.00     0.124 A 
ATOM      8  C   UNL A   1      31.029  23.570  25.755  1.00  0.00     0.048 A 
ATOM      9  O   UNL A   1      31.988  22.301  24.183  1.00  0.00    -0.454 OA
ATOM     10  C   UNL A   1      31.567  22.409  26.371  1.00  0.00     0.056 A 
BRANCH   7  11
ATOM     11  C   UNL A   1      30.740  24.161  23.211  1.00  0.00     0.191 C 
BRANCH  11  12
ATOM     12  N   UNL A   1      31.843  24.520  22.338  1.00  0.00    -0.349 N 
ATOM     13  C   UNL A   1      32.624  25.629  22.277  1.00  0.00     0.220 C 
ATOM     14  O   UNL A   1      33.478  25.692  21.390  1.00  0.00    -0.275 OA
ATOM     15  H   UNL A   1      32.065  23.834  21.667  1.00  0.00     0.163 HD
BRANCH  13  16
ATOM     16  C   UNL A   1      32.473  26.761  23.275  1.00  0.00     0.100 C 
BRANCH  16  17
ATOM     17  C   UNL A   1      33.790  27.109  23.986  1.00  0.00     0.013 C 
BRANCH  17  18
ATOM     18  C   UNL A   1      33.890  26.573  25.420  1.00  0.00    -0.017 C 
ATOM     19  C   UNL A   1      32.577  26.697  26.194  1.00  0.00     0.007 C 
ATOM     20  C   UNL A   1      34.382  25.127  25.465  1.00  0.00     0.007 C 
ENDBRANCH  17  18
ENDBRANCH  16  17
ENDBRANCH  13  16
ENDBRANCH  11  12
ENDBRANCH   7  11
ENDBRANCH   3   6
ENDBRANCH   1   2
BRANCH   1  21
ATOM     21  C   UNL A   1      35.922  21.694  24.632  1.00  0.00     0.023 C 
BRANCH  21  22
ATOM     22  C   UNL A   1      37.291  21.050  24.384  1.00  0.00     0.023 C 
BRANCH  22  23
ATOM     23  C   UNL A   1      38.208  20.971  25.604  1.00  0.00     0.116 C 
BRANCH  23  24
ATOM     24  N   UNL A   1      39.142  19.857  25.557  1.00  0.00    -0.352 N 
ATOM     25  C   UNL A   1      40.465  19.824  25.930  1.00  0.00     0.251 C 
ATOM     26  H   UNL A   1      38.776  19.010  25.212  1.00  0.00     0.163 HD
ATOM     27  O   UNL A   1      41.140  18.824  25.731  1.00  0.00    -0.269 OA
BRANCH  25  28
ATOM     28  C   UNL A   1      41.076  21.026  26.537  1.00  0.00     0.039 A 
ATOM     29  C   UNL A   1      41.641  21.988  25.696  1.00  0.00     0.014 A 
ATOM     30  C   UNL A   1      41.061  21.217  27.920  1.00  0.00     0.014 A 
ATOM     31  C   UNL A   1      42.127  23.178  26.241  1.00  0.00     0.010 A 
ATOM     32  C   UNL A   1      41.483  22.432  28.454  1.00  0.00     0.010 A 
ATOM     33  C   UNL A   1      42.015  23.426  27.618  1.00  0.00    -0.014 A 
BRANCH  33  34
ATOM     34  C   UNL A   1      42.437  24.725  28.201  1.00  0.00     0.031 A 
ATOM     35  C   UNL A   1      41.431  25.819  28.420  1.00  0.00     0.074 A 
ATOM     36  C   UNL A   1      43.739  24.940  28.470  1.00  0.00     0.049 A 
ATOM     37  N   UNL A   1      41.618  27.037  28.863  1.00  0.00    -0.248 NA
ATOM     38  C   UNL A   1      40.034  25.515  28.071  1.00  0.00     0.031 C 
ATOM     39  C   UNL A   1      44.821  23.977  28.250  1.00  0.00     0.029 A 
ATOM     40  N   UNL A   1      44.378  26.043  28.978  1.00  0.00    -0.354 N 
ATOM     41  C   UNL A   1      40.371  27.646  28.833  1.00  0.00     0.074 A 
ATOM     42  C   UNL A   1      39.444  26.683  28.277  1.00  0.00     0.031 C 
ATOM     43  C   UNL A   1      45.983  24.523  28.643  1.00  0.00     0.029 A 
ATOM     44  C   UNL A   1      45.736  25.884  29.108  1.00  0.00     0.049 A 
ATOM     45  H   UNL A   1      43.907  26.872  29.225  1.00  0.00     0.167 HD
ATOM     46  C   UNL A   1      40.024  28.886  29.251  1.00  0.00     0.037 A 
ATOM     47  C   UNL A   1      46.676  26.740  29.549  1.00  0.00     0.037 A 
ATOM     48  C   UNL A   1      40.942  29.833  29.825  1.00  0.00     0.049 A 
ATOM     49  C   UNL A   1      46.265  28.112  30.008  1.00  0.00     0.074 A 
ATOM     50  C   UNL A   1      40.676  31.091  30.337  1.00  0.00     0.029 A 
ATOM     51  N   UNL A   1      42.307  29.627  29.958  1.00  0.00    -0.354 N 
ATOM     52  N   UNL A   1      45.070  28.647  30.044  1.00  0.00    -0.248 NA
ATOM     53  C   UNL A   1      47.334  28.996  30.492  1.00  0.00     0.031 C 
ATOM     54  C   UNL A   1      41.887  31.663  30.742  1.00  0.00     0.029 A 
ATOM     55  C   UNL A   1      42.899  30.743  30.526  1.00  0.00     0.049 A 
ATOM     56  H   UNL A   1      42.784  28.809  29.689  1.00  0.00     0.167 HD
ATOM     57  C   UNL A   1      45.237  29.918  30.580  1.00  0.00     0.074 A 
ATOM     58  C   UNL A   1      46.648  30.066  30.868  1.00  0.00     0.031 C 
ATOM     59  C   UNL A   1      44.305  30.873  30.813  1.00  0.00     0.037 A 
BRANCH  46  60
ATOM     60  C   UNL A   1      38.583  29.285  29.110  1.00  0.00     0.057 A 
ATOM     61  C   UNL A   1      37.706  29.282  30.203  1.00  0.00     0.134 A 
ATOM     62  C   UNL A   1      38.075  29.706  27.875  1.00  0.00     0.134 A 
ATOM     63  F   UNL A   1      38.126  28.878  31.411  1.00  0.00    -0.206 F 
ATOM     64  C   UNL A   1      36.368  29.659  30.067  1.00  0.00     0.040 A 
ATOM     65  C   UNL A   1      36.746  30.112  27.733  1.00  0.00     0.040 A 
ATOM     66  F   UNL A   1      38.861  29.739  26.789  1.00  0.00    -0.206 F 
ATOM     67  C   UNL A   1      35.887  30.083  28.829  1.00  0.00     0.006 A 
ENDBRANCH  46  60
BRANCH  47  68
ATOM     68  C   UNL A   1      48.099  26.318  29.605  1.00  0.00     0.057 A 
ATOM     69  C   UNL A   1      48.640  25.759  30.768  1.00  0.00     0.134 A 
ATOM     70  C   UNL A   1      48.953  26.473  28.506  1.00  0.00     0.134 A 
ATOM     71  F   UNL A   1      47.877  25.602  31.859  1.00  0.00    -0.206 F 
ATOM     72  C   UNL A   1      49.983  25.387  30.845  1.00  0.00     0.040 A 
ATOM     73  C   UNL A   1      50.292  26.082  28.560  1.00  0.00     0.040 A 
ATOM     74  F   UNL A   1      48.493  26.995  27.359  1.00  0.00    -0.206 F 
ATOM     75  C   UNL A   1      50.813  25.544  29.736  1.00  0.00     0.006 A 
ENDBRANCH  47  68
BRANCH  59  76
ATOM     76  C   UNL A   1      44.777  32.152  31.443  1.00  0.00     0.057 A 
ATOM     77  C   UNL A   1      45.174  33.253  30.674  1.00  0.00     0.134 A 
ATOM     78  C   UNL A   1      44.794  32.295  32.837  1.00  0.00     0.134 A 
ATOM     79  F   UNL A   1      45.194  33.175  29.335  1.00  0.00    -0.206 F 
ATOM     80  C   UNL A   1      45.594  34.444  31.269  1.00  0.00     0.040 A 
ATOM     81  C   UNL A   1      45.186  33.489  33.442  1.00  0.00     0.040 A 
ATOM     82  F   UNL A   1      44.417  31.282  33.630  1.00  0.00    -0.206 F 
ATOM     83  C   UNL A   1      45.593  34.566  32.658  1.00  0.00     0.006 A 
ENDBRANCH  59  76
ENDBRANCH  33  34
ENDBRANCH  25  28
ENDBRANCH  23  24
ENDBRANCH  22  23
ENDBRANCH  21  22
ENDBRANCH   1  21
TORSDOF 16
ENDMDL
MODEL 2
REMARK VINA RESULT:     -10.5      1.023      6.548
REMARK SMILES CC(C)CCC(=O)NCc1ccc(C(=O)NCCCCNC(=O)c2ccc(-c3c4nc(c(-c5c(F)cccc5F)c5ccc([nH]5)c(-c5c(F)cccc5F)c5nc(c(-c6c(F)cccc6F)c6ccc3[nH]6)C=C5)C=C4)cc2)o1
REMARK SMILES IDX 17 1 16 2 14 3 15 4 13 6 10 7 11 8 78 9 12 10 9 11 8 12 6 13
REMARK SMILES IDX 7 14 5 16 4 17 2 18 1 19 3 20 18 21 19 22 20 23 21 24 22 25
REMARK SMILES IDX 23 27 24 28 25 29 77 30 26 31 76 32 27 33 28 34 29 35 70 36
REMARK SMILES IDX 30 37 75 38 69 39 71 40 31 41 74 42 68 43 67 44 32 46 58 47
REMARK SMILES IDX 41 48 57 49 42 50 45 51 56 52 72 53 43 54 44 55 55 57 73 58
REMARK SMILES IDX 46 59 33 60 34 61 39 62 35 63 36 64 38 65 40 66 37 67 59 68
REMARK SMILES IDX 60 69 65 70 61 71 62 72 64 73 66 74 63 75 47 76 48 77 53 78
REMARK SMILES IDX 49 79 50 80 52 81 54 82 51 83
REMARK H PARENT 16 5 8 15 21 26 71 45 45 56
REMARK Flexibility Score: inf
ROOT
ATOM      1  C   UNL A   1      35.811  21.432  25.489  1.00  0.00     0.116 C 
ENDROOT
BRANCH   1   2
ATOM      2  N   UNL A   1      35.016  20.231  25.372  1.00  0.00    -0.349 N 
ATOM      3  C   UNL A   1      33.740  20.014  24.911  1.00  0.00     0.286 C 
ATOM      4  O   UNL A   1      33.409  18.826  24.839  1.00  0.00    -0.266 OA
ATOM      5  H   UNL A   1      35.475  19.415  25.682  1.00  0.00     0.163 HD
BRANCH   3   6
ATOM      6  C   UNL A   1      32.853  21.100  24.529  1.00  0.00     0.191 A 
ATOM      7  C   UNL A   1      31.367  22.676  25.041  1.00  0.00     0.124 A 
ATOM      8  C   UNL A   1      31.626  22.810  23.694  1.00  0.00     0.048 A 
ATOM      9  O   UNL A   1      32.057  21.608  25.531  1.00  0.00    -0.454 OA
ATOM     10  C   UNL A   1      32.620  21.844  23.385  1.00  0.00     0.056 A 
BRANCH   7  11
ATOM     11  C   UNL A   1      30.609  23.515  26.013  1.00  0.00     0.191 C 
BRANCH  11  12
ATOM     12  N   UNL A   1      30.252  24.785  25.408  1.00  0.00    -0.349 N 
ATOM     13  C   UNL A   1      30.731  26.041  25.594  1.00  0.00     0.220 C 
ATOM     14  O   UNL A   1      30.206  26.964  24.967  1.00  0.00    -0.275 OA
ATOM     15  H   UNL A   1      29.530  24.724  24.742  1.00  0.00     0.163 HD
BRANCH  13  16
ATOM     16  C   UNL A   1      31.891  26.318  26.531  1.00  0.00     0.100 C 
BRANCH  16  17
ATOM     17  C   UNL A   1      33.196  26.641  25.786  1.00  0.00     0.013 C 
BRANCH  17  18
ATOM     18  C   UNL A   1      33.471  25.735  24.579  1.00  0.00    -0.017 C 
ATOM     19  C   UNL A   1      33.630  26.517  23.274  1.00  0.00     0.007 C 
ATOM     20  C   UNL A   1      34.687  24.836  24.795  1.00  0.00     0.007 C 
ENDBRANCH  17  18
ENDBRANCH  16  17
ENDBRANCH  13  16
ENDBRANCH  11  12
ENDBRANCH   7  11
ENDBRANCH   3   6
ENDBRANCH   1   2
BRANCH   1  21
ATOM     21  C   UNL A   1      37.050  21.368  24.597  1.00  0.00     0.023 C 
BRANCH  21  22
ATOM     22  C   UNL A   1      37.939  20.144  24.849  1.00  0.00     0.023 C 
BRANCH  22  23
ATOM     23  C   UNL A   1      39.021  20.329  25.913  1.00  0.00     0.116 C 
BRANCH  23  24
ATOM     24  N   UNL A   1      40.101  19.358  25.817  1.00  0.00    -0.352 N 
ATOM     25  C   UNL A   1      41.439  19.529  26.081  1.00  0.00     0.251 C 
ATOM     26  H   UNL A   1      39.836  18.455  25.523  1.00  0.00     0.163 HD
ATOM     27  O   UNL A   1      42.235  18.629  25.852  1.00  0.00    -0.269 OA
BRANCH  25  28
ATOM     28  C   UNL A   1      41.914  20.826  26.606  1.00  0.00     0.039 A 
ATOM     29  C   UNL A   1      42.369  21.790  25.702  1.00  0.00     0.014 A 
ATOM     30  C   UNL A   1      41.880  21.102  27.975  1.00  0.00     0.014 A 
ATOM     31  C   UNL A   1      42.721  23.058  26.166  1.00  0.00     0.010 A 
ATOM     32  C   UNL A   1      42.165  22.387  28.427  1.00  0.00     0.010 A 
ATOM     33  C   UNL A   1      42.583  23.380  27.527  1.00  0.00    -0.014 A 
BRANCH  33  34
ATOM     34  C   UNL A   1      42.859  24.751  28.023  1.00  0.00     0.031 A 
ATOM     35  C   UNL A   1      44.257  25.153  28.402  1.00  0.00     0.074 A 
ATOM     36  C   UNL A   1      41.838  25.612  28.195  1.00  0.00     0.049 A 
ATOM     37  N   UNL A   1      44.683  26.283  28.907  1.00  0.00    -0.248 NA
ATOM     38  C   UNL A   1      45.311  24.144  28.214  1.00  0.00     0.031 C 
ATOM     39  C   UNL A   1      40.429  25.324  27.916  1.00  0.00     0.029 A 
ATOM     40  N   UNL A   1      41.825  26.905  28.657  1.00  0.00    -0.354 N 
ATOM     41  C   UNL A   1      46.047  26.116  29.108  1.00  0.00     0.074 A 
ATOM     42  C   UNL A   1      46.368  24.758  28.722  1.00  0.00     0.031 C 
ATOM     43  C   UNL A   1      39.694  26.414  28.190  1.00  0.00     0.029 A 
ATOM     44  C   UNL A   1      40.572  27.465  28.696  1.00  0.00     0.049 A 
ATOM     45  H   UNL A   1      42.639  27.385  28.935  1.00  0.00     0.167 HD
ATOM     46  C   UNL A   1      46.954  27.019  29.552  1.00  0.00     0.037 A 
ATOM     47  C   UNL A   1      40.174  28.686  29.098  1.00  0.00     0.037 A 
ATOM     48  C   UNL A   1      46.636  28.375  29.912  1.00  0.00     0.049 A 
ATOM     49  C   UNL A   1      41.201  29.670  29.587  1.00  0.00     0.074 A 
ATOM     50  C   UNL A   1      47.494  29.384  30.312  1.00  0.00     0.029 A 
ATOM     51  N   UNL A   1      45.357  28.910  29.919  1.00  0.00    -0.354 N 
ATOM     52  N   UNL A   1      42.498  29.522  29.701  1.00  0.00    -0.248 NA
ATOM     53  C   UNL A   1      40.708  30.992  29.998  1.00  0.00     0.031 C 
ATOM     54  C   UNL A   1      46.729  30.518  30.603  1.00  0.00     0.029 A 
ATOM     55  C   UNL A   1      45.401  30.231  30.337  1.00  0.00     0.049 A 
ATOM     56  H   UNL A   1      44.539  28.425  29.665  1.00  0.00     0.167 HD
ATOM     57  C   UNL A   1      42.980  30.738  30.168  1.00  0.00     0.074 A 
ATOM     58  C   UNL A   1      41.836  31.617  30.302  1.00  0.00     0.031 C 
ATOM     59  C   UNL A   1      44.254  31.095  30.458  1.00  0.00     0.037 A 
BRANCH  46  60
ATOM     60  C   UNL A   1      48.381  26.566  29.663  1.00  0.00     0.057 A 
ATOM     61  C   UNL A   1      49.300  26.757  28.622  1.00  0.00     0.134 A 
ATOM     62  C   UNL A   1      48.850  25.961  30.836  1.00  0.00     0.134 A 
ATOM     63  F   UNL A   1      48.911  27.319  27.467  1.00  0.00    -0.206 F 
ATOM     64  C   UNL A   1      50.627  26.338  28.733  1.00  0.00     0.040 A 
ATOM     65  C   UNL A   1      50.183  25.564  30.969  1.00  0.00     0.040 A 
ATOM     66  F   UNL A   1      48.027  25.754  31.873  1.00  0.00    -0.206 F 
ATOM     67  C   UNL A   1      51.073  25.747  29.913  1.00  0.00     0.006 A 
ENDBRANCH  46  60
BRANCH  47  68
ATOM     68  C   UNL A   1      38.738  29.061  29.031  1.00  0.00     0.057 A 
ATOM     69  C   UNL A   1      38.164  29.506  27.835  1.00  0.00     0.134 A 
ATOM     70  C   UNL A   1      37.910  28.994  30.159  1.00  0.00     0.134 A 
ATOM     71  F   UNL A   1      38.911  29.609  26.726  1.00  0.00    -0.206 F 
ATOM     72  C   UNL A   1      36.825  29.891  27.766  1.00  0.00     0.040 A 
ATOM     73  C   UNL A   1      36.562  29.352  30.097  1.00  0.00     0.040 A 
ATOM     74  F   UNL A   1      38.398  28.567  31.333  1.00  0.00    -0.206 F 
ATOM     75  C   UNL A   1      36.018  29.810  28.899  1.00  0.00     0.006 A 
ENDBRANCH  47  68
BRANCH  59  76
ATOM     76  C   UNL A   1      44.485  32.505  30.916  1.00  0.00     0.057 A 
ATOM     77  C   UNL A   1      44.441  32.861  32.270  1.00  0.00     0.134 A 
ATOM     78  C   UNL A   1      44.795  33.512  29.992  1.00  0.00     0.134 A 
ATOM     79  F   UNL A   1      44.137  31.947  33.203  1.00  0.00    -0.206 F 
ATOM     80  C   UNL A   1      44.676  34.173  32.687  1.00  0.00     0.040 A 
ATOM     81  C   UNL A   1      45.057  34.821  30.399  1.00  0.00     0.040 A 
ATOM     82  F   UNL A   1      44.862  33.236  28.681  1.00  0.00    -0.206 F 
ATOM     83  C   UNL A   1      44.992  35.155  31.749  1.00  0.00     0.006 A 
ENDBRANCH  59  76
ENDBRANCH  33  34
ENDBRANCH  25  28
ENDBRANCH  23  24
ENDBRANCH  22  23
ENDBRANCH  21  22
ENDBRANCH   1  21
TORSDOF 16
ENDMDL
MODEL 3
REMARK VINA RESULT:     -10.4      4.335      8.857
REMARK SMILES CC(C)CCC(=O)NCc1ccc(C(=O)NCCCCNC(=O)c2ccc(-c3c4nc(c(-c5c(F)cccc5F)c5ccc([nH]5)c(-c5c(F)cccc5F)c5nc(c(-c6c(F)cccc6F)c6ccc3[nH]6)C=C5)C=C4)cc2)o1
REMARK SMILES IDX 17 1 16 2 14 3 15 4 13 6 10 7 11 8 78 9 12 10 9 11 8 12 6 13
REMARK SMILES IDX 7 14 5 16 4 17 2 18 1 19 3 20 18 21 19 22 20 23 21 24 22 25
REMARK SMILES IDX 23 27 24 28 25 29 77 30 26 31 76 32 27 33 28 34 29 35 70 36
REMARK SMILES IDX 30 37 75 38 69 39 71 40 31 41 74 42 68 43 67 44 32 46 58 47
REMARK SMILES IDX 41 48 57 49 42 50 45 51 56 52 72 53 43 54 44 55 55 57 73 58
REMARK SMILES IDX 46 59 33 60 34 61 39 62 35 63 36 64 38 65 40 66 37 67 59 68
REMARK SMILES IDX 60 69 65 70 61 71 62 72 64 73 66 74 63 75 47 76 48 77 53 78
REMARK SMILES IDX 49 79 50 80 52 81 54 82 51 83
REMARK H PARENT 16 5 8 15 21 26 71 45 45 56
REMARK Flexibility Score: inf
ROOT
ATOM      1  C   UNL A   1      32.101  29.836  25.487  1.00  0.00     0.116 C 
ENDROOT
BRANCH   1   2
ATOM      2  N   UNL A   1      31.054  30.190  24.557  1.00  0.00    -0.349 N 
ATOM      3  C   UNL A   1      30.233  29.426  23.762  1.00  0.00     0.286 C 
ATOM      4  O   UNL A   1      29.353  30.057  23.167  1.00  0.00    -0.266 OA
ATOM      5  H   UNL A   1      30.901  31.160  24.476  1.00  0.00     0.163 HD
BRANCH   3   6
ATOM      6  C   UNL A   1      30.385  27.987  23.639  1.00  0.00     0.191 A 
ATOM      7  C   UNL A   1      31.365  26.197  22.749  1.00  0.00     0.124 A 
ATOM      8  C   UNL A   1      30.487  25.725  23.700  1.00  0.00     0.048 A 
ATOM      9  O   UNL A   1      31.259  27.553  22.667  1.00  0.00    -0.454 OA
ATOM     10  C   UNL A   1      29.911  26.872  24.309  1.00  0.00     0.056 A 
BRANCH   7  11
ATOM     11  C   UNL A   1      32.425  25.537  21.935  1.00  0.00     0.191 C 
BRANCH  11  12
ATOM     12  N   UNL A   1      32.290  24.094  22.011  1.00  0.00    -0.349 N 
ATOM     13  C   UNL A   1      33.106  23.135  22.518  1.00  0.00     0.220 C 
ATOM     14  O   UNL A   1      32.758  21.956  22.409  1.00  0.00    -0.275 OA
ATOM     15  H   UNL A   1      31.453  23.747  21.625  1.00  0.00     0.163 HD
BRANCH  13  16
ATOM     16  C   UNL A   1      34.407  23.486  23.214  1.00  0.00     0.100 C 
BRANCH  16  17
ATOM     17  C   UNL A   1      34.445  23.017  24.677  1.00  0.00     0.013 C 
BRANCH  17  18
ATOM     18  C   UNL A   1      34.045  24.096  25.693  1.00  0.00    -0.017 C 
ATOM     19  C   UNL A   1      34.251  25.516  25.164  1.00  0.00     0.007 C 
ATOM     20  C   UNL A   1      32.606  23.928  26.178  1.00  0.00     0.007 C 
ENDBRANCH  17  18
ENDBRANCH  16  17
ENDBRANCH  13  16
ENDBRANCH  11  12
ENDBRANCH   7  11
ENDBRANCH   3   6
ENDBRANCH   1   2
BRANCH   1  21
ATOM     21  C   UNL A   1      31.831  30.415  26.875  1.00  0.00     0.023 C 
BRANCH  21  22
ATOM     22  C   UNL A   1      31.548  31.922  26.880  1.00  0.00     0.023 C 
BRANCH  22  23
ATOM     23  C   UNL A   1      32.763  32.816  27.126  1.00  0.00     0.116 C 
BRANCH  23  24
ATOM     24  N   UNL A   1      32.417  34.151  27.589  1.00  0.00    -0.352 N 
ATOM     25  C   UNL A   1      33.002  34.896  28.587  1.00  0.00     0.251 C 
ATOM     26  H   UNL A   1      31.662  34.580  27.124  1.00  0.00     0.163 HD
ATOM     27  O   UNL A   1      32.521  35.970  28.919  1.00  0.00    -0.269 OA
BRANCH  25  28
ATOM     28  C   UNL A   1      34.193  34.367  29.282  1.00  0.00     0.039 A 
ATOM     29  C   UNL A   1      34.012  33.621  30.451  1.00  0.00     0.014 A 
ATOM     30  C   UNL A   1      35.475  34.575  28.769  1.00  0.00     0.014 A 
ATOM     31  C   UNL A   1      35.114  33.023  31.063  1.00  0.00     0.010 A 
ATOM     32  C   UNL A   1      36.563  33.922  29.342  1.00  0.00     0.010 A 
ATOM     33  C   UNL A   1      36.392  33.135  30.492  1.00  0.00    -0.014 A 
BRANCH  33  34
ATOM     34  C   UNL A   1      37.559  32.425  31.074  1.00  0.00     0.031 A 
ATOM     35  C   UNL A   1      38.194  32.925  32.341  1.00  0.00     0.074 A 
ATOM     36  C   UNL A   1      38.086  31.371  30.424  1.00  0.00     0.049 A 
ATOM     37  N   UNL A   1      39.251  32.474  32.969  1.00  0.00    -0.248 NA
ATOM     38  C   UNL A   1      37.577  34.101  32.973  1.00  0.00     0.031 C 
ATOM     39  C   UNL A   1      37.595  30.823  29.157  1.00  0.00     0.029 A 
ATOM     40  N   UNL A   1      39.161  30.574  30.733  1.00  0.00    -0.354 N 
ATOM     41  C   UNL A   1      39.431  33.317  34.057  1.00  0.00     0.074 A 
ATOM     42  C   UNL A   1      38.409  34.338  33.975  1.00  0.00     0.031 C 
ATOM     43  C   UNL A   1      38.350  29.768  28.811  1.00  0.00     0.029 A 
ATOM     44  C   UNL A   1      39.399  29.586  29.810  1.00  0.00     0.049 A 
ATOM     45  H   UNL A   1      39.710  30.700  31.541  1.00  0.00     0.167 HD
ATOM     46  C   UNL A   1      40.351  33.234  35.048  1.00  0.00     0.037 A 
ATOM     47  C   UNL A   1      40.357  28.641  29.771  1.00  0.00     0.037 A 
ATOM     48  C   UNL A   1      41.351  32.204  35.141  1.00  0.00     0.049 A 
ATOM     49  C   UNL A   1      41.366  28.571  30.883  1.00  0.00     0.074 A 
ATOM     50  C   UNL A   1      42.287  31.998  36.139  1.00  0.00     0.029 A 
ATOM     51  N   UNL A   1      41.548  31.209  34.195  1.00  0.00    -0.354 N 
ATOM     52  N   UNL A   1      41.479  29.330  31.945  1.00  0.00    -0.248 NA
ATOM     53  C   UNL A   1      42.379  27.509  30.793  1.00  0.00     0.031 C 
ATOM     54  C   UNL A   1      43.078  30.903  35.777  1.00  0.00     0.029 A 
ATOM     55  C   UNL A   1      42.604  30.397  34.578  1.00  0.00     0.049 A 
ATOM     56  H   UNL A   1      41.016  31.095  33.375  1.00  0.00     0.167 HD
ATOM     57  C   UNL A   1      42.553  28.821  32.664  1.00  0.00     0.074 A 
ATOM     58  C   UNL A   1      43.049  27.680  31.923  1.00  0.00     0.031 C 
ATOM     59  C   UNL A   1      43.081  29.260  33.833  1.00  0.00     0.037 A 
BRANCH  46  60
ATOM     60  C   UNL A   1      40.309  34.287  36.118  1.00  0.00     0.057 A 
ATOM     61  C   UNL A   1      39.531  34.134  37.274  1.00  0.00     0.134 A 
ATOM     62  C   UNL A   1      41.080  35.451  36.008  1.00  0.00     0.134 A 
ATOM     63  F   UNL A   1      38.760  33.048  37.436  1.00  0.00    -0.206 F 
ATOM     64  C   UNL A   1      39.500  35.114  38.268  1.00  0.00     0.040 A 
ATOM     65  C   UNL A   1      41.079  36.424  37.009  1.00  0.00     0.040 A 
ATOM     66  F   UNL A   1      41.852  35.658  34.931  1.00  0.00    -0.206 F 
ATOM     67  C   UNL A   1      40.282  36.260  38.140  1.00  0.00     0.006 A 
ENDBRANCH  46  60
BRANCH  47  68
ATOM     68  C   UNL A   1      40.394  27.664  28.652  1.00  0.00     0.057 A 
ATOM     69  C   UNL A   1      39.659  26.476  28.708  1.00  0.00     0.134 A 
ATOM     70  C   UNL A   1      41.171  27.889  27.509  1.00  0.00     0.134 A 
ATOM     71  F   UNL A   1      38.910  26.196  29.785  1.00  0.00    -0.206 F 
ATOM     72  C   UNL A   1      39.709  25.535  27.679  1.00  0.00     0.040 A 
ATOM     73  C   UNL A   1      41.211  26.969  26.460  1.00  0.00     0.040 A 
ATOM     74  F   UNL A   1      41.892  29.014  27.391  1.00  0.00    -0.206 F 
ATOM     75  C   UNL A   1      40.484  25.783  26.547  1.00  0.00     0.006 A 
ENDBRANCH  47  68
BRANCH  59  76
ATOM     76  C   UNL A   1      44.232  28.483  34.401  1.00  0.00     0.057 A 
ATOM     77  C   UNL A   1      44.038  27.375  35.234  1.00  0.00     0.134 A 
ATOM     78  C   UNL A   1      45.552  28.826  34.077  1.00  0.00     0.134 A 
ATOM     79  F   UNL A   1      42.800  27.003  35.593  1.00  0.00    -0.206 F 
ATOM     80  C   UNL A   1      45.116  26.647  35.743  1.00  0.00     0.040 A 
ATOM     81  C   UNL A   1      46.636  28.091  34.557  1.00  0.00     0.040 A 
ATOM     82  F   UNL A   1      45.806  29.872  33.277  1.00  0.00    -0.206 F 
ATOM     83  C   UNL A   1      46.419  27.002  35.398  1.00  0.00     0.006 A 
ENDBRANCH  59  76
ENDBRANCH  33  34
ENDBRANCH  25  28
ENDBRANCH  23  24
ENDBRANCH  22  23
ENDBRANCH  21  22
ENDBRANCH   1  21
TORSDOF 16
ENDMDL
