MODEL 1
REMARK VINA RESULT:     -11.2      0.000      0.000
REMARK SMILES O=C(COc1ccnc(NCc2ccc(Br)cc2)n1)NCCCCNC(=O)c1ccc(-c2c3nc(c(-c4c(F)cccc4F)c4ccc([nH]4)c(-c4c(F)cccc4F)c4nc(c(-c5c(F)cccc5F)c5ccc2[nH]5)C=C4)C=C3)cc1
REMARK SMILES IDX 21 1 20 2 1 3 2 4 3 6 4 7 5 8 6 9 19 10 7 11 9 12 8 13 10 14
REMARK SMILES IDX 11 16 12 17 13 18 18 19 14 20 17 21 15 22 16 23 22 24 23 25
REMARK SMILES IDX 24 26 25 27 26 28 27 30 28 31 29 32 81 33 30 34 80 35 31 36
REMARK SMILES IDX 32 37 33 38 74 39 34 40 79 41 73 42 75 43 35 44 78 45 72 46
REMARK SMILES IDX 71 47 36 49 62 50 45 51 61 52 46 53 49 54 60 55 76 56 47 57
REMARK SMILES IDX 48 58 59 60 77 61 50 62 37 63 38 64 43 65 39 66 40 67 42 68
REMARK SMILES IDX 44 69 41 70 63 71 64 72 69 73 65 74 66 75 68 76 70 77 67 78
REMARK SMILES IDX 51 79 52 80 57 81 53 82 54 83 56 84 58 85 55 86
REMARK H PARENT 20 5 10 15 25 29 75 48 49 59
REMARK Flexibility Score: inf
ROOT
ATOM      1  C   UNL A   1      30.276  32.478  24.942  1.00  0.00     0.116 C 
ENDROOT
BRANCH   1   2
ATOM      2  N   UNL A   1      29.473  31.930  23.867  1.00  0.00    -0.353 N 
ATOM      3  O   UNL A   1      28.696  33.943  23.070  1.00  0.00    -0.271 OA
ATOM      4  C   UNL A   1      28.814  32.729  22.951  1.00  0.00     0.258 C 
ATOM      5  H   UNL A   1      29.396  30.951  23.785  1.00  0.00     0.163 HD
BRANCH   4   6
ATOM      6  C   UNL A   1      28.274  31.963  21.740  1.00  0.00     0.331 C 
BRANCH   6   7
ATOM      7  O   UNL A   1      29.051  30.805  21.429  1.00  0.00    -0.467 OA
BRANCH   7   8
ATOM      8  C   UNL A   1      28.696  29.724  22.203  1.00  0.00     0.218 A 
ATOM      9  C   UNL A   1      27.383  29.513  22.550  1.00  0.00     0.088 A 
ATOM     10  N   UNL A   1      29.684  28.851  22.457  1.00  0.00    -0.177 NA
ATOM     11  C   UNL A   1      27.138  28.350  23.227  1.00  0.00     0.121 A 
ATOM     12  C   UNL A   1      29.341  27.734  23.112  1.00  0.00     0.226 A 
ATOM     13  N   UNL A   1      28.093  27.454  23.512  1.00  0.00    -0.221 NA
BRANCH  12  14
ATOM     14  N   UNL A   1      30.247  26.759  23.395  1.00  0.00    -0.350 N 
ATOM     15  H   UNL A   1      30.745  26.370  22.640  1.00  0.00     0.164 HD
BRANCH  14  16
ATOM     16  C   UNL A   1      30.533  26.253  24.706  1.00  0.00     0.152 C 
BRANCH  16  17
ATOM     17  C   UNL A   1      31.546  27.121  25.430  1.00  0.00    -0.029 A 
ATOM     18  C   UNL A   1      32.713  27.520  24.759  1.00  0.00     0.007 A 
ATOM     19  C   UNL A   1      31.397  27.484  26.780  1.00  0.00     0.007 A 
ATOM     20  C   UNL A   1      33.690  28.283  25.406  1.00  0.00     0.016 A 
ATOM     21  C   UNL A   1      32.369  28.252  27.428  1.00  0.00     0.016 A 
ATOM     22  C   UNL A   1      33.510  28.648  26.737  1.00  0.00     0.017 A 
ATOM     23  Br  UNL A   1      34.828  29.682  27.614  1.00  0.00    -0.051 Br
ENDBRANCH  16  17
ENDBRANCH  14  16
ENDBRANCH  12  14
ENDBRANCH   7   8
ENDBRANCH   6   7
ENDBRANCH   4   6
ENDBRANCH   1   2
BRANCH   1  24
ATOM     24  C   UNL A   1      31.020  31.416  25.743  1.00  0.00     0.023 C 
BRANCH  24  25
ATOM     25  C   UNL A   1      31.545  31.879  27.102  1.00  0.00     0.023 C 
BRANCH  25  26
ATOM     26  C   UNL A   1      32.782  32.771  27.067  1.00  0.00     0.116 C 
BRANCH  26  27
ATOM     27  N   UNL A   1      32.553  34.093  27.630  1.00  0.00    -0.352 N 
ATOM     28  C   UNL A   1      33.174  34.715  28.686  1.00  0.00     0.251 C 
ATOM     29  H   UNL A   1      31.847  34.619  27.189  1.00  0.00     0.163 HD
ATOM     30  O   UNL A   1      32.745  35.790  29.100  1.00  0.00    -0.269 OA
BRANCH  28  31
ATOM     31  C   UNL A   1      34.336  34.085  29.353  1.00  0.00     0.039 A 
ATOM     32  C   UNL A   1      34.108  33.202  30.412  1.00  0.00     0.014 A 
ATOM     33  C   UNL A   1      35.645  34.360  28.944  1.00  0.00     0.014 A 
ATOM     34  C   UNL A   1      35.184  32.538  31.009  1.00  0.00     0.010 A 
ATOM     35  C   UNL A   1      36.708  33.641  29.488  1.00  0.00     0.010 A 
ATOM     36  C   UNL A   1      36.490  32.719  30.524  1.00  0.00    -0.014 A 
BRANCH  36  37
ATOM     37  C   UNL A   1      37.632  31.943  31.075  1.00  0.00     0.031 A 
ATOM     38  C   UNL A   1      38.149  32.223  32.460  1.00  0.00     0.074 A 
ATOM     39  C   UNL A   1      38.250  31.025  30.303  1.00  0.00     0.049 A 
ATOM     40  N   UNL A   1      39.172  31.696  33.085  1.00  0.00    -0.248 NA
ATOM     41  C   UNL A   1      37.435  33.248  33.238  1.00  0.00     0.031 C 
ATOM     42  C   UNL A   1      37.878  30.686  28.928  1.00  0.00     0.029 A 
ATOM     43  N   UNL A   1      39.329  30.216  30.562  1.00  0.00    -0.354 N 
ATOM     44  C   UNL A   1      39.233  32.333  34.317  1.00  0.00     0.074 A 
ATOM     45  C   UNL A   1      38.177  33.322  34.333  1.00  0.00     0.031 C 
ATOM     46  C   UNL A   1      38.696  29.723  28.476  1.00  0.00     0.029 A 
ATOM     47  C   UNL A   1      39.678  29.406  29.507  1.00  0.00     0.049 A 
ATOM     48  H   UNL A   1      39.809  30.217  31.422  1.00  0.00     0.167 HD
ATOM     49  C   UNL A   1      40.079  32.103  35.350  1.00  0.00     0.037 A 
ATOM     50  C   UNL A   1      40.682  28.517  29.381  1.00  0.00     0.037 A 
ATOM     51  C   UNL A   1      41.118  31.105  35.342  1.00  0.00     0.049 A 
ATOM     52  C   UNL A   1      41.621  28.297  30.535  1.00  0.00     0.074 A 
ATOM     53  C   UNL A   1      41.983  30.755  36.363  1.00  0.00     0.029 A 
ATOM     54  N   UNL A   1      41.436  30.303  34.256  1.00  0.00    -0.354 N 
ATOM     55  N   UNL A   1      41.621  28.856  31.721  1.00  0.00    -0.248 NA
ATOM     56  C   UNL A   1      42.699  27.317  30.335  1.00  0.00     0.031 C 
ATOM     57  C   UNL A   1      42.862  29.781  35.878  1.00  0.00     0.029 A 
ATOM     58  C   UNL A   1      42.505  29.480  34.574  1.00  0.00     0.049 A 
ATOM     59  H   UNL A   1      40.971  30.317  33.388  1.00  0.00     0.167 HD
ATOM     60  C   UNL A   1      42.672  28.273  32.417  1.00  0.00     0.074 A 
ATOM     61  C   UNL A   1      43.280  27.308  31.525  1.00  0.00     0.031 C 
ATOM     62  C   UNL A   1      43.096  28.515  33.682  1.00  0.00     0.037 A 
BRANCH  49  63
ATOM     63  C   UNL A   1      39.921  32.950  36.581  1.00  0.00     0.057 A 
ATOM     64  C   UNL A   1      40.711  34.087  36.806  1.00  0.00     0.134 A 
ATOM     65  C   UNL A   1      38.937  32.652  37.533  1.00  0.00     0.134 A 
ATOM     66  F   UNL A   1      41.678  34.424  35.940  1.00  0.00    -0.206 F 
ATOM     67  C   UNL A   1      40.546  34.878  37.944  1.00  0.00     0.040 A 
ATOM     68  C   UNL A   1      38.742  33.453  38.658  1.00  0.00     0.040 A 
ATOM     69  F   UNL A   1      38.140  31.584  37.376  1.00  0.00    -0.206 F 
ATOM     70  C   UNL A   1      39.553  34.566  38.871  1.00  0.00     0.006 A 
ENDBRANCH  49  63
BRANCH  50  71
ATOM     71  C   UNL A   1      40.847  27.750  28.119  1.00  0.00     0.057 A 
ATOM     72  C   UNL A   1      40.245  26.496  27.954  1.00  0.00     0.134 A 
ATOM     73  C   UNL A   1      41.622  28.236  27.060  1.00  0.00     0.134 A 
ATOM     74  F   UNL A   1      39.507  25.967  28.940  1.00  0.00    -0.206 F 
ATOM     75  C   UNL A   1      40.429  25.743  26.793  1.00  0.00     0.040 A 
ATOM     76  C   UNL A   1      41.791  27.506  25.882  1.00  0.00     0.040 A 
ATOM     77  F   UNL A   1      42.219  29.434  27.151  1.00  0.00    -0.206 F 
ATOM     78  C   UNL A   1      41.201  26.251  25.750  1.00  0.00     0.006 A 
ENDBRANCH  50  71
BRANCH  62  79
ATOM     79  C   UNL A   1      44.244  27.694  34.195  1.00  0.00     0.057 A 
ATOM     80  C   UNL A   1      44.056  26.436  34.781  1.00  0.00     0.134 A 
ATOM     81  C   UNL A   1      45.560  28.154  34.065  1.00  0.00     0.134 A 
ATOM     82  F   UNL A   1      42.820  25.941  34.948  1.00  0.00    -0.206 F 
ATOM     83  C   UNL A   1      45.132  25.677  35.243  1.00  0.00     0.040 A 
ATOM     84  C   UNL A   1      46.648  27.392  34.494  1.00  0.00     0.040 A 
ATOM     85  F   UNL A   1      45.814  29.347  33.504  1.00  0.00    -0.206 F 
ATOM     86  C   UNL A   1      46.434  26.152  35.092  1.00  0.00     0.006 A 
ENDBRANCH  62  79
ENDBRANCH  36  37
ENDBRANCH  28  31
ENDBRANCH  26  27
ENDBRANCH  25  26
ENDBRANCH  24  25
ENDBRANCH   1  24
TORSDOF 16
ENDMDL
MODEL 2
REMARK VINA RESULT:     -11.1      0.334      6.281
REMARK SMILES O=C(COc1ccnc(NCc2ccc(Br)cc2)n1)NCCCCNC(=O)c1ccc(-c2c3nc(c(-c4c(F)cccc4F)c4ccc([nH]4)c(-c4c(F)cccc4F)c4nc(c(-c5c(F)cccc5F)c5ccc2[nH]5)C=C4)C=C3)cc1
REMARK SMILES IDX 21 1 20 2 1 3 2 4 3 6 4 7 5 8 6 9 19 10 7 11 9 12 8 13 10 14
REMARK SMILES IDX 11 16 12 17 13 18 18 19 14 20 17 21 15 22 16 23 22 24 23 25
REMARK SMILES IDX 24 26 25 27 26 28 27 30 28 31 29 32 81 33 30 34 80 35 31 36
REMARK SMILES IDX 32 37 33 38 74 39 34 40 79 41 73 42 75 43 35 44 78 45 72 46
REMARK SMILES IDX 71 47 36 49 62 50 45 51 61 52 46 53 49 54 60 55 76 56 47 57
REMARK SMILES IDX 48 58 59 60 77 61 50 62 37 63 38 64 43 65 39 66 40 67 42 68
REMARK SMILES IDX 44 69 41 70 63 71 64 72 69 73 65 74 66 75 68 76 70 77 67 78
REMARK SMILES IDX 51 79 52 80 57 81 53 82 54 83 56 84 58 85 55 86
REMARK H PARENT 20 5 10 15 25 29 75 48 49 59
REMARK Flexibility Score: inf
ROOT
ATOM      1  C   UNL A   1      30.270  32.524  24.796  1.00  0.00     0.116 C 
ENDROOT
BRANCH   1   2
ATOM      2  N   UNL A   1      29.517  31.964  23.692  1.00  0.00    -0.353 N 
ATOM      3  O   UNL A   1      28.535  33.933  23.022  1.00  0.00    -0.271 OA
ATOM      4  C   UNL A   1      28.772  32.746  22.829  1.00  0.00     0.258 C 
ATOM      5  H   UNL A   1      29.537  30.989  23.551  1.00  0.00     0.163 HD
BRANCH   4   6
ATOM      6  C   UNL A   1      28.301  32.004  21.575  1.00  0.00     0.331 C 
BRANCH   6   7
ATOM      7  O   UNL A   1      29.062  30.822  21.314  1.00  0.00    -0.467 OA
BRANCH   7   8
ATOM      8  C   UNL A   1      28.679  29.777  22.123  1.00  0.00     0.218 A 
ATOM      9  C   UNL A   1      27.355  29.581  22.435  1.00  0.00     0.088 A 
ATOM     10  N   UNL A   1      29.657  28.916  22.448  1.00  0.00    -0.177 NA
ATOM     11  C   UNL A   1      27.086  28.449  23.153  1.00  0.00     0.121 A 
ATOM     12  C   UNL A   1      29.291  27.829  23.139  1.00  0.00     0.226 A 
ATOM     13  N   UNL A   1      28.029  27.566  23.509  1.00  0.00    -0.221 NA
BRANCH  12  14
ATOM     14  N   UNL A   1      30.185  26.867  23.495  1.00  0.00    -0.350 N 
ATOM     15  H   UNL A   1      30.691  26.429  22.773  1.00  0.00     0.164 HD
BRANCH  14  16
ATOM     16  C   UNL A   1      30.450  26.442  24.839  1.00  0.00     0.152 C 
BRANCH  16  17
ATOM     17  C   UNL A   1      31.556  27.262  25.476  1.00  0.00    -0.029 A 
ATOM     18  C   UNL A   1      31.493  27.550  26.850  1.00  0.00     0.007 A 
ATOM     19  C   UNL A   1      32.612  27.811  24.729  1.00  0.00     0.007 A 
ATOM     20  C   UNL A   1      32.471  28.338  27.464  1.00  0.00     0.016 A 
ATOM     21  C   UNL A   1      33.594  28.595  25.342  1.00  0.00     0.016 A 
ATOM     22  C   UNL A   1      33.518  28.854  26.707  1.00  0.00     0.017 A 
ATOM     23  Br  UNL A   1      34.843  29.918  27.535  1.00  0.00    -0.051 Br
ENDBRANCH  16  17
ENDBRANCH  14  16
ENDBRANCH  12  14
ENDBRANCH   7   8
ENDBRANCH   6   7
ENDBRANCH   4   6
ENDBRANCH   1   2
BRANCH   1  24
ATOM     24  C   UNL A   1      30.817  31.470  25.751  1.00  0.00     0.023 C 
BRANCH  24  25
ATOM     25  C   UNL A   1      31.409  32.017  27.051  1.00  0.00     0.023 C 
BRANCH  25  26
ATOM     26  C   UNL A   1      32.621  32.931  26.895  1.00  0.00     0.116 C 
BRANCH  26  27
ATOM     27  N   UNL A   1      32.502  34.174  27.641  1.00  0.00    -0.352 N 
ATOM     28  C   UNL A   1      33.223  34.618  28.724  1.00  0.00     0.251 C 
ATOM     29  H   UNL A   1      31.801  34.788  27.324  1.00  0.00     0.163 HD
ATOM     30  O   UNL A   1      32.882  35.646  29.305  1.00  0.00    -0.269 OA
BRANCH  28  31
ATOM     31  C   UNL A   1      34.388  33.850  29.219  1.00  0.00     0.039 A 
ATOM     32  C   UNL A   1      35.671  34.252  28.836  1.00  0.00     0.014 A 
ATOM     33  C   UNL A   1      34.225  32.740  30.052  1.00  0.00     0.014 A 
ATOM     34  C   UNL A   1      36.790  33.590  29.349  1.00  0.00     0.010 A 
ATOM     35  C   UNL A   1      35.342  32.130  30.622  1.00  0.00     0.010 A 
ATOM     36  C   UNL A   1      36.637  32.549  30.281  1.00  0.00    -0.014 A 
BRANCH  36  37
ATOM     37  C   UNL A   1      37.815  31.904  30.918  1.00  0.00     0.031 A 
ATOM     38  C   UNL A   1      38.587  30.837  30.191  1.00  0.00     0.074 A 
ATOM     39  C   UNL A   1      38.155  32.233  32.181  1.00  0.00     0.049 A 
ATOM     40  N   UNL A   1      39.599  30.117  30.608  1.00  0.00    -0.248 NA
ATOM     41  C   UNL A   1      38.149  30.519  28.822  1.00  0.00     0.031 C 
ATOM     42  C   UNL A   1      37.466  33.221  33.014  1.00  0.00     0.029 A 
ATOM     43  N   UNL A   1      39.161  31.764  32.990  1.00  0.00    -0.354 N 
ATOM     44  C   UNL A   1      39.907  29.255  29.563  1.00  0.00     0.074 A 
ATOM     45  C   UNL A   1      38.944  29.505  28.513  1.00  0.00     0.031 C 
ATOM     46  C   UNL A   1      38.083  33.303  34.203  1.00  0.00     0.029 A 
ATOM     47  C   UNL A   1      39.183  32.344  34.236  1.00  0.00     0.049 A 
ATOM     48  H   UNL A   1      39.805  31.076  32.705  1.00  0.00     0.167 HD
ATOM     49  C   UNL A   1      40.913  28.352  29.478  1.00  0.00     0.037 A 
ATOM     50  C   UNL A   1      39.992  32.122  35.291  1.00  0.00     0.037 A 
ATOM     51  C   UNL A   1      41.885  28.118  30.516  1.00  0.00     0.049 A 
ATOM     52  C   UNL A   1      41.086  31.097  35.177  1.00  0.00     0.074 A 
ATOM     53  C   UNL A   1      42.977  27.270  30.497  1.00  0.00     0.029 A 
ATOM     54  N   UNL A   1      41.875  28.729  31.761  1.00  0.00    -0.354 N 
ATOM     55  N   UNL A   1      41.411  30.342  34.156  1.00  0.00    -0.248 NA
ATOM     56  C   UNL A   1      41.932  30.898  36.363  1.00  0.00     0.031 C 
ATOM     57  C   UNL A   1      43.597  27.324  31.749  1.00  0.00     0.029 A 
ATOM     58  C   UNL A   1      42.926  28.253  32.528  1.00  0.00     0.049 A 
ATOM     59  H   UNL A   1      41.218  29.401  32.056  1.00  0.00     0.167 HD
ATOM     60  C   UNL A   1      42.515  29.605  34.564  1.00  0.00     0.074 A 
ATOM     61  C   UNL A   1      42.813  30.012  35.920  1.00  0.00     0.031 C 
ATOM     62  C   UNL A   1      43.220  28.673  33.875  1.00  0.00     0.037 A 
BRANCH  49  63
ATOM     63  C   UNL A   1      41.016  27.542  28.217  1.00  0.00     0.057 A 
ATOM     64  C   UNL A   1      40.347  26.319  28.064  1.00  0.00     0.134 A 
ATOM     65  C   UNL A   1      41.757  28.010  27.124  1.00  0.00     0.134 A 
ATOM     66  F   UNL A   1      39.627  25.807  29.074  1.00  0.00    -0.206 F 
ATOM     67  C   UNL A   1      40.433  25.581  26.882  1.00  0.00     0.040 A 
ATOM     68  C   UNL A   1      41.826  27.296  25.927  1.00  0.00     0.040 A 
ATOM     69  F   UNL A   1      42.416  29.177  27.198  1.00  0.00    -0.206 F 
ATOM     70  C   UNL A   1      41.169  26.074  25.806  1.00  0.00     0.006 A 
ENDBRANCH  49  63
BRANCH  50  71
ATOM     71  C   UNL A   1      39.811  32.897  36.547  1.00  0.00     0.057 A 
ATOM     72  C   UNL A   1      40.622  34.002  36.834  1.00  0.00     0.134 A 
ATOM     73  C   UNL A   1      38.846  32.541  37.496  1.00  0.00     0.134 A 
ATOM     74  F   UNL A   1      41.578  34.380  35.974  1.00  0.00    -0.206 F 
ATOM     75  C   UNL A   1      40.495  34.710  38.031  1.00  0.00     0.040 A 
ATOM     76  C   UNL A   1      38.690  33.259  38.684  1.00  0.00     0.040 A 
ATOM     77  F   UNL A   1      38.033  31.497  37.278  1.00  0.00    -0.206 F 
ATOM     78  C   UNL A   1      39.523  34.341  38.958  1.00  0.00     0.006 A 
ENDBRANCH  50  71
BRANCH  62  79
ATOM     79  C   UNL A   1      44.410  28.063  34.559  1.00  0.00     0.057 A 
ATOM     80  C   UNL A   1      44.317  26.873  35.292  1.00  0.00     0.134 A 
ATOM     81  C   UNL A   1      45.674  28.655  34.448  1.00  0.00     0.134 A 
ATOM     82  F   UNL A   1      43.134  26.261  35.449  1.00  0.00    -0.206 F 
ATOM     83  C   UNL A   1      45.433  26.310  35.913  1.00  0.00     0.040 A 
ATOM     84  C   UNL A   1      46.804  28.086  35.037  1.00  0.00     0.040 A 
ATOM     85  F   UNL A   1      45.837  29.791  33.751  1.00  0.00    -0.206 F 
ATOM     86  C   UNL A   1      46.683  26.913  35.779  1.00  0.00     0.006 A 
ENDBRANCH  62  79
ENDBRANCH  36  37
ENDBRANCH  28  31
ENDBRANCH  26  27
ENDBRANCH  25  26
ENDBRANCH  24  25
ENDBRANCH   1  24
TORSDOF 16
ENDMDL
MODEL 3
REMARK VINA RESULT:     -11.0      5.756      9.811
REMARK SMILES O=C(COc1ccnc(NCc2ccc(Br)cc2)n1)NCCCCNC(=O)c1ccc(-c2c3nc(c(-c4c(F)cccc4F)c4ccc([nH]4)c(-c4c(F)cccc4F)c4nc(c(-c5c(F)cccc5F)c5ccc2[nH]5)C=C4)C=C3)cc1
REMARK SMILES IDX 21 1 20 2 1 3 2 4 3 6 4 7 5 8 6 9 19 10 7 11 9 12 8 13 10 14
REMARK SMILES IDX 11 16 12 17 13 18 18 19 14 20 17 21 15 22 16 23 22 24 23 25
REMARK SMILES IDX 24 26 25 27 26 28 27 30 28 31 29 32 81 33 30 34 80 35 31 36
REMARK SMILES IDX 32 37 33 38 74 39 34 40 79 41 73 42 75 43 35 44 78 45 72 46
REMARK SMILES IDX 71 47 36 49 62 50 45 51 61 52 46 53 49 54 60 55 76 56 47 57
REMARK SMILES IDX 48 58 59 60 77 61 50 62 37 63 38 64 43 65 39 66 40 67 42 68
REMARK SMILES IDX 44 69 41 70 63 71 64 72 69 73 65 74 66 75 68 76 70 77 67 78
REMARK SMILES IDX 51 79 52 80 57 81 53 82 54 83 56 84 58 85 55 86
REMARK H PARENT 20 5 10 15 25 29 75 48 49 59
REMARK Flexibility Score: inf
ROOT
ATOM      1  C   UNL A   1      36.061  21.338  25.688  1.00  0.00     0.116 C 
ENDROOT
BRANCH   1   2
ATOM      2  N   UNL A   1      34.736  21.572  25.151  1.00  0.00    -0.353 N 
ATOM      3  O   UNL A   1      34.127  19.359  24.989  1.00  0.00    -0.271 OA
ATOM      4  C   UNL A   1      33.833  20.548  24.930  1.00  0.00     0.258 C 
ATOM      5  H   UNL A   1      34.467  22.495  24.937  1.00  0.00     0.163 HD
BRANCH   4   6
ATOM      6  C   UNL A   1      32.409  21.032  24.643  1.00  0.00     0.331 C 
BRANCH   6   7
ATOM      7  O   UNL A   1      32.198  21.341  23.264  1.00  0.00    -0.467 OA
BRANCH   7   8
ATOM      8  C   UNL A   1      32.147  22.699  23.044  1.00  0.00     0.218 A 
ATOM      9  C   UNL A   1      33.146  23.333  22.345  1.00  0.00     0.088 A 
ATOM     10  N   UNL A   1      31.010  23.300  23.430  1.00  0.00    -0.177 NA
ATOM     11  C   UNL A   1      32.932  24.660  22.095  1.00  0.00     0.121 A 
ATOM     12  C   UNL A   1      30.887  24.598  23.126  1.00  0.00     0.226 A 
ATOM     13  N   UNL A   1      31.819  25.306  22.470  1.00  0.00    -0.221 NA
BRANCH  12  14
ATOM     14  N   UNL A   1      29.767  25.307  23.433  1.00  0.00    -0.350 N 
ATOM     15  H   UNL A   1      28.911  24.978  23.074  1.00  0.00     0.164 HD
BRANCH  14  16
ATOM     16  C   UNL A   1      29.735  26.493  24.238  1.00  0.00     0.152 C 
BRANCH  16  17
ATOM     17  C   UNL A   1      29.308  27.705  23.431  1.00  0.00    -0.029 A 
ATOM     18  C   UNL A   1      30.282  28.457  22.754  1.00  0.00     0.007 A 
ATOM     19  C   UNL A   1      27.975  28.151  23.391  1.00  0.00     0.007 A 
ATOM     20  C   UNL A   1      29.933  29.605  22.036  1.00  0.00     0.016 A 
ATOM     21  C   UNL A   1      27.622  29.295  22.669  1.00  0.00     0.016 A 
ATOM     22  C   UNL A   1      28.604  30.015  21.994  1.00  0.00     0.017 A 
ATOM     23  Br  UNL A   1      28.127  31.565  21.022  1.00  0.00    -0.051 Br
ENDBRANCH  16  17
ENDBRANCH  14  16
ENDBRANCH  12  14
ENDBRANCH   7   8
ENDBRANCH   6   7
ENDBRANCH   4   6
ENDBRANCH   1   2
BRANCH   1  24
ATOM     24  C   UNL A   1      37.096  21.009  24.619  1.00  0.00     0.023 C 
BRANCH  24  25
ATOM     25  C   UNL A   1      38.024  19.840  24.953  1.00  0.00     0.023 C 
BRANCH  25  26
ATOM     26  C   UNL A   1      39.179  20.159  25.898  1.00  0.00     0.116 C 
BRANCH  26  27
ATOM     27  N   UNL A   1      40.210  19.132  25.911  1.00  0.00    -0.352 N 
ATOM     28  C   UNL A   1      41.561  19.251  26.130  1.00  0.00     0.251 C 
ATOM     29  H   UNL A   1      39.892  18.217  25.737  1.00  0.00     0.163 HD
ATOM     30  O   UNL A   1      42.294  18.278  25.966  1.00  0.00    -0.269 OA
BRANCH  28  31
ATOM     31  C   UNL A   1      42.148  20.550  26.529  1.00  0.00     0.039 A 
ATOM     32  C   UNL A   1      42.661  21.390  25.537  1.00  0.00     0.014 A 
ATOM     33  C   UNL A   1      42.198  20.943  27.869  1.00  0.00     0.014 A 
ATOM     34  C   UNL A   1      43.153  22.653  25.880  1.00  0.00     0.010 A 
ATOM     35  C   UNL A   1      42.618  22.230  28.201  1.00  0.00     0.010 A 
ATOM     36  C   UNL A   1      43.096  23.103  27.210  1.00  0.00    -0.014 A 
BRANCH  36  37
ATOM     37  C   UNL A   1      43.515  24.481  27.578  1.00  0.00     0.031 A 
ATOM     38  C   UNL A   1      42.490  25.515  27.959  1.00  0.00     0.074 A 
ATOM     39  C   UNL A   1      44.817  24.824  27.507  1.00  0.00     0.049 A 
ATOM     40  N   UNL A   1      42.659  26.782  28.246  1.00  0.00    -0.248 NA
ATOM     41  C   UNL A   1      41.087  25.073  27.999  1.00  0.00     0.031 C 
ATOM     42  C   UNL A   1      45.908  23.930  27.112  1.00  0.00     0.029 A 
ATOM     43  N   UNL A   1      45.444  26.020  27.756  1.00  0.00    -0.354 N 
ATOM     44  C   UNL A   1      41.388  27.289  28.485  1.00  0.00     0.074 A 
ATOM     45  C   UNL A   1      40.454  26.207  28.259  1.00  0.00     0.031 C 
ATOM     46  C   UNL A   1      47.069  24.601  27.171  1.00  0.00     0.029 A 
ATOM     47  C   UNL A   1      46.805  25.981  27.563  1.00  0.00     0.049 A 
ATOM     48  H   UNL A   1      44.965  26.830  28.045  1.00  0.00     0.167 HD
ATOM     49  C   UNL A   1      41.033  28.536  28.876  1.00  0.00     0.037 A 
ATOM     50  C   UNL A   1      47.734  26.950  27.678  1.00  0.00     0.037 A 
ATOM     51  C   UNL A   1      41.965  29.607  29.121  1.00  0.00     0.049 A 
ATOM     52  C   UNL A   1      47.309  28.332  28.092  1.00  0.00     0.074 A 
ATOM     53  C   UNL A   1      41.705  30.885  29.581  1.00  0.00     0.029 A 
ATOM     54  N   UNL A   1      43.335  29.526  28.918  1.00  0.00    -0.354 N 
ATOM     55  N   UNL A   1      46.112  28.777  28.387  1.00  0.00    -0.248 NA
ATOM     56  C   UNL A   1      48.368  29.347  28.197  1.00  0.00     0.031 C 
ATOM     57  C   UNL A   1      42.910  31.596  29.603  1.00  0.00     0.029 A 
ATOM     58  C   UNL A   1      43.929  30.742  29.215  1.00  0.00     0.049 A 
ATOM     59  H   UNL A   1      43.813  28.722  28.608  1.00  0.00     0.167 HD
ATOM     60  C   UNL A   1      46.277  30.110  28.741  1.00  0.00     0.074 A 
ATOM     61  C   UNL A   1      47.692  30.397  28.639  1.00  0.00     0.031 C 
ATOM     62  C   UNL A   1      45.340  31.014  29.119  1.00  0.00     0.037 A 
BRANCH  49  63
ATOM     63  C   UNL A   1      39.569  28.816  29.063  1.00  0.00     0.057 A 
ATOM     64  C   UNL A   1      38.932  28.643  30.301  1.00  0.00     0.134 A 
ATOM     65  C   UNL A   1      38.794  29.308  28.005  1.00  0.00     0.134 A 
ATOM     66  F   UNL A   1      39.613  28.166  31.354  1.00  0.00    -0.206 F 
ATOM     67  C   UNL A   1      37.575  28.922  30.471  1.00  0.00     0.040 A 
ATOM     68  C   UNL A   1      37.444  29.620  28.171  1.00  0.00     0.040 A 
ATOM     69  F   UNL A   1      39.340  29.506  26.796  1.00  0.00    -0.206 F 
ATOM     70  C   UNL A   1      36.828  29.421  29.405  1.00  0.00     0.006 A 
ENDBRANCH  49  63
BRANCH  50  71
ATOM     71  C   UNL A   1      49.165  26.648  27.415  1.00  0.00     0.057 A 
ATOM     72  C   UNL A   1      49.697  26.746  26.124  1.00  0.00     0.134 A 
ATOM     73  C   UNL A   1      50.028  26.234  28.438  1.00  0.00     0.134 A 
ATOM     74  F   UNL A   1      48.917  27.118  25.099  1.00  0.00    -0.206 F 
ATOM     75  C   UNL A   1      51.028  26.421  25.854  1.00  0.00     0.040 A 
ATOM     76  C   UNL A   1      51.367  25.933  28.186  1.00  0.00     0.040 A 
ATOM     77  F   UNL A   1      49.582  26.127  29.698  1.00  0.00    -0.206 F 
ATOM     78  C   UNL A   1      51.868  26.016  26.889  1.00  0.00     0.006 A 
ENDBRANCH  50  71
BRANCH  62  79
ATOM     79  C   UNL A   1      45.818  32.388  29.494  1.00  0.00     0.057 A 
ATOM     80  C   UNL A   1      45.914  33.424  28.556  1.00  0.00     0.134 A 
ATOM     81  C   UNL A   1      46.151  32.687  30.821  1.00  0.00     0.134 A 
ATOM     82  F   UNL A   1      45.622  33.202  27.266  1.00  0.00    -0.206 F 
ATOM     83  C   UNL A   1      46.348  34.700  28.920  1.00  0.00     0.040 A 
ATOM     84  C   UNL A   1      46.557  33.966  31.204  1.00  0.00     0.040 A 
ATOM     85  F   UNL A   1      46.073  31.744  31.773  1.00  0.00    -0.206 F 
ATOM     86  C   UNL A   1      46.663  34.975  30.249  1.00  0.00     0.006 A 
ENDBRANCH  62  79
ENDBRANCH  36  37
ENDBRANCH  28  31
ENDBRANCH  26  27
ENDBRANCH  25  26
ENDBRANCH  24  25
ENDBRANCH   1  24
TORSDOF 16
ENDMDL
