MODEL 1
REMARK VINA RESULT:     -10.3      0.000      0.000
REMARK SMILES O=C(C[C@@H]1C[N@@H+](CCSc2ccccc2F)CCO1)NCCCCNC(=O)c1ccc(-c2c3nc(c(-c4c(F)cccc4F)c4ccc([nH]4)c(-c4c(F)cccc4F)c4nc(c(-c5c(F)cccc5F)c5ccc2[nH]5)C=C4)C=C3)cc1
REMARK SMILES IDX 21 1 20 2 1 3 2 4 3 6 4 7 5 8 19 9 6 10 18 11 17 12 7 14
REMARK SMILES IDX 8 15 9 16 10 17 11 18 15 19 12 20 14 21 16 22 13 23 22 24
REMARK SMILES IDX 23 25 24 26 25 27 26 28 27 30 28 31 29 32 81 33 30 34 80 35
REMARK SMILES IDX 31 36 32 37 33 38 74 39 34 40 79 41 73 42 75 43 35 44 78 45
REMARK SMILES IDX 72 46 71 47 36 49 62 50 45 51 61 52 46 53 49 54 60 55 76 56
REMARK SMILES IDX 47 57 48 58 59 60 77 61 50 62 37 63 38 64 43 65 39 66 40 67
REMARK SMILES IDX 42 68 44 69 41 70 63 71 64 72 69 73 65 74 66 75 68 76 70 77
REMARK SMILES IDX 67 78 51 79 52 80 57 81 53 82 54 83 56 84 58 85 55 86
REMARK H PARENT 20 5 6 13 25 29 75 48 49 59
REMARK Flexibility Score: inf
ROOT
ATOM      1  C   UNL A   1      35.061  20.472  25.162  1.00  0.00     0.116 C 
ENDROOT
BRANCH   1   2
ATOM      2  N   UNL A   1      34.098  21.160  24.348  1.00  0.00    -0.356 N 
ATOM      3  O   UNL A   1      32.234  19.937  24.893  1.00  0.00    -0.275 OA
ATOM      4  C   UNL A   1      32.776  20.807  24.242  1.00  0.00     0.222 C 
ATOM      5  H   UNL A   1      34.406  21.940  23.832  1.00  0.00     0.163 HD
BRANCH   4   6
ATOM      6  C   UNL A   1      32.108  21.623  23.161  1.00  0.00     0.138 C 
BRANCH   6   7
ATOM      7  C   UNL A   1      32.024  23.120  23.466  1.00  0.00     0.182 C 
ATOM      8  C   UNL A   1      30.663  23.884  23.256  1.00  0.00     0.295 C 
ATOM      9  O   UNL A   1      33.070  23.623  22.633  1.00  0.00    -0.366 OA
ATOM     10  N   UNL A   1      30.745  25.354  23.086  1.00  0.00    -0.330 N 
ATOM     11  C   UNL A   1      33.119  25.028  22.672  1.00  0.00     0.222 C 
ATOM     12  C   UNL A   1      31.809  25.597  22.132  1.00  0.00     0.291 C 
ATOM     13  H   UNL A   1      29.821  25.637  22.759  1.00  0.00     0.348 HD
BRANCH  10  14
ATOM     14  C   UNL A   1      30.794  26.249  24.261  1.00  0.00     0.273 C 
BRANCH  14  15
ATOM     15  C   UNL A   1      30.378  27.788  24.289  1.00  0.00     0.136 C 
BRANCH  15  16
ATOM     16  S   UNL A   1      31.540  29.262  24.024  1.00  0.00    -0.117 SA
BRANCH  16  17
ATOM     17  C   UNL A   1      32.607  29.427  25.477  1.00  0.00     0.043 A 
ATOM     18  C   UNL A   1      32.330  30.501  26.348  1.00  0.00     0.018 A 
ATOM     19  C   UNL A   1      33.712  28.622  25.786  1.00  0.00     0.136 A 
ATOM     20  C   UNL A   1      33.244  30.895  27.336  1.00  0.00     0.001 A 
ATOM     21  C   UNL A   1      34.594  28.968  26.829  1.00  0.00     0.040 A 
ATOM     22  F   UNL A   1      34.012  27.550  25.040  1.00  0.00    -0.206 F 
ATOM     23  C   UNL A   1      34.389  30.138  27.567  1.00  0.00     0.003 A 
ENDBRANCH  16  17
ENDBRANCH  15  16
ENDBRANCH  14  15
ENDBRANCH  10  14
ENDBRANCH   6   7
ENDBRANCH   4   6
ENDBRANCH   1   2
BRANCH   1  24
ATOM     24  C   UNL A   1      35.909  21.512  25.889  1.00  0.00     0.023 C 
BRANCH  24  25
ATOM     25  C   UNL A   1      35.888  22.907  25.239  1.00  0.00     0.023 C 
BRANCH  25  26
ATOM     26  C   UNL A   1      37.209  23.665  25.332  1.00  0.00     0.116 C 
BRANCH  26  27
ATOM     27  N   UNL A   1      38.317  22.763  25.582  1.00  0.00    -0.352 N 
ATOM     28  C   UNL A   1      39.545  23.028  26.128  1.00  0.00     0.251 C 
ATOM     29  H   UNL A   1      38.165  21.825  25.323  1.00  0.00     0.163 HD
ATOM     30  O   UNL A   1      40.460  22.220  26.006  1.00  0.00    -0.269 OA
BRANCH  28  31
ATOM     31  C   UNL A   1      39.768  24.295  26.854  1.00  0.00     0.039 A 
ATOM     32  C   UNL A   1      39.264  24.428  28.149  1.00  0.00     0.014 A 
ATOM     33  C   UNL A   1      40.452  25.354  26.250  1.00  0.00     0.014 A 
ATOM     34  C   UNL A   1      39.491  25.608  28.859  1.00  0.00     0.010 A 
ATOM     35  C   UNL A   1      40.745  26.498  26.987  1.00  0.00     0.010 A 
ATOM     36  C   UNL A   1      40.263  26.639  28.297  1.00  0.00    -0.014 A 
BRANCH  36  37
ATOM     37  C   UNL A   1      40.579  27.867  29.069  1.00  0.00     0.031 A 
ATOM     38  C   UNL A   1      41.904  28.011  29.761  1.00  0.00     0.074 A 
ATOM     39  C   UNL A   1      39.646  28.833  29.186  1.00  0.00     0.049 A 
ATOM     40  N   UNL A   1      42.333  28.984  30.525  1.00  0.00    -0.248 NA
ATOM     41  C   UNL A   1      42.867  26.911  29.593  1.00  0.00     0.031 C 
ATOM     42  C   UNL A   1      38.310  28.793  28.591  1.00  0.00     0.029 A 
ATOM     43  N   UNL A   1      39.680  30.035  29.850  1.00  0.00    -0.354 N 
ATOM     44  C   UNL A   1      43.608  28.612  30.930  1.00  0.00     0.074 A 
ATOM     45  C   UNL A   1      43.862  27.299  30.379  1.00  0.00     0.031 C 
ATOM     46  C   UNL A   1      37.664  29.931  28.888  1.00  0.00     0.029 A 
ATOM     47  C   UNL A   1      38.518  30.760  29.732  1.00  0.00     0.049 A 
ATOM     48  H   UNL A   1      40.460  30.347  30.361  1.00  0.00     0.167 HD
ATOM     49  C   UNL A   1      44.498  29.313  31.672  1.00  0.00     0.037 A 
ATOM     50  C   UNL A   1      38.176  31.954  30.252  1.00  0.00     0.037 A 
ATOM     51  C   UNL A   1      44.248  30.628  32.203  1.00  0.00     0.049 A 
ATOM     52  C   UNL A   1      39.168  32.701  31.097  1.00  0.00     0.074 A 
ATOM     53  C   UNL A   1      45.105  31.438  32.927  1.00  0.00     0.029 A 
ATOM     54  N   UNL A   1      43.056  31.324  32.069  1.00  0.00    -0.354 N 
ATOM     55  N   UNL A   1      40.389  32.359  31.430  1.00  0.00    -0.248 NA
ATOM     56  C   UNL A   1      38.740  34.000  31.637  1.00  0.00     0.031 C 
ATOM     57  C   UNL A   1      44.415  32.599  33.281  1.00  0.00     0.029 A 
ATOM     58  C   UNL A   1      43.148  32.542  32.722  1.00  0.00     0.049 A 
ATOM     59  H   UNL A   1      42.264  31.001  31.583  1.00  0.00     0.167 HD
ATOM     60  C   UNL A   1      40.883  33.407  32.197  1.00  0.00     0.074 A 
ATOM     61  C   UNL A   1      39.835  34.403  32.269  1.00  0.00     0.031 C 
ATOM     62  C   UNL A   1      42.098  33.529  32.786  1.00  0.00     0.037 A 
BRANCH  49  63
ATOM     63  C   UNL A   1      45.833  28.682  31.947  1.00  0.00     0.057 A 
ATOM     64  C   UNL A   1      46.881  28.793  31.024  1.00  0.00     0.134 A 
ATOM     65  C   UNL A   1      46.059  27.905  33.090  1.00  0.00     0.134 A 
ATOM     66  F   UNL A   1      46.729  29.516  29.904  1.00  0.00    -0.206 F 
ATOM     67  C   UNL A   1      48.100  28.143  31.222  1.00  0.00     0.040 A 
ATOM     68  C   UNL A   1      47.285  27.275  33.315  1.00  0.00     0.040 A 
ATOM     69  F   UNL A   1      45.101  27.767  34.019  1.00  0.00    -0.206 F 
ATOM     70  C   UNL A   1      48.305  27.384  32.372  1.00  0.00     0.006 A 
ENDBRANCH  49  63
BRANCH  50  71
ATOM     71  C   UNL A   1      36.837  32.524  29.953  1.00  0.00     0.057 A 
ATOM     72  C   UNL A   1      36.646  33.432  28.903  1.00  0.00     0.134 A 
ATOM     73  C   UNL A   1      35.725  32.202  30.738  1.00  0.00     0.134 A 
ATOM     74  F   UNL A   1      37.674  33.789  28.119  1.00  0.00    -0.206 F 
ATOM     75  C   UNL A   1      35.401  34.016  28.659  1.00  0.00     0.040 A 
ATOM     76  C   UNL A   1      34.469  32.759  30.489  1.00  0.00     0.040 A 
ATOM     77  F   UNL A   1      35.842  31.327  31.746  1.00  0.00    -0.206 F 
ATOM     78  C   UNL A   1      34.308  33.677  29.453  1.00  0.00     0.006 A 
ENDBRANCH  50  71
BRANCH  62  79
ATOM     79  C   UNL A   1      42.383  34.792  33.547  1.00  0.00     0.057 A 
ATOM     80  C   UNL A   1      41.975  34.926  34.881  1.00  0.00     0.134 A 
ATOM     81  C   UNL A   1      42.973  35.905  32.936  1.00  0.00     0.134 A 
ATOM     82  F   UNL A   1      41.392  33.903  35.522  1.00  0.00    -0.206 F 
ATOM     83  C   UNL A   1      42.127  36.128  35.573  1.00  0.00     0.040 A 
ATOM     84  C   UNL A   1      43.157  37.103  33.628  1.00  0.00     0.040 A 
ATOM     85  F   UNL A   1      43.395  35.840  31.664  1.00  0.00    -0.206 F 
ATOM     86  C   UNL A   1      42.721  37.221  34.947  1.00  0.00     0.006 A 
ENDBRANCH  62  79
ENDBRANCH  36  37
ENDBRANCH  28  31
ENDBRANCH  26  27
ENDBRANCH  25  26
ENDBRANCH  24  25
ENDBRANCH   1  24
TORSDOF 16
ENDMDL
MODEL 2
REMARK VINA RESULT:     -10.2      2.645      3.916
REMARK SMILES O=C(C[C@@H]1C[N@@H+](CCSc2ccccc2F)CCO1)NCCCCNC(=O)c1ccc(-c2c3nc(c(-c4c(F)cccc4F)c4ccc([nH]4)c(-c4c(F)cccc4F)c4nc(c(-c5c(F)cccc5F)c5ccc2[nH]5)C=C4)C=C3)cc1
REMARK SMILES IDX 21 1 20 2 1 3 2 4 3 6 4 7 5 8 19 9 6 10 18 11 17 12 7 14
REMARK SMILES IDX 8 15 9 16 10 17 11 18 15 19 12 20 14 21 16 22 13 23 22 24
REMARK SMILES IDX 23 25 24 26 25 27 26 28 27 30 28 31 29 32 81 33 30 34 80 35
REMARK SMILES IDX 31 36 32 37 33 38 74 39 34 40 79 41 73 42 75 43 35 44 78 45
REMARK SMILES IDX 72 46 71 47 36 49 62 50 45 51 61 52 46 53 49 54 60 55 76 56
REMARK SMILES IDX 47 57 48 58 59 60 77 61 50 62 37 63 38 64 43 65 39 66 40 67
REMARK SMILES IDX 42 68 44 69 41 70 63 71 64 72 69 73 65 74 66 75 68 76 70 77
REMARK SMILES IDX 67 78 51 79 52 80 57 81 53 82 54 83 56 84 58 85 55 86
REMARK H PARENT 20 5 6 13 25 29 75 48 49 59
REMARK Flexibility Score: inf
ROOT
ATOM      1  C   UNL A   1      36.094  21.302  25.568  1.00  0.00     0.116 C 
ENDROOT
BRANCH   1   2
ATOM      2  N   UNL A   1      34.893  21.647  24.860  1.00  0.00    -0.356 N 
ATOM      3  O   UNL A   1      33.772  19.656  25.073  1.00  0.00    -0.275 OA
ATOM      4  C   UNL A   1      33.853  20.783  24.627  1.00  0.00     0.222 C 
ATOM      5  H   UNL A   1      34.809  22.566  24.519  1.00  0.00     0.163 HD
BRANCH   4   6
ATOM      6  C   UNL A   1      32.850  21.419  23.695  1.00  0.00     0.138 C 
BRANCH   6   7
ATOM      7  C   UNL A   1      31.968  22.482  24.353  1.00  0.00     0.182 C 
ATOM      8  C   UNL A   1      32.381  24.000  24.269  1.00  0.00     0.295 C 
ATOM      9  O   UNL A   1      31.922  22.000  25.697  1.00  0.00    -0.366 OA
ATOM     10  N   UNL A   1      31.806  24.903  25.294  1.00  0.00    -0.330 N 
ATOM     11  C   UNL A   1      31.229  22.892  26.534  1.00  0.00     0.222 C 
ATOM     12  C   UNL A   1      31.963  24.231  26.569  1.00  0.00     0.291 C 
ATOM     13  H   UNL A   1      32.336  25.771  25.214  1.00  0.00     0.348 HD
BRANCH  10  14
ATOM     14  C   UNL A   1      30.467  25.502  25.108  1.00  0.00     0.273 C 
BRANCH  14  15
ATOM     15  C   UNL A   1      30.053  26.547  23.977  1.00  0.00     0.136 C 
BRANCH  15  16
ATOM     16  S   UNL A   1      31.059  28.057  23.432  1.00  0.00    -0.117 SA
BRANCH  16  17
ATOM     17  C   UNL A   1      32.059  28.624  24.830  1.00  0.00     0.043 A 
ATOM     18  C   UNL A   1      31.511  29.651  25.626  1.00  0.00     0.018 A 
ATOM     19  C   UNL A   1      33.345  28.175  25.162  1.00  0.00     0.136 A 
ATOM     20  C   UNL A   1      32.296  30.358  26.548  1.00  0.00     0.001 A 
ATOM     21  C   UNL A   1      34.112  28.831  26.145  1.00  0.00     0.040 A 
ATOM     22  F   UNL A   1      33.917  27.166  24.490  1.00  0.00    -0.206 F 
ATOM     23  C   UNL A   1      33.606  29.960  26.798  1.00  0.00     0.003 A 
ENDBRANCH  16  17
ENDBRANCH  15  16
ENDBRANCH  14  15
ENDBRANCH  10  14
ENDBRANCH   6   7
ENDBRANCH   4   6
ENDBRANCH   1   2
BRANCH   1  24
ATOM     24  C   UNL A   1      37.195  21.033  24.546  1.00  0.00     0.023 C 
BRANCH  24  25
ATOM     25  C   UNL A   1      38.097  19.835  24.892  1.00  0.00     0.023 C 
BRANCH  25  26
ATOM     26  C   UNL A   1      39.078  20.093  26.031  1.00  0.00     0.116 C 
BRANCH  26  27
ATOM     27  N   UNL A   1      40.233  19.220  25.937  1.00  0.00    -0.352 N 
ATOM     28  C   UNL A   1      41.565  19.535  26.002  1.00  0.00     0.251 C 
ATOM     29  H   UNL A   1      40.031  18.265  25.809  1.00  0.00     0.163 HD
ATOM     30  O   UNL A   1      42.407  18.728  25.621  1.00  0.00    -0.269 OA
BRANCH  28  31
ATOM     31  C   UNL A   1      41.984  20.853  26.519  1.00  0.00     0.039 A 
ATOM     32  C   UNL A   1      42.332  21.854  25.611  1.00  0.00     0.014 A 
ATOM     33  C   UNL A   1      42.056  21.092  27.895  1.00  0.00     0.014 A 
ATOM     34  C   UNL A   1      42.702  23.115  26.083  1.00  0.00     0.010 A 
ATOM     35  C   UNL A   1      42.348  22.370  28.361  1.00  0.00     0.010 A 
ATOM     36  C   UNL A   1      42.679  23.393  27.460  1.00  0.00    -0.014 A 
BRANCH  36  37
ATOM     37  C   UNL A   1      42.995  24.751  27.972  1.00  0.00     0.031 A 
ATOM     38  C   UNL A   1      44.416  25.143  28.263  1.00  0.00     0.074 A 
ATOM     39  C   UNL A   1      41.991  25.614  28.223  1.00  0.00     0.049 A 
ATOM     40  N   UNL A   1      44.876  26.260  28.767  1.00  0.00    -0.248 NA
ATOM     41  C   UNL A   1      45.456  24.143  27.971  1.00  0.00     0.031 C 
ATOM     42  C   UNL A   1      40.569  25.338  28.015  1.00  0.00     0.029 A 
ATOM     43  N   UNL A   1      42.014  26.898  28.710  1.00  0.00    -0.354 N 
ATOM     44  C   UNL A   1      46.251  26.096  28.856  1.00  0.00     0.074 A 
ATOM     45  C   UNL A   1      46.548  24.752  28.412  1.00  0.00     0.031 C 
ATOM     46  C   UNL A   1      39.858  26.429  28.341  1.00  0.00     0.029 A 
ATOM     47  C   UNL A   1      40.766  27.464  28.825  1.00  0.00     0.049 A 
ATOM     48  H   UNL A   1      42.843  27.367  28.954  1.00  0.00     0.167 HD
ATOM     49  C   UNL A   1      47.186  26.995  29.247  1.00  0.00     0.037 A 
ATOM     50  C   UNL A   1      40.394  28.677  29.275  1.00  0.00     0.037 A 
ATOM     51  C   UNL A   1      46.888  28.338  29.670  1.00  0.00     0.049 A 
ATOM     52  C   UNL A   1      41.447  29.647  29.732  1.00  0.00     0.074 A 
ATOM     53  C   UNL A   1      47.771  29.337  30.040  1.00  0.00     0.029 A 
ATOM     54  N   UNL A   1      45.612  28.870  29.780  1.00  0.00    -0.354 N 
ATOM     55  N   UNL A   1      42.749  29.496  29.764  1.00  0.00    -0.248 NA
ATOM     56  C   UNL A   1      40.983  30.957  30.213  1.00  0.00     0.031 C 
ATOM     57  C   UNL A   1      47.029  30.454  30.429  1.00  0.00     0.029 A 
ATOM     58  C   UNL A   1      45.686  30.175  30.240  1.00  0.00     0.049 A 
ATOM     59  H   UNL A   1      44.780  28.393  29.565  1.00  0.00     0.167 HD
ATOM     60  C   UNL A   1      43.261  30.695  30.244  1.00  0.00     0.074 A 
ATOM     61  C   UNL A   1      42.130  31.569  30.479  1.00  0.00     0.031 C 
ATOM     62  C   UNL A   1      44.553  31.038  30.468  1.00  0.00     0.037 A 
BRANCH  49  63
ATOM     63  C   UNL A   1      48.625  26.564  29.225  1.00  0.00     0.057 A 
ATOM     64  C   UNL A   1      49.216  25.982  30.353  1.00  0.00     0.134 A 
ATOM     65  C   UNL A   1      49.445  26.791  28.113  1.00  0.00     0.134 A 
ATOM     66  F   UNL A   1      48.489  25.743  31.456  1.00  0.00    -0.206 F 
ATOM     67  C   UNL A   1      50.572  25.654  30.381  1.00  0.00     0.040 A 
ATOM     68  C   UNL A   1      50.796  26.439  28.116  1.00  0.00     0.040 A 
ATOM     69  F   UNL A   1      48.940  27.335  26.994  1.00  0.00    -0.206 F 
ATOM     70  C   UNL A   1      51.366  25.880  29.258  1.00  0.00     0.006 A 
ENDBRANCH  49  63
BRANCH  50  71
ATOM     71  C   UNL A   1      38.956  29.044  29.281  1.00  0.00     0.057 A 
ATOM     72  C   UNL A   1      38.330  29.574  28.146  1.00  0.00     0.134 A 
ATOM     73  C   UNL A   1      38.182  28.909  30.439  1.00  0.00     0.134 A 
ATOM     74  F   UNL A   1      39.018  29.737  27.006  1.00  0.00    -0.206 F 
ATOM     75  C   UNL A   1      36.993  29.977  28.168  1.00  0.00     0.040 A 
ATOM     76  C   UNL A   1      36.838  29.284  30.468  1.00  0.00     0.040 A 
ATOM     77  F   UNL A   1      38.720  28.393  31.554  1.00  0.00    -0.206 F 
ATOM     78  C   UNL A   1      36.243  29.830  29.332  1.00  0.00     0.006 A 
ENDBRANCH  50  71
BRANCH  62  79
ATOM     79  C   UNL A   1      44.831  32.424  30.974  1.00  0.00     0.057 A 
ATOM     80  C   UNL A   1      44.858  32.687  32.351  1.00  0.00     0.134 A 
ATOM     81  C   UNL A   1      44.979  33.511  30.105  1.00  0.00     0.134 A 
ATOM     82  F   UNL A   1      44.710  31.692  33.238  1.00  0.00    -0.206 F 
ATOM     83  C   UNL A   1      45.002  33.985  32.843  1.00  0.00     0.040 A 
ATOM     84  C   UNL A   1      45.153  34.810  30.587  1.00  0.00     0.040 A 
ATOM     85  F   UNL A   1      44.973  33.327  28.776  1.00  0.00    -0.206 F 
ATOM     86  C   UNL A   1      45.152  35.051  31.960  1.00  0.00     0.006 A 
ENDBRANCH  62  79
ENDBRANCH  36  37
ENDBRANCH  28  31
ENDBRANCH  26  27
ENDBRANCH  25  26
ENDBRANCH  24  25
ENDBRANCH   1  24
TORSDOF 16
ENDMDL
MODEL 3
REMARK VINA RESULT:     -10.1      3.728      7.820
REMARK SMILES O=C(C[C@@H]1C[N@@H+](CCSc2ccccc2F)CCO1)NCCCCNC(=O)c1ccc(-c2c3nc(c(-c4c(F)cccc4F)c4ccc([nH]4)c(-c4c(F)cccc4F)c4nc(c(-c5c(F)cccc5F)c5ccc2[nH]5)C=C4)C=C3)cc1
REMARK SMILES IDX 21 1 20 2 1 3 2 4 3 6 4 7 5 8 19 9 6 10 18 11 17 12 7 14
REMARK SMILES IDX 8 15 9 16 10 17 11 18 15 19 12 20 14 21 16 22 13 23 22 24
REMARK SMILES IDX 23 25 24 26 25 27 26 28 27 30 28 31 29 32 81 33 30 34 80 35
REMARK SMILES IDX 31 36 32 37 33 38 74 39 34 40 79 41 73 42 75 43 35 44 78 45
REMARK SMILES IDX 72 46 71 47 36 49 62 50 45 51 61 52 46 53 49 54 60 55 76 56
REMARK SMILES IDX 47 57 48 58 59 60 77 61 50 62 37 63 38 64 43 65 39 66 40 67
REMARK SMILES IDX 42 68 44 69 41 70 63 71 64 72 69 73 65 74 66 75 68 76 70 77
REMARK SMILES IDX 67 78 51 79 52 80 57 81 53 82 54 83 56 84 58 85 55 86
REMARK H PARENT 20 5 6 13 25 29 75 48 49 59
REMARK Flexibility Score: inf
ROOT
ATOM      1  C   UNL A   1      37.498  21.665  24.912  1.00  0.00     0.116 C 
ENDROOT
BRANCH   1   2
ATOM      2  N   UNL A   1      36.505  22.485  24.273  1.00  0.00    -0.356 N 
ATOM      3  O   UNL A   1      36.353  24.148  25.848  1.00  0.00    -0.275 OA
ATOM      4  C   UNL A   1      35.979  23.631  24.815  1.00  0.00     0.222 C 
ATOM      5  H   UNL A   1      36.181  22.208  23.387  1.00  0.00     0.163 HD
BRANCH   4   6
ATOM      6  C   UNL A   1      34.833  24.125  23.965  1.00  0.00     0.138 C 
BRANCH   6   7
ATOM      7  C   UNL A   1      33.457  23.634  24.420  1.00  0.00     0.182 C 
ATOM      8  C   UNL A   1      33.102  23.619  25.955  1.00  0.00     0.295 C 
ATOM      9  O   UNL A   1      33.430  22.330  23.837  1.00  0.00    -0.366 OA
ATOM     10  N   UNL A   1      32.008  22.712  26.374  1.00  0.00    -0.330 N 
ATOM     11  C   UNL A   1      32.270  21.630  24.212  1.00  0.00     0.222 C 
ATOM     12  C   UNL A   1      32.259  21.439  25.728  1.00  0.00     0.291 C 
ATOM     13  H   UNL A   1      32.064  22.678  27.393  1.00  0.00     0.348 HD
BRANCH  10  14
ATOM     14  C   UNL A   1      30.596  23.142  26.294  1.00  0.00     0.273 C 
BRANCH  14  15
ATOM     15  C   UNL A   1      30.072  24.648  26.266  1.00  0.00     0.136 C 
BRANCH  15  16
ATOM     16  S   UNL A   1      30.284  25.876  24.838  1.00  0.00    -0.117 SA
BRANCH  16  17
ATOM     17  C   UNL A   1      31.092  27.367  25.471  1.00  0.00     0.043 A 
ATOM     18  C   UNL A   1      31.418  27.378  26.843  1.00  0.00     0.018 A 
ATOM     19  C   UNL A   1      31.374  28.529  24.738  1.00  0.00     0.136 A 
ATOM     20  C   UNL A   1      31.780  28.563  27.498  1.00  0.00     0.001 A 
ATOM     21  C   UNL A   1      31.814  29.704  25.379  1.00  0.00     0.040 A 
ATOM     22  F   UNL A   1      31.143  28.582  23.418  1.00  0.00    -0.206 F 
ATOM     23  C   UNL A   1      31.962  29.735  26.769  1.00  0.00     0.003 A 
ENDBRANCH  16  17
ENDBRANCH  15  16
ENDBRANCH  14  15
ENDBRANCH  10  14
ENDBRANCH   6   7
ENDBRANCH   4   6
ENDBRANCH   1   2
BRANCH   1  24
ATOM     24  C   UNL A   1      37.152  20.202  24.653  1.00  0.00     0.023 C 
BRANCH  24  25
ATOM     25  C   UNL A   1      38.166  19.202  25.235  1.00  0.00     0.023 C 
BRANCH  25  26
ATOM     26  C   UNL A   1      39.443  19.840  25.772  1.00  0.00     0.116 C 
BRANCH  26  27
ATOM     27  N   UNL A   1      40.491  18.852  25.947  1.00  0.00    -0.352 N 
ATOM     28  C   UNL A   1      41.842  19.035  26.087  1.00  0.00     0.251 C 
ATOM     29  H   UNL A   1      40.188  17.915  25.968  1.00  0.00     0.163 HD
ATOM     30  O   UNL A   1      42.610  18.090  25.938  1.00  0.00    -0.269 OA
BRANCH  28  31
ATOM     31  C   UNL A   1      42.372  20.376  26.406  1.00  0.00     0.039 A 
ATOM     32  C   UNL A   1      42.861  21.172  25.367  1.00  0.00     0.014 A 
ATOM     33  C   UNL A   1      42.407  20.837  27.724  1.00  0.00     0.014 A 
ATOM     34  C   UNL A   1      43.338  22.453  25.648  1.00  0.00     0.010 A 
ATOM     35  C   UNL A   1      42.809  22.143  27.991  1.00  0.00     0.010 A 
ATOM     36  C   UNL A   1      43.284  22.962  26.956  1.00  0.00    -0.014 A 
BRANCH  36  37
ATOM     37  C   UNL A   1      43.715  24.351  27.256  1.00  0.00     0.031 A 
ATOM     38  C   UNL A   1      42.715  25.378  27.704  1.00  0.00     0.074 A 
ATOM     39  C   UNL A   1      45.005  24.697  27.076  1.00  0.00     0.049 A 
ATOM     40  N   UNL A   1      42.897  26.650  27.955  1.00  0.00    -0.248 NA
ATOM     41  C   UNL A   1      41.324  24.927  27.870  1.00  0.00     0.031 C 
ATOM     42  C   UNL A   1      46.063  23.799  26.611  1.00  0.00     0.029 A 
ATOM     43  N   UNL A   1      45.644  25.898  27.258  1.00  0.00    -0.354 N 
ATOM     44  C   UNL A   1      41.648  27.148  28.304  1.00  0.00     0.074 A 
ATOM     45  C   UNL A   1      40.706  26.059  28.174  1.00  0.00     0.031 C 
ATOM     46  C   UNL A   1      47.224  24.471  26.576  1.00  0.00     0.029 A 
ATOM     47  C   UNL A   1      46.987  25.856  26.969  1.00  0.00     0.049 A 
ATOM     48  H   UNL A   1      45.185  26.712  27.566  1.00  0.00     0.167 HD
ATOM     49  C   UNL A   1      41.322  28.394  28.721  1.00  0.00     0.037 A 
ATOM     50  C   UNL A   1      47.922  26.825  27.008  1.00  0.00     0.037 A 
ATOM     51  C   UNL A   1      42.267  29.471  28.868  1.00  0.00     0.049 A 
ATOM     52  C   UNL A   1      47.530  28.208  27.445  1.00  0.00     0.074 A 
ATOM     53  C   UNL A   1      42.040  30.756  29.328  1.00  0.00     0.029 A 
ATOM     54  N   UNL A   1      43.616  29.390  28.556  1.00  0.00    -0.354 N 
ATOM     55  N   UNL A   1      46.356  28.652  27.820  1.00  0.00    -0.248 NA
ATOM     56  C   UNL A   1      48.592  29.224  27.469  1.00  0.00     0.031 C 
ATOM     57  C   UNL A   1      43.237  31.469  29.242  1.00  0.00     0.029 A 
ATOM     58  C   UNL A   1      44.226  30.612  28.788  1.00  0.00     0.049 A 
ATOM     59  H   UNL A   1      44.071  28.585  28.220  1.00  0.00     0.167 HD
ATOM     60  C   UNL A   1      46.540  29.990  28.146  1.00  0.00     0.074 A 
ATOM     61  C   UNL A   1      47.942  30.282  27.938  1.00  0.00     0.031 C 
ATOM     62  C   UNL A   1      45.625  30.892  28.581  1.00  0.00     0.037 A 
BRANCH  49  63
ATOM     63  C   UNL A   1      39.885  28.665  29.064  1.00  0.00     0.057 A 
ATOM     64  C   UNL A   1      38.998  29.156  28.098  1.00  0.00     0.134 A 
ATOM     65  C   UNL A   1      39.396  28.508  30.367  1.00  0.00     0.134 A 
ATOM     66  F   UNL A   1      39.403  29.338  26.831  1.00  0.00    -0.206 F 
ATOM     67  C   UNL A   1      37.682  29.495  28.418  1.00  0.00     0.040 A 
ATOM     68  C   UNL A   1      38.073  28.814  30.694  1.00  0.00     0.040 A 
ATOM     69  F   UNL A   1      40.189  28.031  31.339  1.00  0.00    -0.206 F 
ATOM     70  C   UNL A   1      37.216  29.320  29.719  1.00  0.00     0.006 A 
ENDBRANCH  49  63
BRANCH  50  71
ATOM     71  C   UNL A   1      49.326  26.500  26.649  1.00  0.00     0.057 A 
ATOM     72  C   UNL A   1      49.812  26.687  25.350  1.00  0.00     0.134 A 
ATOM     73  C   UNL A   1      50.204  25.957  27.594  1.00  0.00     0.134 A 
ATOM     74  F   UNL A   1      49.018  27.196  24.395  1.00  0.00    -0.206 F 
ATOM     75  C   UNL A   1      51.113  26.325  24.995  1.00  0.00     0.040 A 
ATOM     76  C   UNL A   1      51.515  25.614  27.260  1.00  0.00     0.040 A 
ATOM     77  F   UNL A   1      49.802  25.769  28.859  1.00  0.00    -0.206 F 
ATOM     78  C   UNL A   1      51.969  25.788  25.954  1.00  0.00     0.006 A 
ENDBRANCH  50  71
BRANCH  62  79
ATOM     79  C   UNL A   1      46.104  32.282  28.885  1.00  0.00     0.057 A 
ATOM     80  C   UNL A   1      46.521  32.624  30.179  1.00  0.00     0.134 A 
ATOM     81  C   UNL A   1      46.065  33.302  27.927  1.00  0.00     0.134 A 
ATOM     82  F   UNL A   1      46.570  31.697  31.146  1.00  0.00    -0.206 F 
ATOM     83  C   UNL A   1      46.862  33.936  30.512  1.00  0.00     0.040 A 
ATOM     84  C   UNL A   1      46.432  34.612  28.242  1.00  0.00     0.040 A 
ATOM     85  F   UNL A   1      45.684  33.039  26.667  1.00  0.00    -0.206 F 
ATOM     86  C   UNL A   1      46.820  34.934  29.542  1.00  0.00     0.006 A 
ENDBRANCH  62  79
ENDBRANCH  36  37
ENDBRANCH  28  31
ENDBRANCH  26  27
ENDBRANCH  25  26
ENDBRANCH  24  25
ENDBRANCH   1  24
TORSDOF 16
ENDMDL
