MODEL 1
REMARK VINA RESULT:     -12.8      0.000      0.000
REMARK SMILES O=C(NCCCCNC(=O)[C@H]1CC2=c3ccccc3=N[C@H]2[C@@H](c2ccccc2)[NH2+]1)c1ccc(-c2c3nc(c(-c4c(F)cccc4F)c4ccc([nH]4)c(-c4c(F)cccc4F)c4nc(c(-c5c(F)cccc5F)c5ccc2[nH]5)C=C4)C=C3)cc1
REMARK SMILES IDX 5 1 4 2 3 3 1 4 2 5 30 7 31 8 83 9 32 10 82 11 33 12 34 13
REMARK SMILES IDX 35 14 76 15 36 16 81 17 75 18 77 19 37 20 80 21 74 22 73 23
REMARK SMILES IDX 38 25 64 26 47 27 63 28 48 29 51 30 62 31 78 32 49 33 50 34
REMARK SMILES IDX 61 36 79 37 52 38 39 39 40 40 45 41 41 42 42 43 44 44 46 45
REMARK SMILES IDX 43 46 65 47 66 48 71 49 67 50 68 51 70 52 72 53 69 54 53 55
REMARK SMILES IDX 54 56 59 57 55 58 56 59 58 60 60 61 57 62 6 63 7 64 8 65
REMARK SMILES IDX 9 66 10 68 11 69 12 70 29 71 13 72 22 73 14 76 21 77 15 78
REMARK SMILES IDX 19 79 20 80 16 81 18 82 17 83 23 84 24 85 28 86 25 87 27 88
REMARK SMILES IDX 26 89
REMARK H PARENT 3 6 77 24 51 35 8 67 29 74 29 75
REMARK Flexibility Score: inf
ROOT
ATOM      1  C   UNL A   1      37.892  20.142  24.933  1.00  0.00     0.023 C 
ENDROOT
BRANCH   1   2
ATOM      2  C   UNL A   1      38.915  20.218  26.063  1.00  0.00     0.116 C 
BRANCH   2   3
ATOM      3  N   UNL A   1      40.001  19.263  25.911  1.00  0.00    -0.352 N 
ATOM      4  O   UNL A   1      42.115  18.503  25.814  1.00  0.00    -0.269 OA
ATOM      5  C   UNL A   1      41.347  19.443  26.042  1.00  0.00     0.251 C 
ATOM      6  H   UNL A   1      39.722  18.348  25.680  1.00  0.00     0.163 HD
BRANCH   5   7
ATOM      7  C   UNL A   1      41.890  20.756  26.420  1.00  0.00     0.039 A 
ATOM      8  C   UNL A   1      42.063  21.031  27.779  1.00  0.00     0.014 A 
ATOM      9  C   UNL A   1      42.199  21.718  25.454  1.00  0.00     0.014 A 
ATOM     10  C   UNL A   1      42.568  22.267  28.175  1.00  0.00     0.010 A 
ATOM     11  C   UNL A   1      42.757  22.929  25.846  1.00  0.00     0.010 A 
ATOM     12  C   UNL A   1      42.925  23.219  27.209  1.00  0.00    -0.014 A 
BRANCH  12  13
ATOM     13  C   UNL A   1      43.402  24.561  27.607  1.00  0.00     0.031 A 
ATOM     14  C   UNL A   1      42.399  25.607  28.000  1.00  0.00     0.074 A 
ATOM     15  C   UNL A   1      44.714  24.849  27.562  1.00  0.00     0.049 A 
ATOM     16  N   UNL A   1      42.584  26.872  28.268  1.00  0.00    -0.248 NA
ATOM     17  C   UNL A   1      40.995  25.173  28.068  1.00  0.00     0.031 C 
ATOM     18  C   UNL A   1      45.773  23.916  27.173  1.00  0.00     0.029 A 
ATOM     19  N   UNL A   1      45.378  26.019  27.826  1.00  0.00    -0.354 N 
ATOM     20  C   UNL A   1      41.320  27.390  28.513  1.00  0.00     0.074 A 
ATOM     21  C   UNL A   1      40.372  26.315  28.315  1.00  0.00     0.031 C 
ATOM     22  C   UNL A   1      46.955  24.551  27.223  1.00  0.00     0.029 A 
ATOM     23  C   UNL A   1      46.731  25.941  27.611  1.00  0.00     0.049 A 
ATOM     24  H   UNL A   1      44.927  26.836  28.140  1.00  0.00     0.167 HD
ATOM     25  C   UNL A   1      40.981  28.646  28.890  1.00  0.00     0.037 A 
ATOM     26  C   UNL A   1      47.678  26.894  27.696  1.00  0.00     0.037 A 
ATOM     27  C   UNL A   1      41.933  29.700  29.113  1.00  0.00     0.049 A 
ATOM     28  C   UNL A   1      47.277  28.287  28.091  1.00  0.00     0.074 A 
ATOM     29  C   UNL A   1      41.711  30.985  29.574  1.00  0.00     0.029 A 
ATOM     30  N   UNL A   1      43.297  29.585  28.881  1.00  0.00    -0.354 N 
ATOM     31  N   UNL A   1      46.086  28.753  28.381  1.00  0.00    -0.248 NA
ATOM     32  C   UNL A   1      48.350  29.287  28.166  1.00  0.00     0.031 C 
ATOM     33  C   UNL A   1      42.937  31.662  29.581  1.00  0.00     0.029 A 
ATOM     34  C   UNL A   1      43.926  30.788  29.157  1.00  0.00     0.049 A 
ATOM     35  H   UNL A   1      43.750  28.770  28.567  1.00  0.00     0.167 HD
ATOM     36  C   UNL A   1      46.263  30.099  28.671  1.00  0.00     0.074 A 
ATOM     37  C   UNL A   1      47.683  30.367  28.549  1.00  0.00     0.031 C 
ATOM     38  C   UNL A   1      45.338  31.032  29.003  1.00  0.00     0.037 A 
BRANCH  25  39
ATOM     39  C   UNL A   1      39.518  28.933  29.066  1.00  0.00     0.057 A 
ATOM     40  C   UNL A   1      38.737  29.347  27.980  1.00  0.00     0.134 A 
ATOM     41  C   UNL A   1      38.877  28.779  30.302  1.00  0.00     0.134 A 
ATOM     42  F   UNL A   1      39.288  29.516  26.769  1.00  0.00    -0.206 F 
ATOM     43  C   UNL A   1      37.368  29.583  28.115  1.00  0.00     0.040 A 
ATOM     44  C   UNL A   1      37.503  28.986  30.443  1.00  0.00     0.040 A 
ATOM     45  F   UNL A   1      39.564  28.369  31.378  1.00  0.00    -0.206 F 
ATOM     46  C   UNL A   1      36.745  29.391  29.347  1.00  0.00     0.006 A 
ENDBRANCH  25  39
BRANCH  26  47
ATOM     47  C   UNL A   1      49.088  26.560  27.384  1.00  0.00     0.057 A 
ATOM     48  C   UNL A   1      49.618  26.759  26.104  1.00  0.00     0.134 A 
ATOM     49  C   UNL A   1      49.936  26.024  28.359  1.00  0.00     0.134 A 
ATOM     50  F   UNL A   1      48.853  27.266  25.125  1.00  0.00    -0.206 F 
ATOM     51  C   UNL A   1      50.938  26.425  25.799  1.00  0.00     0.040 A 
ATOM     52  C   UNL A   1      51.265  25.703  28.074  1.00  0.00     0.040 A 
ATOM     53  F   UNL A   1      49.490  25.829  29.608  1.00  0.00    -0.206 F 
ATOM     54  C   UNL A   1      51.767  25.899  26.788  1.00  0.00     0.006 A 
ENDBRANCH  26  47
BRANCH  38  55
ATOM     55  C   UNL A   1      45.836  32.425  29.238  1.00  0.00     0.057 A 
ATOM     56  C   UNL A   1      46.249  32.838  30.510  1.00  0.00     0.134 A 
ATOM     57  C   UNL A   1      45.877  33.370  28.203  1.00  0.00     0.134 A 
ATOM     58  F   UNL A   1      46.229  31.983  31.543  1.00  0.00    -0.206 F 
ATOM     59  C   UNL A   1      46.680  34.144  30.748  1.00  0.00     0.040 A 
ATOM     60  C   UNL A   1      46.327  34.672  28.424  1.00  0.00     0.040 A 
ATOM     61  F   UNL A   1      45.509  33.029  26.958  1.00  0.00    -0.206 F 
ATOM     62  C   UNL A   1      46.724  35.063  29.701  1.00  0.00     0.006 A 
ENDBRANCH  38  55
ENDBRANCH  12  13
ENDBRANCH   5   7
ENDBRANCH   2   3
ENDBRANCH   1   2
BRANCH   1  63
ATOM     63  C   UNL A   1      37.152  21.448  24.610  1.00  0.00     0.023 C 
BRANCH  63  64
ATOM     64  C   UNL A   1      36.096  21.867  25.629  1.00  0.00     0.116 C 
BRANCH  64  65
ATOM     65  N   UNL A   1      34.875  21.122  25.468  1.00  0.00    -0.351 N 
ATOM     66  C   UNL A   1      33.567  21.434  25.520  1.00  0.00     0.278 C 
ATOM     67  H   UNL A   1      35.032  20.169  25.279  1.00  0.00     0.163 HD
ATOM     68  O   UNL A   1      32.819  20.478  25.254  1.00  0.00    -0.268 OA
BRANCH  66  69
ATOM     69  C   UNL A   1      32.945  22.805  25.917  1.00  0.00     0.277 C 
ATOM     70  C   UNL A   1      33.753  24.134  25.839  1.00  0.00     0.109 C 
ATOM     71  N   UNL A   1      31.604  22.859  25.248  1.00  0.00    -0.327 N 
ATOM     72  C   UNL A   1      32.883  25.303  26.226  1.00  0.00    -0.024 C 
ATOM     73  C   UNL A   1      31.052  24.203  24.946  1.00  0.00     0.243 C 
ATOM     74  H   UNL A   1      30.937  22.383  25.856  1.00  0.00     0.347 HD
ATOM     75  H   UNL A   1      31.746  22.423  24.337  1.00  0.00     0.347 HD
ATOM     76  C   UNL A   1      33.099  26.598  26.442  1.00  0.00     0.002 A 
ATOM     77  C   UNL A   1      31.404  25.026  26.222  1.00  0.00     0.196 C 
ATOM     78  C   UNL A   1      34.209  27.492  26.364  1.00  0.00     0.010 A 
ATOM     79  C   UNL A   1      31.728  27.116  26.668  1.00  0.00     0.066 A 
ATOM     80  N   UNL A   1      30.725  26.327  26.423  1.00  0.00    -0.270 NA
ATOM     81  C   UNL A   1      34.012  28.787  26.675  1.00  0.00     0.001 A 
ATOM     82  C   UNL A   1      31.618  28.511  27.136  1.00  0.00     0.028 A 
ATOM     83  C   UNL A   1      32.725  29.269  27.155  1.00  0.00     0.002 A 
BRANCH  73  84
ATOM     84  C   UNL A   1      31.509  24.710  23.557  1.00  0.00     0.012 A 
ATOM     85  C   UNL A   1      32.370  23.938  22.750  1.00  0.00     0.010 A 
ATOM     86  C   UNL A   1      31.076  25.930  23.013  1.00  0.00     0.010 A 
ATOM     87  C   UNL A   1      32.861  24.417  21.528  1.00  0.00     0.001 A 
ATOM     88  C   UNL A   1      31.575  26.421  21.800  1.00  0.00     0.001 A 
ATOM     89  C   UNL A   1      32.482  25.670  21.065  1.00  0.00     0.000 A 
ENDBRANCH  73  84
ENDBRANCH  66  69
ENDBRANCH  64  65
ENDBRANCH  63  64
ENDBRANCH   1  63
TORSDOF 12
ENDMDL
MODEL 2
REMARK VINA RESULT:     -12.8      4.951      9.794
REMARK SMILES O=C(NCCCCNC(=O)[C@H]1CC2=c3ccccc3=N[C@H]2[C@@H](c2ccccc2)[NH2+]1)c1ccc(-c2c3nc(c(-c4c(F)cccc4F)c4ccc([nH]4)c(-c4c(F)cccc4F)c4nc(c(-c5c(F)cccc5F)c5ccc2[nH]5)C=C4)C=C3)cc1
REMARK SMILES IDX 5 1 4 2 3 3 1 4 2 5 30 7 31 8 83 9 32 10 82 11 33 12 34 13
REMARK SMILES IDX 35 14 76 15 36 16 81 17 75 18 77 19 37 20 80 21 74 22 73 23
REMARK SMILES IDX 38 25 64 26 47 27 63 28 48 29 51 30 62 31 78 32 49 33 50 34
REMARK SMILES IDX 61 36 79 37 52 38 39 39 40 40 45 41 41 42 42 43 44 44 46 45
REMARK SMILES IDX 43 46 65 47 66 48 71 49 67 50 68 51 70 52 72 53 69 54 53 55
REMARK SMILES IDX 54 56 59 57 55 58 56 59 58 60 60 61 57 62 6 63 7 64 8 65
REMARK SMILES IDX 9 66 10 68 11 69 12 70 29 71 13 72 22 73 14 76 21 77 15 78
REMARK SMILES IDX 19 79 20 80 16 81 18 82 17 83 23 84 24 85 28 86 25 87 27 88
REMARK SMILES IDX 26 89
REMARK H PARENT 3 6 77 24 51 35 8 67 29 74 29 75
REMARK Flexibility Score: inf
ROOT
ATOM      1  C   UNL A   1      31.461  31.568  26.884  1.00  0.00     0.023 C 
ENDROOT
BRANCH   1   2
ATOM      2  C   UNL A   1      32.641  32.529  26.748  1.00  0.00     0.116 C 
BRANCH   2   3
ATOM      3  N   UNL A   1      32.400  33.816  27.380  1.00  0.00    -0.352 N 
ATOM      4  O   UNL A   1      32.679  35.519  28.822  1.00  0.00    -0.269 OA
ATOM      5  C   UNL A   1      33.084  34.438  28.384  1.00  0.00     0.251 C 
ATOM      6  H   UNL A   1      31.627  34.315  27.029  1.00  0.00     0.163 HD
BRANCH   5   7
ATOM      7  C   UNL A   1      34.280  33.814  28.969  1.00  0.00     0.039 A 
ATOM      8  C   UNL A   1      34.102  32.720  29.820  1.00  0.00     0.014 A 
ATOM      9  C   UNL A   1      35.559  34.314  28.710  1.00  0.00     0.014 A 
ATOM     10  C   UNL A   1      35.210  32.107  30.398  1.00  0.00     0.010 A 
ATOM     11  C   UNL A   1      36.669  33.667  29.241  1.00  0.00     0.010 A 
ATOM     12  C   UNL A   1      36.500  32.574  30.104  1.00  0.00    -0.014 A 
BRANCH  12  13
ATOM     13  C   UNL A   1      37.688  31.981  30.757  1.00  0.00     0.031 A 
ATOM     14  C   UNL A   1      38.452  30.903  30.045  1.00  0.00     0.074 A 
ATOM     15  C   UNL A   1      38.038  32.369  31.996  1.00  0.00     0.049 A 
ATOM     16  N   UNL A   1      39.444  30.169  30.474  1.00  0.00    -0.248 NA
ATOM     17  C   UNL A   1      38.019  30.591  28.673  1.00  0.00     0.031 C 
ATOM     18  C   UNL A   1      37.353  33.390  32.789  1.00  0.00     0.029 A 
ATOM     19  N   UNL A   1      39.048  31.932  32.812  1.00  0.00    -0.354 N 
ATOM     20  C   UNL A   1      39.736  29.293  29.438  1.00  0.00     0.074 A 
ATOM     21  C   UNL A   1      38.788  29.555  28.377  1.00  0.00     0.031 C 
ATOM     22  C   UNL A   1      37.963  33.501  33.980  1.00  0.00     0.029 A 
ATOM     23  C   UNL A   1      39.055  32.534  34.045  1.00  0.00     0.049 A 
ATOM     24  H   UNL A   1      39.706  31.251  32.540  1.00  0.00     0.167 HD
ATOM     25  C   UNL A   1      40.722  28.367  29.368  1.00  0.00     0.037 A 
ATOM     26  C   UNL A   1      39.842  32.311  35.114  1.00  0.00     0.037 A 
ATOM     27  C   UNL A   1      41.678  28.135  30.417  1.00  0.00     0.049 A 
ATOM     28  C   UNL A   1      40.913  31.261  35.025  1.00  0.00     0.074 A 
ATOM     29  C   UNL A   1      42.767  27.282  30.422  1.00  0.00     0.029 A 
ATOM     30  N   UNL A   1      41.652  28.762  31.654  1.00  0.00    -0.354 N 
ATOM     31  N   UNL A   1      41.222  30.480  34.018  1.00  0.00    -0.248 NA
ATOM     32  C   UNL A   1      41.741  31.058  36.221  1.00  0.00     0.031 C 
ATOM     33  C   UNL A   1      43.375  27.362  31.681  1.00  0.00     0.029 A 
ATOM     34  C   UNL A   1      42.685  28.290  32.446  1.00  0.00     0.049 A 
ATOM     35  H   UNL A   1      40.995  29.442  31.929  1.00  0.00     0.167 HD
ATOM     36  C   UNL A   1      42.277  29.691  34.456  1.00  0.00     0.074 A 
ATOM     37  C   UNL A   1      42.573  30.110  35.812  1.00  0.00     0.031 C 
ATOM     38  C   UNL A   1      42.940  28.708  33.801  1.00  0.00     0.037 A 
BRANCH  25  39
ATOM     39  C   UNL A   1      40.791  27.538  28.119  1.00  0.00     0.057 A 
ATOM     40  C   UNL A   1      41.538  27.972  27.016  1.00  0.00     0.134 A 
ATOM     41  C   UNL A   1      40.140  26.302  28.012  1.00  0.00     0.134 A 
ATOM     42  F   UNL A   1      42.185  29.147  27.050  1.00  0.00    -0.206 F 
ATOM     43  C   UNL A   1      41.645  27.199  25.859  1.00  0.00     0.040 A 
ATOM     44  C   UNL A   1      40.263  25.508  26.870  1.00  0.00     0.040 A 
ATOM     45  F   UNL A   1      39.423  25.821  29.038  1.00  0.00    -0.206 F 
ATOM     46  C   UNL A   1      41.016  25.958  25.789  1.00  0.00     0.006 A 
ENDBRANCH  25  39
BRANCH  26  47
ATOM     47  C   UNL A   1      39.630  33.087  36.359  1.00  0.00     0.057 A 
ATOM     48  C   UNL A   1      38.714  32.669  37.332  1.00  0.00     0.134 A 
ATOM     49  C   UNL A   1      40.333  34.273  36.600  1.00  0.00     0.134 A 
ATOM     50  F   UNL A   1      38.007  31.542  37.156  1.00  0.00    -0.206 F 
ATOM     51  C   UNL A   1      38.493  33.408  38.495  1.00  0.00     0.040 A 
ATOM     52  C   UNL A   1      40.137  35.012  37.768  1.00  0.00     0.040 A 
ATOM     53  F   UNL A   1      41.236  34.713  35.713  1.00  0.00    -0.206 F 
ATOM     54  C   UNL A   1      39.211  34.582  38.717  1.00  0.00     0.006 A 
ENDBRANCH  26  47
BRANCH  38  55
ATOM     55  C   UNL A   1      44.033  28.011  34.554  1.00  0.00     0.057 A 
ATOM     56  C   UNL A   1      45.339  28.514  34.557  1.00  0.00     0.134 A 
ATOM     57  C   UNL A   1      43.793  26.820  35.252  1.00  0.00     0.134 A 
ATOM     58  F   UNL A   1      45.634  29.648  33.904  1.00  0.00    -0.206 F 
ATOM     59  C   UNL A   1      46.372  27.854  35.224  1.00  0.00     0.040 A 
ATOM     60  C   UNL A   1      44.813  26.162  35.941  1.00  0.00     0.040 A 
ATOM     61  F   UNL A   1      42.558  26.296  35.298  1.00  0.00    -0.206 F 
ATOM     62  C   UNL A   1      46.108  26.677  35.922  1.00  0.00     0.006 A 
ENDBRANCH  38  55
ENDBRANCH  12  13
ENDBRANCH   5   7
ENDBRANCH   2   3
ENDBRANCH   1   2
BRANCH   1  63
ATOM     63  C   UNL A   1      31.791  30.077  26.729  1.00  0.00     0.023 C 
BRANCH  63  64
ATOM     64  C   UNL A   1      32.638  29.721  25.509  1.00  0.00     0.116 C 
BRANCH  64  65
ATOM     65  N   UNL A   1      31.845  29.662  24.309  1.00  0.00    -0.351 N 
ATOM     66  C   UNL A   1      31.692  28.757  23.325  1.00  0.00     0.278 C 
ATOM     67  H   UNL A   1      31.293  30.466  24.178  1.00  0.00     0.163 HD
ATOM     68  O   UNL A   1      30.837  29.081  22.484  1.00  0.00    -0.268 OA
BRANCH  66  69
ATOM     69  C   UNL A   1      32.492  27.434  23.135  1.00  0.00     0.277 C 
ATOM     70  C   UNL A   1      33.410  26.854  24.250  1.00  0.00     0.109 C 
ATOM     71  N   UNL A   1      31.522  26.446  22.559  1.00  0.00    -0.327 N 
ATOM     72  C   UNL A   1      34.008  25.541  23.811  1.00  0.00    -0.024 C 
ATOM     73  C   UNL A   1      31.789  25.008  22.813  1.00  0.00     0.243 C 
ATOM     74  H   UNL A   1      31.509  26.581  21.547  1.00  0.00     0.347 HD
ATOM     75  H   UNL A   1      30.638  26.637  23.032  1.00  0.00     0.347 HD
ATOM     76  C   UNL A   1      34.926  24.719  24.312  1.00  0.00     0.002 A 
ATOM     77  C   UNL A   1      33.334  24.897  22.631  1.00  0.00     0.196 C 
ATOM     78  C   UNL A   1      35.725  24.650  25.492  1.00  0.00     0.010 A 
ATOM     79  C   UNL A   1      34.881  23.579  23.364  1.00  0.00     0.066 A 
ATOM     80  N   UNL A   1      33.924  23.546  22.486  1.00  0.00    -0.270 NA
ATOM     81  C   UNL A   1      36.569  23.612  25.635  1.00  0.00     0.001 A 
ATOM     82  C   UNL A   1      35.931  22.552  23.516  1.00  0.00     0.028 A 
ATOM     83  C   UNL A   1      36.734  22.613  24.589  1.00  0.00     0.002 A 
BRANCH  73  84
ATOM     84  C   UNL A   1      31.138  24.531  24.133  1.00  0.00     0.012 A 
ATOM     85  C   UNL A   1      30.337  25.399  24.903  1.00  0.00     0.010 A 
ATOM     86  C   UNL A   1      31.274  23.219  24.617  1.00  0.00     0.010 A 
ATOM     87  C   UNL A   1      29.808  25.011  26.141  1.00  0.00     0.001 A 
ATOM     88  C   UNL A   1      30.760  22.830  25.860  1.00  0.00     0.001 A 
ATOM     89  C   UNL A   1      30.041  23.732  26.632  1.00  0.00     0.000 A 
ENDBRANCH  73  84
ENDBRANCH  66  69
ENDBRANCH  64  65
ENDBRANCH  63  64
ENDBRANCH   1  63
TORSDOF 12
ENDMDL
MODEL 3
REMARK VINA RESULT:     -12.8      5.156      9.956
REMARK SMILES O=C(NCCCCNC(=O)[C@H]1CC2=c3ccccc3=N[C@H]2[C@@H](c2ccccc2)[NH2+]1)c1ccc(-c2c3nc(c(-c4c(F)cccc4F)c4ccc([nH]4)c(-c4c(F)cccc4F)c4nc(c(-c5c(F)cccc5F)c5ccc2[nH]5)C=C4)C=C3)cc1
REMARK SMILES IDX 5 1 4 2 3 3 1 4 2 5 30 7 31 8 83 9 32 10 82 11 33 12 34 13
REMARK SMILES IDX 35 14 76 15 36 16 81 17 75 18 77 19 37 20 80 21 74 22 73 23
REMARK SMILES IDX 38 25 64 26 47 27 63 28 48 29 51 30 62 31 78 32 49 33 50 34
REMARK SMILES IDX 61 36 79 37 52 38 39 39 40 40 45 41 41 42 42 43 44 44 46 45
REMARK SMILES IDX 43 46 65 47 66 48 71 49 67 50 68 51 70 52 72 53 69 54 53 55
REMARK SMILES IDX 54 56 59 57 55 58 56 59 58 60 60 61 57 62 6 63 7 64 8 65
REMARK SMILES IDX 9 66 10 68 11 69 12 70 29 71 13 72 22 73 14 76 21 77 15 78
REMARK SMILES IDX 19 79 20 80 16 81 18 82 17 83 23 84 24 85 28 86 25 87 27 88
REMARK SMILES IDX 26 89
REMARK H PARENT 3 6 77 24 51 35 8 67 29 74 29 75
REMARK Flexibility Score: inf
ROOT
ATOM      1  C   UNL A   1      31.556  31.525  26.675  1.00  0.00     0.023 C 
ENDROOT
BRANCH   1   2
ATOM      2  C   UNL A   1      32.783  32.411  26.876  1.00  0.00     0.116 C 
BRANCH   2   3
ATOM      3  N   UNL A   1      32.453  33.730  27.395  1.00  0.00    -0.352 N 
ATOM      4  O   UNL A   1      32.559  35.534  28.731  1.00  0.00    -0.269 OA
ATOM      5  C   UNL A   1      33.030  34.441  28.406  1.00  0.00     0.251 C 
ATOM      6  H   UNL A   1      31.699  34.177  26.946  1.00  0.00     0.163 HD
BRANCH   5   7
ATOM      7  C   UNL A   1      34.188  33.898  29.131  1.00  0.00     0.039 A 
ATOM      8  C   UNL A   1      35.463  34.326  28.751  1.00  0.00     0.014 A 
ATOM      9  C   UNL A   1      34.028  32.958  30.153  1.00  0.00     0.014 A 
ATOM     10  C   UNL A   1      36.584  33.828  29.410  1.00  0.00     0.010 A 
ATOM     11  C   UNL A   1      35.143  32.505  30.850  1.00  0.00     0.010 A 
ATOM     12  C   UNL A   1      36.428  32.921  30.468  1.00  0.00    -0.014 A 
BRANCH  12  13
ATOM     13  C   UNL A   1      37.605  32.330  31.140  1.00  0.00     0.031 A 
ATOM     14  C   UNL A   1      38.313  31.175  30.493  1.00  0.00     0.074 A 
ATOM     15  C   UNL A   1      37.996  32.791  32.341  1.00  0.00     0.049 A 
ATOM     16  N   UNL A   1      39.285  30.434  30.956  1.00  0.00    -0.248 NA
ATOM     17  C   UNL A   1      37.839  30.784  29.156  1.00  0.00     0.031 C 
ATOM     18  C   UNL A   1      37.367  33.892  33.071  1.00  0.00     0.029 A 
ATOM     19  N   UNL A   1      39.005  32.373  33.169  1.00  0.00    -0.354 N 
ATOM     20  C   UNL A   1      39.522  29.476  29.980  1.00  0.00     0.074 A 
ATOM     21  C   UNL A   1      38.562  29.699  28.921  1.00  0.00     0.031 C 
ATOM     22  C   UNL A   1      38.005  34.062  34.240  1.00  0.00     0.029 A 
ATOM     23  C   UNL A   1      39.061  33.061  34.355  1.00  0.00     0.049 A 
ATOM     24  H   UNL A   1      39.631  31.650  32.934  1.00  0.00     0.167 HD
ATOM     25  C   UNL A   1      40.470  28.509  29.960  1.00  0.00     0.037 A 
ATOM     26  C   UNL A   1      39.861  32.883  35.423  1.00  0.00     0.037 A 
ATOM     27  C   UNL A   1      41.438  28.315  31.004  1.00  0.00     0.049 A 
ATOM     28  C   UNL A   1      40.890  31.788  35.389  1.00  0.00     0.074 A 
ATOM     29  C   UNL A   1      42.494  27.422  31.051  1.00  0.00     0.029 A 
ATOM     30  N   UNL A   1      41.462  29.029  32.193  1.00  0.00    -0.354 N 
ATOM     31  N   UNL A   1      41.148  30.925  34.435  1.00  0.00    -0.248 NA
ATOM     32  C   UNL A   1      41.734  31.638  36.582  1.00  0.00     0.031 C 
ATOM     33  C   UNL A   1      43.130  27.567  32.290  1.00  0.00     0.029 A 
ATOM     34  C   UNL A   1      42.492  28.573  32.999  1.00  0.00     0.049 A 
ATOM     35  H   UNL A   1      40.838  29.752  32.431  1.00  0.00     0.167 HD
ATOM     36  C   UNL A   1      42.181  30.129  34.910  1.00  0.00     0.074 A 
ATOM     37  C   UNL A   1      42.521  30.631  36.227  1.00  0.00     0.031 C 
ATOM     38  C   UNL A   1      42.792  29.076  34.316  1.00  0.00     0.037 A 
BRANCH  25  39
ATOM     39  C   UNL A   1      40.481  27.592  28.772  1.00  0.00     0.057 A 
ATOM     40  C   UNL A   1      39.680  26.443  28.751  1.00  0.00     0.134 A 
ATOM     41  C   UNL A   1      41.265  27.854  27.640  1.00  0.00     0.134 A 
ATOM     42  F   UNL A   1      38.906  26.131  29.802  1.00  0.00    -0.206 F 
ATOM     43  C   UNL A   1      39.648  25.597  27.641  1.00  0.00     0.040 A 
ATOM     44  C   UNL A   1      41.220  27.030  26.514  1.00  0.00     0.040 A 
ATOM     45  F   UNL A   1      42.041  28.946  27.590  1.00  0.00    -0.206 F 
ATOM     46  C   UNL A   1      40.411  25.896  26.514  1.00  0.00     0.006 A 
ENDBRANCH  25  39
BRANCH  26  47
ATOM     47  C   UNL A   1      39.705  33.754  36.612  1.00  0.00     0.057 A 
ATOM     48  C   UNL A   1      40.373  34.980  36.710  1.00  0.00     0.134 A 
ATOM     49  C   UNL A   1      38.893  33.372  37.685  1.00  0.00     0.134 A 
ATOM     50  F   UNL A   1      41.169  35.399  35.715  1.00  0.00    -0.206 F 
ATOM     51  C   UNL A   1      40.249  35.792  37.838  1.00  0.00     0.040 A 
ATOM     52  C   UNL A   1      38.744  34.183  38.812  1.00  0.00     0.040 A 
ATOM     53  F   UNL A   1      38.215  32.216  37.640  1.00  0.00    -0.206 F 
ATOM     54  C   UNL A   1      39.427  35.395  38.892  1.00  0.00     0.006 A 
ENDBRANCH  26  47
BRANCH  38  55
ATOM     55  C   UNL A   1      43.873  28.392  35.097  1.00  0.00     0.057 A 
ATOM     56  C   UNL A   1      43.579  27.313  35.938  1.00  0.00     0.134 A 
ATOM     57  C   UNL A   1      45.203  28.828  35.037  1.00  0.00     0.134 A 
ATOM     58  F   UNL A   1      42.324  26.852  36.043  1.00  0.00    -0.206 F 
ATOM     59  C   UNL A   1      44.571  26.693  36.699  1.00  0.00     0.040 A 
ATOM     60  C   UNL A   1      46.208  28.201  35.775  1.00  0.00     0.040 A 
ATOM     61  F   UNL A   1      45.548  29.848  34.236  1.00  0.00    -0.206 F 
ATOM     62  C   UNL A   1      45.890  27.134  36.614  1.00  0.00     0.006 A 
ENDBRANCH  38  55
ENDBRANCH  12  13
ENDBRANCH   5   7
ENDBRANCH   2   3
ENDBRANCH   1   2
BRANCH   1  63
ATOM     63  C   UNL A   1      31.799  30.013  26.767  1.00  0.00     0.023 C 
BRANCH  63  64
ATOM     64  C   UNL A   1      32.659  29.423  25.651  1.00  0.00     0.116 C 
BRANCH  64  65
ATOM     65  N   UNL A   1      31.955  29.394  24.396  1.00  0.00    -0.351 N 
ATOM     66  C   UNL A   1      31.879  28.517  23.378  1.00  0.00     0.278 C 
ATOM     67  H   UNL A   1      31.408  30.199  24.248  1.00  0.00     0.163 HD
ATOM     68  O   UNL A   1      31.085  28.860  22.487  1.00  0.00    -0.268 OA
BRANCH  66  69
ATOM     69  C   UNL A   1      32.700  27.204  23.209  1.00  0.00     0.277 C 
ATOM     70  C   UNL A   1      33.591  26.633  24.350  1.00  0.00     0.109 C 
ATOM     71  N   UNL A   1      31.759  26.205  22.603  1.00  0.00    -0.327 N 
ATOM     72  C   UNL A   1      34.218  25.328  23.926  1.00  0.00    -0.024 C 
ATOM     73  C   UNL A   1      32.036  24.770  22.863  1.00  0.00     0.243 C 
ATOM     74  H   UNL A   1      31.774  26.343  21.592  1.00  0.00     0.347 HD
ATOM     75  H   UNL A   1      30.860  26.385  23.050  1.00  0.00     0.347 HD
ATOM     76  C   UNL A   1      35.130  24.515  24.453  1.00  0.00     0.002 A 
ATOM     77  C   UNL A   1      33.586  24.678  22.726  1.00  0.00     0.196 C 
ATOM     78  C   UNL A   1      35.896  24.453  25.655  1.00  0.00     0.010 A 
ATOM     79  C   UNL A   1      35.127  23.377  23.501  1.00  0.00     0.066 A 
ATOM     80  N   UNL A   1      34.196  23.334  22.596  1.00  0.00    -0.270 NA
ATOM     81  C   UNL A   1      36.747  23.424  25.821  1.00  0.00     0.001 A 
ATOM     82  C   UNL A   1      36.184  22.362  23.682  1.00  0.00     0.028 A 
ATOM     83  C   UNL A   1      36.954  22.430  24.779  1.00  0.00     0.002 A 
BRANCH  73  84
ATOM     84  C   UNL A   1      31.352  24.283  24.162  1.00  0.00     0.012 A 
ATOM     85  C   UNL A   1      30.512  25.137  24.905  1.00  0.00     0.010 A 
ATOM     86  C   UNL A   1      31.496  22.974  24.652  1.00  0.00     0.010 A 
ATOM     87  C   UNL A   1      29.951  24.741  26.126  1.00  0.00     0.001 A 
ATOM     88  C   UNL A   1      30.950  22.577  25.879  1.00  0.00     0.001 A 
ATOM     89  C   UNL A   1      30.191  23.467  26.626  1.00  0.00     0.000 A 
ENDBRANCH  73  84
ENDBRANCH  66  69
ENDBRANCH  64  65
ENDBRANCH  63  64
ENDBRANCH   1  63
TORSDOF 12
ENDMDL
