MODEL 1
REMARK VINA RESULT:     -10.7      0.000      0.000
REMARK SMILES CN(CC(C)(C)O)C(=O)N1CCCC[C@H]1CC(=O)NCCCCNC(=O)c1ccc(-c2c3nc(c(-c4c(F)cccc4F)c4ccc([nH]4)c(-c4c(F)cccc4F)c4nc(c(-c5c(F)cccc5F)c5ccc2[nH]5)C=C4)C=C3)cc1
REMARK SMILES IDX 17 1 18 2 19 3 16 5 15 6 10 7 11 8 12 9 14 10 13 11 8 12
REMARK SMILES IDX 9 13 2 14 1 15 3 16 4 17 5 18 6 19 7 20 20 22 21 23 22 24
REMARK SMILES IDX 23 25 24 26 25 27 26 29 27 30 28 31 80 32 29 33 79 34 30 35
REMARK SMILES IDX 31 36 32 37 73 38 33 39 78 40 72 41 74 42 34 43 77 44 71 45
REMARK SMILES IDX 70 46 35 48 61 49 44 50 60 51 45 52 48 53 59 54 75 55 46 56
REMARK SMILES IDX 47 57 58 59 76 60 49 61 36 62 37 63 42 64 38 65 39 66 41 67
REMARK SMILES IDX 43 68 40 69 62 70 63 71 68 72 64 73 65 74 67 75 69 76 66 77
REMARK SMILES IDX 50 78 51 79 56 80 52 81 53 82 55 83 57 84 54 85
REMARK H PARENT 19 4 7 21 24 28 74 47 48 58
REMARK Flexibility Score: inf
ROOT
ATOM      1  C   UNL A   1      34.463  22.111  27.019  1.00  0.00     0.222 C 
ATOM      2  O   UNL A   1      33.688  21.343  27.589  1.00  0.00    -0.275 OA
ATOM      3  N   UNL A   1      35.645  21.609  26.561  1.00  0.00    -0.356 N 
ATOM      4  H   UNL A   1      35.757  20.635  26.660  1.00  0.00     0.163 HD
ENDROOT
BRANCH   1   5
ATOM      5  C   UNL A   1      34.095  23.557  26.761  1.00  0.00     0.125 C 
BRANCH   5   6
ATOM      6  C   UNL A   1      33.494  23.988  25.403  1.00  0.00     0.096 C 
ATOM      7  N   UNL A   1      32.092  23.717  25.109  1.00  0.00    -0.321 N 
ATOM      8  C   UNL A   1      31.170  24.611  25.803  1.00  0.00     0.121 C 
ATOM      9  C   UNL A   1      31.380  26.054  25.331  1.00  0.00     0.022 C 
ATOM     10  C   UNL A   1      33.848  25.414  24.936  1.00  0.00     0.026 C 
ATOM     11  C   UNL A   1      32.846  26.499  25.307  1.00  0.00     0.004 C 
BRANCH   7  12
ATOM     12  C   UNL A   1      31.621  23.247  23.890  1.00  0.00     0.320 C 
ATOM     13  O   UNL A   1      30.528  23.650  23.468  1.00  0.00    -0.248 OA
BRANCH  12  14
ATOM     14  N   UNL A   1      32.334  22.326  23.139  1.00  0.00    -0.325 N 
ATOM     15  C   UNL A   1      33.195  22.955  22.138  1.00  0.00     0.148 C 
BRANCH  14  16
ATOM     16  C   UNL A   1      32.046  20.897  22.916  1.00  0.00     0.155 C 
BRANCH  16  17
ATOM     17  C   UNL A   1      32.494  19.923  24.061  1.00  0.00     0.077 C 
ATOM     18  C   UNL A   1      32.205  18.437  23.824  1.00  0.00     0.043 C 
ATOM     19  C   UNL A   1      33.998  20.099  24.292  1.00  0.00     0.043 C 
BRANCH  17  20
ATOM     20  O   UNL A   1      31.850  20.262  25.296  1.00  0.00    -0.389 OA
ATOM     21  H   UNL A   1      32.499  20.240  26.017  1.00  0.00     0.211 HD
ENDBRANCH  17  20
ENDBRANCH  16  17
ENDBRANCH  14  16
ENDBRANCH  12  14
ENDBRANCH   7  12
ENDBRANCH   5   6
ENDBRANCH   1   5
BRANCH   3  22
ATOM     22  C   UNL A   1      36.759  22.300  25.951  1.00  0.00     0.116 C 
BRANCH  22  23
ATOM     23  C   UNL A   1      37.223  21.568  24.703  1.00  0.00     0.023 C 
BRANCH  23  24
ATOM     24  C   UNL A   1      38.062  20.334  24.934  1.00  0.00     0.023 C 
BRANCH  24  25
ATOM     25  C   UNL A   1      39.188  20.587  25.907  1.00  0.00     0.116 C 
BRANCH  25  26
ATOM     26  N   UNL A   1      40.181  19.508  25.917  1.00  0.00    -0.352 N 
ATOM     27  C   UNL A   1      41.542  19.594  26.097  1.00  0.00     0.251 C 
ATOM     28  H   UNL A   1      39.826  18.600  25.777  1.00  0.00     0.163 HD
ATOM     29  O   UNL A   1      42.278  18.637  25.887  1.00  0.00    -0.269 OA
BRANCH  27  30
ATOM     30  C   UNL A   1      42.084  20.888  26.538  1.00  0.00     0.039 A 
ATOM     31  C   UNL A   1      42.414  21.873  25.607  1.00  0.00     0.014 A 
ATOM     32  C   UNL A   1      42.088  21.157  27.905  1.00  0.00     0.014 A 
ATOM     33  C   UNL A   1      42.665  23.168  26.062  1.00  0.00     0.010 A 
ATOM     34  C   UNL A   1      42.138  22.470  28.322  1.00  0.00     0.010 A 
ATOM     35  C   UNL A   1      42.478  23.484  27.417  1.00  0.00    -0.014 A 
BRANCH  35  36
ATOM     36  C   UNL A   1      42.704  24.841  27.967  1.00  0.00     0.031 A 
ATOM     37  C   UNL A   1      44.100  25.219  28.393  1.00  0.00     0.074 A 
ATOM     38  C   UNL A   1      41.667  25.674  28.183  1.00  0.00     0.049 A 
ATOM     39  N   UNL A   1      44.509  26.261  29.068  1.00  0.00    -0.248 NA
ATOM     40  C   UNL A   1      45.171  24.248  28.095  1.00  0.00     0.031 C 
ATOM     41  C   UNL A   1      40.260  25.384  27.893  1.00  0.00     0.029 A 
ATOM     42  N   UNL A   1      41.642  26.939  28.707  1.00  0.00    -0.354 N 
ATOM     43  C   UNL A   1      45.858  26.032  29.318  1.00  0.00     0.074 A 
ATOM     44  C   UNL A   1      46.170  24.714  28.823  1.00  0.00     0.031 C 
ATOM     45  C   UNL A   1      39.517  26.462  28.195  1.00  0.00     0.029 A 
ATOM     46  C   UNL A   1      40.387  27.500  28.736  1.00  0.00     0.049 A 
ATOM     47  H   UNL A   1      42.447  27.403  29.033  1.00  0.00     0.167 HD
ATOM     48  C   UNL A   1      46.771  26.869  29.857  1.00  0.00     0.037 A 
ATOM     49  C   UNL A   1      39.998  28.720  29.148  1.00  0.00     0.037 A 
ATOM     50  C   UNL A   1      46.466  28.216  30.246  1.00  0.00     0.049 A 
ATOM     51  C   UNL A   1      41.042  29.668  29.673  1.00  0.00     0.074 A 
ATOM     52  C   UNL A   1      47.321  29.199  30.707  1.00  0.00     0.029 A 
ATOM     53  N   UNL A   1      45.197  28.775  30.188  1.00  0.00    -0.354 N 
ATOM     54  N   UNL A   1      42.330  29.470  29.837  1.00  0.00    -0.248 NA
ATOM     55  C   UNL A   1      40.586  31.009  30.057  1.00  0.00     0.031 C 
ATOM     56  C   UNL A   1      46.562  30.346  30.957  1.00  0.00     0.029 A 
ATOM     57  C   UNL A   1      45.244  30.089  30.612  1.00  0.00     0.049 A 
ATOM     58  H   UNL A   1      44.385  28.305  29.890  1.00  0.00     0.167 HD
ATOM     59  C   UNL A   1      42.841  30.668  30.317  1.00  0.00     0.074 A 
ATOM     60  C   UNL A   1      41.726  31.591  30.402  1.00  0.00     0.031 C 
ATOM     61  C   UNL A   1      44.114  30.981  30.665  1.00  0.00     0.037 A 
BRANCH  48  62
ATOM     62  C   UNL A   1      48.175  26.358  30.010  1.00  0.00     0.057 A 
ATOM     63  C   UNL A   1      49.128  26.486  28.987  1.00  0.00     0.134 A 
ATOM     64  C   UNL A   1      48.580  25.719  31.187  1.00  0.00     0.134 A 
ATOM     65  F   UNL A   1      48.803  27.070  27.824  1.00  0.00    -0.206 F 
ATOM     66  C   UNL A   1      50.415  25.958  29.114  1.00  0.00     0.040 A 
ATOM     67  C   UNL A   1      49.875  25.218  31.339  1.00  0.00     0.040 A 
ATOM     68  F   UNL A   1      47.723  25.562  32.208  1.00  0.00    -0.206 F 
ATOM     69  C   UNL A   1      50.793  25.329  30.296  1.00  0.00     0.006 A 
ENDBRANCH  48  62
BRANCH  49  70
ATOM     70  C   UNL A   1      38.577  29.136  29.025  1.00  0.00     0.057 A 
ATOM     71  C   UNL A   1      38.067  29.597  27.805  1.00  0.00     0.134 A 
ATOM     72  C   UNL A   1      37.693  29.081  30.109  1.00  0.00     0.134 A 
ATOM     73  F   UNL A   1      38.867  29.684  26.731  1.00  0.00    -0.206 F 
ATOM     74  C   UNL A   1      36.741  30.010  27.671  1.00  0.00     0.040 A 
ATOM     75  C   UNL A   1      36.357  29.467  29.985  1.00  0.00     0.040 A 
ATOM     76  F   UNL A   1      38.113  28.636  31.302  1.00  0.00    -0.206 F 
ATOM     77  C   UNL A   1      35.879  29.942  28.764  1.00  0.00     0.006 A 
ENDBRANCH  49  70
BRANCH  61  78
ATOM     78  C   UNL A   1      44.370  32.383  31.126  1.00  0.00     0.057 A 
ATOM     79  C   UNL A   1      44.331  32.730  32.482  1.00  0.00     0.134 A 
ATOM     80  C   UNL A   1      44.716  33.380  30.207  1.00  0.00     0.134 A 
ATOM     81  F   UNL A   1      43.995  31.819  33.408  1.00  0.00    -0.206 F 
ATOM     82  C   UNL A   1      44.607  34.030  32.906  1.00  0.00     0.040 A 
ATOM     83  C   UNL A   1      45.023  34.676  30.621  1.00  0.00     0.040 A 
ATOM     84  F   UNL A   1      44.783  33.106  28.895  1.00  0.00    -0.206 F 
ATOM     85  C   UNL A   1      44.962  35.005  31.974  1.00  0.00     0.006 A 
ENDBRANCH  61  78
ENDBRANCH  35  36
ENDBRANCH  27  30
ENDBRANCH  25  26
ENDBRANCH  24  25
ENDBRANCH  23  24
ENDBRANCH  22  23
ENDBRANCH   3  22
TORSDOF 17
ENDMDL
MODEL 2
REMARK VINA RESULT:     -10.6      3.522      8.523
REMARK SMILES CN(CC(C)(C)O)C(=O)N1CCCC[C@H]1CC(=O)NCCCCNC(=O)c1ccc(-c2c3nc(c(-c4c(F)cccc4F)c4ccc([nH]4)c(-c4c(F)cccc4F)c4nc(c(-c5c(F)cccc5F)c5ccc2[nH]5)C=C4)C=C3)cc1
REMARK SMILES IDX 17 1 18 2 19 3 16 5 15 6 10 7 11 8 12 9 14 10 13 11 8 12
REMARK SMILES IDX 9 13 2 14 1 15 3 16 4 17 5 18 6 19 7 20 20 22 21 23 22 24
REMARK SMILES IDX 23 25 24 26 25 27 26 29 27 30 28 31 80 32 29 33 79 34 30 35
REMARK SMILES IDX 31 36 32 37 73 38 33 39 78 40 72 41 74 42 34 43 77 44 71 45
REMARK SMILES IDX 70 46 35 48 61 49 44 50 60 51 45 52 48 53 59 54 75 55 46 56
REMARK SMILES IDX 47 57 58 59 76 60 49 61 36 62 37 63 42 64 38 65 39 66 41 67
REMARK SMILES IDX 43 68 40 69 62 70 63 71 68 72 64 73 65 74 67 75 69 76 66 77
REMARK SMILES IDX 50 78 51 79 56 80 52 81 53 82 55 83 57 84 54 85
REMARK H PARENT 19 4 7 21 24 28 74 47 48 58
REMARK Flexibility Score: inf
ROOT
ATOM      1  C   UNL A   1      33.536  28.621  23.929  1.00  0.00     0.222 C 
ATOM      2  O   UNL A   1      34.415  28.831  23.092  1.00  0.00    -0.275 OA
ATOM      3  N   UNL A   1      32.651  29.623  24.195  1.00  0.00    -0.356 N 
ATOM      4  H   UNL A   1      32.741  30.427  23.632  1.00  0.00     0.163 HD
ENDROOT
BRANCH   1   5
ATOM      5  C   UNL A   1      33.386  27.270  24.595  1.00  0.00     0.125 C 
BRANCH   5   6
ATOM      6  C   UNL A   1      32.528  26.160  23.946  1.00  0.00     0.096 C 
ATOM      7  N   UNL A   1      31.804  25.215  24.789  1.00  0.00    -0.321 N 
ATOM      8  C   UNL A   1      30.608  25.783  25.402  1.00  0.00     0.121 C 
ATOM      9  C   UNL A   1      29.596  26.173  24.320  1.00  0.00     0.022 C 
ATOM     10  C   UNL A   1      31.622  26.607  22.782  1.00  0.00     0.026 C 
ATOM     11  C   UNL A   1      30.194  26.978  23.161  1.00  0.00     0.004 C 
BRANCH   7  12
ATOM     12  C   UNL A   1      31.729  23.848  24.551  1.00  0.00     0.320 C 
ATOM     13  O   UNL A   1      31.097  23.439  23.567  1.00  0.00    -0.248 OA
BRANCH  12  14
ATOM     14  N   UNL A   1      32.328  22.928  25.397  1.00  0.00    -0.325 N 
ATOM     15  C   UNL A   1      31.457  21.796  25.711  1.00  0.00     0.148 C 
BRANCH  14  16
ATOM     16  C   UNL A   1      33.466  23.122  26.315  1.00  0.00     0.155 C 
BRANCH  16  17
ATOM     17  C   UNL A   1      34.883  22.810  25.720  1.00  0.00     0.077 C 
ATOM     18  C   UNL A   1      34.897  21.984  24.429  1.00  0.00     0.043 C 
ATOM     19  C   UNL A   1      35.607  24.135  25.461  1.00  0.00     0.043 C 
BRANCH  17  20
ATOM     20  O   UNL A   1      35.683  22.087  26.665  1.00  0.00    -0.389 OA
ATOM     21  H   UNL A   1      35.128  21.801  27.407  1.00  0.00     0.211 HD
ENDBRANCH  17  20
ENDBRANCH  16  17
ENDBRANCH  14  16
ENDBRANCH  12  14
ENDBRANCH   7  12
ENDBRANCH   5   6
ENDBRANCH   1   5
BRANCH   3  22
ATOM     22  C   UNL A   1      31.597  29.675  25.184  1.00  0.00     0.116 C 
BRANCH  22  23
ATOM     23  C   UNL A   1      32.134  30.187  26.510  1.00  0.00     0.023 C 
BRANCH  23  24
ATOM     24  C   UNL A   1      31.775  31.611  26.863  1.00  0.00     0.023 C 
BRANCH  24  25
ATOM     25  C   UNL A   1      32.973  32.397  27.338  1.00  0.00     0.116 C 
BRANCH  25  26
ATOM     26  N   UNL A   1      32.637  33.776  27.705  1.00  0.00    -0.352 N 
ATOM     27  C   UNL A   1      33.217  34.577  28.661  1.00  0.00     0.251 C 
ATOM     28  H   UNL A   1      31.897  34.184  27.199  1.00  0.00     0.163 HD
ATOM     29  O   UNL A   1      32.711  35.640  29.000  1.00  0.00    -0.269 OA
BRANCH  27  30
ATOM     30  C   UNL A   1      34.464  34.098  29.276  1.00  0.00     0.039 A 
ATOM     31  C   UNL A   1      34.430  33.248  30.381  1.00  0.00     0.014 A 
ATOM     32  C   UNL A   1      35.660  34.376  28.617  1.00  0.00     0.014 A 
ATOM     33  C   UNL A   1      35.605  32.604  30.768  1.00  0.00     0.010 A 
ATOM     34  C   UNL A   1      36.759  33.587  28.878  1.00  0.00     0.010 A 
ATOM     35  C   UNL A   1      36.765  32.731  29.986  1.00  0.00    -0.014 A 
BRANCH  35  36
ATOM     36  C   UNL A   1      38.042  32.058  30.323  1.00  0.00     0.031 A 
ATOM     37  C   UNL A   1      38.988  32.750  31.271  1.00  0.00     0.074 A 
ATOM     38  C   UNL A   1      38.395  30.912  29.709  1.00  0.00     0.049 A 
ATOM     39  N   UNL A   1      40.227  32.460  31.568  1.00  0.00    -0.248 NA
ATOM     40  C   UNL A   1      38.502  33.990  31.909  1.00  0.00     0.031 C 
ATOM     41  C   UNL A   1      37.601  30.197  28.707  1.00  0.00     0.029 A 
ATOM     42  N   UNL A   1      39.527  30.151  29.838  1.00  0.00    -0.354 N 
ATOM     43  C   UNL A   1      40.671  33.507  32.367  1.00  0.00     0.074 A 
ATOM     44  C   UNL A   1      39.614  34.486  32.421  1.00  0.00     0.031 C 
ATOM     45  C   UNL A   1      38.247  29.073  28.352  1.00  0.00     0.029 A 
ATOM     46  C   UNL A   1      39.516  29.012  29.069  1.00  0.00     0.049 A 
ATOM     47  H   UNL A   1      40.277  30.397  30.426  1.00  0.00     0.167 HD
ATOM     48  C   UNL A   1      41.833  33.617  33.049  1.00  0.00     0.037 A 
ATOM     49  C   UNL A   1      40.431  28.030  28.970  1.00  0.00     0.037 A 
ATOM     50  C   UNL A   1      42.829  32.585  33.070  1.00  0.00     0.049 A 
ATOM     51  C   UNL A   1      41.684  28.131  29.797  1.00  0.00     0.074 A 
ATOM     52  C   UNL A   1      44.000  32.527  33.801  1.00  0.00     0.029 A 
ATOM     53  N   UNL A   1      42.748  31.408  32.338  1.00  0.00    -0.354 N 
ATOM     54  N   UNL A   1      42.064  29.090  30.609  1.00  0.00    -0.248 NA
ATOM     55  C   UNL A   1      42.630  27.012  29.704  1.00  0.00     0.031 C 
ATOM     56  C   UNL A   1      44.643  31.325  33.488  1.00  0.00     0.029 A 
ATOM     57  C   UNL A   1      43.852  30.619  32.594  1.00  0.00     0.049 A 
ATOM     58  H   UNL A   1      42.012  31.172  31.727  1.00  0.00     0.167 HD
ATOM     59  C   UNL A   1      43.276  28.679  31.144  1.00  0.00     0.074 A 
ATOM     60  C   UNL A   1      43.561  27.376  30.576  1.00  0.00     0.031 C 
ATOM     61  C   UNL A   1      44.089  29.319  32.022  1.00  0.00     0.037 A 
BRANCH  48  62
ATOM     62  C   UNL A   1      42.053  34.870  33.847  1.00  0.00     0.057 A 
ATOM     63  C   UNL A   1      42.700  35.992  33.306  1.00  0.00     0.134 A 
ATOM     64  C   UNL A   1      41.624  34.956  35.177  1.00  0.00     0.134 A 
ATOM     65  F   UNL A   1      43.154  35.972  32.044  1.00  0.00    -0.206 F 
ATOM     66  C   UNL A   1      42.951  37.133  34.070  1.00  0.00     0.040 A 
ATOM     67  C   UNL A   1      41.839  36.106  35.940  1.00  0.00     0.040 A 
ATOM     68  F   UNL A   1      40.998  33.923  35.759  1.00  0.00    -0.206 F 
ATOM     69  C   UNL A   1      42.513  37.194  35.390  1.00  0.00     0.006 A 
ENDBRANCH  48  62
BRANCH  49  70
ATOM     70  C   UNL A   1      40.172  26.847  28.110  1.00  0.00     0.057 A 
ATOM     71  C   UNL A   1      40.700  26.771  26.816  1.00  0.00     0.134 A 
ATOM     72  C   UNL A   1      39.400  25.766  28.553  1.00  0.00     0.134 A 
ATOM     73  F   UNL A   1      41.438  27.779  26.329  1.00  0.00    -0.206 F 
ATOM     74  C   UNL A   1      40.454  25.677  25.985  1.00  0.00     0.040 A 
ATOM     75  C   UNL A   1      39.165  24.654  27.741  1.00  0.00     0.040 A 
ATOM     76  F   UNL A   1      38.876  25.769  29.787  1.00  0.00    -0.206 F 
ATOM     77  C   UNL A   1      39.686  24.611  26.449  1.00  0.00     0.006 A 
ENDBRANCH  49  70
BRANCH  61  78
ATOM     78  C   UNL A   1      45.334  28.601  32.446  1.00  0.00     0.057 A 
ATOM     79  C   UNL A   1      46.549  28.777  31.773  1.00  0.00     0.134 A 
ATOM     80  C   UNL A   1      45.326  27.772  33.574  1.00  0.00     0.134 A 
ATOM     81  F   UNL A   1      46.616  29.551  30.679  1.00  0.00    -0.206 F 
ATOM     82  C   UNL A   1      47.712  28.133  32.198  1.00  0.00     0.040 A 
ATOM     83  C   UNL A   1      46.487  27.147  34.025  1.00  0.00     0.040 A 
ATOM     84  F   UNL A   1      44.194  27.576  34.268  1.00  0.00    -0.206 F 
ATOM     85  C   UNL A   1      47.684  27.322  33.332  1.00  0.00     0.006 A 
ENDBRANCH  61  78
ENDBRANCH  35  36
ENDBRANCH  27  30
ENDBRANCH  25  26
ENDBRANCH  24  25
ENDBRANCH  23  24
ENDBRANCH  22  23
ENDBRANCH   3  22
TORSDOF 17
ENDMDL
MODEL 3
REMARK VINA RESULT:     -10.5      4.377      9.135
REMARK SMILES CN(CC(C)(C)O)C(=O)N1CCCC[C@H]1CC(=O)NCCCCNC(=O)c1ccc(-c2c3nc(c(-c4c(F)cccc4F)c4ccc([nH]4)c(-c4c(F)cccc4F)c4nc(c(-c5c(F)cccc5F)c5ccc2[nH]5)C=C4)C=C3)cc1
REMARK SMILES IDX 17 1 18 2 19 3 16 5 15 6 10 7 11 8 12 9 14 10 13 11 8 12
REMARK SMILES IDX 9 13 2 14 1 15 3 16 4 17 5 18 6 19 7 20 20 22 21 23 22 24
REMARK SMILES IDX 23 25 24 26 25 27 26 29 27 30 28 31 80 32 29 33 79 34 30 35
REMARK SMILES IDX 31 36 32 37 73 38 33 39 78 40 72 41 74 42 34 43 77 44 71 45
REMARK SMILES IDX 70 46 35 48 61 49 44 50 60 51 45 52 48 53 59 54 75 55 46 56
REMARK SMILES IDX 47 57 58 59 76 60 49 61 36 62 37 63 42 64 38 65 39 66 41 67
REMARK SMILES IDX 43 68 40 69 62 70 63 71 68 72 64 73 65 74 67 75 69 76 66 77
REMARK SMILES IDX 50 78 51 79 56 80 52 81 53 82 55 83 57 84 54 85
REMARK H PARENT 19 4 7 21 24 28 74 47 48 58
REMARK Flexibility Score: inf
ROOT
ATOM      1  C   UNL A   1      33.360  28.696  23.969  1.00  0.00     0.222 C 
ATOM      2  O   UNL A   1      34.242  28.964  23.153  1.00  0.00    -0.275 OA
ATOM      3  N   UNL A   1      32.560  29.710  24.407  1.00  0.00    -0.356 N 
ATOM      4  H   UNL A   1      32.708  30.582  23.972  1.00  0.00     0.163 HD
ENDROOT
BRANCH   1   5
ATOM      5  C   UNL A   1      33.111  27.274  24.424  1.00  0.00     0.125 C 
BRANCH   5   6
ATOM      6  C   UNL A   1      32.175  26.340  23.623  1.00  0.00     0.096 C 
ATOM      7  N   UNL A   1      31.371  25.343  24.320  1.00  0.00    -0.321 N 
ATOM      8  C   UNL A   1      30.216  25.910  25.010  1.00  0.00     0.121 C 
ATOM      9  C   UNL A   1      29.249  26.531  23.996  1.00  0.00     0.022 C 
ATOM     10  C   UNL A   1      31.319  27.020  22.536  1.00  0.00     0.026 C 
ATOM     11  C   UNL A   1      29.921  27.445  22.965  1.00  0.00     0.004 C 
BRANCH   7  12
ATOM     12  C   UNL A   1      31.191  24.036  23.888  1.00  0.00     0.320 C 
ATOM     13  O   UNL A   1      30.248  23.774  23.129  1.00  0.00    -0.248 OA
BRANCH  12  14
ATOM     14  N   UNL A   1      32.030  23.011  24.298  1.00  0.00    -0.325 N 
ATOM     15  C   UNL A   1      32.747  22.387  23.187  1.00  0.00     0.148 C 
BRANCH  14  16
ATOM     16  C   UNL A   1      31.981  22.220  25.542  1.00  0.00     0.155 C 
BRANCH  16  17
ATOM     17  C   UNL A   1      32.702  22.854  26.783  1.00  0.00     0.077 C 
ATOM     18  C   UNL A   1      33.482  21.878  27.671  1.00  0.00     0.043 C 
ATOM     19  C   UNL A   1      33.662  23.940  26.288  1.00  0.00     0.043 C 
BRANCH  17  20
ATOM     20  O   UNL A   1      31.757  23.505  27.641  1.00  0.00    -0.389 OA
ATOM     21  H   UNL A   1      31.195  24.096  27.116  1.00  0.00     0.211 HD
ENDBRANCH  17  20
ENDBRANCH  16  17
ENDBRANCH  14  16
ENDBRANCH  12  14
ENDBRANCH   7  12
ENDBRANCH   5   6
ENDBRANCH   1   5
BRANCH   3  22
ATOM     22  C   UNL A   1      31.527  29.689  25.418  1.00  0.00     0.116 C 
BRANCH  22  23
ATOM     23  C   UNL A   1      32.016  30.349  26.696  1.00  0.00     0.023 C 
BRANCH  23  24
ATOM     24  C   UNL A   1      31.752  31.831  26.819  1.00  0.00     0.023 C 
BRANCH  24  25
ATOM     25  C   UNL A   1      32.979  32.591  27.260  1.00  0.00     0.116 C 
BRANCH  25  26
ATOM     26  N   UNL A   1      32.689  33.989  27.595  1.00  0.00    -0.352 N 
ATOM     27  C   UNL A   1      33.167  34.737  28.646  1.00  0.00     0.251 C 
ATOM     28  H   UNL A   1      32.070  34.454  26.988  1.00  0.00     0.163 HD
ATOM     29  O   UNL A   1      32.692  35.833  28.921  1.00  0.00    -0.269 OA
BRANCH  27  30
ATOM     30  C   UNL A   1      34.264  34.163  29.440  1.00  0.00     0.039 A 
ATOM     31  C   UNL A   1      33.999  33.258  30.466  1.00  0.00     0.014 A 
ATOM     32  C   UNL A   1      35.568  34.416  29.020  1.00  0.00     0.014 A 
ATOM     33  C   UNL A   1      35.059  32.534  31.013  1.00  0.00     0.010 A 
ATOM     34  C   UNL A   1      36.571  33.559  29.420  1.00  0.00     0.010 A 
ATOM     35  C   UNL A   1      36.344  32.644  30.456  1.00  0.00    -0.014 A 
BRANCH  35  36
ATOM     36  C   UNL A   1      37.512  31.890  30.970  1.00  0.00     0.031 A 
ATOM     37  C   UNL A   1      38.019  32.210  32.353  1.00  0.00     0.074 A 
ATOM     38  C   UNL A   1      38.170  31.023  30.177  1.00  0.00     0.049 A 
ATOM     39  N   UNL A   1      39.122  31.829  32.942  1.00  0.00    -0.248 NA
ATOM     40  C   UNL A   1      37.218  33.158  33.153  1.00  0.00     0.031 C 
ATOM     41  C   UNL A   1      37.825  30.698  28.790  1.00  0.00     0.029 A 
ATOM     42  N   UNL A   1      39.278  30.257  30.428  1.00  0.00    -0.354 N 
ATOM     43  C   UNL A   1      39.165  32.536  34.139  1.00  0.00     0.074 A 
ATOM     44  C   UNL A   1      38.044  33.443  34.144  1.00  0.00     0.031 C 
ATOM     45  C   UNL A   1      38.673  29.762  28.332  1.00  0.00     0.029 A 
ATOM     46  C   UNL A   1      39.642  29.452  29.377  1.00  0.00     0.049 A 
ATOM     47  H   UNL A   1      39.767  30.283  31.283  1.00  0.00     0.167 HD
ATOM     48  C   UNL A   1      40.027  32.400  35.171  1.00  0.00     0.037 A 
ATOM     49  C   UNL A   1      40.645  28.559  29.282  1.00  0.00     0.037 A 
ATOM     50  C   UNL A   1      41.072  31.418  35.194  1.00  0.00     0.049 A 
ATOM     51  C   UNL A   1      41.546  28.363  30.471  1.00  0.00     0.074 A 
ATOM     52  C   UNL A   1      41.945  31.106  36.219  1.00  0.00     0.029 A 
ATOM     53  N   UNL A   1      41.363  30.564  34.139  1.00  0.00    -0.354 N 
ATOM     54  N   UNL A   1      41.535  28.984  31.629  1.00  0.00    -0.248 NA
ATOM     55  C   UNL A   1      42.592  27.339  30.348  1.00  0.00     0.031 C 
ATOM     56  C   UNL A   1      42.785  30.082  35.771  1.00  0.00     0.029 A 
ATOM     57  C   UNL A   1      42.408  29.729  34.484  1.00  0.00     0.049 A 
ATOM     58  H   UNL A   1      40.894  30.556  33.273  1.00  0.00     0.167 HD
ATOM     59  C   UNL A   1      42.549  28.408  32.380  1.00  0.00     0.074 A 
ATOM     60  C   UNL A   1      43.145  27.377  31.553  1.00  0.00     0.031 C 
ATOM     61  C   UNL A   1      42.960  28.703  33.638  1.00  0.00     0.037 A 
BRANCH  48  62
ATOM     62  C   UNL A   1      39.837  33.302  36.357  1.00  0.00     0.057 A 
ATOM     63  C   UNL A   1      38.911  33.011  37.371  1.00  0.00     0.134 A 
ATOM     64  C   UNL A   1      40.578  34.483  36.483  1.00  0.00     0.134 A 
ATOM     65  F   UNL A   1      38.153  31.907  37.303  1.00  0.00    -0.206 F 
ATOM     66  C   UNL A   1      38.699  33.883  38.441  1.00  0.00     0.040 A 
ATOM     67  C   UNL A   1      40.400  35.344  37.568  1.00  0.00     0.040 A 
ATOM     68  F   UNL A   1      41.482  34.824  35.553  1.00  0.00    -0.206 F 
ATOM     69  C   UNL A   1      39.450  35.050  38.545  1.00  0.00     0.006 A 
ENDBRANCH  48  62
BRANCH  49  70
ATOM     70  C   UNL A   1      40.810  27.744  28.052  1.00  0.00     0.057 A 
ATOM     71  C   UNL A   1      40.196  26.491  27.932  1.00  0.00     0.134 A 
ATOM     72  C   UNL A   1      41.574  28.190  26.967  1.00  0.00     0.134 A 
ATOM     73  F   UNL A   1      39.461  26.003  28.942  1.00  0.00    -0.206 F 
ATOM     74  C   UNL A   1      40.354  25.701  26.792  1.00  0.00     0.040 A 
ATOM     75  C   UNL A   1      41.721  27.421  25.809  1.00  0.00     0.040 A 
ATOM     76  F   UNL A   1      42.178  29.386  27.010  1.00  0.00    -0.206 F 
ATOM     77  C   UNL A   1      41.116  26.168  25.724  1.00  0.00     0.006 A 
ENDBRANCH  49  70
BRANCH  61  78
ATOM     78  C   UNL A   1      44.075  27.877  34.203  1.00  0.00     0.057 A 
ATOM     79  C   UNL A   1      45.408  28.298  34.137  1.00  0.00     0.134 A 
ATOM     80  C   UNL A   1      43.801  26.678  34.870  1.00  0.00     0.134 A 
ATOM     81  F   UNL A   1      45.733  29.434  33.501  1.00  0.00    -0.206 F 
ATOM     82  C   UNL A   1      46.437  27.541  34.699  1.00  0.00     0.040 A 
ATOM     83  C   UNL A   1      44.817  25.927  35.461  1.00  0.00     0.040 A 
ATOM     84  F   UNL A   1      42.542  26.229  34.978  1.00  0.00    -0.206 F 
ATOM     85  C   UNL A   1      46.140  26.355  35.370  1.00  0.00     0.006 A 
ENDBRANCH  61  78
ENDBRANCH  35  36
ENDBRANCH  27  30
ENDBRANCH  25  26
ENDBRANCH  24  25
ENDBRANCH  23  24
ENDBRANCH  22  23
ENDBRANCH   3  22
TORSDOF 17
ENDMDL
