MODEL 1
REMARK VINA RESULT:     -11.5      0.000      0.000
REMARK SMILES C[C@@H]1CCC[C@H](C)N1C(=O)Cn1cccc1C(=O)NCCCCNC(=O)c1ccc(-c2c3nc(c(-c4c(F)cccc4F)c4ccc([nH]4)c(-c4c(F)cccc4F)c4nc(c(-c5c(F)cccc5F)c5ccc2[nH]5)C=C4)C=C3)cc1
REMARK SMILES IDX 21 1 20 2 19 3 17 4 18 5 16 7 12 8 13 9 14 10 15 11 11 12
REMARK SMILES IDX 9 13 10 14 8 15 1 16 2 17 3 18 4 19 6 20 5 21 7 22 22 23
REMARK SMILES IDX 23 24 24 25 25 26 26 28 27 29 28 30 80 31 29 32 79 33 30 34
REMARK SMILES IDX 31 35 32 36 73 37 33 38 78 39 72 40 74 41 34 42 77 43 71 44
REMARK SMILES IDX 70 45 35 47 61 48 44 49 60 50 45 51 48 52 59 53 75 54 46 55
REMARK SMILES IDX 47 56 58 58 76 59 49 60 36 61 37 62 42 63 38 64 39 65 41 66
REMARK SMILES IDX 43 67 40 68 62 69 63 70 68 71 64 72 65 73 67 74 69 75 66 76
REMARK SMILES IDX 50 77 51 78 56 79 52 80 53 81 55 82 57 83 54 84
REMARK H PARENT 19 6 24 27 74 46 48 57
REMARK Flexibility Score: inf
ROOT
ATOM      1  C   UNL A   1      34.146  28.578  24.123  1.00  0.00     0.023 C 
ENDROOT
BRANCH   1   2
ATOM      2  C   UNL A   1      33.430  28.687  22.745  1.00  0.00     0.116 C 
BRANCH   2   3
ATOM      3  N   UNL A   1      32.988  27.479  22.066  1.00  0.00    -0.351 N 
ATOM      4  C   UNL A   1      31.941  26.600  22.222  1.00  0.00     0.267 C 
ATOM      5  O   UNL A   1      31.399  26.340  21.137  1.00  0.00    -0.268 OA
ATOM      6  H   UNL A   1      33.579  27.230  21.318  1.00  0.00     0.163 HD
BRANCH   4   7
ATOM      7  C   UNL A   1      31.452  25.941  23.436  1.00  0.00     0.107 A 
ATOM      8  N   UNL A   1      31.478  24.641  23.930  1.00  0.00    -0.334 N 
ATOM      9  C   UNL A   1      30.826  24.597  25.164  1.00  0.00     0.087 A 
ATOM     10  C   UNL A   1      30.130  25.762  25.331  1.00  0.00     0.020 A 
ATOM     11  C   UNL A   1      30.519  26.592  24.266  1.00  0.00     0.033 A 
BRANCH   8  12
ATOM     12  C   UNL A   1      31.832  23.354  23.326  1.00  0.00     0.222 C 
BRANCH  12  13
ATOM     13  C   UNL A   1      33.252  23.172  22.857  1.00  0.00     0.242 C 
ATOM     14  O   UNL A   1      33.527  23.314  21.681  1.00  0.00    -0.273 OA
BRANCH  13  15
ATOM     15  N   UNL A   1      34.230  22.874  23.795  1.00  0.00    -0.336 N 
ATOM     16  C   UNL A   1      33.281  21.948  25.862  1.00  0.00     0.031 C 
ATOM     17  C   UNL A   1      34.147  21.675  24.627  1.00  0.00     0.082 C 
ATOM     18  C   UNL A   1      35.538  21.111  24.932  1.00  0.00     0.025 C 
ATOM     19  C   UNL A   1      36.588  22.163  25.297  1.00  0.00     0.004 C 
ATOM     20  C   UNL A   1      35.174  23.925  24.193  1.00  0.00     0.082 C 
ATOM     21  C   UNL A   1      36.574  23.325  24.311  1.00  0.00     0.025 C 
ATOM     22  C   UNL A   1      34.786  24.773  25.402  1.00  0.00     0.031 C 
ENDBRANCH  13  15
ENDBRANCH  12  13
ENDBRANCH   8  12
ENDBRANCH   4   7
ENDBRANCH   2   3
ENDBRANCH   1   2
BRANCH   1  23
ATOM     23  C   UNL A   1      33.394  28.870  25.442  1.00  0.00     0.023 C 
BRANCH  23  24
ATOM     24  C   UNL A   1      34.273  28.976  26.699  1.00  0.00     0.116 C 
BRANCH  24  25
ATOM     25  N   UNL A   1      34.509  30.348  27.128  1.00  0.00    -0.352 N 
ATOM     26  C   UNL A   1      35.559  30.853  27.856  1.00  0.00     0.251 C 
ATOM     27  H   UNL A   1      33.824  31.002  26.860  1.00  0.00     0.163 HD
ATOM     28  O   UNL A   1      35.523  31.987  28.325  1.00  0.00    -0.269 OA
BRANCH  26  29
ATOM     29  C   UNL A   1      36.729  29.997  28.111  1.00  0.00     0.039 A 
ATOM     30  C   UNL A   1      37.778  30.011  27.191  1.00  0.00     0.014 A 
ATOM     31  C   UNL A   1      36.804  29.226  29.278  1.00  0.00     0.014 A 
ATOM     32  C   UNL A   1      38.948  29.329  27.494  1.00  0.00     0.010 A 
ATOM     33  C   UNL A   1      37.980  28.569  29.598  1.00  0.00     0.010 A 
ATOM     34  C   UNL A   1      39.061  28.648  28.714  1.00  0.00    -0.014 A 
BRANCH  34  35
ATOM     35  C   UNL A   1      40.383  28.100  29.083  1.00  0.00     0.031 A 
ATOM     36  C   UNL A   1      40.742  26.838  28.290  1.00  0.00     0.074 A 
ATOM     37  C   UNL A   1      41.021  28.738  30.100  1.00  0.00     0.049 A 
ATOM     38  N   UNL A   1      41.395  25.769  28.642  1.00  0.00    -0.248 NA
ATOM     39  C   UNL A   1      40.201  26.721  26.910  1.00  0.00     0.031 C 
ATOM     40  C   UNL A   1      40.543  29.980  30.736  1.00  0.00     0.029 A 
ATOM     41  N   UNL A   1      42.163  28.477  30.819  1.00  0.00    -0.354 N 
ATOM     42  C   UNL A   1      41.477  24.938  27.503  1.00  0.00     0.074 A 
ATOM     43  C   UNL A   1      40.621  25.520  26.512  1.00  0.00     0.031 C 
ATOM     44  C   UNL A   1      41.317  30.304  31.790  1.00  0.00     0.029 A 
ATOM     45  C   UNL A   1      42.359  29.311  31.946  1.00  0.00     0.049 A 
ATOM     46  H   UNL A   1      42.795  27.764  30.570  1.00  0.00     0.167 HD
ATOM     47  C   UNL A   1      42.355  23.899  27.375  1.00  0.00     0.037 A 
ATOM     48  C   UNL A   1      43.237  29.159  32.983  1.00  0.00     0.037 A 
ATOM     49  C   UNL A   1      43.165  23.740  28.540  1.00  0.00     0.049 A 
ATOM     50  C   UNL A   1      43.960  27.909  32.690  1.00  0.00     0.074 A 
ATOM     51  C   UNL A   1      43.175  22.970  29.673  1.00  0.00     0.029 A 
ATOM     52  N   UNL A   1      44.248  24.573  28.597  1.00  0.00    -0.354 N 
ATOM     53  N   UNL A   1      44.889  27.775  31.795  1.00  0.00    -0.248 NA
ATOM     54  C   UNL A   1      43.464  26.675  33.300  1.00  0.00     0.031 C 
ATOM     55  C   UNL A   1      44.200  23.508  30.501  1.00  0.00     0.029 A 
ATOM     56  C   UNL A   1      44.639  24.684  29.903  1.00  0.00     0.049 A 
ATOM     57  H   UNL A   1      44.675  25.017  27.828  1.00  0.00     0.167 HD
ATOM     58  C   UNL A   1      44.897  26.421  31.530  1.00  0.00     0.074 A 
ATOM     59  C   UNL A   1      44.142  25.780  32.590  1.00  0.00     0.031 C 
ATOM     60  C   UNL A   1      45.198  25.948  30.296  1.00  0.00     0.037 A 
BRANCH  47  61
ATOM     61  C   UNL A   1      42.834  23.160  26.138  1.00  0.00     0.057 A 
ATOM     62  C   UNL A   1      42.894  21.747  26.185  1.00  0.00     0.134 A 
ATOM     63  C   UNL A   1      43.579  23.756  25.111  1.00  0.00     0.134 A 
ATOM     64  F   UNL A   1      42.170  21.053  27.077  1.00  0.00    -0.206 F 
ATOM     65  C   UNL A   1      43.755  20.997  25.376  1.00  0.00     0.040 A 
ATOM     66  C   UNL A   1      44.399  23.004  24.253  1.00  0.00     0.040 A 
ATOM     67  F   UNL A   1      43.623  25.085  24.951  1.00  0.00    -0.206 F 
ATOM     68  C   UNL A   1      44.529  21.630  24.418  1.00  0.00     0.006 A 
ENDBRANCH  47  61
BRANCH  48  69
ATOM     69  C   UNL A   1      43.448  29.798  34.331  1.00  0.00     0.057 A 
ATOM     70  C   UNL A   1      44.520  30.622  34.692  1.00  0.00     0.134 A 
ATOM     71  C   UNL A   1      42.488  29.623  35.363  1.00  0.00     0.134 A 
ATOM     72  F   UNL A   1      45.595  30.757  33.911  1.00  0.00    -0.206 F 
ATOM     73  C   UNL A   1      44.559  31.329  35.910  1.00  0.00     0.040 A 
ATOM     74  C   UNL A   1      42.508  30.324  36.574  1.00  0.00     0.040 A 
ATOM     75  F   UNL A   1      41.474  28.757  35.241  1.00  0.00    -0.206 F 
ATOM     76  C   UNL A   1      43.535  31.208  36.841  1.00  0.00     0.006 A 
ENDBRANCH  48  69
BRANCH  60  77
ATOM     77  C   UNL A   1      45.660  27.025  29.336  1.00  0.00     0.057 A 
ATOM     78  C   UNL A   1      46.985  27.458  29.318  1.00  0.00     0.134 A 
ATOM     79  C   UNL A   1      44.766  27.740  28.517  1.00  0.00     0.134 A 
ATOM     80  F   UNL A   1      47.906  26.848  30.078  1.00  0.00    -0.206 F 
ATOM     81  C   UNL A   1      47.393  28.539  28.523  1.00  0.00     0.040 A 
ATOM     82  C   UNL A   1      45.157  28.808  27.707  1.00  0.00     0.040 A 
ATOM     83  F   UNL A   1      43.474  27.409  28.473  1.00  0.00    -0.206 F 
ATOM     84  C   UNL A   1      46.481  29.217  27.715  1.00  0.00     0.006 A 
ENDBRANCH  60  77
ENDBRANCH  34  35
ENDBRANCH  26  29
ENDBRANCH  24  25
ENDBRANCH  23  24
ENDBRANCH   1  23
TORSDOF 14
ENDMDL
MODEL 2
REMARK VINA RESULT:     -11.5      3.410      5.139
REMARK SMILES C[C@@H]1CCC[C@H](C)N1C(=O)Cn1cccc1C(=O)NCCCCNC(=O)c1ccc(-c2c3nc(c(-c4c(F)cccc4F)c4ccc([nH]4)c(-c4c(F)cccc4F)c4nc(c(-c5c(F)cccc5F)c5ccc2[nH]5)C=C4)C=C3)cc1
REMARK SMILES IDX 21 1 20 2 19 3 17 4 18 5 16 7 12 8 13 9 14 10 15 11 11 12
REMARK SMILES IDX 9 13 10 14 8 15 1 16 2 17 3 18 4 19 6 20 5 21 7 22 22 23
REMARK SMILES IDX 23 24 24 25 25 26 26 28 27 29 28 30 80 31 29 32 79 33 30 34
REMARK SMILES IDX 31 35 32 36 73 37 33 38 78 39 72 40 74 41 34 42 77 43 71 44
REMARK SMILES IDX 70 45 35 47 61 48 44 49 60 50 45 51 48 52 59 53 75 54 46 55
REMARK SMILES IDX 47 56 58 58 76 59 49 60 36 61 37 62 42 63 38 64 39 65 41 66
REMARK SMILES IDX 43 67 40 68 62 69 63 70 68 71 64 72 65 73 67 74 69 75 66 76
REMARK SMILES IDX 50 77 51 78 56 79 52 80 53 81 55 82 57 83 54 84
REMARK H PARENT 19 6 24 27 74 46 48 57
REMARK Flexibility Score: inf
ROOT
ATOM      1  C   UNL A   1      31.781  30.485  26.622  1.00  0.00     0.023 C 
ENDROOT
BRANCH   1   2
ATOM      2  C   UNL A   1      33.169  29.972  26.138  1.00  0.00     0.116 C 
BRANCH   2   3
ATOM      3  N   UNL A   1      33.274  29.273  24.867  1.00  0.00    -0.351 N 
ATOM      4  C   UNL A   1      32.382  28.675  24.006  1.00  0.00     0.267 C 
ATOM      5  O   UNL A   1      32.597  29.002  22.829  1.00  0.00    -0.268 OA
ATOM      6  H   UNL A   1      34.204  29.212  24.547  1.00  0.00     0.163 HD
BRANCH   4   7
ATOM      7  C   UNL A   1      31.308  27.721  24.294  1.00  0.00     0.107 A 
ATOM      8  N   UNL A   1      31.082  26.758  25.273  1.00  0.00    -0.334 N 
ATOM      9  C   UNL A   1      29.863  26.124  25.029  1.00  0.00     0.087 A 
ATOM     10  C   UNL A   1      29.448  26.444  23.767  1.00  0.00     0.020 A 
ATOM     11  C   UNL A   1      30.340  27.431  23.314  1.00  0.00     0.033 A 
BRANCH   8  12
ATOM     12  C   UNL A   1      31.938  26.167  26.304  1.00  0.00     0.222 C 
BRANCH  12  13
ATOM     13  C   UNL A   1      31.989  24.663  26.389  1.00  0.00     0.242 C 
ATOM     14  O   UNL A   1      31.375  24.082  27.263  1.00  0.00    -0.273 OA
BRANCH  13  15
ATOM     15  N   UNL A   1      32.718  23.966  25.436  1.00  0.00    -0.336 N 
ATOM     16  C   UNL A   1      32.403  21.538  25.621  1.00  0.00     0.031 C 
ATOM     17  C   UNL A   1      32.167  22.790  24.767  1.00  0.00     0.082 C 
ATOM     18  C   UNL A   1      32.670  22.683  23.324  1.00  0.00     0.025 C 
ATOM     19  C   UNL A   1      34.160  22.977  23.142  1.00  0.00     0.004 C 
ATOM     20  C   UNL A   1      34.164  24.202  25.338  1.00  0.00     0.082 C 
ATOM     21  C   UNL A   1      34.565  24.255  23.864  1.00  0.00     0.025 C 
ATOM     22  C   UNL A   1      35.065  23.291  26.167  1.00  0.00     0.031 C 
ENDBRANCH  13  15
ENDBRANCH  12  13
ENDBRANCH   8  12
ENDBRANCH   4   7
ENDBRANCH   2   3
ENDBRANCH   1   2
BRANCH   1  23
ATOM     23  C   UNL A   1      31.504  31.995  26.807  1.00  0.00     0.023 C 
BRANCH  23  24
ATOM     24  C   UNL A   1      32.699  32.839  27.275  1.00  0.00     0.116 C 
BRANCH  24  25
ATOM     25  N   UNL A   1      32.342  34.208  27.625  1.00  0.00    -0.352 N 
ATOM     26  C   UNL A   1      32.901  35.026  28.576  1.00  0.00     0.251 C 
ATOM     27  H   UNL A   1      31.599  34.598  27.111  1.00  0.00     0.163 HD
ATOM     28  O   UNL A   1      32.363  36.078  28.908  1.00  0.00    -0.269 OA
BRANCH  26  29
ATOM     29  C   UNL A   1      34.148  34.606  29.237  1.00  0.00     0.039 A 
ATOM     30  C   UNL A   1      34.064  33.997  30.491  1.00  0.00     0.014 A 
ATOM     31  C   UNL A   1      35.382  34.770  28.596  1.00  0.00     0.014 A 
ATOM     32  C   UNL A   1      35.211  33.460  31.056  1.00  0.00     0.010 A 
ATOM     33  C   UNL A   1      36.524  34.210  29.143  1.00  0.00     0.010 A 
ATOM     34  C   UNL A   1      36.428  33.529  30.361  1.00  0.00    -0.014 A 
BRANCH  34  35
ATOM     35  C   UNL A   1      37.580  32.780  30.904  1.00  0.00     0.031 A 
ATOM     36  C   UNL A   1      37.813  31.448  30.181  1.00  0.00     0.074 A 
ATOM     37  C   UNL A   1      38.188  33.337  31.985  1.00  0.00     0.049 A 
ATOM     38  N   UNL A   1      38.225  30.297  30.629  1.00  0.00    -0.248 NA
ATOM     39  C   UNL A   1      37.434  31.374  28.745  1.00  0.00     0.031 C 
ATOM     40  C   UNL A   1      37.855  34.665  32.537  1.00  0.00     0.029 A 
ATOM     41  N   UNL A   1      39.170  32.914  32.847  1.00  0.00    -0.354 N 
ATOM     42  C   UNL A   1      38.303  29.424  29.522  1.00  0.00     0.074 A 
ATOM     43  C   UNL A   1      37.688  30.106  28.421  1.00  0.00     0.031 C 
ATOM     44  C   UNL A   1      38.537  34.891  33.676  1.00  0.00     0.029 A 
ATOM     45  C   UNL A   1      39.366  33.743  33.978  1.00  0.00     0.049 A 
ATOM     46  H   UNL A   1      39.697  32.096  32.691  1.00  0.00     0.167 HD
ATOM     47  C   UNL A   1      38.999  28.249  29.522  1.00  0.00     0.037 A 
ATOM     48  C   UNL A   1      40.069  33.483  35.121  1.00  0.00     0.037 A 
ATOM     49  C   UNL A   1      39.619  27.998  30.783  1.00  0.00     0.049 A 
ATOM     50  C   UNL A   1      40.598  32.120  34.941  1.00  0.00     0.074 A 
ATOM     51  C   UNL A   1      39.356  27.278  31.920  1.00  0.00     0.029 A 
ATOM     52  N   UNL A   1      40.813  28.637  30.967  1.00  0.00    -0.354 N 
ATOM     53  N   UNL A   1      41.594  31.799  34.174  1.00  0.00    -0.248 NA
ATOM     54  C   UNL A   1      39.826  31.009  35.500  1.00  0.00     0.031 C 
ATOM     55  C   UNL A   1      40.348  27.665  32.864  1.00  0.00     0.029 A 
ATOM     56  C   UNL A   1      41.053  28.728  32.311  1.00  0.00     0.049 A 
ATOM     57  H   UNL A   1      41.401  28.975  30.252  1.00  0.00     0.167 HD
ATOM     58  C   UNL A   1      41.402  30.454  33.932  1.00  0.00     0.074 A 
ATOM     59  C   UNL A   1      40.423  29.988  34.896  1.00  0.00     0.031 C 
ATOM     60  C   UNL A   1      41.768  29.893  32.753  1.00  0.00     0.037 A 
BRANCH  47  61
ATOM     61  C   UNL A   1      39.492  27.396  28.367  1.00  0.00     0.057 A 
ATOM     62  C   UNL A   1      39.442  25.988  28.506  1.00  0.00     0.134 A 
ATOM     63  C   UNL A   1      40.340  27.865  27.355  1.00  0.00     0.134 A 
ATOM     64  F   UNL A   1      38.616  25.410  29.392  1.00  0.00    -0.206 F 
ATOM     65  C   UNL A   1      40.290  25.125  27.803  1.00  0.00     0.040 A 
ATOM     66  C   UNL A   1      41.151  27.001  26.600  1.00  0.00     0.040 A 
ATOM     67  F   UNL A   1      40.494  29.174  27.116  1.00  0.00    -0.206 F 
ATOM     68  C   UNL A   1      41.166  25.635  26.859  1.00  0.00     0.006 A 
ENDBRANCH  47  61
BRANCH  48  69
ATOM     69  C   UNL A   1      40.219  34.125  36.476  1.00  0.00     0.057 A 
ATOM     70  C   UNL A   1      41.412  34.592  37.037  1.00  0.00     0.134 A 
ATOM     71  C   UNL A   1      39.078  34.345  37.292  1.00  0.00     0.134 A 
ATOM     72  F   UNL A   1      42.599  34.317  36.491  1.00  0.00    -0.206 F 
ATOM     73  C   UNL A   1      41.449  35.343  38.229  1.00  0.00     0.040 A 
ATOM     74  C   UNL A   1      39.096  35.096  38.472  1.00  0.00     0.040 A 
ATOM     75  F   UNL A   1      37.878  33.839  36.977  1.00  0.00    -0.206 F 
ATOM     76  C   UNL A   1      40.285  35.627  38.933  1.00  0.00     0.006 A 
ENDBRANCH  48  69
BRANCH  60  77
ATOM     77  C   UNL A   1      42.522  30.841  31.846  1.00  0.00     0.057 A 
ATOM     78  C   UNL A   1      43.895  31.038  31.985  1.00  0.00     0.134 A 
ATOM     79  C   UNL A   1      41.872  31.673  30.915  1.00  0.00     0.134 A 
ATOM     80  F   UNL A   1      44.598  30.303  32.860  1.00  0.00    -0.206 F 
ATOM     81  C   UNL A   1      44.579  32.005  31.234  1.00  0.00     0.040 A 
ATOM     82  C   UNL A   1      42.538  32.630  30.146  1.00  0.00     0.040 A 
ATOM     83  F   UNL A   1      40.557  31.569  30.716  1.00  0.00    -0.206 F 
ATOM     84  C   UNL A   1      43.902  32.804  30.312  1.00  0.00     0.006 A 
ENDBRANCH  60  77
ENDBRANCH  34  35
ENDBRANCH  26  29
ENDBRANCH  24  25
ENDBRANCH  23  24
ENDBRANCH   1  23
TORSDOF 14
ENDMDL
MODEL 3
REMARK VINA RESULT:     -11.4      2.916      7.650
REMARK SMILES C[C@@H]1CCC[C@H](C)N1C(=O)Cn1cccc1C(=O)NCCCCNC(=O)c1ccc(-c2c3nc(c(-c4c(F)cccc4F)c4ccc([nH]4)c(-c4c(F)cccc4F)c4nc(c(-c5c(F)cccc5F)c5ccc2[nH]5)C=C4)C=C3)cc1
REMARK SMILES IDX 21 1 20 2 19 3 17 4 18 5 16 7 12 8 13 9 14 10 15 11 11 12
REMARK SMILES IDX 9 13 10 14 8 15 1 16 2 17 3 18 4 19 6 20 5 21 7 22 22 23
REMARK SMILES IDX 23 24 24 25 25 26 26 28 27 29 28 30 80 31 29 32 79 33 30 34
REMARK SMILES IDX 31 35 32 36 73 37 33 38 78 39 72 40 74 41 34 42 77 43 71 44
REMARK SMILES IDX 70 45 35 47 61 48 44 49 60 50 45 51 48 52 59 53 75 54 46 55
REMARK SMILES IDX 47 56 58 58 76 59 49 60 36 61 37 62 42 63 38 64 39 65 41 66
REMARK SMILES IDX 43 67 40 68 62 69 63 70 68 71 64 72 65 73 67 74 69 75 66 76
REMARK SMILES IDX 50 77 51 78 56 79 52 80 53 81 55 82 57 83 54 84
REMARK H PARENT 19 6 24 27 74 46 48 57
REMARK Flexibility Score: inf
ROOT
ATOM      1  C   UNL A   1      37.057  22.214  24.584  1.00  0.00     0.023 C 
ENDROOT
BRANCH   1   2
ATOM      2  C   UNL A   1      36.661  23.251  25.675  1.00  0.00     0.116 C 
BRANCH   2   3
ATOM      3  N   UNL A   1      35.552  22.964  26.571  1.00  0.00    -0.351 N 
ATOM      4  C   UNL A   1      34.591  21.982  26.650  1.00  0.00     0.267 C 
ATOM      5  O   UNL A   1      34.474  21.553  27.808  1.00  0.00    -0.268 OA
ATOM      6  H   UNL A   1      35.468  23.631  27.291  1.00  0.00     0.163 HD
BRANCH   4   7
ATOM      7  C   UNL A   1      33.713  21.453  25.604  1.00  0.00     0.107 A 
ATOM      8  N   UNL A   1      32.396  21.679  25.215  1.00  0.00    -0.334 N 
ATOM      9  C   UNL A   1      32.082  20.855  24.133  1.00  0.00     0.087 A 
ATOM     10  C   UNL A   1      33.056  19.904  24.011  1.00  0.00     0.020 A 
ATOM     11  C   UNL A   1      34.063  20.275  24.918  1.00  0.00     0.033 A 
BRANCH   8  12
ATOM     12  C   UNL A   1      31.285  22.401  25.838  1.00  0.00     0.222 C 
BRANCH  12  13
ATOM     13  C   UNL A   1      31.474  23.871  26.109  1.00  0.00     0.242 C 
ATOM     14  O   UNL A   1      31.218  24.325  27.209  1.00  0.00    -0.273 OA
BRANCH  13  15
ATOM     15  N   UNL A   1      31.973  24.677  25.096  1.00  0.00    -0.336 N 
ATOM     16  C   UNL A   1      33.225  26.599  25.973  1.00  0.00     0.031 C 
ATOM     17  C   UNL A   1      33.299  25.283  25.189  1.00  0.00     0.082 C 
ATOM     18  C   UNL A   1      33.959  25.395  23.811  1.00  0.00     0.025 C 
ATOM     19  C   UNL A   1      33.029  25.876  22.695  1.00  0.00     0.004 C 
ATOM     20  C   UNL A   1      31.046  25.198  24.083  1.00  0.00     0.082 C 
ATOM     21  C   UNL A   1      31.708  25.118  22.709  1.00  0.00     0.025 C 
ATOM     22  C   UNL A   1      30.419  26.561  24.364  1.00  0.00     0.031 C 
ENDBRANCH  13  15
ENDBRANCH  12  13
ENDBRANCH   8  12
ENDBRANCH   4   7
ENDBRANCH   2   3
ENDBRANCH   1   2
BRANCH   1  23
ATOM     23  C   UNL A   1      37.734  20.875  24.958  1.00  0.00     0.023 C 
BRANCH  23  24
ATOM     24  C   UNL A   1      39.009  20.989  25.808  1.00  0.00     0.116 C 
BRANCH  24  25
ATOM     25  N   UNL A   1      39.828  19.784  25.790  1.00  0.00    -0.352 N 
ATOM     26  C   UNL A   1      41.185  19.663  25.967  1.00  0.00     0.251 C 
ATOM     27  H   UNL A   1      39.343  18.942  25.630  1.00  0.00     0.163 HD
ATOM     28  O   UNL A   1      41.770  18.613  25.717  1.00  0.00    -0.269 OA
BRANCH  26  29
ATOM     29  C   UNL A   1      41.953  20.833  26.425  1.00  0.00     0.039 A 
ATOM     30  C   UNL A   1      42.423  21.736  25.470  1.00  0.00     0.014 A 
ATOM     31  C   UNL A   1      42.161  21.055  27.792  1.00  0.00     0.014 A 
ATOM     32  C   UNL A   1      43.013  22.917  25.894  1.00  0.00     0.010 A 
ATOM     33  C   UNL A   1      42.723  22.246  28.220  1.00  0.00     0.010 A 
ATOM     34  C   UNL A   1      43.122  23.188  27.267  1.00  0.00    -0.014 A 
BRANCH  34  35
ATOM     35  C   UNL A   1      43.577  24.533  27.674  1.00  0.00     0.031 A 
ATOM     36  C   UNL A   1      42.418  25.521  27.851  1.00  0.00     0.074 A 
ATOM     37  C   UNL A   1      44.924  24.701  27.747  1.00  0.00     0.049 A 
ATOM     38  N   UNL A   1      42.342  26.797  27.602  1.00  0.00    -0.248 NA
ATOM     39  C   UNL A   1      41.109  24.969  28.291  1.00  0.00     0.031 C 
ATOM     40  C   UNL A   1      45.911  23.617  27.581  1.00  0.00     0.029 A 
ATOM     41  N   UNL A   1      45.738  25.791  27.947  1.00  0.00    -0.354 N 
ATOM     42  C   UNL A   1      41.053  27.221  27.995  1.00  0.00     0.074 A 
ATOM     43  C   UNL A   1      40.306  26.033  28.291  1.00  0.00     0.031 C 
ATOM     44  C   UNL A   1      47.164  24.109  27.585  1.00  0.00     0.029 A 
ATOM     45  C   UNL A   1      47.117  25.547  27.746  1.00  0.00     0.049 A 
ATOM     46  H   UNL A   1      45.387  26.674  28.207  1.00  0.00     0.167 HD
ATOM     47  C   UNL A   1      40.707  28.526  28.203  1.00  0.00     0.037 A 
ATOM     48  C   UNL A   1      48.139  26.447  27.622  1.00  0.00     0.037 A 
ATOM     49  C   UNL A   1      41.798  29.412  27.952  1.00  0.00     0.049 A 
ATOM     50  C   UNL A   1      47.497  27.768  27.737  1.00  0.00     0.074 A 
ATOM     51  C   UNL A   1      42.250  30.203  26.929  1.00  0.00     0.029 A 
ATOM     52  N   UNL A   1      42.676  29.540  28.993  1.00  0.00    -0.354 N 
ATOM     53  N   UNL A   1      47.072  28.300  28.841  1.00  0.00    -0.248 NA
ATOM     54  C   UNL A   1      47.121  28.454  26.500  1.00  0.00     0.031 C 
ATOM     55  C   UNL A   1      43.537  30.661  27.330  1.00  0.00     0.029 A 
ATOM     56  C   UNL A   1      43.872  29.983  28.497  1.00  0.00     0.049 A 
ATOM     57  H   UNL A   1      42.480  29.347  29.939  1.00  0.00     0.167 HD
ATOM     58  C   UNL A   1      46.142  29.229  28.421  1.00  0.00     0.074 A 
ATOM     59  C   UNL A   1      46.337  29.405  26.995  1.00  0.00     0.031 C 
ATOM     60  C   UNL A   1      45.052  29.520  29.173  1.00  0.00     0.037 A 
BRANCH  47  61
ATOM     61  C   UNL A   1      39.534  29.126  28.957  1.00  0.00     0.057 A 
ATOM     62  C   UNL A   1      39.422  28.858  30.342  1.00  0.00     0.134 A 
ATOM     63  C   UNL A   1      38.362  29.587  28.341  1.00  0.00     0.134 A 
ATOM     64  F   UNL A   1      40.489  28.479  31.062  1.00  0.00    -0.206 F 
ATOM     65  C   UNL A   1      38.201  28.891  31.025  1.00  0.00     0.040 A 
ATOM     66  C   UNL A   1      37.144  29.682  29.035  1.00  0.00     0.040 A 
ATOM     67  F   UNL A   1      38.318  29.871  27.033  1.00  0.00    -0.206 F 
ATOM     68  C   UNL A   1      37.050  29.284  30.363  1.00  0.00     0.006 A 
ENDBRANCH  47  61
BRANCH  48  69
ATOM     69  C   UNL A   1      49.588  26.398  27.211  1.00  0.00     0.057 A 
ATOM     70  C   UNL A   1      50.688  26.606  28.050  1.00  0.00     0.134 A 
ATOM     71  C   UNL A   1      49.941  26.076  25.874  1.00  0.00     0.134 A 
ATOM     72  F   UNL A   1      50.545  27.084  29.288  1.00  0.00    -0.206 F 
ATOM     73  C   UNL A   1      52.014  26.368  27.637  1.00  0.00     0.040 A 
ATOM     74  C   UNL A   1      51.251  25.826  25.451  1.00  0.00     0.040 A 
ATOM     75  F   UNL A   1      49.019  25.983  24.905  1.00  0.00    -0.206 F 
ATOM     76  C   UNL A   1      52.297  25.943  26.345  1.00  0.00     0.006 A 
ENDBRANCH  48  69
BRANCH  60  77
ATOM     77  C   UNL A   1      45.065  28.856  30.533  1.00  0.00     0.057 A 
ATOM     78  C   UNL A   1      45.758  29.415  31.606  1.00  0.00     0.134 A 
ATOM     79  C   UNL A   1      44.506  27.583  30.757  1.00  0.00     0.134 A 
ATOM     80  F   UNL A   1      46.338  30.618  31.481  1.00  0.00    -0.206 F 
ATOM     81  C   UNL A   1      45.880  28.745  32.832  1.00  0.00     0.040 A 
ATOM     82  C   UNL A   1      44.603  26.908  31.976  1.00  0.00     0.040 A 
ATOM     83  F   UNL A   1      43.833  26.959  29.790  1.00  0.00    -0.206 F 
ATOM     84  C   UNL A   1      45.303  27.490  33.020  1.00  0.00     0.006 A 
ENDBRANCH  60  77
ENDBRANCH  34  35
ENDBRANCH  26  29
ENDBRANCH  24  25
ENDBRANCH  23  24
ENDBRANCH   1  23
TORSDOF 14
ENDMDL
