MODEL 1
REMARK VINA RESULT:     -13.2      0.000      0.000
REMARK SMILES O=C(COc1ccccc1/C=C1\N=C(c2ccccc2OC(F)F)OC1=O)NCCCCNC(=O)c1ccc(-c2c3nc(c(-c4c(F)cccc4F)c4ccc([nH]4)c(-c4c(F)cccc4F)c4nc(c(-c5c(F)cccc5F)c5ccc2[nH]5)C=C4)C=C3)cc1
REMARK SMILES IDX 1 1 2 2 28 3 3 5 4 6 5 7 6 8 10 9 7 10 9 11 8 12 11 13 12 14
REMARK SMILES IDX 13 15 26 16 14 17 25 18 27 19 15 20 16 21 20 22 17 23 19 24
REMARK SMILES IDX 18 25 21 26 22 27 23 28 24 29 29 30 30 31 31 32 32 33 33 34
REMARK SMILES IDX 34 35 35 37 36 38 37 39 89 40 38 41 88 42 39 43 40 44 41 45
REMARK SMILES IDX 82 46 42 47 87 48 81 49 83 50 43 51 86 52 80 53 79 54 44 56
REMARK SMILES IDX 70 57 53 58 69 59 54 60 57 61 68 62 84 63 55 64 56 65 67 67
REMARK SMILES IDX 85 68 58 69 45 70 46 71 51 72 47 73 48 74 50 75 52 76 49 77
REMARK SMILES IDX 71 78 72 79 77 80 73 81 74 82 76 83 78 84 75 85 59 86 60 87
REMARK SMILES IDX 65 88 61 89 62 90 64 91 66 92 63 93
REMARK H PARENT 28 4 33 36 83 55 57 66
REMARK Flexibility Score: inf
ROOT
ATOM      1  O   UNL A   1      31.479  31.702  26.741  1.00  0.00    -0.271 OA
ATOM      2  C   UNL A   1      32.400  30.913  26.909  1.00  0.00     0.257 C 
ATOM      3  N   UNL A   1      33.504  31.067  27.812  1.00  0.00    -0.353 N 
ATOM      4  H   UNL A   1      33.865  30.157  27.922  1.00  0.00     0.163 HD
ENDROOT
BRANCH   2   5
ATOM      5  C   UNL A   1      32.598  29.668  26.006  1.00  0.00     0.329 C 
BRANCH   5   6
ATOM      6  O   UNL A   1      31.409  28.883  25.862  1.00  0.00    -0.483 OA
BRANCH   6   7
ATOM      7  C   UNL A   1      31.296  28.104  24.731  1.00  0.00     0.127 A 
ATOM      8  C   UNL A   1      31.579  28.786  23.542  1.00  0.00     0.047 A 
ATOM      9  C   UNL A   1      30.770  26.790  24.677  1.00  0.00     0.019 A 
ATOM     10  C   UNL A   1      31.384  28.172  22.306  1.00  0.00     0.004 A 
ATOM     11  C   UNL A   1      30.585  26.186  23.425  1.00  0.00     0.012 A 
ATOM     12  C   UNL A   1      30.885  26.874  22.247  1.00  0.00     0.001 A 
BRANCH   9  13
ATOM     13  C   UNL A   1      30.427  25.977  25.851  1.00  0.00     0.048 C 
ATOM     14  C   UNL A   1      31.300  25.125  26.417  1.00  0.00     0.153 C 
ATOM     15  N   UNL A   1      32.997  24.855  25.845  1.00  0.00    -0.205 NA
ATOM     16  C   UNL A   1      30.593  23.300  26.918  1.00  0.00     0.363 C 
ATOM     17  C   UNL A   1      33.393  23.292  25.874  1.00  0.00     0.235 C 
ATOM     18  O   UNL A   1      32.057  22.210  26.493  1.00  0.00    -0.402 OA
ATOM     19  O   UNL A   1      29.621  22.967  27.574  1.00  0.00    -0.244 OA
BRANCH  17  20
ATOM     20  C   UNL A   1      34.686  22.741  25.416  1.00  0.00     0.080 A 
ATOM     21  C   UNL A   1      35.663  23.749  25.258  1.00  0.00     0.017 A 
ATOM     22  C   UNL A   1      35.053  21.407  25.198  1.00  0.00     0.138 A 
ATOM     23  C   UNL A   1      36.983  23.448  24.933  1.00  0.00     0.001 A 
ATOM     24  C   UNL A   1      36.392  21.117  24.868  1.00  0.00     0.047 A 
ATOM     25  C   UNL A   1      37.351  22.126  24.738  1.00  0.00     0.004 A 
BRANCH  22  26
ATOM     26  O   UNL A   1      34.308  20.295  25.457  1.00  0.00    -0.434 OA
BRANCH  26  27
ATOM     27  C   UNL A   1      33.715  19.599  24.365  1.00  0.00     0.542 C 
ATOM     28  F   UNL A   1      34.177  18.329  24.410  1.00  0.00    -0.167 F 
ATOM     29  F   UNL A   1      32.367  19.584  24.454  1.00  0.00    -0.167 F 
ENDBRANCH  26  27
ENDBRANCH  22  26
ENDBRANCH  17  20
ENDBRANCH   9  13
ENDBRANCH   6   7
ENDBRANCH   5   6
ENDBRANCH   2   5
BRANCH   3  30
ATOM     30  C   UNL A   1      34.760  32.302  29.043  1.00  0.00     0.116 C 
BRANCH  30  31
ATOM     31  C   UNL A   1      34.768  34.019  29.157  1.00  0.00     0.023 C 
BRANCH  31  32
ATOM     32  C   UNL A   1      33.422  34.746  29.180  1.00  0.00     0.023 C 
BRANCH  32  33
ATOM     33  C   UNL A   1      33.430  36.110  29.853  1.00  0.00     0.116 C 
BRANCH  33  34
ATOM     34  N   UNL A   1      32.442  36.228  30.908  1.00  0.00    -0.352 N 
ATOM     35  C   UNL A   1      32.518  35.682  32.167  1.00  0.00     0.251 C 
ATOM     36  H   UNL A   1      31.633  36.752  30.701  1.00  0.00     0.163 HD
ATOM     37  O   UNL A   1      31.575  35.733  32.947  1.00  0.00    -0.269 OA
BRANCH  35  38
ATOM     38  C   UNL A   1      33.768  34.995  32.552  1.00  0.00     0.039 A 
ATOM     39  C   UNL A   1      33.718  33.646  32.905  1.00  0.00     0.014 A 
ATOM     40  C   UNL A   1      34.989  35.673  32.493  1.00  0.00     0.014 A 
ATOM     41  C   UNL A   1      34.906  32.964  33.174  1.00  0.00     0.010 A 
ATOM     42  C   UNL A   1      36.174  34.975  32.702  1.00  0.00     0.010 A 
ATOM     43  C   UNL A   1      36.145  33.618  33.059  1.00  0.00    -0.014 A 
BRANCH  43  44
ATOM     44  C   UNL A   1      37.411  32.903  33.359  1.00  0.00     0.031 A 
ATOM     45  C   UNL A   1      38.155  33.202  34.632  1.00  0.00     0.074 A 
ATOM     46  C   UNL A   1      37.905  32.007  32.483  1.00  0.00     0.049 A 
ATOM     47  N   UNL A   1      39.274  32.688  35.076  1.00  0.00    -0.248 NA
ATOM     48  C   UNL A   1      37.581  34.234  35.510  1.00  0.00     0.031 C 
ATOM     49  C   UNL A   1      37.308  31.668  31.190  1.00  0.00     0.029 A 
ATOM     50  N   UNL A   1      39.023  31.214  32.551  1.00  0.00    -0.354 N 
ATOM     51  C   UNL A   1      39.539  33.341  36.273  1.00  0.00     0.074 A 
ATOM     52  C   UNL A   1      38.503  34.333  36.454  1.00  0.00     0.031 C 
ATOM     53  C   UNL A   1      38.045  30.709  30.605  1.00  0.00     0.029 A 
ATOM     54  C   UNL A   1      39.179  30.385  31.465  1.00  0.00     0.049 A 
ATOM     55  H   UNL A   1      39.653  31.235  33.307  1.00  0.00     0.167 HD
ATOM     56  C   UNL A   1      40.537  33.115  37.161  1.00  0.00     0.037 A 
ATOM     57  C   UNL A   1      40.127  29.464  31.202  1.00  0.00     0.037 A 
ATOM     58  C   UNL A   1      41.546  32.104  36.999  1.00  0.00     0.049 A 
ATOM     59  C   UNL A   1      41.217  29.221  32.210  1.00  0.00     0.074 A 
ATOM     60  C   UNL A   1      42.565  31.755  37.869  1.00  0.00     0.029 A 
ATOM     61  N   UNL A   1      41.661  31.275  35.894  1.00  0.00    -0.354 N 
ATOM     62  N   UNL A   1      41.414  29.797  33.371  1.00  0.00    -0.248 NA
ATOM     63  C   UNL A   1      42.213  28.192  31.874  1.00  0.00     0.031 C 
ATOM     64  C   UNL A   1      43.321  30.742  37.271  1.00  0.00     0.029 A 
ATOM     65  C   UNL A   1      42.745  30.428  36.051  1.00  0.00     0.049 A 
ATOM     66  H   UNL A   1      41.061  31.286  35.114  1.00  0.00     0.167 HD
ATOM     67  C   UNL A   1      42.535  29.183  33.916  1.00  0.00     0.074 A 
ATOM     68  C   UNL A   1      42.966  28.180  32.965  1.00  0.00     0.031 C 
ATOM     69  C   UNL A   1      43.153  29.428  35.096  1.00  0.00     0.037 A 
BRANCH  56  70
ATOM     70  C   UNL A   1      40.572  33.970  38.394  1.00  0.00     0.057 A 
ATOM     71  C   UNL A   1      41.337  35.143  38.457  1.00  0.00     0.134 A 
ATOM     72  C   UNL A   1      39.813  33.634  39.522  1.00  0.00     0.134 A 
ATOM     73  F   UNL A   1      42.098  35.515  37.416  1.00  0.00    -0.206 F 
ATOM     74  C   UNL A   1      41.371  35.933  39.607  1.00  0.00     0.040 A 
ATOM     75  C   UNL A   1      39.815  34.432  40.668  1.00  0.00     0.040 A 
ATOM     76  F   UNL A   1      39.054  32.528  39.527  1.00  0.00    -0.206 F 
ATOM     77  C   UNL A   1      40.602  35.581  40.714  1.00  0.00     0.006 A 
ENDBRANCH  56  70
BRANCH  57  78
ATOM     78  C   UNL A   1      40.072  28.677  29.943  1.00  0.00     0.057 A 
ATOM     79  C   UNL A   1      39.336  27.489  29.864  1.00  0.00     0.134 A 
ATOM     80  C   UNL A   1      40.766  29.083  28.796  1.00  0.00     0.134 A 
ATOM     81  F   UNL A   1      38.665  27.038  30.934  1.00  0.00    -0.206 F 
ATOM     82  C   UNL A   1      39.311  26.718  28.700  1.00  0.00     0.040 A 
ATOM     83  C   UNL A   1      40.729  28.335  27.618  1.00  0.00     0.040 A 
ATOM     84  F   UNL A   1      41.482  30.216  28.803  1.00  0.00    -0.206 F 
ATOM     85  C   UNL A   1      40.007  27.145  27.571  1.00  0.00     0.006 A 
ENDBRANCH  57  78
BRANCH  69  86
ATOM     86  C   UNL A   1      44.342  28.579  35.441  1.00  0.00     0.057 A 
ATOM     87  C   UNL A   1      45.646  28.960  35.101  1.00  0.00     0.134 A 
ATOM     88  C   UNL A   1      44.182  27.390  36.164  1.00  0.00     0.134 A 
ATOM     89  F   UNL A   1      45.865  30.083  34.400  1.00  0.00    -0.206 F 
ATOM     90  C   UNL A   1      46.747  28.178  35.450  1.00  0.00     0.040 A 
ATOM     91  C   UNL A   1      45.278  26.612  36.541  1.00  0.00     0.040 A 
ATOM     92  F   UNL A   1      42.961  26.973  36.529  1.00  0.00    -0.206 F 
ATOM     93  C   UNL A   1      46.565  27.004  36.178  1.00  0.00     0.006 A 
ENDBRANCH  69  86
ENDBRANCH  43  44
ENDBRANCH  35  38
ENDBRANCH  33  34
ENDBRANCH  32  33
ENDBRANCH  31  32
ENDBRANCH  30  31
ENDBRANCH   3  30
TORSDOF 17
ENDMDL
MODEL 2
REMARK VINA RESULT:     -12.9      5.871     10.041
REMARK SMILES O=C(COc1ccccc1/C=C1\N=C(c2ccccc2OC(F)F)OC1=O)NCCCCNC(=O)c1ccc(-c2c3nc(c(-c4c(F)cccc4F)c4ccc([nH]4)c(-c4c(F)cccc4F)c4nc(c(-c5c(F)cccc5F)c5ccc2[nH]5)C=C4)C=C3)cc1
REMARK SMILES IDX 1 1 2 2 28 3 3 5 4 6 5 7 6 8 10 9 7 10 9 11 8 12 11 13 12 14
REMARK SMILES IDX 13 15 26 16 14 17 25 18 27 19 15 20 16 21 20 22 17 23 19 24
REMARK SMILES IDX 18 25 21 26 22 27 23 28 24 29 29 30 30 31 31 32 32 33 33 34
REMARK SMILES IDX 34 35 35 37 36 38 37 39 89 40 38 41 88 42 39 43 40 44 41 45
REMARK SMILES IDX 82 46 42 47 87 48 81 49 83 50 43 51 86 52 80 53 79 54 44 56
REMARK SMILES IDX 70 57 53 58 69 59 54 60 57 61 68 62 84 63 55 64 56 65 67 67
REMARK SMILES IDX 85 68 58 69 45 70 46 71 51 72 47 73 48 74 50 75 52 76 49 77
REMARK SMILES IDX 71 78 72 79 77 80 73 81 74 82 76 83 78 84 75 85 59 86 60 87
REMARK SMILES IDX 65 88 61 89 62 90 64 91 66 92 63 93
REMARK H PARENT 28 4 33 36 83 55 57 66
REMARK Flexibility Score: inf
ROOT
ATOM      1  O   UNL A   1      30.187  23.500  27.185  1.00  0.00    -0.271 OA
ATOM      2  C   UNL A   1      31.341  23.903  27.122  1.00  0.00     0.257 C 
ATOM      3  N   UNL A   1      31.772  25.271  27.157  1.00  0.00    -0.353 N 
ATOM      4  H   UNL A   1      32.727  25.225  27.395  1.00  0.00     0.163 HD
ENDROOT
BRANCH   2   5
ATOM      5  C   UNL A   1      32.531  22.959  26.808  1.00  0.00     0.329 C 
BRANCH   5   6
ATOM      6  O   UNL A   1      33.404  23.471  25.795  1.00  0.00    -0.483 OA
BRANCH   6   7
ATOM      7  C   UNL A   1      33.081  23.200  24.483  1.00  0.00     0.127 A 
ATOM      8  C   UNL A   1      32.498  21.943  24.290  1.00  0.00     0.047 A 
ATOM      9  C   UNL A   1      33.441  23.986  23.361  1.00  0.00     0.019 A 
ATOM     10  C   UNL A   1      32.235  21.471  23.005  1.00  0.00     0.004 A 
ATOM     11  C   UNL A   1      33.164  23.497  22.076  1.00  0.00     0.012 A 
ATOM     12  C   UNL A   1      32.570  22.246  21.898  1.00  0.00     0.001 A 
BRANCH   9  13
ATOM     13  C   UNL A   1      34.064  25.314  23.434  1.00  0.00     0.048 C 
ATOM     14  C   UNL A   1      33.356  26.429  23.687  1.00  0.00     0.153 C 
ATOM     15  N   UNL A   1      31.569  26.471  23.979  1.00  0.00    -0.205 NA
ATOM     16  C   UNL A   1      33.764  28.043  22.543  1.00  0.00     0.363 C 
ATOM     17  C   UNL A   1      30.874  27.719  23.231  1.00  0.00     0.235 C 
ATOM     18  O   UNL A   1      32.052  28.772  22.313  1.00  0.00    -0.402 OA
ATOM     19  O   UNL A   1      34.818  28.598  22.282  1.00  0.00    -0.244 OA
BRANCH  17  20
ATOM     20  C   UNL A   1      29.422  27.998  23.229  1.00  0.00     0.080 A 
ATOM     21  C   UNL A   1      28.673  26.901  23.706  1.00  0.00     0.017 A 
ATOM     22  C   UNL A   1      28.748  29.179  22.891  1.00  0.00     0.138 A 
ATOM     23  C   UNL A   1      27.294  26.976  23.888  1.00  0.00     0.001 A 
ATOM     24  C   UNL A   1      27.352  29.240  23.078  1.00  0.00     0.047 A 
ATOM     25  C   UNL A   1      26.630  28.151  23.574  1.00  0.00     0.004 A 
BRANCH  22  26
ATOM     26  O   UNL A   1      29.304  30.382  22.574  1.00  0.00    -0.434 OA
BRANCH  26  27
ATOM     27  C   UNL A   1      28.519  31.561  22.730  1.00  0.00     0.542 C 
ATOM     28  F   UNL A   1      28.587  31.909  24.035  1.00  0.00    -0.167 F 
ATOM     29  F   UNL A   1      28.988  32.578  21.975  1.00  0.00    -0.167 F 
ENDBRANCH  26  27
ENDBRANCH  22  26
ENDBRANCH  17  20
ENDBRANCH   9  13
ENDBRANCH   6   7
ENDBRANCH   5   6
ENDBRANCH   2   5
BRANCH   3  30
ATOM     30  C   UNL A   1      31.364  27.370  26.949  1.00  0.00     0.116 C 
BRANCH  30  31
ATOM     31  C   UNL A   1      32.419  28.689  27.278  1.00  0.00     0.023 C 
BRANCH  31  32
ATOM     32  C   UNL A   1      33.719  28.790  26.478  1.00  0.00     0.023 C 
BRANCH  32  33
ATOM     33  C   UNL A   1      34.981  28.969  27.306  1.00  0.00     0.116 C 
BRANCH  33  34
ATOM     34  N   UNL A   1      34.837  29.963  28.352  1.00  0.00    -0.352 N 
ATOM     35  C   UNL A   1      35.814  30.383  29.224  1.00  0.00     0.251 C 
ATOM     36  H   UNL A   1      33.949  30.380  28.448  1.00  0.00     0.163 HD
ATOM     37  O   UNL A   1      35.561  31.138  30.155  1.00  0.00    -0.269 OA
BRANCH  35  38
ATOM     38  C   UNL A   1      37.185  29.869  29.030  1.00  0.00     0.039 A 
ATOM     39  C   UNL A   1      37.806  30.046  27.793  1.00  0.00     0.014 A 
ATOM     40  C   UNL A   1      37.871  29.279  30.096  1.00  0.00     0.014 A 
ATOM     41  C   UNL A   1      39.135  29.652  27.631  1.00  0.00     0.010 A 
ATOM     42  C   UNL A   1      39.213  28.944  29.948  1.00  0.00     0.010 A 
ATOM     43  C   UNL A   1      39.855  29.113  28.712  1.00  0.00    -0.014 A 
BRANCH  43  44
ATOM     44  C   UNL A   1      41.264  28.678  28.542  1.00  0.00     0.031 A 
ATOM     45  C   UNL A   1      41.568  27.247  28.189  1.00  0.00     0.074 A 
ATOM     46  C   UNL A   1      42.270  29.555  28.728  1.00  0.00     0.049 A 
ATOM     47  N   UNL A   1      42.727  26.670  27.999  1.00  0.00    -0.248 NA
ATOM     48  C   UNL A   1      40.418  26.337  28.060  1.00  0.00     0.031 C 
ATOM     49  C   UNL A   1      42.110  30.955  29.125  1.00  0.00     0.029 A 
ATOM     50  N   UNL A   1      43.627  29.397  28.603  1.00  0.00    -0.354 N 
ATOM     51  C   UNL A   1      42.445  25.335  27.739  1.00  0.00     0.074 A 
ATOM     52  C   UNL A   1      41.014  25.172  27.862  1.00  0.00     0.031 C 
ATOM     53  C   UNL A   1      43.320  31.537  29.172  1.00  0.00     0.029 A 
ATOM     54  C   UNL A   1      44.340  30.548  28.838  1.00  0.00     0.049 A 
ATOM     55  H   UNL A   1      44.050  28.541  28.365  1.00  0.00     0.167 HD
ATOM     56  C   UNL A   1      43.296  24.338  27.397  1.00  0.00     0.037 A 
ATOM     57  C   UNL A   1      45.667  30.778  28.782  1.00  0.00     0.037 A 
ATOM     58  C   UNL A   1      44.715  24.508  27.240  1.00  0.00     0.049 A 
ATOM     59  C   UNL A   1      46.592  29.658  28.385  1.00  0.00     0.074 A 
ATOM     60  C   UNL A   1      45.657  23.576  26.838  1.00  0.00     0.029 A 
ATOM     61  N   UNL A   1      45.397  25.693  27.472  1.00  0.00    -0.354 N 
ATOM     62  N   UNL A   1      46.303  28.418  28.073  1.00  0.00    -0.248 NA
ATOM     63  C   UNL A   1      48.027  29.973  28.325  1.00  0.00     0.031 C 
ATOM     64  C   UNL A   1      46.914  24.186  26.868  1.00  0.00     0.029 A 
ATOM     65  C   UNL A   1      46.751  25.510  27.240  1.00  0.00     0.049 A 
ATOM     66  H   UNL A   1      44.982  26.538  27.758  1.00  0.00     0.167 HD
ATOM     67  C   UNL A   1      47.512  27.814  27.752  1.00  0.00     0.074 A 
ATOM     68  C   UNL A   1      48.536  28.828  27.893  1.00  0.00     0.031 C 
ATOM     69  C   UNL A   1      47.754  26.535  27.377  1.00  0.00     0.037 A 
BRANCH  56  70
ATOM     70  C   UNL A   1      42.707  22.979  27.157  1.00  0.00     0.057 A 
ATOM     71  C   UNL A   1      42.303  22.152  28.214  1.00  0.00     0.134 A 
ATOM     72  C   UNL A   1      42.517  22.499  25.854  1.00  0.00     0.134 A 
ATOM     73  F   UNL A   1      42.470  22.545  29.486  1.00  0.00    -0.206 F 
ATOM     74  C   UNL A   1      41.760  20.887  27.985  1.00  0.00     0.040 A 
ATOM     75  C   UNL A   1      41.949  21.248  25.613  1.00  0.00     0.040 A 
ATOM     76  F   UNL A   1      42.877  23.242  24.797  1.00  0.00    -0.206 F 
ATOM     77  C   UNL A   1      41.575  20.434  26.681  1.00  0.00     0.006 A 
ENDBRANCH  56  70
BRANCH  57  78
ATOM     78  C   UNL A   1      46.203  32.132  29.076  1.00  0.00     0.057 A 
ATOM     79  C   UNL A   1      46.371  33.080  28.060  1.00  0.00     0.134 A 
ATOM     80  C   UNL A   1      46.576  32.505  30.373  1.00  0.00     0.134 A 
ATOM     81  F   UNL A   1      46.049  32.777  26.793  1.00  0.00    -0.206 F 
ATOM     82  C   UNL A   1      46.913  34.341  28.316  1.00  0.00     0.040 A 
ATOM     83  C   UNL A   1      47.096  33.771  30.648  1.00  0.00     0.040 A 
ATOM     84  F   UNL A   1      46.431  31.646  31.392  1.00  0.00    -0.206 F 
ATOM     85  C   UNL A   1      47.274  34.690  29.617  1.00  0.00     0.006 A 
ENDBRANCH  57  78
BRANCH  69  86
ATOM     86  C   UNL A   1      49.174  26.167  27.061  1.00  0.00     0.057 A 
ATOM     87  C   UNL A   1      49.681  26.226  25.758  1.00  0.00     0.134 A 
ATOM     88  C   UNL A   1      50.057  25.793  28.084  1.00  0.00     0.134 A 
ATOM     89  F   UNL A   1      48.884  26.567  24.733  1.00  0.00    -0.206 F 
ATOM     90  C   UNL A   1      51.010  25.907  25.478  1.00  0.00     0.040 A 
ATOM     91  C   UNL A   1      51.395  25.497  27.820  1.00  0.00     0.040 A 
ATOM     92  F   UNL A   1      49.638  25.726  29.355  1.00  0.00    -0.206 F 
ATOM     93  C   UNL A   1      51.874  25.549  26.511  1.00  0.00     0.006 A 
ENDBRANCH  69  86
ENDBRANCH  43  44
ENDBRANCH  35  38
ENDBRANCH  33  34
ENDBRANCH  32  33
ENDBRANCH  31  32
ENDBRANCH  30  31
ENDBRANCH   3  30
TORSDOF 17
ENDMDL
MODEL 3
REMARK VINA RESULT:     -12.7      1.168      6.072
REMARK SMILES O=C(COc1ccccc1/C=C1\N=C(c2ccccc2OC(F)F)OC1=O)NCCCCNC(=O)c1ccc(-c2c3nc(c(-c4c(F)cccc4F)c4ccc([nH]4)c(-c4c(F)cccc4F)c4nc(c(-c5c(F)cccc5F)c5ccc2[nH]5)C=C4)C=C3)cc1
REMARK SMILES IDX 1 1 2 2 28 3 3 5 4 6 5 7 6 8 10 9 7 10 9 11 8 12 11 13 12 14
REMARK SMILES IDX 13 15 26 16 14 17 25 18 27 19 15 20 16 21 20 22 17 23 19 24
REMARK SMILES IDX 18 25 21 26 22 27 23 28 24 29 29 30 30 31 31 32 32 33 33 34
REMARK SMILES IDX 34 35 35 37 36 38 37 39 89 40 38 41 88 42 39 43 40 44 41 45
REMARK SMILES IDX 82 46 42 47 87 48 81 49 83 50 43 51 86 52 80 53 79 54 44 56
REMARK SMILES IDX 70 57 53 58 69 59 54 60 57 61 68 62 84 63 55 64 56 65 67 67
REMARK SMILES IDX 85 68 58 69 45 70 46 71 51 72 47 73 48 74 50 75 52 76 49 77
REMARK SMILES IDX 71 78 72 79 77 80 73 81 74 82 76 83 78 84 75 85 59 86 60 87
REMARK SMILES IDX 65 88 61 89 62 90 64 91 66 92 63 93
REMARK H PARENT 28 4 33 36 83 55 57 66
REMARK Flexibility Score: inf
ROOT
ATOM      1  O   UNL A   1      31.900  31.703  26.800  1.00  0.00    -0.271 OA
ATOM      2  C   UNL A   1      32.805  30.896  26.967  1.00  0.00     0.257 C 
ATOM      3  N   UNL A   1      33.969  31.075  27.787  1.00  0.00    -0.353 N 
ATOM      4  H   UNL A   1      34.308  30.163  27.939  1.00  0.00     0.163 HD
ENDROOT
BRANCH   2   5
ATOM      5  C   UNL A   1      32.908  29.586  26.144  1.00  0.00     0.329 C 
BRANCH   5   6
ATOM      6  O   UNL A   1      31.762  28.739  26.289  1.00  0.00    -0.483 OA
BRANCH   6   7
ATOM      7  C   UNL A   1      31.201  28.229  25.138  1.00  0.00     0.127 A 
ATOM      8  C   UNL A   1      31.294  29.083  24.034  1.00  0.00     0.047 A 
ATOM      9  C   UNL A   1      30.425  27.048  25.048  1.00  0.00     0.019 A 
ATOM     10  C   UNL A   1      30.661  28.765  22.833  1.00  0.00     0.004 A 
ATOM     11  C   UNL A   1      29.799  26.741  23.830  1.00  0.00     0.012 A 
ATOM     12  C   UNL A   1      29.912  27.597  22.732  1.00  0.00     0.001 A 
BRANCH   9  13
ATOM     13  C   UNL A   1      30.244  26.079  26.136  1.00  0.00     0.048 C 
ATOM     14  C   UNL A   1      31.235  25.270  26.552  1.00  0.00     0.153 C 
ATOM     15  N   UNL A   1      32.909  25.251  25.862  1.00  0.00    -0.205 NA
ATOM     16  C   UNL A   1      30.752  23.335  26.875  1.00  0.00     0.363 C 
ATOM     17  C   UNL A   1      33.464  23.747  25.689  1.00  0.00     0.235 C 
ATOM     18  O   UNL A   1      32.289  22.464  26.249  1.00  0.00    -0.402 OA
ATOM     19  O   UNL A   1      29.864  22.828  27.540  1.00  0.00    -0.244 OA
BRANCH  17  20
ATOM     20  C   UNL A   1      34.774  23.394  25.102  1.00  0.00     0.080 A 
ATOM     21  C   UNL A   1      35.812  23.445  26.058  1.00  0.00     0.017 A 
ATOM     22  C   UNL A   1      35.077  22.974  23.800  1.00  0.00     0.138 A 
ATOM     23  C   UNL A   1      37.112  23.053  25.752  1.00  0.00     0.001 A 
ATOM     24  C   UNL A   1      36.397  22.581  23.504  1.00  0.00     0.047 A 
ATOM     25  C   UNL A   1      37.407  22.617  24.470  1.00  0.00     0.004 A 
BRANCH  22  26
ATOM     26  O   UNL A   1      34.195  22.705  22.796  1.00  0.00    -0.434 OA
BRANCH  26  27
ATOM     27  C   UNL A   1      33.616  23.793  22.084  1.00  0.00     0.542 C 
ATOM     28  F   UNL A   1      33.274  23.327  20.861  1.00  0.00    -0.167 F 
ATOM     29  F   UNL A   1      32.511  24.264  22.703  1.00  0.00    -0.167 F 
ENDBRANCH  26  27
ENDBRANCH  22  26
ENDBRANCH  17  20
ENDBRANCH   9  13
ENDBRANCH   6   7
ENDBRANCH   5   6
ENDBRANCH   2   5
BRANCH   3  30
ATOM     30  C   UNL A   1      35.336  32.348  28.848  1.00  0.00     0.116 C 
BRANCH  30  31
ATOM     31  C   UNL A   1      35.129  34.004  29.267  1.00  0.00     0.023 C 
BRANCH  31  32
ATOM     32  C   UNL A   1      33.712  34.582  29.246  1.00  0.00     0.023 C 
BRANCH  32  33
ATOM     33  C   UNL A   1      33.587  36.017  29.732  1.00  0.00     0.116 C 
BRANCH  33  34
ATOM     34  N   UNL A   1      32.517  36.199  30.695  1.00  0.00    -0.352 N 
ATOM     35  C   UNL A   1      32.484  35.718  31.982  1.00  0.00     0.251 C 
ATOM     36  H   UNL A   1      31.735  36.719  30.396  1.00  0.00     0.163 HD
ATOM     37  O   UNL A   1      31.481  35.818  32.678  1.00  0.00    -0.269 OA
BRANCH  35  38
ATOM     38  C   UNL A   1      33.689  35.040  32.502  1.00  0.00     0.039 A 
ATOM     39  C   UNL A   1      33.605  33.697  32.871  1.00  0.00     0.014 A 
ATOM     40  C   UNL A   1      34.909  35.721  32.556  1.00  0.00     0.014 A 
ATOM     41  C   UNL A   1      34.760  33.023  33.271  1.00  0.00     0.010 A 
ATOM     42  C   UNL A   1      36.068  35.029  32.895  1.00  0.00     0.010 A 
ATOM     43  C   UNL A   1      36.004  33.678  33.270  1.00  0.00    -0.014 A 
BRANCH  43  44
ATOM     44  C   UNL A   1      37.233  32.972  33.709  1.00  0.00     0.031 A 
ATOM     45  C   UNL A   1      37.850  31.923  32.823  1.00  0.00     0.074 A 
ATOM     46  C   UNL A   1      37.782  33.250  34.907  1.00  0.00     0.049 A 
ATOM     47  N   UNL A   1      38.918  31.194  33.023  1.00  0.00    -0.248 NA
ATOM     48  C   UNL A   1      37.158  31.636  31.555  1.00  0.00     0.031 C 
ATOM     49  C   UNL A   1      37.252  34.205  35.880  1.00  0.00     0.029 A 
ATOM     50  N   UNL A   1      38.914  32.757  35.507  1.00  0.00    -0.354 N 
ATOM     51  C   UNL A   1      39.017  30.360  31.917  1.00  0.00     0.074 A 
ATOM     52  C   UNL A   1      37.868  30.624  31.081  1.00  0.00     0.031 C 
ATOM     53  C   UNL A   1      38.077  34.256  36.939  1.00  0.00     0.029 A 
ATOM     54  C   UNL A   1      39.178  33.320  36.733  1.00  0.00     0.049 A 
ATOM     55  H   UNL A   1      39.483  32.066  35.098  1.00  0.00     0.167 HD
ATOM     56  C   UNL A   1      39.995  29.476  31.606  1.00  0.00     0.037 A 
ATOM     57  C   UNL A   1      40.199  33.108  37.587  1.00  0.00     0.037 A 
ATOM     58  C   UNL A   1      41.157  29.239  32.419  1.00  0.00     0.049 A 
ATOM     59  C   UNL A   1      41.280  32.130  37.213  1.00  0.00     0.074 A 
ATOM     60  C   UNL A   1      42.234  28.407  32.164  1.00  0.00     0.029 A 
ATOM     61  N   UNL A   1      41.396  29.840  33.646  1.00  0.00    -0.354 N 
ATOM     62  N   UNL A   1      41.398  31.401  36.130  1.00  0.00    -0.248 NA
ATOM     63  C   UNL A   1      42.376  31.953  38.177  1.00  0.00     0.031 C 
ATOM     64  C   UNL A   1      43.105  28.475  33.256  1.00  0.00     0.029 A 
ATOM     65  C   UNL A   1      42.595  29.384  34.168  1.00  0.00     0.049 A 
ATOM     66  H   UNL A   1      40.803  30.495  34.080  1.00  0.00     0.167 HD
ATOM     67  C   UNL A   1      42.591  30.703  36.269  1.00  0.00     0.074 A 
ATOM     68  C   UNL A   1      43.168  31.106  37.534  1.00  0.00     0.031 C 
ATOM     69  C   UNL A   1      43.157  29.806  35.426  1.00  0.00     0.037 A 
BRANCH  56  70
ATOM     70  C   UNL A   1      39.852  28.710  30.323  1.00  0.00     0.057 A 
ATOM     71  C   UNL A   1      40.449  29.146  29.132  1.00  0.00     0.134 A 
ATOM     72  C   UNL A   1      39.131  27.509  30.281  1.00  0.00     0.134 A 
ATOM     73  F   UNL A   1      41.142  30.295  29.101  1.00  0.00    -0.206 F 
ATOM     74  C   UNL A   1      40.309  28.433  27.941  1.00  0.00     0.040 A 
ATOM     75  C   UNL A   1      39.009  26.772  29.102  1.00  0.00     0.040 A 
ATOM     76  F   UNL A   1      38.538  27.032  31.386  1.00  0.00    -0.206 F 
ATOM     77  C   UNL A   1      39.593  27.239  27.925  1.00  0.00     0.006 A 
ENDBRANCH  56  70
BRANCH  57  78
ATOM     78  C   UNL A   1      40.268  33.858  38.868  1.00  0.00     0.057 A 
ATOM     79  C   UNL A   1      41.043  35.017  38.986  1.00  0.00     0.134 A 
ATOM     80  C   UNL A   1      39.577  33.426  40.006  1.00  0.00     0.134 A 
ATOM     81  F   UNL A   1      41.743  35.472  37.936  1.00  0.00    -0.206 F 
ATOM     82  C   UNL A   1      41.150  35.707  40.195  1.00  0.00     0.040 A 
ATOM     83  C   UNL A   1      39.655  34.120  41.215  1.00  0.00     0.040 A 
ATOM     84  F   UNL A   1      38.809  32.328  39.957  1.00  0.00    -0.206 F 
ATOM     85  C   UNL A   1      40.450  35.259  41.314  1.00  0.00     0.006 A 
ENDBRANCH  57  78
BRANCH  69  86
ATOM     86  C   UNL A   1      44.481  29.224  35.827  1.00  0.00     0.057 A 
ATOM     87  C   UNL A   1      44.573  28.038  36.567  1.00  0.00     0.134 A 
ATOM     88  C   UNL A   1      45.678  29.833  35.427  1.00  0.00     0.134 A 
ATOM     89  F   UNL A   1      43.464  27.413  36.990  1.00  0.00    -0.206 F 
ATOM     90  C   UNL A   1      45.809  27.490  36.913  1.00  0.00     0.040 A 
ATOM     91  C   UNL A   1      46.919  29.280  35.744  1.00  0.00     0.040 A 
ATOM     92  F   UNL A   1      45.659  30.964  34.708  1.00  0.00    -0.206 F 
ATOM     93  C   UNL A   1      46.987  28.107  36.495  1.00  0.00     0.006 A 
ENDBRANCH  69  86
ENDBRANCH  43  44
ENDBRANCH  35  38
ENDBRANCH  33  34
ENDBRANCH  32  33
ENDBRANCH  31  32
ENDBRANCH  30  31
ENDBRANCH   3  30
TORSDOF 17
ENDMDL
