MODEL 1
REMARK VINA RESULT:     -12.3      0.000      0.000
REMARK SMILES Cc1nn(C(C)C)cc1-c1cnccc1C(=O)NCCCCNC(=O)c1ccc(-c2c3nc(c(-c4c(F)cccc4F)c4ccc([nH]4)c(-c4c(F)cccc4F)c4nc(c(-c5c(F)cccc5F)c5ccc2[nH]5)C=C4)C=C3)cc1
REMARK SMILES IDX 20 1 19 2 18 3 16 4 17 5 15 7 10 8 11 9 12 10 14 11 13 12
REMARK SMILES IDX 9 13 1 14 2 15 3 16 4 17 8 18 5 19 6 20 7 21 21 22 22 23
REMARK SMILES IDX 23 24 24 25 25 27 26 28 27 29 79 30 28 31 78 32 29 33 30 34
REMARK SMILES IDX 31 35 72 36 32 37 77 38 71 39 73 40 33 41 76 42 70 43 69 44
REMARK SMILES IDX 34 46 60 47 43 48 59 49 44 50 47 51 58 52 74 53 45 54 46 55
REMARK SMILES IDX 57 57 75 58 48 59 35 60 36 61 41 62 37 63 38 64 40 65 42 66
REMARK SMILES IDX 39 67 61 68 62 69 67 70 63 71 64 72 66 73 68 74 65 75 49 76
REMARK SMILES IDX 50 77 55 78 51 79 52 80 54 81 56 82 53 83
REMARK H PARENT 18 6 23 26 73 45 47 56
REMARK Flexibility Score: inf
ROOT
ATOM      1  C   UNL A   1      39.558  21.973  26.228  1.00  0.00     0.023 C 
ENDROOT
BRANCH   1   2
ATOM      2  C   UNL A   1      38.060  22.124  25.966  1.00  0.00     0.116 C 
BRANCH   2   3
ATOM      3  N   UNL A   1      37.641  22.295  24.602  1.00  0.00    -0.352 N 
ATOM      4  C   UNL A   1      36.492  22.788  24.032  1.00  0.00     0.252 C 
ATOM      5  O   UNL A   1      36.564  22.862  22.796  1.00  0.00    -0.269 OA
ATOM      6  H   UNL A   1      38.313  22.002  23.945  1.00  0.00     0.163 HD
BRANCH   4   7
ATOM      7  C   UNL A   1      35.179  23.211  24.669  1.00  0.00     0.050 A 
ATOM      8  C   UNL A   1      34.016  22.518  25.062  1.00  0.00     0.016 A 
ATOM      9  C   UNL A   1      33.014  23.258  25.726  1.00  0.00     0.120 A 
ATOM     10  N   UNL A   1      33.030  24.583  25.982  1.00  0.00    -0.264 NA
ATOM     11  C   UNL A   1      35.180  24.610  24.936  1.00  0.00     0.034 A 
ATOM     12  C   UNL A   1      34.115  25.239  25.562  1.00  0.00     0.112 A 
BRANCH   8  13
ATOM     13  C   UNL A   1      33.586  21.170  24.751  1.00  0.00     0.025 A 
ATOM     14  C   UNL A   1      32.163  21.570  22.571  1.00  0.00     0.069 C 
ATOM     15  C   UNL A   1      32.732  20.765  23.680  1.00  0.00     0.067 A 
ATOM     16  N   UNL A   1      32.489  19.458  23.716  1.00  0.00    -0.177 NA
ATOM     17  N   UNL A   1      33.313  18.992  24.667  1.00  0.00    -0.269 N 
ATOM     18  C   UNL A   1      33.846  20.003  25.444  1.00  0.00     0.118 A 
BRANCH  17  19
ATOM     19  C   UNL A   1      33.833  17.634  24.526  1.00  0.00     0.101 C 
ATOM     20  C   UNL A   1      33.194  16.634  25.479  1.00  0.00     0.033 C 
ATOM     21  C   UNL A   1      33.770  17.115  23.081  1.00  0.00     0.033 C 
ENDBRANCH  17  19
ENDBRANCH   8  13
ENDBRANCH   4   7
ENDBRANCH   2   3
ENDBRANCH   1   2
BRANCH   1  22
ATOM     22  C   UNL A   1      40.225  20.600  26.084  1.00  0.00     0.023 C 
BRANCH  22  23
ATOM     23  C   UNL A   1      41.557  20.383  26.798  1.00  0.00     0.116 C 
BRANCH  23  24
ATOM     24  N   UNL A   1      42.582  19.660  26.038  1.00  0.00    -0.352 N 
ATOM     25  C   UNL A   1      43.596  20.189  25.232  1.00  0.00     0.251 C 
ATOM     26  H   UNL A   1      42.554  18.678  26.103  1.00  0.00     0.163 HD
ATOM     27  O   UNL A   1      44.196  19.505  24.431  1.00  0.00    -0.269 OA
BRANCH  25  28
ATOM     28  C   UNL A   1      43.926  21.624  25.375  1.00  0.00     0.039 A 
ATOM     29  C   UNL A   1      43.292  22.604  24.612  1.00  0.00     0.014 A 
ATOM     30  C   UNL A   1      44.786  21.978  26.405  1.00  0.00     0.014 A 
ATOM     31  C   UNL A   1      43.383  23.929  25.035  1.00  0.00     0.010 A 
ATOM     32  C   UNL A   1      44.723  23.235  26.930  1.00  0.00     0.010 A 
ATOM     33  C   UNL A   1      44.029  24.219  26.249  1.00  0.00    -0.014 A 
BRANCH  33  34
ATOM     34  C   UNL A   1      43.762  25.460  26.963  1.00  0.00     0.031 A 
ATOM     35  C   UNL A   1      44.727  26.538  26.619  1.00  0.00     0.074 A 
ATOM     36  C   UNL A   1      42.628  25.727  27.641  1.00  0.00     0.049 A 
ATOM     37  N   UNL A   1      45.777  26.877  27.289  1.00  0.00    -0.248 NA
ATOM     38  C   UNL A   1      44.657  27.154  25.283  1.00  0.00     0.031 C 
ATOM     39  C   UNL A   1      41.415  24.907  27.762  1.00  0.00     0.029 A 
ATOM     40  N   UNL A   1      42.300  26.852  28.333  1.00  0.00    -0.354 N 
ATOM     41  C   UNL A   1      46.342  27.939  26.589  1.00  0.00     0.074 A 
ATOM     42  C   UNL A   1      45.779  27.881  25.269  1.00  0.00     0.031 C 
ATOM     43  C   UNL A   1      40.420  25.637  28.312  1.00  0.00     0.029 A 
ATOM     44  C   UNL A   1      40.980  26.896  28.764  1.00  0.00     0.049 A 
ATOM     45  H   UNL A   1      42.944  27.575  28.513  1.00  0.00     0.167 HD
ATOM     46  C   UNL A   1      46.954  28.952  27.265  1.00  0.00     0.037 A 
ATOM     47  C   UNL A   1      40.399  27.882  29.485  1.00  0.00     0.037 A 
ATOM     48  C   UNL A   1      47.104  28.590  28.658  1.00  0.00     0.049 A 
ATOM     49  C   UNL A   1      41.485  28.611  30.176  1.00  0.00     0.074 A 
ATOM     50  C   UNL A   1      47.867  27.703  29.385  1.00  0.00     0.029 A 
ATOM     51  N   UNL A   1      46.022  28.928  29.431  1.00  0.00    -0.354 N 
ATOM     52  N   UNL A   1      42.225  28.076  31.108  1.00  0.00    -0.248 NA
ATOM     53  C   UNL A   1      42.023  29.825  29.575  1.00  0.00     0.031 C 
ATOM     54  C   UNL A   1      47.071  27.339  30.514  1.00  0.00     0.029 A 
ATOM     55  C   UNL A   1      45.875  28.055  30.476  1.00  0.00     0.049 A 
ATOM     56  H   UNL A   1      45.429  29.694  29.258  1.00  0.00     0.167 HD
ATOM     57  C   UNL A   1      43.483  28.612  30.900  1.00  0.00     0.074 A 
ATOM     58  C   UNL A   1      43.259  29.799  30.083  1.00  0.00     0.031 C 
ATOM     59  C   UNL A   1      44.603  27.871  31.142  1.00  0.00     0.037 A 
BRANCH  46  60
ATOM     60  C   UNL A   1      46.957  30.413  26.856  1.00  0.00     0.057 A 
ATOM     61  C   UNL A   1      48.169  31.132  26.932  1.00  0.00     0.134 A 
ATOM     62  C   UNL A   1      45.810  31.216  26.691  1.00  0.00     0.134 A 
ATOM     63  F   UNL A   1      49.339  30.492  27.086  1.00  0.00    -0.206 F 
ATOM     64  C   UNL A   1      48.221  32.531  26.938  1.00  0.00     0.040 A 
ATOM     65  C   UNL A   1      45.857  32.614  26.649  1.00  0.00     0.040 A 
ATOM     66  F   UNL A   1      44.572  30.713  26.660  1.00  0.00    -0.206 F 
ATOM     67  C   UNL A   1      47.060  33.279  26.808  1.00  0.00     0.006 A 
ENDBRANCH  46  60
BRANCH  47  68
ATOM     68  C   UNL A   1      39.001  28.352  29.485  1.00  0.00     0.057 A 
ATOM     69  C   UNL A   1      38.239  28.387  30.660  1.00  0.00     0.134 A 
ATOM     70  C   UNL A   1      38.487  29.057  28.386  1.00  0.00     0.134 A 
ATOM     71  F   UNL A   1      38.668  27.764  31.768  1.00  0.00    -0.206 F 
ATOM     72  C   UNL A   1      37.048  29.119  30.750  1.00  0.00     0.040 A 
ATOM     73  C   UNL A   1      37.300  29.794  28.461  1.00  0.00     0.040 A 
ATOM     74  F   UNL A   1      39.173  29.130  27.235  1.00  0.00    -0.206 F 
ATOM     75  C   UNL A   1      36.585  29.840  29.653  1.00  0.00     0.006 A 
ENDBRANCH  47  68
BRANCH  59  76
ATOM     76  C   UNL A   1      44.451  26.684  32.049  1.00  0.00     0.057 A 
ATOM     77  C   UNL A   1      44.371  25.352  31.619  1.00  0.00     0.134 A 
ATOM     78  C   UNL A   1      44.468  26.902  33.430  1.00  0.00     0.134 A 
ATOM     79  F   UNL A   1      44.422  25.038  30.320  1.00  0.00    -0.206 F 
ATOM     80  C   UNL A   1      44.273  24.290  32.522  1.00  0.00     0.040 A 
ATOM     81  C   UNL A   1      44.401  25.849  34.344  1.00  0.00     0.040 A 
ATOM     82  F   UNL A   1      44.585  28.148  33.915  1.00  0.00    -0.206 F 
ATOM     83  C   UNL A   1      44.292  24.537  33.891  1.00  0.00     0.006 A 
ENDBRANCH  59  76
ENDBRANCH  33  34
ENDBRANCH  25  28
ENDBRANCH  23  24
ENDBRANCH  22  23
ENDBRANCH   1  22
TORSDOF 13
ENDMDL
MODEL 2
REMARK VINA RESULT:     -11.8      3.737      7.974
REMARK SMILES Cc1nn(C(C)C)cc1-c1cnccc1C(=O)NCCCCNC(=O)c1ccc(-c2c3nc(c(-c4c(F)cccc4F)c4ccc([nH]4)c(-c4c(F)cccc4F)c4nc(c(-c5c(F)cccc5F)c5ccc2[nH]5)C=C4)C=C3)cc1
REMARK SMILES IDX 20 1 19 2 18 3 16 4 17 5 15 7 10 8 11 9 12 10 14 11 13 12
REMARK SMILES IDX 9 13 1 14 2 15 3 16 4 17 8 18 5 19 6 20 7 21 21 22 22 23
REMARK SMILES IDX 23 24 24 25 25 27 26 28 27 29 79 30 28 31 78 32 29 33 30 34
REMARK SMILES IDX 31 35 72 36 32 37 77 38 71 39 73 40 33 41 76 42 70 43 69 44
REMARK SMILES IDX 34 46 60 47 43 48 59 49 44 50 47 51 58 52 74 53 45 54 46 55
REMARK SMILES IDX 57 57 75 58 48 59 35 60 36 61 41 62 37 63 38 64 40 65 42 66
REMARK SMILES IDX 39 67 61 68 62 69 67 70 63 71 64 72 66 73 68 74 65 75 49 76
REMARK SMILES IDX 50 77 55 78 51 79 52 80 54 81 56 82 53 83
REMARK H PARENT 18 6 23 26 73 45 47 56
REMARK Flexibility Score: inf
ROOT
ATOM      1  C   UNL A   1      32.920  28.995  26.912  1.00  0.00     0.023 C 
ENDROOT
BRANCH   1   2
ATOM      2  C   UNL A   1      32.707  29.876  25.681  1.00  0.00     0.116 C 
BRANCH   2   3
ATOM      3  N   UNL A   1      33.555  29.642  24.546  1.00  0.00    -0.352 N 
ATOM      4  C   UNL A   1      33.575  28.664  23.580  1.00  0.00     0.252 C 
ATOM      5  O   UNL A   1      34.421  28.879  22.698  1.00  0.00    -0.269 OA
ATOM      6  H   UNL A   1      34.263  30.317  24.437  1.00  0.00     0.163 HD
BRANCH   4   7
ATOM      7  C   UNL A   1      32.764  27.386  23.456  1.00  0.00     0.050 A 
ATOM      8  C   UNL A   1      31.446  27.101  23.043  1.00  0.00     0.016 A 
ATOM      9  C   UNL A   1      31.070  25.742  22.968  1.00  0.00     0.120 A 
ATOM     10  N   UNL A   1      31.830  24.679  23.303  1.00  0.00    -0.264 NA
ATOM     11  C   UNL A   1      33.553  26.255  23.815  1.00  0.00     0.034 A 
ATOM     12  C   UNL A   1      33.060  24.962  23.738  1.00  0.00     0.112 A 
BRANCH   8  13
ATOM     13  C   UNL A   1      30.325  27.993  22.830  1.00  0.00     0.025 A 
ATOM     14  C   UNL A   1      28.370  26.650  23.974  1.00  0.00     0.069 C 
ATOM     15  C   UNL A   1      28.964  27.768  23.200  1.00  0.00     0.067 A 
ATOM     16  N   UNL A   1      28.177  28.764  22.802  1.00  0.00    -0.177 NA
ATOM     17  N   UNL A   1      29.028  29.701  22.357  1.00  0.00    -0.269 N 
ATOM     18  C   UNL A   1      30.306  29.210  22.174  1.00  0.00     0.118 A 
BRANCH  17  19
ATOM     19  C   UNL A   1      28.644  31.104  22.495  1.00  0.00     0.101 C 
ATOM     20  C   UNL A   1      28.148  31.732  21.201  1.00  0.00     0.033 C 
ATOM     21  C   UNL A   1      27.635  31.340  23.630  1.00  0.00     0.033 C 
ENDBRANCH  17  19
ENDBRANCH   8  13
ENDBRANCH   4   7
ENDBRANCH   2   3
ENDBRANCH   1   2
BRANCH   1  22
ATOM     22  C   UNL A   1      34.338  28.753  27.444  1.00  0.00     0.023 C 
BRANCH  22  23
ATOM     23  C   UNL A   1      35.210  29.978  27.712  1.00  0.00     0.116 C 
BRANCH  23  24
ATOM     24  N   UNL A   1      35.564  30.218  29.114  1.00  0.00    -0.352 N 
ATOM     25  C   UNL A   1      36.602  29.643  29.856  1.00  0.00     0.251 C 
ATOM     26  H   UNL A   1      35.001  30.866  29.596  1.00  0.00     0.163 HD
ATOM     27  O   UNL A   1      36.623  29.692  31.067  1.00  0.00    -0.269 OA
BRANCH  25  28
ATOM     28  C   UNL A   1      37.689  28.960  29.122  1.00  0.00     0.039 A 
ATOM     29  C   UNL A   1      38.293  29.532  28.003  1.00  0.00     0.014 A 
ATOM     30  C   UNL A   1      38.191  27.790  29.675  1.00  0.00     0.014 A 
ATOM     31  C   UNL A   1      39.519  29.020  27.582  1.00  0.00     0.010 A 
ATOM     32  C   UNL A   1      39.469  27.409  29.392  1.00  0.00     0.010 A 
ATOM     33  C   UNL A   1      40.140  28.014  28.343  1.00  0.00    -0.014 A 
BRANCH  33  34
ATOM     34  C   UNL A   1      41.573  27.774  28.243  1.00  0.00     0.031 A 
ATOM     35  C   UNL A   1      41.896  26.543  27.475  1.00  0.00     0.074 A 
ATOM     36  C   UNL A   1      42.525  28.678  28.549  1.00  0.00     0.049 A 
ATOM     37  N   UNL A   1      42.167  25.378  27.961  1.00  0.00    -0.248 NA
ATOM     38  C   UNL A   1      41.674  26.535  26.018  1.00  0.00     0.031 C 
ATOM     39  C   UNL A   1      42.364  30.077  28.965  1.00  0.00     0.029 A 
ATOM     40  N   UNL A   1      43.878  28.537  28.487  1.00  0.00    -0.354 N 
ATOM     41  C   UNL A   1      42.420  24.563  26.862  1.00  0.00     0.074 A 
ATOM     42  C   UNL A   1      41.852  25.242  25.732  1.00  0.00     0.031 C 
ATOM     43  C   UNL A   1      43.558  30.708  28.929  1.00  0.00     0.029 A 
ATOM     44  C   UNL A   1      44.587  29.714  28.686  1.00  0.00     0.049 A 
ATOM     45  H   UNL A   1      44.317  27.672  28.314  1.00  0.00     0.167 HD
ATOM     46  C   UNL A   1      43.362  23.580  26.944  1.00  0.00     0.037 A 
ATOM     47  C   UNL A   1      45.932  29.854  28.697  1.00  0.00     0.037 A 
ATOM     48  C   UNL A   1      43.783  23.421  28.319  1.00  0.00     0.049 A 
ATOM     49  C   UNL A   1      46.504  28.522  28.994  1.00  0.00     0.074 A 
ATOM     50  C   UNL A   1      43.234  22.932  29.484  1.00  0.00     0.029 A 
ATOM     51  N   UNL A   1      44.825  24.243  28.671  1.00  0.00    -0.354 N 
ATOM     52  N   UNL A   1      46.345  27.915  30.138  1.00  0.00    -0.248 NA
ATOM     53  C   UNL A   1      46.937  27.671  27.893  1.00  0.00     0.031 C 
ATOM     54  C   UNL A   1      43.830  23.686  30.541  1.00  0.00     0.029 A 
ATOM     55  C   UNL A   1      44.764  24.569  29.999  1.00  0.00     0.049 A 
ATOM     56  H   UNL A   1      45.522  24.558  28.052  1.00  0.00     0.167 HD
ATOM     57  C   UNL A   1      46.225  26.579  29.806  1.00  0.00     0.074 A 
ATOM     58  C   UNL A   1      46.776  26.471  28.460  1.00  0.00     0.031 C 
ATOM     59  C   UNL A   1      45.408  25.755  30.524  1.00  0.00     0.037 A 
BRANCH  46  60
ATOM     60  C   UNL A   1      44.268  23.127  25.815  1.00  0.00     0.057 A 
ATOM     61  C   UNL A   1      44.386  21.745  25.559  1.00  0.00     0.134 A 
ATOM     62  C   UNL A   1      45.243  23.925  25.182  1.00  0.00     0.134 A 
ATOM     63  F   UNL A   1      43.521  20.870  26.096  1.00  0.00    -0.206 F 
ATOM     64  C   UNL A   1      45.440  21.199  24.815  1.00  0.00     0.040 A 
ATOM     65  C   UNL A   1      46.273  23.393  24.399  1.00  0.00     0.040 A 
ATOM     66  F   UNL A   1      45.324  25.247  25.359  1.00  0.00    -0.206 F 
ATOM     67  C   UNL A   1      46.396  22.023  24.240  1.00  0.00     0.006 A 
ENDBRANCH  46  60
BRANCH  47  68
ATOM     68  C   UNL A   1      46.764  31.005  28.299  1.00  0.00     0.057 A 
ATOM     69  C   UNL A   1      46.809  31.455  26.973  1.00  0.00     0.134 A 
ATOM     70  C   UNL A   1      47.295  31.870  29.270  1.00  0.00     0.134 A 
ATOM     71  F   UNL A   1      46.299  30.706  25.983  1.00  0.00    -0.206 F 
ATOM     72  C   UNL A   1      47.317  32.714  26.634  1.00  0.00     0.040 A 
ATOM     73  C   UNL A   1      47.804  33.132  28.946  1.00  0.00     0.040 A 
ATOM     74  F   UNL A   1      47.245  31.552  30.572  1.00  0.00    -0.206 F 
ATOM     75  C   UNL A   1      47.800  33.565  27.624  1.00  0.00     0.006 A 
ENDBRANCH  47  68
BRANCH  59  76
ATOM     76  C   UNL A   1      45.031  26.204  31.906  1.00  0.00     0.057 A 
ATOM     77  C   UNL A   1      43.854  26.891  32.232  1.00  0.00     0.134 A 
ATOM     78  C   UNL A   1      45.870  25.851  32.967  1.00  0.00     0.134 A 
ATOM     79  F   UNL A   1      42.953  27.208  31.295  1.00  0.00    -0.206 F 
ATOM     80  C   UNL A   1      43.546  27.244  33.549  1.00  0.00     0.040 A 
ATOM     81  C   UNL A   1      45.562  26.170  34.290  1.00  0.00     0.040 A 
ATOM     82  F   UNL A   1      46.995  25.156  32.734  1.00  0.00    -0.206 F 
ATOM     83  C   UNL A   1      44.400  26.878  34.585  1.00  0.00     0.006 A 
ENDBRANCH  59  76
ENDBRANCH  33  34
ENDBRANCH  25  28
ENDBRANCH  23  24
ENDBRANCH  22  23
ENDBRANCH   1  22
TORSDOF 13
ENDMDL
MODEL 3
REMARK VINA RESULT:     -11.8      3.159      7.271
REMARK SMILES Cc1nn(C(C)C)cc1-c1cnccc1C(=O)NCCCCNC(=O)c1ccc(-c2c3nc(c(-c4c(F)cccc4F)c4ccc([nH]4)c(-c4c(F)cccc4F)c4nc(c(-c5c(F)cccc5F)c5ccc2[nH]5)C=C4)C=C3)cc1
REMARK SMILES IDX 20 1 19 2 18 3 16 4 17 5 15 7 10 8 11 9 12 10 14 11 13 12
REMARK SMILES IDX 9 13 1 14 2 15 3 16 4 17 8 18 5 19 6 20 7 21 21 22 22 23
REMARK SMILES IDX 23 24 24 25 25 27 26 28 27 29 79 30 28 31 78 32 29 33 30 34
REMARK SMILES IDX 31 35 72 36 32 37 77 38 71 39 73 40 33 41 76 42 70 43 69 44
REMARK SMILES IDX 34 46 60 47 43 48 59 49 44 50 47 51 58 52 74 53 45 54 46 55
REMARK SMILES IDX 57 57 75 58 48 59 35 60 36 61 41 62 37 63 38 64 40 65 42 66
REMARK SMILES IDX 39 67 61 68 62 69 67 70 63 71 64 72 66 73 68 74 65 75 49 76
REMARK SMILES IDX 50 77 55 78 51 79 52 80 54 81 56 82 53 83
REMARK H PARENT 18 6 23 26 73 45 47 56
REMARK Flexibility Score: inf
ROOT
ATOM      1  C   UNL A   1      32.543  29.567  27.176  1.00  0.00     0.023 C 
ENDROOT
BRANCH   1   2
ATOM      2  C   UNL A   1      32.651  28.048  27.305  1.00  0.00     0.116 C 
BRANCH   2   3
ATOM      3  N   UNL A   1      31.443  27.285  27.161  1.00  0.00    -0.352 N 
ATOM      4  C   UNL A   1      30.986  26.434  26.182  1.00  0.00     0.252 C 
ATOM      5  O   UNL A   1      29.915  25.885  26.486  1.00  0.00    -0.269 OA
ATOM      6  H   UNL A   1      30.817  27.392  27.913  1.00  0.00     0.163 HD
BRANCH   4   7
ATOM      7  C   UNL A   1      31.563  26.103  24.817  1.00  0.00     0.050 A 
ATOM      8  C   UNL A   1      32.584  25.238  24.371  1.00  0.00     0.016 A 
ATOM      9  C   UNL A   1      32.773  25.126  22.976  1.00  0.00     0.120 A 
ATOM     10  N   UNL A   1      32.110  25.805  22.018  1.00  0.00    -0.264 NA
ATOM     11  C   UNL A   1      30.876  26.820  23.796  1.00  0.00     0.034 A 
ATOM     12  C   UNL A   1      31.178  26.656  22.453  1.00  0.00     0.112 A 
BRANCH   8  13
ATOM     13  C   UNL A   1      33.610  24.545  25.122  1.00  0.00     0.025 A 
ATOM     14  C   UNL A   1      32.161  22.905  26.587  1.00  0.00     0.069 C 
ATOM     15  C   UNL A   1      33.415  23.552  26.130  1.00  0.00     0.067 A 
ATOM     16  N   UNL A   1      34.571  23.164  26.663  1.00  0.00    -0.177 NA
ATOM     17  N   UNL A   1      35.503  23.744  25.893  1.00  0.00    -0.269 N 
ATOM     18  C   UNL A   1      34.979  24.731  25.082  1.00  0.00     0.118 A 
BRANCH  17  19
ATOM     19  C   UNL A   1      36.778  23.052  25.713  1.00  0.00     0.101 C 
ATOM     20  C   UNL A   1      37.001  22.542  24.297  1.00  0.00     0.033 C 
ATOM     21  C   UNL A   1      37.982  23.885  26.180  1.00  0.00     0.033 C 
ENDBRANCH  17  19
ENDBRANCH   8  13
ENDBRANCH   4   7
ENDBRANCH   2   3
ENDBRANCH   1   2
BRANCH   1  22
ATOM     22  C   UNL A   1      33.809  30.431  27.224  1.00  0.00     0.023 C 
BRANCH  22  23
ATOM     23  C   UNL A   1      35.078  29.793  27.785  1.00  0.00     0.116 C 
BRANCH  23  24
ATOM     24  N   UNL A   1      35.531  30.301  29.084  1.00  0.00    -0.352 N 
ATOM     25  C   UNL A   1      36.655  29.912  29.820  1.00  0.00     0.251 C 
ATOM     26  H   UNL A   1      34.974  31.004  29.490  1.00  0.00     0.163 HD
ATOM     27  O   UNL A   1      36.773  30.184  30.996  1.00  0.00    -0.269 OA
BRANCH  25  28
ATOM     28  C   UNL A   1      37.715  29.149  29.126  1.00  0.00     0.039 A 
ATOM     29  C   UNL A   1      38.291  29.602  27.940  1.00  0.00     0.014 A 
ATOM     30  C   UNL A   1      38.223  28.033  29.777  1.00  0.00     0.014 A 
ATOM     31  C   UNL A   1      39.500  29.038  27.537  1.00  0.00     0.010 A 
ATOM     32  C   UNL A   1      39.490  27.612  29.496  1.00  0.00     0.010 A 
ATOM     33  C   UNL A   1      40.134  28.104  28.375  1.00  0.00    -0.014 A 
BRANCH  33  34
ATOM     34  C   UNL A   1      41.562  27.840  28.258  1.00  0.00     0.031 A 
ATOM     35  C   UNL A   1      41.855  26.605  27.485  1.00  0.00     0.074 A 
ATOM     36  C   UNL A   1      42.533  28.727  28.554  1.00  0.00     0.049 A 
ATOM     37  N   UNL A   1      42.111  25.435  27.967  1.00  0.00    -0.248 NA
ATOM     38  C   UNL A   1      41.617  26.603  26.031  1.00  0.00     0.031 C 
ATOM     39  C   UNL A   1      42.401  30.128  28.975  1.00  0.00     0.029 A 
ATOM     40  N   UNL A   1      43.882  28.563  28.477  1.00  0.00    -0.354 N 
ATOM     41  C   UNL A   1      42.338  24.617  26.864  1.00  0.00     0.074 A 
ATOM     42  C   UNL A   1      41.769  25.308  25.741  1.00  0.00     0.031 C 
ATOM     43  C   UNL A   1      43.605  30.738  28.926  1.00  0.00     0.029 A 
ATOM     44  C   UNL A   1      44.614  29.728  28.670  1.00  0.00     0.049 A 
ATOM     45  H   UNL A   1      44.304  27.691  28.299  1.00  0.00     0.167 HD
ATOM     46  C   UNL A   1      43.263  23.618  26.934  1.00  0.00     0.037 A 
ATOM     47  C   UNL A   1      45.961  29.844  28.666  1.00  0.00     0.037 A 
ATOM     48  C   UNL A   1      43.698  23.450  28.304  1.00  0.00     0.049 A 
ATOM     49  C   UNL A   1      46.513  28.503  28.955  1.00  0.00     0.074 A 
ATOM     50  C   UNL A   1      43.154  22.969  29.475  1.00  0.00     0.029 A 
ATOM     51  N   UNL A   1      44.757  24.253  28.645  1.00  0.00    -0.354 N 
ATOM     52  N   UNL A   1      46.357  27.897  30.100  1.00  0.00    -0.248 NA
ATOM     53  C   UNL A   1      46.919  27.646  27.848  1.00  0.00     0.031 C 
ATOM     54  C   UNL A   1      43.774  23.711  30.526  1.00  0.00     0.029 A 
ATOM     55  C   UNL A   1      44.717  24.578  29.974  1.00  0.00     0.049 A 
ATOM     56  H   UNL A   1      45.453  24.557  28.019  1.00  0.00     0.167 HD
ATOM     57  C   UNL A   1      46.210  26.563  29.768  1.00  0.00     0.074 A 
ATOM     58  C   UNL A   1      46.744  26.448  28.415  1.00  0.00     0.031 C 
ATOM     59  C   UNL A   1      45.387  25.752  30.493  1.00  0.00     0.037 A 
BRANCH  46  60
ATOM     60  C   UNL A   1      44.149  23.151  25.794  1.00  0.00     0.057 A 
ATOM     61  C   UNL A   1      44.246  21.767  25.540  1.00  0.00     0.134 A 
ATOM     62  C   UNL A   1      45.126  23.935  25.147  1.00  0.00     0.134 A 
ATOM     63  F   UNL A   1      43.377  20.904  26.090  1.00  0.00    -0.206 F 
ATOM     64  C   UNL A   1      45.283  21.206  24.783  1.00  0.00     0.040 A 
ATOM     65  C   UNL A   1      46.139  23.389  24.351  1.00  0.00     0.040 A 
ATOM     66  F   UNL A   1      45.226  25.257  25.320  1.00  0.00    -0.206 F 
ATOM     67  C   UNL A   1      46.243  22.018  24.194  1.00  0.00     0.006 A 
ENDBRANCH  46  60
BRANCH  47  68
ATOM     68  C   UNL A   1      46.808  30.981  28.260  1.00  0.00     0.057 A 
ATOM     69  C   UNL A   1      46.782  31.487  26.954  1.00  0.00     0.134 A 
ATOM     70  C   UNL A   1      47.435  31.784  29.227  1.00  0.00     0.134 A 
ATOM     71  F   UNL A   1      46.179  30.800  25.971  1.00  0.00    -0.206 F 
ATOM     72  C   UNL A   1      47.314  32.742  26.633  1.00  0.00     0.040 A 
ATOM     73  C   UNL A   1      47.969  33.040  28.922  1.00  0.00     0.040 A 
ATOM     74  F   UNL A   1      47.460  31.412  30.516  1.00  0.00    -0.206 F 
ATOM     75  C   UNL A   1      47.894  33.530  27.622  1.00  0.00     0.006 A 
ENDBRANCH  47  68
BRANCH  59  76
ATOM     76  C   UNL A   1      45.034  26.206  31.880  1.00  0.00     0.057 A 
ATOM     77  C   UNL A   1      43.857  26.885  32.226  1.00  0.00     0.134 A 
ATOM     78  C   UNL A   1      45.896  25.865  32.926  1.00  0.00     0.134 A 
ATOM     79  F   UNL A   1      42.936  27.190  31.305  1.00  0.00    -0.206 F 
ATOM     80  C   UNL A   1      43.572  27.242  33.547  1.00  0.00     0.040 A 
ATOM     81  C   UNL A   1      45.611  26.189  34.253  1.00  0.00     0.040 A 
ATOM     82  F   UNL A   1      47.022  25.178  32.675  1.00  0.00    -0.206 F 
ATOM     83  C   UNL A   1      44.449  26.889  34.567  1.00  0.00     0.006 A 
ENDBRANCH  59  76
ENDBRANCH  33  34
ENDBRANCH  25  28
ENDBRANCH  23  24
ENDBRANCH  22  23
ENDBRANCH   1  22
TORSDOF 13
ENDMDL
