MODEL 1
REMARK VINA RESULT:     -12.4      0.000      0.000
REMARK SMILES O=C(NCCCCNC(=O)c1ccc2c(=O)[nH]c(N3CC[NH2+]CC3)nc2c1)c1ccc(-c2c3nc(c(-c4c(F)cccc4F)c4ccc([nH]4)c(-c4c(F)cccc4F)c4nc(c(-c5c(F)cccc5F)c5ccc2[nH]5)C=C4)C=C3)cc1
REMARK SMILES IDX 5 1 4 2 3 3 1 4 2 5 28 7 29 8 81 9 30 10 80 11 31 12 32 13
REMARK SMILES IDX 33 14 74 15 34 16 79 17 73 18 75 19 35 20 78 21 72 22 71 23
REMARK SMILES IDX 36 25 62 26 45 27 61 28 46 29 49 30 60 31 76 32 47 33 48 34
REMARK SMILES IDX 59 36 77 37 50 38 37 39 38 40 43 41 39 42 40 43 42 44 44 45
REMARK SMILES IDX 41 46 63 47 64 48 69 49 65 50 66 51 68 52 70 53 67 54 51 55
REMARK SMILES IDX 52 56 57 57 53 58 54 59 56 60 58 61 55 62 6 63 7 64 8 65
REMARK SMILES IDX 9 66 10 68 11 69 12 70 27 71 13 72 26 73 14 74 25 75 15 76
REMARK SMILES IDX 18 77 16 78 17 79 19 81 20 82 24 83 21 84 23 85 22 86
REMARK H PARENT 3 6 75 24 49 35 8 67 17 80 22 87 22 88
REMARK Flexibility Score: inf
ROOT
ATOM      1  C   UNL A   1      37.579  19.664  24.966  1.00  0.00     0.023 C 
ENDROOT
BRANCH   1   2
ATOM      2  C   UNL A   1      38.793  20.191  25.719  1.00  0.00     0.116 C 
BRANCH   2   3
ATOM      3  N   UNL A   1      39.895  19.243  25.747  1.00  0.00    -0.352 N 
ATOM      4  O   UNL A   1      42.050  18.583  25.876  1.00  0.00    -0.269 OA
ATOM      5  C   UNL A   1      41.218  19.468  26.042  1.00  0.00     0.251 C 
ATOM      6  H   UNL A   1      39.662  18.314  25.522  1.00  0.00     0.163 HD
BRANCH   5   7
ATOM      7  C   UNL A   1      41.636  20.794  26.542  1.00  0.00     0.039 A 
ATOM      8  C   UNL A   1      42.016  21.801  25.651  1.00  0.00     0.014 A 
ATOM      9  C   UNL A   1      41.635  21.033  27.918  1.00  0.00     0.014 A 
ATOM     10  C   UNL A   1      42.504  23.007  26.139  1.00  0.00     0.010 A 
ATOM     11  C   UNL A   1      42.051  22.274  28.405  1.00  0.00     0.010 A 
ATOM     12  C   UNL A   1      42.502  23.265  27.519  1.00  0.00    -0.014 A 
BRANCH  12  13
ATOM     13  C   UNL A   1      42.858  24.618  28.008  1.00  0.00     0.031 A 
ATOM     14  C   UNL A   1      41.807  25.650  28.291  1.00  0.00     0.074 A 
ATOM     15  C   UNL A   1      44.163  24.908  28.174  1.00  0.00     0.049 A 
ATOM     16  N   UNL A   1      41.960  26.890  28.681  1.00  0.00    -0.248 NA
ATOM     17  C   UNL A   1      40.404  25.246  28.111  1.00  0.00     0.031 C 
ATOM     18  C   UNL A   1      45.270  23.984  27.906  1.00  0.00     0.029 A 
ATOM     19  N   UNL A   1      44.784  26.054  28.598  1.00  0.00    -0.354 N 
ATOM     20  C   UNL A   1      40.681  27.423  28.769  1.00  0.00     0.074 A 
ATOM     21  C   UNL A   1      39.760  26.375  28.384  1.00  0.00     0.031 C 
ATOM     22  C   UNL A   1      46.431  24.594  28.188  1.00  0.00     0.029 A 
ATOM     23  C   UNL A   1      46.155  25.966  28.592  1.00  0.00     0.049 A 
ATOM     24  H   UNL A   1      44.295  26.861  28.879  1.00  0.00     0.167 HD
ATOM     25  C   UNL A   1      40.318  28.674  29.141  1.00  0.00     0.037 A 
ATOM     26  C   UNL A   1      47.090  26.898  28.847  1.00  0.00     0.037 A 
ATOM     27  C   UNL A   1      41.243  29.700  29.548  1.00  0.00     0.049 A 
ATOM     28  C   UNL A   1      46.654  28.283  29.222  1.00  0.00     0.074 A 
ATOM     29  C   UNL A   1      40.966  30.967  30.031  1.00  0.00     0.029 A 
ATOM     30  N   UNL A   1      42.624  29.581  29.508  1.00  0.00    -0.354 N 
ATOM     31  N   UNL A   1      45.439  28.750  29.374  1.00  0.00    -0.248 NA
ATOM     32  C   UNL A   1      47.714  29.272  29.451  1.00  0.00     0.031 C 
ATOM     33  C   UNL A   1      42.178  31.635  30.229  1.00  0.00     0.029 A 
ATOM     34  C   UNL A   1      43.212  30.769  29.912  1.00  0.00     0.049 A 
ATOM     35  H   UNL A   1      43.115  28.774  29.232  1.00  0.00     0.167 HD
ATOM     36  C   UNL A   1      45.587  30.084  29.720  1.00  0.00     0.074 A 
ATOM     37  C   UNL A   1      47.011  30.345  29.783  1.00  0.00     0.031 C 
ATOM     38  C   UNL A   1      44.630  31.013  29.959  1.00  0.00     0.037 A 
BRANCH  25  39
ATOM     39  C   UNL A   1      38.860  29.026  29.113  1.00  0.00     0.057 A 
ATOM     40  C   UNL A   1      38.053  28.939  30.254  1.00  0.00     0.134 A 
ATOM     41  C   UNL A   1      38.282  29.553  27.950  1.00  0.00     0.134 A 
ATOM     42  F   UNL A   1      38.545  28.439  31.398  1.00  0.00    -0.206 F 
ATOM     43  C   UNL A   1      36.721  29.357  30.238  1.00  0.00     0.040 A 
ATOM     44  C   UNL A   1      36.956  29.991  27.927  1.00  0.00     0.040 A 
ATOM     45  F   UNL A   1      39.002  29.671  26.825  1.00  0.00    -0.206 F 
ATOM     46  C   UNL A   1      36.172  29.894  29.074  1.00  0.00     0.006 A 
ENDBRANCH  25  39
BRANCH  26  47
ATOM     47  C   UNL A   1      48.528  26.559  28.705  1.00  0.00     0.057 A 
ATOM     48  C   UNL A   1      49.199  26.727  27.491  1.00  0.00     0.134 A 
ATOM     49  C   UNL A   1      49.264  26.060  29.788  1.00  0.00     0.134 A 
ATOM     50  F   UNL A   1      48.542  27.185  26.414  1.00  0.00    -0.206 F 
ATOM     51  C   UNL A   1      50.547  26.394  27.350  1.00  0.00     0.040 A 
ATOM     52  C   UNL A   1      50.619  25.751  29.670  1.00  0.00     0.040 A 
ATOM     53  F   UNL A   1      48.680  25.884  30.982  1.00  0.00    -0.206 F 
ATOM     54  C   UNL A   1      51.262  25.911  28.445  1.00  0.00     0.006 A 
ENDBRANCH  26  47
BRANCH  38  55
ATOM     55  C   UNL A   1      45.095  32.393  30.308  1.00  0.00     0.057 A 
ATOM     56  C   UNL A   1      45.250  33.382  29.328  1.00  0.00     0.134 A 
ATOM     57  C   UNL A   1      45.355  32.748  31.636  1.00  0.00     0.134 A 
ATOM     58  F   UNL A   1      45.032  33.097  28.035  1.00  0.00    -0.206 F 
ATOM     59  C   UNL A   1      45.662  34.674  29.657  1.00  0.00     0.040 A 
ATOM     60  C   UNL A   1      45.746  34.043  31.981  1.00  0.00     0.040 A 
ATOM     61  F   UNL A   1      45.221  31.847  32.622  1.00  0.00    -0.206 F 
ATOM     62  C   UNL A   1      45.904  35.008  30.989  1.00  0.00     0.006 A 
ENDBRANCH  38  55
ENDBRANCH  12  13
ENDBRANCH   5   7
ENDBRANCH   2   3
ENDBRANCH   1   2
BRANCH   1  63
ATOM     63  C   UNL A   1      36.542  20.722  24.593  1.00  0.00     0.023 C 
BRANCH  63  64
ATOM     64  C   UNL A   1      35.566  21.085  25.707  1.00  0.00     0.116 C 
BRANCH  64  65
ATOM     65  N   UNL A   1      34.318  20.344  25.615  1.00  0.00    -0.352 N 
ATOM     66  C   UNL A   1      33.127  20.744  25.062  1.00  0.00     0.251 C 
ATOM     67  H   UNL A   1      34.328  19.438  25.999  1.00  0.00     0.163 HD
ATOM     68  O   UNL A   1      32.116  20.061  25.170  1.00  0.00    -0.269 OA
BRANCH  66  69
ATOM     69  C   UNL A   1      33.079  22.028  24.343  1.00  0.00     0.041 A 
ATOM     70  C   UNL A   1      33.165  22.050  22.945  1.00  0.00     0.015 A 
ATOM     71  C   UNL A   1      33.002  23.212  25.084  1.00  0.00     0.043 A 
ATOM     72  C   UNL A   1      33.248  23.271  22.286  1.00  0.00     0.017 A 
ATOM     73  C   UNL A   1      33.076  24.440  24.429  1.00  0.00     0.081 A 
ATOM     74  C   UNL A   1      33.211  24.449  23.037  1.00  0.00     0.066 A 
ATOM     75  N   UNL A   1      33.025  25.621  25.188  1.00  0.00    -0.214 NA
ATOM     76  C   UNL A   1      33.325  25.757  22.381  1.00  0.00     0.260 A 
ATOM     77  C   UNL A   1      33.053  26.762  24.571  1.00  0.00     0.206 A 
ATOM     78  O   UNL A   1      33.538  25.870  21.182  1.00  0.00    -0.269 OA
ATOM     79  N   UNL A   1      33.197  26.837  23.212  1.00  0.00    -0.292 N 
ATOM     80  H   UNL A   1      33.209  27.733  22.803  1.00  0.00     0.173 HD
BRANCH  77  81
ATOM     81  N   UNL A   1      32.981  27.962  25.228  1.00  0.00    -0.331 N 
ATOM     82  C   UNL A   1      32.470  29.161  24.552  1.00  0.00     0.181 C 
ATOM     83  C   UNL A   1      33.792  28.253  26.417  1.00  0.00     0.181 C 
ATOM     84  C   UNL A   1      31.705  30.039  25.568  1.00  0.00     0.282 C 
ATOM     85  C   UNL A   1      33.008  29.154  27.391  1.00  0.00     0.282 C 
ATOM     86  N   UNL A   1      32.497  30.392  26.768  1.00  0.00    -0.343 N 
ATOM     87  H   UNL A   1      31.905  30.890  27.433  1.00  0.00     0.346 HD
ATOM     88  H   UNL A   1      33.278  30.989  26.499  1.00  0.00     0.346 HD
ENDBRANCH  77  81
ENDBRANCH  66  69
ENDBRANCH  64  65
ENDBRANCH  63  64
ENDBRANCH   1  63
TORSDOF 12
ENDMDL
MODEL 2
REMARK VINA RESULT:     -12.4      2.338      7.673
REMARK SMILES O=C(NCCCCNC(=O)c1ccc2c(=O)[nH]c(N3CC[NH2+]CC3)nc2c1)c1ccc(-c2c3nc(c(-c4c(F)cccc4F)c4ccc([nH]4)c(-c4c(F)cccc4F)c4nc(c(-c5c(F)cccc5F)c5ccc2[nH]5)C=C4)C=C3)cc1
REMARK SMILES IDX 5 1 4 2 3 3 1 4 2 5 28 7 29 8 81 9 30 10 80 11 31 12 32 13
REMARK SMILES IDX 33 14 74 15 34 16 79 17 73 18 75 19 35 20 78 21 72 22 71 23
REMARK SMILES IDX 36 25 62 26 45 27 61 28 46 29 49 30 60 31 76 32 47 33 48 34
REMARK SMILES IDX 59 36 77 37 50 38 37 39 38 40 43 41 39 42 40 43 42 44 44 45
REMARK SMILES IDX 41 46 63 47 64 48 69 49 65 50 66 51 68 52 70 53 67 54 51 55
REMARK SMILES IDX 52 56 57 57 53 58 54 59 56 60 58 61 55 62 6 63 7 64 8 65
REMARK SMILES IDX 9 66 10 68 11 69 12 70 27 71 13 72 26 73 14 74 25 75 15 76
REMARK SMILES IDX 18 77 16 78 17 79 19 81 20 82 24 83 21 84 23 85 22 86
REMARK H PARENT 3 6 75 24 49 35 8 67 17 80 22 87 22 88
REMARK Flexibility Score: inf
ROOT
ATOM      1  C   UNL A   1      33.853  28.076  25.753  1.00  0.00     0.023 C 
ENDROOT
BRANCH   1   2
ATOM      2  C   UNL A   1      33.861  28.324  27.255  1.00  0.00     0.116 C 
BRANCH   2   3
ATOM      3  N   UNL A   1      33.683  29.726  27.598  1.00  0.00    -0.352 N 
ATOM      4  O   UNL A   1      34.209  31.704  28.550  1.00  0.00    -0.269 OA
ATOM      5  C   UNL A   1      34.570  30.586  28.198  1.00  0.00     0.251 C 
ATOM      6  H   UNL A   1      32.806  30.111  27.369  1.00  0.00     0.163 HD
BRANCH   5   7
ATOM      7  C   UNL A   1      35.961  30.147  28.435  1.00  0.00     0.039 A 
ATOM      8  C   UNL A   1      36.915  30.232  27.417  1.00  0.00     0.014 A 
ATOM      9  C   UNL A   1      36.314  29.657  29.695  1.00  0.00     0.014 A 
ATOM     10  C   UNL A   1      38.191  29.721  27.622  1.00  0.00     0.010 A 
ATOM     11  C   UNL A   1      37.619  29.216  29.924  1.00  0.00     0.010 A 
ATOM     12  C   UNL A   1      38.562  29.232  28.885  1.00  0.00    -0.014 A 
BRANCH  12  13
ATOM     13  C   UNL A   1      39.975  28.857  29.134  1.00  0.00     0.031 A 
ATOM     14  C   UNL A   1      40.944  29.821  29.753  1.00  0.00     0.074 A 
ATOM     15  C   UNL A   1      40.376  27.624  28.769  1.00  0.00     0.049 A 
ATOM     16  N   UNL A   1      42.220  29.659  29.993  1.00  0.00    -0.248 NA
ATOM     17  C   UNL A   1      40.420  31.138  30.148  1.00  0.00     0.031 C 
ATOM     18  C   UNL A   1      39.521  26.614  28.138  1.00  0.00     0.029 A 
ATOM     19  N   UNL A   1      41.597  27.010  28.866  1.00  0.00    -0.354 N 
ATOM     20  C   UNL A   1      42.659  30.856  30.544  1.00  0.00     0.074 A 
ATOM     21  C   UNL A   1      41.516  31.741  30.595  1.00  0.00     0.031 C 
ATOM     22  C   UNL A   1      40.238  25.502  27.921  1.00  0.00     0.029 A 
ATOM     23  C   UNL A   1      41.614  25.743  28.335  1.00  0.00     0.049 A 
ATOM     24  H   UNL A   1      42.385  27.435  29.275  1.00  0.00     0.167 HD
ATOM     25  C   UNL A   1      43.905  31.176  30.968  1.00  0.00     0.037 A 
ATOM     26  C   UNL A   1      42.633  24.881  28.164  1.00  0.00     0.037 A 
ATOM     27  C   UNL A   1      45.028  30.275  30.937  1.00  0.00     0.049 A 
ATOM     28  C   UNL A   1      44.006  25.281  28.613  1.00  0.00     0.074 A 
ATOM     29  C   UNL A   1      46.306  30.477  31.429  1.00  0.00     0.029 A 
ATOM     30  N   UNL A   1      45.013  29.009  30.372  1.00  0.00    -0.354 N 
ATOM     31  N   UNL A   1      44.390  26.388  29.200  1.00  0.00    -0.248 NA
ATOM     32  C   UNL A   1      45.089  24.321  28.367  1.00  0.00     0.031 C 
ATOM     33  C   UNL A   1      47.080  29.355  31.112  1.00  0.00     0.029 A 
ATOM     34  C   UNL A   1      46.272  28.437  30.461  1.00  0.00     0.049 A 
ATOM     35  H   UNL A   1      44.225  28.581  29.966  1.00  0.00     0.167 HD
ATOM     36  C   UNL A   1      45.756  26.257  29.399  1.00  0.00     0.074 A 
ATOM     37  C   UNL A   1      46.129  24.951  28.895  1.00  0.00     0.031 C 
ATOM     38  C   UNL A   1      46.626  27.141  29.944  1.00  0.00     0.037 A 
BRANCH  25  39
ATOM     39  C   UNL A   1      44.141  32.563  31.489  1.00  0.00     0.057 A 
ATOM     40  C   UNL A   1      43.940  32.895  32.834  1.00  0.00     0.134 A 
ATOM     41  C   UNL A   1      44.671  33.553  30.650  1.00  0.00     0.134 A 
ATOM     42  F   UNL A   1      43.431  31.994  33.688  1.00  0.00    -0.206 F 
ATOM     43  C   UNL A   1      44.252  34.164  33.326  1.00  0.00     0.040 A 
ATOM     44  C   UNL A   1      45.004  34.819  31.134  1.00  0.00     0.040 A 
ATOM     45  F   UNL A   1      44.896  33.297  29.353  1.00  0.00    -0.206 F 
ATOM     46  C   UNL A   1      44.794  35.128  32.477  1.00  0.00     0.006 A 
ENDBRANCH  25  39
BRANCH  26  47
ATOM     47  C   UNL A   1      42.394  23.579  27.494  1.00  0.00     0.057 A 
ATOM     48  C   UNL A   1      42.069  22.433  28.226  1.00  0.00     0.134 A 
ATOM     49  C   UNL A   1      42.485  23.453  26.102  1.00  0.00     0.134 A 
ATOM     50  F   UNL A   1      41.984  22.489  29.564  1.00  0.00    -0.206 F 
ATOM     51  C   UNL A   1      41.859  21.204  27.601  1.00  0.00     0.040 A 
ATOM     52  C   UNL A   1      42.250  22.236  25.461  1.00  0.00     0.040 A 
ATOM     53  F   UNL A   1      42.786  24.517  25.343  1.00  0.00    -0.206 F 
ATOM     54  C   UNL A   1      41.943  21.105  26.213  1.00  0.00     0.006 A 
ENDBRANCH  26  47
BRANCH  38  55
ATOM     55  C   UNL A   1      48.062  26.722  30.021  1.00  0.00     0.057 A 
ATOM     56  C   UNL A   1      48.535  25.926  31.072  1.00  0.00     0.134 A 
ATOM     57  C   UNL A   1      48.970  27.085  29.021  1.00  0.00     0.134 A 
ATOM     58  F   UNL A   1      47.717  25.560  32.070  1.00  0.00    -0.206 F 
ATOM     59  C   UNL A   1      49.869  25.518  31.132  1.00  0.00     0.040 A 
ATOM     60  C   UNL A   1      50.300  26.664  29.057  1.00  0.00     0.040 A 
ATOM     61  F   UNL A   1      48.576  27.842  27.985  1.00  0.00    -0.206 F 
ATOM     62  C   UNL A   1      50.752  25.882  30.117  1.00  0.00     0.006 A 
ENDBRANCH  38  55
ENDBRANCH  12  13
ENDBRANCH   5   7
ENDBRANCH   2   3
ENDBRANCH   1   2
BRANCH   1  63
ATOM     63  C   UNL A   1      33.229  29.193  24.919  1.00  0.00     0.023 C 
BRANCH  63  64
ATOM     64  C   UNL A   1      31.710  29.128  24.792  1.00  0.00     0.116 C 
BRANCH  64  65
ATOM     65  N   UNL A   1      31.279  28.823  23.437  1.00  0.00    -0.352 N 
ATOM     66  C   UNL A   1      30.902  27.611  22.913  1.00  0.00     0.251 C 
ATOM     67  H   UNL A   1      31.254  29.585  22.814  1.00  0.00     0.163 HD
ATOM     68  O   UNL A   1      30.685  27.478  21.715  1.00  0.00    -0.269 OA
BRANCH  66  69
ATOM     69  C   UNL A   1      30.779  26.459  23.821  1.00  0.00     0.041 A 
ATOM     70  C   UNL A   1      29.752  26.428  24.773  1.00  0.00     0.015 A 
ATOM     71  C   UNL A   1      31.731  25.437  23.747  1.00  0.00     0.043 A 
ATOM     72  C   UNL A   1      29.720  25.399  25.708  1.00  0.00     0.017 A 
ATOM     73  C   UNL A   1      31.700  24.398  24.675  1.00  0.00     0.081 A 
ATOM     74  C   UNL A   1      30.699  24.403  25.652  1.00  0.00     0.066 A 
ATOM     75  N   UNL A   1      32.678  23.392  24.605  1.00  0.00    -0.214 NA
ATOM     76  C   UNL A   1      30.717  23.316  26.639  1.00  0.00     0.260 A 
ATOM     77  C   UNL A   1      32.622  22.406  25.445  1.00  0.00     0.206 A 
ATOM     78  O   UNL A   1      29.943  23.281  27.585  1.00  0.00    -0.269 OA
ATOM     79  N   UNL A   1      31.674  22.361  26.433  1.00  0.00    -0.292 N 
ATOM     80  H   UNL A   1      31.682  21.584  27.038  1.00  0.00     0.173 HD
BRANCH  77  81
ATOM     81  N   UNL A   1      33.517  21.369  25.433  1.00  0.00    -0.331 N 
ATOM     82  C   UNL A   1      33.055  19.975  25.432  1.00  0.00     0.181 C 
ATOM     83  C   UNL A   1      34.908  21.532  25.874  1.00  0.00     0.181 C 
ATOM     84  C   UNL A   1      34.027  19.112  24.596  1.00  0.00     0.282 C 
ATOM     85  C   UNL A   1      35.842  20.633  25.040  1.00  0.00     0.282 C 
ATOM     86  N   UNL A   1      35.439  19.212  25.029  1.00  0.00    -0.343 N 
ATOM     87  H   UNL A   1      36.032  18.693  24.382  1.00  0.00     0.346 HD
ATOM     88  H   UNL A   1      35.539  18.820  25.966  1.00  0.00     0.346 HD
ENDBRANCH  77  81
ENDBRANCH  66  69
ENDBRANCH  64  65
ENDBRANCH  63  64
ENDBRANCH   1  63
TORSDOF 12
ENDMDL
MODEL 3
REMARK VINA RESULT:     -12.2      0.643      6.262
REMARK SMILES O=C(NCCCCNC(=O)c1ccc2c(=O)[nH]c(N3CC[NH2+]CC3)nc2c1)c1ccc(-c2c3nc(c(-c4c(F)cccc4F)c4ccc([nH]4)c(-c4c(F)cccc4F)c4nc(c(-c5c(F)cccc5F)c5ccc2[nH]5)C=C4)C=C3)cc1
REMARK SMILES IDX 5 1 4 2 3 3 1 4 2 5 28 7 29 8 81 9 30 10 80 11 31 12 32 13
REMARK SMILES IDX 33 14 74 15 34 16 79 17 73 18 75 19 35 20 78 21 72 22 71 23
REMARK SMILES IDX 36 25 62 26 45 27 61 28 46 29 49 30 60 31 76 32 47 33 48 34
REMARK SMILES IDX 59 36 77 37 50 38 37 39 38 40 43 41 39 42 40 43 42 44 44 45
REMARK SMILES IDX 41 46 63 47 64 48 69 49 65 50 66 51 68 52 70 53 67 54 51 55
REMARK SMILES IDX 52 56 57 57 53 58 54 59 56 60 58 61 55 62 6 63 7 64 8 65
REMARK SMILES IDX 9 66 10 68 11 69 12 70 27 71 13 72 26 73 14 74 25 75 15 76
REMARK SMILES IDX 18 77 16 78 17 79 19 81 20 82 24 83 21 84 23 85 22 86
REMARK H PARENT 3 6 75 24 49 35 8 67 17 80 22 87 22 88
REMARK Flexibility Score: inf
ROOT
ATOM      1  C   UNL A   1      37.686  19.637  25.001  1.00  0.00     0.023 C 
ENDROOT
BRANCH   1   2
ATOM      2  C   UNL A   1      38.900  20.168  25.751  1.00  0.00     0.116 C 
BRANCH   2   3
ATOM      3  N   UNL A   1      39.976  19.193  25.844  1.00  0.00    -0.352 N 
ATOM      4  O   UNL A   1      42.114  18.482  25.990  1.00  0.00    -0.269 OA
ATOM      5  C   UNL A   1      41.311  19.404  26.089  1.00  0.00     0.251 C 
ATOM      6  H   UNL A   1      39.711  18.254  25.713  1.00  0.00     0.163 HD
BRANCH   5   7
ATOM      7  C   UNL A   1      41.778  20.758  26.454  1.00  0.00     0.039 A 
ATOM      8  C   UNL A   1      42.073  21.698  25.463  1.00  0.00     0.014 A 
ATOM      9  C   UNL A   1      41.910  21.091  27.804  1.00  0.00     0.014 A 
ATOM     10  C   UNL A   1      42.609  22.930  25.817  1.00  0.00     0.010 A 
ATOM     11  C   UNL A   1      42.374  22.359  28.162  1.00  0.00     0.010 A 
ATOM     12  C   UNL A   1      42.739  23.282  27.170  1.00  0.00    -0.014 A 
BRANCH  12  13
ATOM     13  C   UNL A   1      43.144  24.662  27.528  1.00  0.00     0.031 A 
ATOM     14  C   UNL A   1      44.585  25.083  27.521  1.00  0.00     0.074 A 
ATOM     15  C   UNL A   1      42.179  25.534  27.881  1.00  0.00     0.049 A 
ATOM     16  N   UNL A   1      45.102  26.238  27.850  1.00  0.00    -0.248 NA
ATOM     17  C   UNL A   1      45.574  24.080  27.096  1.00  0.00     0.031 C 
ATOM     18  C   UNL A   1      40.748  25.224  27.943  1.00  0.00     0.029 A 
ATOM     19  N   UNL A   1      42.250  26.849  28.260  1.00  0.00    -0.354 N 
ATOM     20  C   UNL A   1      46.475  26.098  27.698  1.00  0.00     0.074 A 
ATOM     21  C   UNL A   1      46.715  24.742  27.255  1.00  0.00     0.031 C 
ATOM     22  C   UNL A   1      40.075  26.320  28.320  1.00  0.00     0.029 A 
ATOM     23  C   UNL A   1      41.029  27.388  28.587  1.00  0.00     0.049 A 
ATOM     24  H   UNL A   1      43.092  27.357  28.294  1.00  0.00     0.167 HD
ATOM     25  C   UNL A   1      47.441  27.025  27.909  1.00  0.00     0.037 A 
ATOM     26  C   UNL A   1      40.714  28.597  29.085  1.00  0.00     0.037 A 
ATOM     27  C   UNL A   1      47.187  28.380  28.324  1.00  0.00     0.049 A 
ATOM     28  C   UNL A   1      41.812  29.587  29.340  1.00  0.00     0.074 A 
ATOM     29  C   UNL A   1      48.091  29.418  28.474  1.00  0.00     0.029 A 
ATOM     30  N   UNL A   1      45.941  28.883  28.668  1.00  0.00    -0.354 N 
ATOM     31  N   UNL A   1      43.097  29.464  29.120  1.00  0.00    -0.248 NA
ATOM     32  C   UNL A   1      41.418  30.877  29.920  1.00  0.00     0.031 C 
ATOM     33  C   UNL A   1      47.401  30.532  28.963  1.00  0.00     0.029 A 
ATOM     34  C   UNL A   1      46.061  30.203  29.074  1.00  0.00     0.049 A 
ATOM     35  H   UNL A   1      45.097  28.378  28.629  1.00  0.00     0.167 HD
ATOM     36  C   UNL A   1      43.667  30.660  29.530  1.00  0.00     0.074 A 
ATOM     37  C   UNL A   1      42.583  31.506  29.986  1.00  0.00     0.031 C 
ATOM     38  C   UNL A   1      44.972  31.024  29.535  1.00  0.00     0.037 A 
BRANCH  25  39
ATOM     39  C   UNL A   1      48.871  26.614  27.716  1.00  0.00     0.057 A 
ATOM     40  C   UNL A   1      49.647  26.113  28.768  1.00  0.00     0.134 A 
ATOM     41  C   UNL A   1      49.445  26.627  26.438  1.00  0.00     0.134 A 
ATOM     42  F   UNL A   1      49.158  26.076  30.017  1.00  0.00    -0.206 F 
ATOM     43  C   UNL A   1      50.947  25.647  28.557  1.00  0.00     0.040 A 
ATOM     44  C   UNL A   1      50.736  26.147  26.211  1.00  0.00     0.040 A 
ATOM     45  F   UNL A   1      48.752  27.087  25.386  1.00  0.00    -0.206 F 
ATOM     46  C   UNL A   1      51.491  25.655  27.273  1.00  0.00     0.006 A 
ENDBRANCH  25  39
BRANCH  26  47
ATOM     47  C   UNL A   1      39.304  28.914  29.419  1.00  0.00     0.057 A 
ATOM     48  C   UNL A   1      38.791  28.689  30.700  1.00  0.00     0.134 A 
ATOM     49  C   UNL A   1      38.436  29.451  28.459  1.00  0.00     0.134 A 
ATOM     50  F   UNL A   1      39.570  28.160  31.655  1.00  0.00    -0.206 F 
ATOM     51  C   UNL A   1      37.461  28.971  31.012  1.00  0.00     0.040 A 
ATOM     52  C   UNL A   1      37.111  29.765  28.766  1.00  0.00     0.040 A 
ATOM     53  F   UNL A   1      38.869  29.697  27.214  1.00  0.00    -0.206 F 
ATOM     54  C   UNL A   1      36.618  29.517  30.045  1.00  0.00     0.006 A 
ENDBRANCH  26  47
BRANCH  38  55
ATOM     55  C   UNL A   1      45.294  32.394  30.049  1.00  0.00     0.057 A 
ATOM     56  C   UNL A   1      45.641  32.607  31.389  1.00  0.00     0.134 A 
ATOM     57  C   UNL A   1      45.292  33.501  29.193  1.00  0.00     0.134 A 
ATOM     58  F   UNL A   1      45.643  31.588  32.262  1.00  0.00    -0.206 F 
ATOM     59  C   UNL A   1      45.961  33.880  31.863  1.00  0.00     0.040 A 
ATOM     60  C   UNL A   1      45.633  34.774  29.650  1.00  0.00     0.040 A 
ATOM     61  F   UNL A   1      44.973  33.360  27.897  1.00  0.00    -0.206 F 
ATOM     62  C   UNL A   1      45.965  34.966  30.989  1.00  0.00     0.006 A 
ENDBRANCH  38  55
ENDBRANCH  12  13
ENDBRANCH   5   7
ENDBRANCH   2   3
ENDBRANCH   1   2
BRANCH   1  63
ATOM     63  C   UNL A   1      36.654  20.695  24.616  1.00  0.00     0.023 C 
BRANCH  63  64
ATOM     64  C   UNL A   1      35.681  21.077  25.728  1.00  0.00     0.116 C 
BRANCH  64  65
ATOM     65  N   UNL A   1      34.411  20.377  25.619  1.00  0.00    -0.352 N 
ATOM     66  C   UNL A   1      33.220  20.843  25.120  1.00  0.00     0.251 C 
ATOM     67  H   UNL A   1      34.404  19.448  25.944  1.00  0.00     0.163 HD
ATOM     68  O   UNL A   1      32.193  20.182  25.209  1.00  0.00    -0.269 OA
BRANCH  66  69
ATOM     69  C   UNL A   1      33.193  22.171  24.485  1.00  0.00     0.041 A 
ATOM     70  C   UNL A   1      33.388  22.289  23.103  1.00  0.00     0.015 A 
ATOM     71  C   UNL A   1      33.024  23.301  25.293  1.00  0.00     0.043 A 
ATOM     72  C   UNL A   1      33.489  23.553  22.534  1.00  0.00     0.017 A 
ATOM     73  C   UNL A   1      33.115  24.571  24.727  1.00  0.00     0.081 A 
ATOM     74  C   UNL A   1      33.359  24.677  23.354  1.00  0.00     0.066 A 
ATOM     75  N   UNL A   1      32.971  25.697  25.555  1.00  0.00    -0.214 NA
ATOM     76  C   UNL A   1      33.488  26.028  22.796  1.00  0.00     0.260 A 
ATOM     77  C   UNL A   1      33.015  26.877  25.018  1.00  0.00     0.206 A 
ATOM     78  O   UNL A   1      33.792  26.226  21.628  1.00  0.00    -0.269 OA
ATOM     79  N   UNL A   1      33.264  27.046  23.682  1.00  0.00    -0.292 N 
ATOM     80  H   UNL A   1      33.283  27.968  23.335  1.00  0.00     0.173 HD
BRANCH  77  81
ATOM     81  N   UNL A   1      32.858  28.028  25.744  1.00  0.00    -0.331 N 
ATOM     82  C   UNL A   1      33.724  28.318  26.894  1.00  0.00     0.181 C 
ATOM     83  C   UNL A   1      31.602  28.788  25.743  1.00  0.00     0.181 C 
ATOM     84  C   UNL A   1      33.975  29.840  26.979  1.00  0.00     0.282 C 
ATOM     85  C   UNL A   1      31.890  30.298  25.862  1.00  0.00     0.282 C 
ATOM     86  N   UNL A   1      32.735  30.648  27.021  1.00  0.00    -0.343 N 
ATOM     87  H   UNL A   1      32.972  31.640  26.985  1.00  0.00     0.346 HD
ATOM     88  H   UNL A   1      32.229  30.455  27.885  1.00  0.00     0.346 HD
ENDBRANCH  77  81
ENDBRANCH  66  69
ENDBRANCH  64  65
ENDBRANCH  63  64
ENDBRANCH   1  63
TORSDOF 12
ENDMDL
