MODEL 1
REMARK VINA RESULT:     -10.7      0.000      0.000
REMARK SMILES O=C(NCCCCNC(=O)[C@H](CO)NC(=O)[C@H](CS)NC(=O)c1ccc(F)cc1)c1ccc(-c2c3nc(c(-c4c(F)cccc4F)c4ccc([nH]4)c(-c4c(F)cccc4F)c4nc(c(-c5c(F)cccc5F)c5ccc2[nH]5)C=C4)C=C3)cc1
REMARK SMILES IDX 6 1 5 2 4 3 3 4 1 5 2 6 30 8 31 9 83 10 32 11 82 12 33 13
REMARK SMILES IDX 34 14 35 15 76 16 36 17 81 18 75 19 77 20 37 21 80 22 74 23
REMARK SMILES IDX 73 24 38 26 64 27 47 28 63 29 48 30 51 31 62 32 78 33 49 34
REMARK SMILES IDX 50 35 61 37 79 38 52 39 39 40 40 41 45 42 41 43 42 44 44 45
REMARK SMILES IDX 46 46 43 47 65 48 66 49 71 50 67 51 68 52 70 53 72 54 69 55
REMARK SMILES IDX 53 56 54 57 59 58 55 59 56 60 58 61 60 62 57 63 7 64 8 65
REMARK SMILES IDX 9 66 10 68 11 69 14 70 15 71 16 73 17 74 20 75 21 76 22 78
REMARK SMILES IDX 23 79 24 80 29 81 25 82 28 83 26 84 27 85 18 86 19 87 12 89
REMARK SMILES IDX 13 90
REMARK H PARENT 3 7 77 25 51 36 8 67 14 72 20 77 19 88 13 91
REMARK Flexibility Score: inf
ROOT
ATOM      1  C   UNL A   1      31.498  30.223  26.063  1.00  0.00     0.023 C 
ENDROOT
BRANCH   1   2
ATOM      2  C   UNL A   1      31.427  31.717  26.377  1.00  0.00     0.023 C 
BRANCH   2   3
ATOM      3  C   UNL A   1      32.572  32.232  27.230  1.00  0.00     0.116 C 
BRANCH   3   4
ATOM      4  N   UNL A   1      32.381  33.618  27.635  1.00  0.00    -0.352 N 
ATOM      5  O   UNL A   1      32.719  35.491  28.846  1.00  0.00    -0.269 OA
ATOM      6  C   UNL A   1      33.137  34.405  28.477  1.00  0.00     0.251 C 
ATOM      7  H   UNL A   1      31.590  34.061  27.249  1.00  0.00     0.163 HD
BRANCH   6   8
ATOM      8  C   UNL A   1      34.449  33.911  28.952  1.00  0.00     0.039 A 
ATOM      9  C   UNL A   1      35.614  34.221  28.250  1.00  0.00     0.014 A 
ATOM     10  C   UNL A   1      34.512  33.124  30.104  1.00  0.00     0.014 A 
ATOM     11  C   UNL A   1      36.804  33.593  28.586  1.00  0.00     0.010 A 
ATOM     12  C   UNL A   1      35.737  32.584  30.509  1.00  0.00     0.010 A 
ATOM     13  C   UNL A   1      36.886  32.781  29.730  1.00  0.00    -0.014 A 
BRANCH  13  14
ATOM     14  C   UNL A   1      38.203  32.208  30.103  1.00  0.00     0.031 A 
ATOM     15  C   UNL A   1      39.068  32.846  31.152  1.00  0.00     0.074 A 
ATOM     16  C   UNL A   1      38.581  31.048  29.529  1.00  0.00     0.049 A 
ATOM     17  N   UNL A   1      40.219  32.439  31.627  1.00  0.00    -0.248 NA
ATOM     18  C   UNL A   1      38.591  34.106  31.742  1.00  0.00     0.031 C 
ATOM     19  C   UNL A   1      37.819  30.338  28.497  1.00  0.00     0.029 A 
ATOM     20  N   UNL A   1      39.666  30.243  29.753  1.00  0.00    -0.354 N 
ATOM     21  C   UNL A   1      40.611  33.396  32.554  1.00  0.00     0.074 A 
ATOM     22  C   UNL A   1      39.589  34.421  32.558  1.00  0.00     0.031 C 
ATOM     23  C   UNL A   1      38.416  29.168  28.239  1.00  0.00     0.029 A 
ATOM     24  C   UNL A   1      39.640  29.078  29.027  1.00  0.00     0.049 A 
ATOM     25  H   UNL A   1      40.393  30.477  30.375  1.00  0.00     0.167 HD
ATOM     26  C   UNL A   1      41.719  33.412  33.333  1.00  0.00     0.037 A 
ATOM     27  C   UNL A   1      40.507  28.050  28.989  1.00  0.00     0.037 A 
ATOM     28  C   UNL A   1      42.724  32.378  33.334  1.00  0.00     0.049 A 
ATOM     29  C   UNL A   1      41.734  28.101  29.846  1.00  0.00     0.074 A 
ATOM     30  C   UNL A   1      43.878  32.301  34.094  1.00  0.00     0.029 A 
ATOM     31  N   UNL A   1      42.692  31.241  32.540  1.00  0.00    -0.354 N 
ATOM     32  N   UNL A   1      42.095  29.019  30.709  1.00  0.00    -0.248 NA
ATOM     33  C   UNL A   1      42.678  26.985  29.717  1.00  0.00     0.031 C 
ATOM     34  C   UNL A   1      44.564  31.136  33.731  1.00  0.00     0.029 A 
ATOM     35  C   UNL A   1      43.813  30.464  32.780  1.00  0.00     0.049 A 
ATOM     36  H   UNL A   1      41.977  31.019  31.901  1.00  0.00     0.167 HD
ATOM     37  C   UNL A   1      43.308  28.592  31.229  1.00  0.00     0.074 A 
ATOM     38  C   UNL A   1      43.607  27.321  30.602  1.00  0.00     0.031 C 
ATOM     39  C   UNL A   1      44.102  29.204  32.141  1.00  0.00     0.037 A 
BRANCH  26  40
ATOM     40  C   UNL A   1      41.915  34.589  34.244  1.00  0.00     0.057 A 
ATOM     41  C   UNL A   1      41.413  34.571  35.552  1.00  0.00     0.134 A 
ATOM     42  C   UNL A   1      42.549  35.761  33.812  1.00  0.00     0.134 A 
ATOM     43  F   UNL A   1      40.789  33.483  36.027  1.00  0.00    -0.206 F 
ATOM     44  C   UNL A   1      41.528  35.679  36.395  1.00  0.00     0.040 A 
ATOM     45  C   UNL A   1      42.690  36.867  34.653  1.00  0.00     0.040 A 
ATOM     46  F   UNL A   1      43.062  35.840  32.575  1.00  0.00    -0.206 F 
ATOM     47  C   UNL A   1      42.171  36.830  35.947  1.00  0.00     0.006 A 
ENDBRANCH  26  40
BRANCH  27  48
ATOM     48  C   UNL A   1      40.218  26.893  28.107  1.00  0.00     0.057 A 
ATOM     49  C   UNL A   1      39.473  25.799  28.562  1.00  0.00     0.134 A 
ATOM     50  C   UNL A   1      40.745  26.825  26.814  1.00  0.00     0.134 A 
ATOM     51  F   UNL A   1      38.952  25.801  29.798  1.00  0.00    -0.206 F 
ATOM     52  C   UNL A   1      39.290  24.662  27.774  1.00  0.00     0.040 A 
ATOM     53  C   UNL A   1      40.549  25.704  26.005  1.00  0.00     0.040 A 
ATOM     54  F   UNL A   1      41.458  27.849  26.319  1.00  0.00    -0.206 F 
ATOM     55  C   UNL A   1      39.829  24.614  26.490  1.00  0.00     0.006 A 
ENDBRANCH  27  48
BRANCH  39  56
ATOM     56  C   UNL A   1      45.370  28.503  32.522  1.00  0.00     0.057 A 
ATOM     57  C   UNL A   1      45.390  27.588  33.582  1.00  0.00     0.134 A 
ATOM     58  C   UNL A   1      46.581  28.773  31.873  1.00  0.00     0.134 A 
ATOM     59  F   UNL A   1      44.263  27.293  34.249  1.00  0.00    -0.206 F 
ATOM     60  C   UNL A   1      46.573  26.972  33.990  1.00  0.00     0.040 A 
ATOM     61  C   UNL A   1      47.768  28.144  32.257  1.00  0.00     0.040 A 
ATOM     62  F   UNL A   1      46.625  29.629  30.842  1.00  0.00    -0.206 F 
ATOM     63  C   UNL A   1      47.766  27.247  33.324  1.00  0.00     0.006 A 
ENDBRANCH  39  56
ENDBRANCH  13  14
ENDBRANCH   6   8
ENDBRANCH   3   4
ENDBRANCH   2   3
ENDBRANCH   1   2
BRANCH   1  64
ATOM     64  C   UNL A   1      32.904  29.692  25.756  1.00  0.00     0.116 C 
BRANCH  64  65
ATOM     65  N   UNL A   1      33.123  29.632  24.323  1.00  0.00    -0.354 N 
ATOM     66  C   UNL A   1      33.427  28.572  23.531  1.00  0.00     0.244 C 
ATOM     67  H   UNL A   1      33.039  30.493  23.853  1.00  0.00     0.163 HD
ATOM     68  O   UNL A   1      33.894  28.834  22.414  1.00  0.00    -0.273 OA
BRANCH  66  69
ATOM     69  C   UNL A   1      33.177  27.110  23.969  1.00  0.00     0.197 C 
BRANCH  69  70
ATOM     70  N   UNL A   1      31.728  26.932  23.771  1.00  0.00    -0.340 N 
ATOM     71  C   UNL A   1      30.815  25.991  24.074  1.00  0.00     0.244 C 
ATOM     72  H   UNL A   1      31.326  27.696  23.296  1.00  0.00     0.164 HD
ATOM     73  O   UNL A   1      29.638  26.374  24.015  1.00  0.00    -0.273 OA
BRANCH  71  74
ATOM     74  C   UNL A   1      31.096  24.494  24.285  1.00  0.00     0.181 C 
BRANCH  74  75
ATOM     75  N   UNL A   1      30.490  24.037  25.538  1.00  0.00    -0.339 N 
ATOM     76  C   UNL A   1      31.119  23.450  26.615  1.00  0.00     0.251 C 
ATOM     77  H   UNL A   1      29.517  24.164  25.621  1.00  0.00     0.164 HD
ATOM     78  O   UNL A   1      30.479  23.130  27.611  1.00  0.00    -0.269 OA
BRANCH  76  79
ATOM     79  C   UNL A   1      32.563  23.127  26.540  1.00  0.00     0.040 A 
ATOM     80  C   UNL A   1      33.527  24.131  26.375  1.00  0.00     0.017 A 
ATOM     81  C   UNL A   1      32.947  21.782  26.592  1.00  0.00     0.017 A 
ATOM     82  C   UNL A   1      34.864  23.781  26.170  1.00  0.00     0.040 A 
ATOM     83  C   UNL A   1      34.288  21.438  26.404  1.00  0.00     0.040 A 
ATOM     84  C   UNL A   1      35.229  22.438  26.176  1.00  0.00     0.123 A 
ATOM     85  F   UNL A   1      36.506  22.102  25.953  1.00  0.00    -0.207 F 
ENDBRANCH  76  79
ENDBRANCH  74  75
BRANCH  74  86
ATOM     86  C   UNL A   1      31.095  23.491  23.129  1.00  0.00     0.101 C 
BRANCH  86  87
ATOM     87  S   UNL A   1      32.556  22.469  22.795  1.00  0.00    -0.177 SA
ATOM     88  H   UNL A   1      32.737  21.591  23.818  1.00  0.00     0.102 HD
ENDBRANCH  86  87
ENDBRANCH  74  86
ENDBRANCH  71  74
ENDBRANCH  69  70
BRANCH  69  89
ATOM     89  C   UNL A   1      33.920  26.052  23.144  1.00  0.00     0.191 C 
BRANCH  89  90
ATOM     90  O   UNL A   1      33.736  26.149  21.744  1.00  0.00    -0.394 OA
ATOM     91  H   UNL A   1      32.900  25.721  21.498  1.00  0.00     0.210 HD
ENDBRANCH  89  90
ENDBRANCH  69  89
ENDBRANCH  66  69
ENDBRANCH  64  65
ENDBRANCH   1  64
TORSDOF 19
ENDMDL
MODEL 2
REMARK VINA RESULT:     -10.6      2.047      2.685
REMARK SMILES O=C(NCCCCNC(=O)[C@H](CO)NC(=O)[C@H](CS)NC(=O)c1ccc(F)cc1)c1ccc(-c2c3nc(c(-c4c(F)cccc4F)c4ccc([nH]4)c(-c4c(F)cccc4F)c4nc(c(-c5c(F)cccc5F)c5ccc2[nH]5)C=C4)C=C3)cc1
REMARK SMILES IDX 6 1 5 2 4 3 3 4 1 5 2 6 30 8 31 9 83 10 32 11 82 12 33 13
REMARK SMILES IDX 34 14 35 15 76 16 36 17 81 18 75 19 77 20 37 21 80 22 74 23
REMARK SMILES IDX 73 24 38 26 64 27 47 28 63 29 48 30 51 31 62 32 78 33 49 34
REMARK SMILES IDX 50 35 61 37 79 38 52 39 39 40 40 41 45 42 41 43 42 44 44 45
REMARK SMILES IDX 46 46 43 47 65 48 66 49 71 50 67 51 68 52 70 53 72 54 69 55
REMARK SMILES IDX 53 56 54 57 59 58 55 59 56 60 58 61 60 62 57 63 7 64 8 65
REMARK SMILES IDX 9 66 10 68 11 69 14 70 15 71 16 73 17 74 20 75 21 76 22 78
REMARK SMILES IDX 23 79 24 80 29 81 25 82 28 83 26 84 27 85 18 86 19 87 12 89
REMARK SMILES IDX 13 90
REMARK H PARENT 3 7 77 25 51 36 8 67 14 72 20 77 19 88 13 91
REMARK Flexibility Score: inf
ROOT
ATOM      1  C   UNL A   1      31.460  30.654  26.550  1.00  0.00     0.023 C 
ENDROOT
BRANCH   1   2
ATOM      2  C   UNL A   1      31.465  32.182  26.579  1.00  0.00     0.023 C 
BRANCH   2   3
ATOM      3  C   UNL A   1      32.645  32.790  27.315  1.00  0.00     0.116 C 
BRANCH   3   4
ATOM      4  N   UNL A   1      32.409  34.178  27.688  1.00  0.00    -0.352 N 
ATOM      5  O   UNL A   1      32.566  36.043  28.946  1.00  0.00    -0.269 OA
ATOM      6  C   UNL A   1      33.024  34.952  28.648  1.00  0.00     0.251 C 
ATOM      7  H   UNL A   1      31.701  34.634  27.176  1.00  0.00     0.163 HD
BRANCH   6   8
ATOM      8  C   UNL A   1      34.230  34.437  29.335  1.00  0.00     0.039 A 
ATOM      9  C   UNL A   1      35.492  34.615  28.770  1.00  0.00     0.014 A 
ATOM     10  C   UNL A   1      34.094  33.763  30.551  1.00  0.00     0.014 A 
ATOM     11  C   UNL A   1      36.586  33.960  29.315  1.00  0.00     0.010 A 
ATOM     12  C   UNL A   1      35.220  33.200  31.162  1.00  0.00     0.010 A 
ATOM     13  C   UNL A   1      36.469  33.260  30.528  1.00  0.00    -0.014 A 
BRANCH  13  14
ATOM     14  C   UNL A   1      37.687  32.656  31.122  1.00  0.00     0.031 A 
ATOM     15  C   UNL A   1      38.218  33.107  32.453  1.00  0.00     0.074 A 
ATOM     16  C   UNL A   1      38.275  31.632  30.472  1.00  0.00     0.049 A 
ATOM     17  N   UNL A   1      39.238  32.643  33.131  1.00  0.00    -0.248 NA
ATOM     18  C   UNL A   1      37.523  34.225  33.111  1.00  0.00     0.031 C 
ATOM     19  C   UNL A   1      37.846  31.110  29.171  1.00  0.00     0.029 A 
ATOM     20  N   UNL A   1      39.323  30.823  30.825  1.00  0.00    -0.354 N 
ATOM     21  C   UNL A   1      39.320  33.420  34.279  1.00  0.00     0.074 A 
ATOM     22  C   UNL A   1      38.262  34.404  34.197  1.00  0.00     0.031 C 
ATOM     23  C   UNL A   1      38.567  30.021  28.876  1.00  0.00     0.029 A 
ATOM     24  C   UNL A   1      39.559  29.813  29.925  1.00  0.00     0.049 A 
ATOM     25  H   UNL A   1      39.854  30.953  31.644  1.00  0.00     0.167 HD
ATOM     26  C   UNL A   1      40.195  33.315  35.308  1.00  0.00     0.037 A 
ATOM     27  C   UNL A   1      40.477  28.829  29.934  1.00  0.00     0.037 A 
ATOM     28  C   UNL A   1      41.237  32.322  35.389  1.00  0.00     0.049 A 
ATOM     29  C   UNL A   1      41.444  28.747  31.074  1.00  0.00     0.074 A 
ATOM     30  C   UNL A   1      42.167  32.129  36.394  1.00  0.00     0.029 A 
ATOM     31  N   UNL A   1      41.482  31.351  34.427  1.00  0.00    -0.354 N 
ATOM     32  N   UNL A   1      41.515  29.496  32.146  1.00  0.00    -0.248 NA
ATOM     33  C   UNL A   1      42.464  27.695  31.000  1.00  0.00     0.031 C 
ATOM     34  C   UNL A   1      43.000  31.068  36.024  1.00  0.00     0.029 A 
ATOM     35  C   UNL A   1      42.558  30.568  34.810  1.00  0.00     0.049 A 
ATOM     36  H   UNL A   1      40.966  31.237  33.597  1.00  0.00     0.167 HD
ATOM     37  C   UNL A   1      42.585  29.006  32.880  1.00  0.00     0.074 A 
ATOM     38  C   UNL A   1      43.119  27.881  32.139  1.00  0.00     0.031 C 
ATOM     39  C   UNL A   1      43.083  29.455  34.057  1.00  0.00     0.037 A 
BRANCH  26  40
ATOM     40  C   UNL A   1      40.076  34.307  36.430  1.00  0.00     0.057 A 
ATOM     41  C   UNL A   1      39.274  34.031  37.545  1.00  0.00     0.134 A 
ATOM     42  C   UNL A   1      40.708  35.556  36.382  1.00  0.00     0.134 A 
ATOM     43  F   UNL A   1      38.634  32.857  37.650  1.00  0.00    -0.206 F 
ATOM     44  C   UNL A   1      39.098  34.964  38.568  1.00  0.00     0.040 A 
ATOM     45  C   UNL A   1      40.558  36.489  37.411  1.00  0.00     0.040 A 
ATOM     46  F   UNL A   1      41.499  35.879  35.348  1.00  0.00    -0.206 F 
ATOM     47  C   UNL A   1      39.745  36.197  38.504  1.00  0.00     0.006 A 
ENDBRANCH  26  40
BRANCH  27  48
ATOM     48  C   UNL A   1      40.497  27.850  28.819  1.00  0.00     0.057 A 
ATOM     49  C   UNL A   1      41.226  28.094  27.648  1.00  0.00     0.134 A 
ATOM     50  C   UNL A   1      39.728  26.684  28.872  1.00  0.00     0.134 A 
ATOM     51  F   UNL A   1      41.972  29.203  27.534  1.00  0.00    -0.206 F 
ATOM     52  C   UNL A   1      41.162  27.230  26.555  1.00  0.00     0.040 A 
ATOM     53  C   UNL A   1      39.674  25.797  27.795  1.00  0.00     0.040 A 
ATOM     54  F   UNL A   1      39.018  26.392  29.972  1.00  0.00    -0.206 F 
ATOM     55  C   UNL A   1      40.384  26.076  26.628  1.00  0.00     0.006 A 
ENDBRANCH  27  48
BRANCH  39  56
ATOM     56  C   UNL A   1      44.261  28.723  34.625  1.00  0.00     0.057 A 
ATOM     57  C   UNL A   1      44.079  27.635  35.486  1.00  0.00     0.134 A 
ATOM     58  C   UNL A   1      45.575  29.129  34.358  1.00  0.00     0.134 A 
ATOM     59  F   UNL A   1      42.844  27.203  35.787  1.00  0.00    -0.206 F 
ATOM     60  C   UNL A   1      45.162  26.980  36.071  1.00  0.00     0.040 A 
ATOM     61  C   UNL A   1      46.668  28.467  34.919  1.00  0.00     0.040 A 
ATOM     62  F   UNL A   1      45.815  30.156  33.530  1.00  0.00    -0.206 F 
ATOM     63  C   UNL A   1      46.462  27.393  35.786  1.00  0.00     0.006 A 
ENDBRANCH  39  56
ENDBRANCH  13  14
ENDBRANCH   6   8
ENDBRANCH   3   4
ENDBRANCH   2   3
ENDBRANCH   1   2
BRANCH   1  64
ATOM     64  C   UNL A   1      32.222  30.026  25.376  1.00  0.00     0.116 C 
BRANCH  64  65
ATOM     65  N   UNL A   1      31.314  29.718  24.287  1.00  0.00    -0.354 N 
ATOM     66  C   UNL A   1      31.474  28.884  23.227  1.00  0.00     0.244 C 
ATOM     67  H   UNL A   1      30.449  30.186  24.322  1.00  0.00     0.163 HD
ATOM     68  O   UNL A   1      30.705  29.053  22.272  1.00  0.00    -0.273 OA
BRANCH  66  69
ATOM     69  C   UNL A   1      32.531  27.754  23.212  1.00  0.00     0.197 C 
BRANCH  69  70
ATOM     70  N   UNL A   1      31.735  26.539  22.972  1.00  0.00    -0.340 N 
ATOM     71  C   UNL A   1      31.557  25.357  23.591  1.00  0.00     0.244 C 
ATOM     72  H   UNL A   1      31.196  26.609  22.151  1.00  0.00     0.164 HD
ATOM     73  O   UNL A   1      30.549  24.731  23.232  1.00  0.00    -0.273 OA
BRANCH  71  74
ATOM     74  C   UNL A   1      32.566  24.662  24.520  1.00  0.00     0.181 C 
BRANCH  74  75
ATOM     75  N   UNL A   1      33.849  24.489  23.834  1.00  0.00    -0.339 N 
ATOM     76  C   UNL A   1      34.418  23.315  23.389  1.00  0.00     0.251 C 
ATOM     77  H   UNL A   1      34.369  25.310  23.672  1.00  0.00     0.164 HD
ATOM     78  O   UNL A   1      35.500  23.326  22.813  1.00  0.00    -0.269 OA
BRANCH  76  79
ATOM     79  C   UNL A   1      33.757  22.020  23.678  1.00  0.00     0.040 A 
ATOM     80  C   UNL A   1      34.227  21.172  24.692  1.00  0.00     0.017 A 
ATOM     81  C   UNL A   1      32.672  21.634  22.882  1.00  0.00     0.017 A 
ATOM     82  C   UNL A   1      33.668  19.901  24.845  1.00  0.00     0.040 A 
ATOM     83  C   UNL A   1      32.106  20.369  23.052  1.00  0.00     0.040 A 
ATOM     84  C   UNL A   1      32.621  19.509  24.017  1.00  0.00     0.123 A 
ATOM     85  F   UNL A   1      32.103  18.280  24.147  1.00  0.00    -0.207 F 
ENDBRANCH  76  79
ENDBRANCH  74  75
BRANCH  74  86
ATOM     86  C   UNL A   1      32.637  24.959  26.020  1.00  0.00     0.101 C 
BRANCH  86  87
ATOM     87  S   UNL A   1      31.961  26.505  26.685  1.00  0.00    -0.177 SA
ATOM     88  H   UNL A   1      31.556  27.301  25.659  1.00  0.00     0.102 HD
ENDBRANCH  86  87
ENDBRANCH  74  86
ENDBRANCH  71  74
ENDBRANCH  69  70
BRANCH  69  89
ATOM     89  C   UNL A   1      33.589  27.875  22.109  1.00  0.00     0.191 C 
BRANCH  89  90
ATOM     90  O   UNL A   1      33.671  26.766  21.234  1.00  0.00    -0.394 OA
ATOM     91  H   UNL A   1      34.598  26.498  21.137  1.00  0.00     0.210 HD
ENDBRANCH  89  90
ENDBRANCH  69  89
ENDBRANCH  66  69
ENDBRANCH  64  65
ENDBRANCH   1  64
TORSDOF 19
ENDMDL
MODEL 3
REMARK VINA RESULT:     -10.5      2.067      2.632
REMARK SMILES O=C(NCCCCNC(=O)[C@H](CO)NC(=O)[C@H](CS)NC(=O)c1ccc(F)cc1)c1ccc(-c2c3nc(c(-c4c(F)cccc4F)c4ccc([nH]4)c(-c4c(F)cccc4F)c4nc(c(-c5c(F)cccc5F)c5ccc2[nH]5)C=C4)C=C3)cc1
REMARK SMILES IDX 6 1 5 2 4 3 3 4 1 5 2 6 30 8 31 9 83 10 32 11 82 12 33 13
REMARK SMILES IDX 34 14 35 15 76 16 36 17 81 18 75 19 77 20 37 21 80 22 74 23
REMARK SMILES IDX 73 24 38 26 64 27 47 28 63 29 48 30 51 31 62 32 78 33 49 34
REMARK SMILES IDX 50 35 61 37 79 38 52 39 39 40 40 41 45 42 41 43 42 44 44 45
REMARK SMILES IDX 46 46 43 47 65 48 66 49 71 50 67 51 68 52 70 53 72 54 69 55
REMARK SMILES IDX 53 56 54 57 59 58 55 59 56 60 58 61 60 62 57 63 7 64 8 65
REMARK SMILES IDX 9 66 10 68 11 69 14 70 15 71 16 73 17 74 20 75 21 76 22 78
REMARK SMILES IDX 23 79 24 80 29 81 25 82 28 83 26 84 27 85 18 86 19 87 12 89
REMARK SMILES IDX 13 90
REMARK H PARENT 3 7 77 25 51 36 8 67 14 72 20 77 19 88 13 91
REMARK Flexibility Score: inf
ROOT
ATOM      1  C   UNL A   1      30.679  31.556  25.381  1.00  0.00     0.023 C 
ENDROOT
BRANCH   1   2
ATOM      2  C   UNL A   1      31.072  32.025  26.782  1.00  0.00     0.023 C 
BRANCH   2   3
ATOM      3  C   UNL A   1      32.407  32.743  26.850  1.00  0.00     0.116 C 
BRANCH   3   4
ATOM      4  N   UNL A   1      32.301  34.049  27.485  1.00  0.00    -0.352 N 
ATOM      5  O   UNL A   1      32.685  35.637  29.040  1.00  0.00    -0.269 OA
ATOM      6  C   UNL A   1      33.038  34.594  28.514  1.00  0.00     0.251 C 
ATOM      7  H   UNL A   1      31.594  34.632  27.125  1.00  0.00     0.163 HD
BRANCH   6   8
ATOM      8  C   UNL A   1      34.250  33.891  28.993  1.00  0.00     0.039 A 
ATOM      9  C   UNL A   1      34.136  32.748  29.783  1.00  0.00     0.014 A 
ATOM     10  C   UNL A   1      35.511  34.388  28.656  1.00  0.00     0.014 A 
ATOM     11  C   UNL A   1      35.264  32.217  30.389  1.00  0.00     0.010 A 
ATOM     12  C   UNL A   1      36.659  33.779  29.176  1.00  0.00     0.010 A 
ATOM     13  C   UNL A   1      36.542  32.713  30.079  1.00  0.00    -0.014 A 
BRANCH  13  14
ATOM     14  C   UNL A   1      37.727  32.051  30.679  1.00  0.00     0.031 A 
ATOM     15  C   UNL A   1      38.154  32.334  32.091  1.00  0.00     0.074 A 
ATOM     16  C   UNL A   1      38.380  31.125  29.948  1.00  0.00     0.049 A 
ATOM     17  N   UNL A   1      39.134  31.799  32.776  1.00  0.00    -0.248 NA
ATOM     18  C   UNL A   1      37.393  33.351  32.832  1.00  0.00     0.031 C 
ATOM     19  C   UNL A   1      38.053  30.769  28.564  1.00  0.00     0.029 A 
ATOM     20  N   UNL A   1      39.416  30.289  30.270  1.00  0.00    -0.354 N 
ATOM     21  C   UNL A   1      39.120  32.423  34.016  1.00  0.00     0.074 A 
ATOM     22  C   UNL A   1      38.050  33.398  33.984  1.00  0.00     0.031 C 
ATOM     23  C   UNL A   1      38.815  29.734  28.186  1.00  0.00     0.029 A 
ATOM     24  C   UNL A   1      39.734  29.405  29.269  1.00  0.00     0.049 A 
ATOM     25  H   UNL A   1      39.886  30.319  31.135  1.00  0.00     0.167 HD
ATOM     26  C   UNL A   1      39.922  32.197  35.084  1.00  0.00     0.037 A 
ATOM     27  C   UNL A   1      40.669  28.438  29.219  1.00  0.00     0.037 A 
ATOM     28  C   UNL A   1      40.975  31.213  35.113  1.00  0.00     0.049 A 
ATOM     29  C   UNL A   1      41.555  28.221  30.406  1.00  0.00     0.074 A 
ATOM     30  C   UNL A   1      41.837  30.904  36.150  1.00  0.00     0.029 A 
ATOM     31  N   UNL A   1      41.306  30.376  34.057  1.00  0.00    -0.354 N 
ATOM     32  N   UNL A   1      41.536  28.827  31.567  1.00  0.00    -0.248 NA
ATOM     33  C   UNL A   1      42.599  27.198  30.274  1.00  0.00     0.031 C 
ATOM     34  C   UNL A   1      42.714  29.907  35.709  1.00  0.00     0.029 A 
ATOM     35  C   UNL A   1      42.369  29.562  34.413  1.00  0.00     0.049 A 
ATOM     36  H   UNL A   1      40.852  30.363  33.183  1.00  0.00     0.167 HD
ATOM     37  C   UNL A   1      42.562  28.260  32.308  1.00  0.00     0.074 A 
ATOM     38  C   UNL A   1      43.168  27.244  31.471  1.00  0.00     0.031 C 
ATOM     39  C   UNL A   1      42.967  28.560  33.565  1.00  0.00     0.037 A 
BRANCH  26  40
ATOM     40  C   UNL A   1      39.705  33.036  36.310  1.00  0.00     0.057 A 
ATOM     41  C   UNL A   1      38.753  32.667  37.269  1.00  0.00     0.134 A 
ATOM     42  C   UNL A   1      40.396  34.237  36.516  1.00  0.00     0.134 A 
ATOM     43  F   UNL A   1      38.050  31.533  37.129  1.00  0.00    -0.206 F 
ATOM     44  C   UNL A   1      38.490  33.465  38.384  1.00  0.00     0.040 A 
ATOM     45  C   UNL A   1      40.158  35.032  37.640  1.00  0.00     0.040 A 
ATOM     46  F   UNL A   1      41.330  34.643  35.643  1.00  0.00    -0.206 F 
ATOM     47  C   UNL A   1      39.196  34.650  38.573  1.00  0.00     0.006 A 
ENDBRANCH  26  40
BRANCH  27  48
ATOM     48  C   UNL A   1      40.786  27.610  27.994  1.00  0.00     0.057 A 
ATOM     49  C   UNL A   1      40.127  26.379  27.880  1.00  0.00     0.134 A 
ATOM     50  C   UNL A   1      41.621  27.996  26.941  1.00  0.00     0.134 A 
ATOM     51  F   UNL A   1      39.323  25.949  28.864  1.00  0.00    -0.206 F 
ATOM     52  C   UNL A   1      40.320  25.547  26.778  1.00  0.00     0.040 A 
ATOM     53  C   UNL A   1      41.804  27.185  25.820  1.00  0.00     0.040 A 
ATOM     54  F   UNL A   1      42.269  29.170  26.989  1.00  0.00    -0.206 F 
ATOM     55  C   UNL A   1      41.161  25.951  25.743  1.00  0.00     0.006 A 
ENDBRANCH  27  48
BRANCH  39  56
ATOM     56  C   UNL A   1      44.117  27.774  34.119  1.00  0.00     0.057 A 
ATOM     57  C   UNL A   1      43.900  26.555  34.773  1.00  0.00     0.134 A 
ATOM     58  C   UNL A   1      45.432  28.251  34.049  1.00  0.00     0.134 A 
ATOM     59  F   UNL A   1      42.661  26.050  34.879  1.00  0.00    -0.206 F 
ATOM     60  C   UNL A   1      44.951  25.840  35.347  1.00  0.00     0.040 A 
ATOM     61  C   UNL A   1      46.495  27.532  34.600  1.00  0.00     0.040 A 
ATOM     62  F   UNL A   1      45.705  29.405  33.425  1.00  0.00    -0.206 F 
ATOM     63  C   UNL A   1      46.254  26.327  35.258  1.00  0.00     0.006 A 
ENDBRANCH  39  56
ENDBRANCH  13  14
ENDBRANCH   6   8
ENDBRANCH   3   4
ENDBRANCH   2   3
ENDBRANCH   1   2
BRANCH   1  64
ATOM     64  C   UNL A   1      31.166  30.150  25.007  1.00  0.00     0.116 C 
BRANCH  64  65
ATOM     65  N   UNL A   1      30.474  29.669  23.827  1.00  0.00    -0.354 N 
ATOM     66  C   UNL A   1      30.888  28.805  22.864  1.00  0.00     0.244 C 
ATOM     67  H   UNL A   1      29.564  30.023  23.705  1.00  0.00     0.163 HD
ATOM     68  O   UNL A   1      30.256  28.821  21.800  1.00  0.00    -0.273 OA
BRANCH  66  69
ATOM     69  C   UNL A   1      32.061  27.821  23.082  1.00  0.00     0.197 C 
BRANCH  69  70
ATOM     70  N   UNL A   1      31.447  26.499  22.873  1.00  0.00    -0.340 N 
ATOM     71  C   UNL A   1      31.450  25.315  23.515  1.00  0.00     0.244 C 
ATOM     72  H   UNL A   1      30.895  26.474  22.058  1.00  0.00     0.164 HD
ATOM     73  O   UNL A   1      30.539  24.543  23.180  1.00  0.00    -0.273 OA
BRANCH  71  74
ATOM     74  C   UNL A   1      32.559  24.791  24.441  1.00  0.00     0.181 C 
BRANCH  74  75
ATOM     75  N   UNL A   1      33.818  24.665  23.702  1.00  0.00    -0.339 N 
ATOM     76  C   UNL A   1      34.471  23.507  23.337  1.00  0.00     0.251 C 
ATOM     77  H   UNL A   1      34.250  25.508  23.434  1.00  0.00     0.164 HD
ATOM     78  O   UNL A   1      35.518  23.556  22.702  1.00  0.00    -0.269 OA
BRANCH  76  79
ATOM     79  C   UNL A   1      33.948  22.194  23.783  1.00  0.00     0.040 A 
ATOM     80  C   UNL A   1      32.816  21.619  23.188  1.00  0.00     0.017 A 
ATOM     81  C   UNL A   1      34.586  21.552  24.852  1.00  0.00     0.017 A 
ATOM     82  C   UNL A   1      32.271  20.450  23.724  1.00  0.00     0.040 A 
ATOM     83  C   UNL A   1      34.047  20.374  25.371  1.00  0.00     0.040 A 
ATOM     84  C   UNL A   1      32.885  19.845  24.816  1.00  0.00     0.123 A 
ATOM     85  F   UNL A   1      32.347  18.739  25.346  1.00  0.00    -0.207 F 
ENDBRANCH  76  79
ENDBRANCH  74  75
BRANCH  74  86
ATOM     86  C   UNL A   1      32.675  25.224  25.904  1.00  0.00     0.101 C 
BRANCH  86  87
ATOM     87  S   UNL A   1      31.696  26.615  26.534  1.00  0.00    -0.177 SA
ATOM     88  H   UNL A   1      31.535  27.538  25.548  1.00  0.00     0.102 HD
ENDBRANCH  86  87
ENDBRANCH  74  86
ENDBRANCH  71  74
ENDBRANCH  69  70
BRANCH  69  89
ATOM     89  C   UNL A   1      33.229  27.981  22.100  1.00  0.00     0.191 C 
BRANCH  89  90
ATOM     90  O   UNL A   1      33.517  26.835  21.321  1.00  0.00    -0.394 OA
ATOM     91  H   UNL A   1      32.807  26.183  21.433  1.00  0.00     0.210 HD
ENDBRANCH  89  90
ENDBRANCH  69  89
ENDBRANCH  66  69
ENDBRANCH  64  65
ENDBRANCH   1  64
TORSDOF 19
ENDMDL
