MODEL 1
REMARK VINA RESULT:     -11.9      0.000      0.000
REMARK SMILES O=C(NCCCCNC(=O)c1ccc(-c2c3nc(c(-c4c(F)cccc4F)c4ccc([nH]4)c(-c4c(F)cccc4F)c4nc(c(-c5c(F)cccc5F)c5ccc2[nH]5)C=C4)C=C3)cc1)C1=Cc2cc(Cl)ccc2O[C@@H]1C(F)(F)F
REMARK SMILES IDX 6 1 5 2 4 3 3 4 1 5 2 6 65 8 66 9 75 10 67 11 74 12 68 13
REMARK SMILES IDX 73 14 69 15 72 16 70 17 71 18 76 19 77 20 78 21 79 22 7 23
REMARK SMILES IDX 8 24 9 25 10 27 11 28 12 29 64 30 13 31 63 32 14 33 15 34
REMARK SMILES IDX 16 35 57 36 17 37 62 38 56 39 58 40 18 41 61 42 55 43 54 44
REMARK SMILES IDX 19 46 45 47 28 48 44 49 29 50 32 51 43 52 59 53 30 54 31 55
REMARK SMILES IDX 42 57 60 58 33 59 20 60 21 61 26 62 22 63 23 64 25 65 27 66
REMARK SMILES IDX 24 67 46 68 47 69 52 70 48 71 49 72 51 73 53 74 50 75 34 76
REMARK SMILES IDX 35 77 40 78 36 79 37 80 39 81 41 82 38 83
REMARK H PARENT 3 7 8 26 58 45 32 56
REMARK Flexibility Score: inf
ROOT
ATOM      1  C   UNL A   1      38.178  22.013  25.150  1.00  0.00     0.023 C 
ENDROOT
BRANCH   1   2
ATOM      2  C   UNL A   1      37.736  23.336  25.762  1.00  0.00     0.023 C 
BRANCH   2   3
ATOM      3  C   UNL A   1      36.246  23.643  25.712  1.00  0.00     0.116 C 
BRANCH   3   4
ATOM      4  N   UNL A   1      35.433  22.984  26.719  1.00  0.00    -0.352 N 
ATOM      5  O   UNL A   1      34.071  21.419  27.579  1.00  0.00    -0.270 OA
ATOM      6  C   UNL A   1      34.549  21.948  26.576  1.00  0.00     0.251 C 
ATOM      7  H   UNL A   1      35.532  23.331  27.635  1.00  0.00     0.163 HD
BRANCH   6   8
ATOM      8  C   UNL A   1      34.203  21.371  25.243  1.00  0.00     0.067 C 
ATOM      9  C   UNL A   1      34.956  20.421  24.659  1.00  0.00     0.025 C 
ATOM     10  C   UNL A   1      32.721  21.419  24.938  1.00  0.00     0.314 C 
ATOM     11  C   UNL A   1      34.266  19.106  24.675  1.00  0.00     0.019 A 
ATOM     12  O   UNL A   1      32.093  20.122  25.145  1.00  0.00    -0.475 OA
ATOM     13  C   UNL A   1      35.048  17.945  24.626  1.00  0.00     0.032 A 
ATOM     14  C   UNL A   1      32.904  19.024  25.008  1.00  0.00     0.128 A 
ATOM     15  C   UNL A   1      34.484  16.725  24.993  1.00  0.00     0.041 A 
ATOM     16  C   UNL A   1      32.341  17.793  25.337  1.00  0.00     0.048 A 
ATOM     17  Cl  UNL A   1      35.482  15.329  25.096  1.00  0.00    -0.084 Cl
ATOM     18  C   UNL A   1      33.138  16.645  25.356  1.00  0.00     0.024 A 
BRANCH  10  19
ATOM     19  C   UNL A   1      32.429  21.961  23.529  1.00  0.00     0.429 C 
ATOM     20  F   UNL A   1      33.449  22.732  23.079  1.00  0.00    -0.167 F 
ATOM     21  F   UNL A   1      32.266  20.961  22.632  1.00  0.00    -0.167 F 
ATOM     22  F   UNL A   1      31.307  22.718  23.489  1.00  0.00    -0.167 F 
ENDBRANCH  10  19
ENDBRANCH   6   8
ENDBRANCH   3   4
ENDBRANCH   2   3
ENDBRANCH   1   2
BRANCH   1  23
ATOM     23  C   UNL A   1      38.292  20.819  26.096  1.00  0.00     0.116 C 
BRANCH  23  24
ATOM     24  N   UNL A   1      39.299  19.832  25.731  1.00  0.00    -0.352 N 
ATOM     25  C   UNL A   1      40.665  19.845  25.930  1.00  0.00     0.251 C 
ATOM     26  H   UNL A   1      38.953  19.032  25.272  1.00  0.00     0.163 HD
ATOM     27  O   UNL A   1      41.351  18.908  25.543  1.00  0.00    -0.269 OA
BRANCH  25  28
ATOM     28  C   UNL A   1      41.315  21.019  26.558  1.00  0.00     0.039 A 
ATOM     29  C   UNL A   1      41.852  22.008  25.729  1.00  0.00     0.014 A 
ATOM     30  C   UNL A   1      41.355  21.176  27.946  1.00  0.00     0.014 A 
ATOM     31  C   UNL A   1      42.319  23.201  26.286  1.00  0.00     0.010 A 
ATOM     32  C   UNL A   1      41.740  22.398  28.493  1.00  0.00     0.010 A 
ATOM     33  C   UNL A   1      42.208  23.431  27.667  1.00  0.00    -0.014 A 
BRANCH  33  34
ATOM     34  C   UNL A   1      42.523  24.766  28.240  1.00  0.00     0.031 A 
ATOM     35  C   UNL A   1      43.923  25.125  28.648  1.00  0.00     0.074 A 
ATOM     36  C   UNL A   1      41.521  25.644  28.448  1.00  0.00     0.049 A 
ATOM     37  N   UNL A   1      44.379  26.255  29.130  1.00  0.00    -0.248 NA
ATOM     38  C   UNL A   1      44.942  24.072  28.527  1.00  0.00     0.031 C 
ATOM     39  C   UNL A   1      40.103  25.393  28.178  1.00  0.00     0.029 A 
ATOM     40  N   UNL A   1      41.541  26.931  28.929  1.00  0.00    -0.354 N 
ATOM     41  C   UNL A   1      45.728  26.044  29.382  1.00  0.00     0.074 A 
ATOM     42  C   UNL A   1      46.006  24.662  29.051  1.00  0.00     0.031 C 
ATOM     43  C   UNL A   1      39.399  26.504  28.447  1.00  0.00     0.029 A 
ATOM     44  C   UNL A   1      40.308  27.537  28.930  1.00  0.00     0.049 A 
ATOM     45  H   UNL A   1      42.361  27.377  29.241  1.00  0.00     0.167 HD
ATOM     46  C   UNL A   1      46.657  26.925  29.825  1.00  0.00     0.037 A 
ATOM     47  C   UNL A   1      39.951  28.792  29.262  1.00  0.00     0.037 A 
ATOM     48  C   UNL A   1      46.388  28.307  30.126  1.00  0.00     0.049 A 
ATOM     49  C   UNL A   1      41.007  29.763  29.707  1.00  0.00     0.074 A 
ATOM     50  C   UNL A   1      47.277  29.299  30.499  1.00  0.00     0.029 A 
ATOM     51  N   UNL A   1      45.130  28.890  30.092  1.00  0.00    -0.354 N 
ATOM     52  N   UNL A   1      42.298  29.578  29.841  1.00  0.00    -0.248 NA
ATOM     53  C   UNL A   1      40.557  31.124  30.032  1.00  0.00     0.031 C 
ATOM     54  C   UNL A   1      46.553  30.476  30.727  1.00  0.00     0.029 A 
ATOM     55  C   UNL A   1      45.218  30.225  30.457  1.00  0.00     0.049 A 
ATOM     56  H   UNL A   1      44.298  28.426  29.846  1.00  0.00     0.167 HD
ATOM     57  C   UNL A   1      42.817  30.803  30.239  1.00  0.00     0.074 A 
ATOM     58  C   UNL A   1      41.703  31.727  30.309  1.00  0.00     0.031 C 
ATOM     59  C   UNL A   1      44.101  31.132  30.522  1.00  0.00     0.037 A 
BRANCH  46  60
ATOM     60  C   UNL A   1      48.058  26.415  30.000  1.00  0.00     0.057 A 
ATOM     61  C   UNL A   1      48.488  25.837  31.203  1.00  0.00     0.134 A 
ATOM     62  C   UNL A   1      48.983  26.489  28.952  1.00  0.00     0.134 A 
ATOM     63  F   UNL A   1      47.654  25.750  32.251  1.00  0.00    -0.206 F 
ATOM     64  C   UNL A   1      49.796  25.380  31.367  1.00  0.00     0.040 A 
ATOM     65  C   UNL A   1      50.287  26.010  29.095  1.00  0.00     0.040 A 
ATOM     66  F   UNL A   1      48.636  27.024  27.773  1.00  0.00    -0.206 F 
ATOM     67  C   UNL A   1      50.698  25.462  30.309  1.00  0.00     0.006 A 
ENDBRANCH  46  60
BRANCH  47  68
ATOM     68  C   UNL A   1      38.540  29.226  29.118  1.00  0.00     0.057 A 
ATOM     69  C   UNL A   1      38.047  29.658  27.880  1.00  0.00     0.134 A 
ATOM     70  C   UNL A   1      37.656  29.227  30.201  1.00  0.00     0.134 A 
ATOM     71  F   UNL A   1      38.855  29.695  26.810  1.00  0.00    -0.206 F 
ATOM     72  C   UNL A   1      36.730  30.092  27.728  1.00  0.00     0.040 A 
ATOM     73  C   UNL A   1      36.329  29.638  30.059  1.00  0.00     0.040 A 
ATOM     74  F   UNL A   1      38.066  28.817  31.412  1.00  0.00    -0.206 F 
ATOM     75  C   UNL A   1      35.865  30.078  28.821  1.00  0.00     0.006 A 
ENDBRANCH  47  68
BRANCH  59  76
ATOM     76  C   UNL A   1      44.366  32.559  30.904  1.00  0.00     0.057 A 
ATOM     77  C   UNL A   1      44.348  32.982  32.240  1.00  0.00     0.134 A 
ATOM     78  C   UNL A   1      44.647  33.520  29.924  1.00  0.00     0.134 A 
ATOM     79  F   UNL A   1      44.071  32.114  33.224  1.00  0.00    -0.206 F 
ATOM     80  C   UNL A   1      44.568  34.317  32.584  1.00  0.00     0.040 A 
ATOM     81  C   UNL A   1      44.894  34.852  30.259  1.00  0.00     0.040 A 
ATOM     82  F   UNL A   1      44.686  33.178  28.627  1.00  0.00    -0.206 F 
ATOM     83  C   UNL A   1      44.845  35.255  31.592  1.00  0.00     0.006 A 
ENDBRANCH  59  76
ENDBRANCH  33  34
ENDBRANCH  25  28
ENDBRANCH  23  24
ENDBRANCH   1  23
TORSDOF 12
ENDMDL
MODEL 2
REMARK VINA RESULT:     -11.7      3.143      7.599
REMARK SMILES O=C(NCCCCNC(=O)c1ccc(-c2c3nc(c(-c4c(F)cccc4F)c4ccc([nH]4)c(-c4c(F)cccc4F)c4nc(c(-c5c(F)cccc5F)c5ccc2[nH]5)C=C4)C=C3)cc1)C1=Cc2cc(Cl)ccc2O[C@@H]1C(F)(F)F
REMARK SMILES IDX 6 1 5 2 4 3 3 4 1 5 2 6 65 8 66 9 75 10 67 11 74 12 68 13
REMARK SMILES IDX 73 14 69 15 72 16 70 17 71 18 76 19 77 20 78 21 79 22 7 23
REMARK SMILES IDX 8 24 9 25 10 27 11 28 12 29 64 30 13 31 63 32 14 33 15 34
REMARK SMILES IDX 16 35 57 36 17 37 62 38 56 39 58 40 18 41 61 42 55 43 54 44
REMARK SMILES IDX 19 46 45 47 28 48 44 49 29 50 32 51 43 52 59 53 30 54 31 55
REMARK SMILES IDX 42 57 60 58 33 59 20 60 21 61 26 62 22 63 23 64 25 65 27 66
REMARK SMILES IDX 24 67 46 68 47 69 52 70 48 71 49 72 51 73 53 74 50 75 34 76
REMARK SMILES IDX 35 77 40 78 36 79 37 80 39 81 41 82 38 83
REMARK H PARENT 3 7 8 26 58 45 32 56
REMARK Flexibility Score: inf
ROOT
ATOM      1  C   UNL A   1      32.911  28.956  26.659  1.00  0.00     0.023 C 
ENDROOT
BRANCH   1   2
ATOM      2  C   UNL A   1      31.795  28.186  27.353  1.00  0.00     0.023 C 
BRANCH   2   3
ATOM      3  C   UNL A   1      31.029  27.183  26.501  1.00  0.00     0.116 C 
BRANCH   3   4
ATOM      4  N   UNL A   1      31.229  25.785  26.841  1.00  0.00    -0.352 N 
ATOM      5  O   UNL A   1      32.272  23.796  26.893  1.00  0.00    -0.270 OA
ATOM      6  C   UNL A   1      32.160  24.902  26.363  1.00  0.00     0.251 C 
ATOM      7  H   UNL A   1      30.607  25.421  27.512  1.00  0.00     0.163 HD
BRANCH   6   8
ATOM      8  C   UNL A   1      33.112  25.258  25.270  1.00  0.00     0.067 C 
ATOM      9  C   UNL A   1      34.424  25.450  25.500  1.00  0.00     0.025 C 
ATOM     10  C   UNL A   1      32.675  24.758  23.910  1.00  0.00     0.314 C 
ATOM     11  C   UNL A   1      35.233  24.334  24.949  1.00  0.00     0.019 A 
ATOM     12  O   UNL A   1      33.405  23.559  23.523  1.00  0.00    -0.475 OA
ATOM     13  C   UNL A   1      36.482  24.070  25.525  1.00  0.00     0.032 A 
ATOM     14  C   UNL A   1      34.653  23.403  24.071  1.00  0.00     0.128 A 
ATOM     15  C   UNL A   1      37.099  22.844  25.288  1.00  0.00     0.041 A 
ATOM     16  C   UNL A   1      35.298  22.196  23.811  1.00  0.00     0.048 A 
ATOM     17  Cl  UNL A   1      38.548  22.451  26.127  1.00  0.00    -0.084 Cl
ATOM     18  C   UNL A   1      36.509  21.904  24.443  1.00  0.00     0.024 A 
BRANCH  10  19
ATOM     19  C   UNL A   1      32.773  25.844  22.826  1.00  0.00     0.429 C 
ATOM     20  F   UNL A   1      32.460  27.064  23.324  1.00  0.00    -0.167 F 
ATOM     21  F   UNL A   1      34.026  25.934  22.321  1.00  0.00    -0.167 F 
ATOM     22  F   UNL A   1      31.941  25.610  21.783  1.00  0.00    -0.167 F 
ENDBRANCH  10  19
ENDBRANCH   6   8
ENDBRANCH   3   4
ENDBRANCH   2   3
ENDBRANCH   1   2
BRANCH   1  23
ATOM     23  C   UNL A   1      34.268  28.987  27.359  1.00  0.00     0.116 C 
BRANCH  23  24
ATOM     24  N   UNL A   1      34.482  30.121  28.247  1.00  0.00    -0.352 N 
ATOM     25  C   UNL A   1      35.640  30.565  28.854  1.00  0.00     0.251 C 
ATOM     26  H   UNL A   1      33.678  30.654  28.445  1.00  0.00     0.163 HD
ATOM     27  O   UNL A   1      35.616  31.552  29.577  1.00  0.00    -0.269 OA
BRANCH  25  28
ATOM     28  C   UNL A   1      36.907  29.815  28.680  1.00  0.00     0.039 A 
ATOM     29  C   UNL A   1      37.557  29.883  27.444  1.00  0.00     0.014 A 
ATOM     30  C   UNL A   1      37.479  29.094  29.730  1.00  0.00     0.014 A 
ATOM     31  C   UNL A   1      38.832  29.329  27.301  1.00  0.00     0.010 A 
ATOM     32  C   UNL A   1      38.783  28.618  29.613  1.00  0.00     0.010 A 
ATOM     33  C   UNL A   1      39.481  28.747  28.402  1.00  0.00    -0.014 A 
BRANCH  33  34
ATOM     34  C   UNL A   1      40.905  28.330  28.309  1.00  0.00     0.031 A 
ATOM     35  C   UNL A   1      41.278  26.913  27.978  1.00  0.00     0.074 A 
ATOM     36  C   UNL A   1      41.872  29.229  28.583  1.00  0.00     0.049 A 
ATOM     37  N   UNL A   1      42.468  26.388  27.821  1.00  0.00    -0.248 NA
ATOM     38  C   UNL A   1      40.175  25.951  27.832  1.00  0.00     0.031 C 
ATOM     39  C   UNL A   1      41.648  30.615  29.001  1.00  0.00     0.029 A 
ATOM     40  N   UNL A   1      43.240  29.115  28.544  1.00  0.00    -0.354 N 
ATOM     41  C   UNL A   1      42.258  25.038  27.574  1.00  0.00     0.074 A 
ATOM     42  C   UNL A   1      40.830  24.814  27.655  1.00  0.00     0.031 C 
ATOM     43  C   UNL A   1      42.832  31.234  29.129  1.00  0.00     0.029 A 
ATOM     44  C   UNL A   1      43.899  30.287  28.826  1.00  0.00     0.049 A 
ATOM     45  H   UNL A   1      43.705  28.273  28.332  1.00  0.00     0.167 HD
ATOM     46  C   UNL A   1      43.167  24.077  27.280  1.00  0.00     0.037 A 
ATOM     47  C   UNL A   1      45.214  30.574  28.820  1.00  0.00     0.037 A 
ATOM     48  C   UNL A   1      44.584  24.305  27.170  1.00  0.00     0.049 A 
ATOM     49  C   UNL A   1      46.199  29.502  28.448  1.00  0.00     0.074 A 
ATOM     50  C   UNL A   1      45.576  23.417  26.796  1.00  0.00     0.029 A 
ATOM     51  N   UNL A   1      45.211  25.512  27.441  1.00  0.00    -0.354 N 
ATOM     52  N   UNL A   1      45.977  28.254  28.114  1.00  0.00    -0.248 NA
ATOM     53  C   UNL A   1      47.617  29.886  28.438  1.00  0.00     0.031 C 
ATOM     54  C   UNL A   1      46.809  24.075  26.874  1.00  0.00     0.029 A 
ATOM     55  C   UNL A   1      46.579  25.386  27.260  1.00  0.00     0.049 A 
ATOM     56  H   UNL A   1      44.753  26.337  27.719  1.00  0.00     0.167 HD
ATOM     57  C   UNL A   1      47.222  27.711  27.828  1.00  0.00     0.074 A 
ATOM     58  C   UNL A   1      48.193  28.771  28.012  1.00  0.00     0.031 C 
ATOM     59  C   UNL A   1      47.534  26.448  27.447  1.00  0.00     0.037 A 
BRANCH  46  60
ATOM     60  C   UNL A   1      42.647  22.688  27.049  1.00  0.00     0.057 A 
ATOM     61  C   UNL A   1      42.267  21.855  28.111  1.00  0.00     0.134 A 
ATOM     62  C   UNL A   1      42.510  22.181  25.751  1.00  0.00     0.134 A 
ATOM     63  F   UNL A   1      42.386  22.276  29.380  1.00  0.00    -0.206 F 
ATOM     64  C   UNL A   1      41.799  20.559  27.892  1.00  0.00     0.040 A 
ATOM     65  C   UNL A   1      42.019  20.896  25.517  1.00  0.00     0.040 A 
ATOM     66  F   UNL A   1      42.849  22.927  24.689  1.00  0.00    -0.206 F 
ATOM     67  C   UNL A   1      41.670  20.078  26.591  1.00  0.00     0.006 A 
ENDBRANCH  46  60
BRANCH  47  68
ATOM     68  C   UNL A   1      45.674  31.954  29.109  1.00  0.00     0.057 A 
ATOM     69  C   UNL A   1      45.994  32.342  30.416  1.00  0.00     0.134 A 
ATOM     70  C   UNL A   1      45.800  32.915  28.101  1.00  0.00     0.134 A 
ATOM     71  F   UNL A   1      45.875  31.469  31.427  1.00  0.00    -0.206 F 
ATOM     72  C   UNL A   1      46.406  33.642  30.713  1.00  0.00     0.040 A 
ATOM     73  C   UNL A   1      46.232  34.212  28.380  1.00  0.00     0.040 A 
ATOM     74  F   UNL A   1      45.516  32.601  26.827  1.00  0.00    -0.206 F 
ATOM     75  C   UNL A   1      46.531  34.581  29.691  1.00  0.00     0.006 A 
ENDBRANCH  47  68
BRANCH  59  76
ATOM     76  C   UNL A   1      48.981  26.158  27.179  1.00  0.00     0.057 A 
ATOM     77  C   UNL A   1      49.869  25.818  28.207  1.00  0.00     0.134 A 
ATOM     78  C   UNL A   1      49.491  26.217  25.876  1.00  0.00     0.134 A 
ATOM     79  F   UNL A   1      49.447  25.760  29.479  1.00  0.00    -0.206 F 
ATOM     80  C   UNL A   1      51.222  25.578  27.953  1.00  0.00     0.040 A 
ATOM     81  C   UNL A   1      50.835  25.954  25.606  1.00  0.00     0.040 A 
ATOM     82  F   UNL A   1      48.691  26.531  24.845  1.00  0.00    -0.206 F 
ATOM     83  C   UNL A   1      51.706  25.642  26.648  1.00  0.00     0.006 A 
ENDBRANCH  59  76
ENDBRANCH  33  34
ENDBRANCH  25  28
ENDBRANCH  23  24
ENDBRANCH   1  23
TORSDOF 12
ENDMDL
MODEL 3
REMARK VINA RESULT:     -11.6      3.376      7.853
REMARK SMILES O=C(NCCCCNC(=O)c1ccc(-c2c3nc(c(-c4c(F)cccc4F)c4ccc([nH]4)c(-c4c(F)cccc4F)c4nc(c(-c5c(F)cccc5F)c5ccc2[nH]5)C=C4)C=C3)cc1)C1=Cc2cc(Cl)ccc2O[C@@H]1C(F)(F)F
REMARK SMILES IDX 6 1 5 2 4 3 3 4 1 5 2 6 65 8 66 9 75 10 67 11 74 12 68 13
REMARK SMILES IDX 73 14 69 15 72 16 70 17 71 18 76 19 77 20 78 21 79 22 7 23
REMARK SMILES IDX 8 24 9 25 10 27 11 28 12 29 64 30 13 31 63 32 14 33 15 34
REMARK SMILES IDX 16 35 57 36 17 37 62 38 56 39 58 40 18 41 61 42 55 43 54 44
REMARK SMILES IDX 19 46 45 47 28 48 44 49 29 50 32 51 43 52 59 53 30 54 31 55
REMARK SMILES IDX 42 57 60 58 33 59 20 60 21 61 26 62 22 63 23 64 25 65 27 66
REMARK SMILES IDX 24 67 46 68 47 69 52 70 48 71 49 72 51 73 53 74 50 75 34 76
REMARK SMILES IDX 35 77 40 78 36 79 37 80 39 81 41 82 38 83
REMARK H PARENT 3 7 8 26 58 45 32 56
REMARK Flexibility Score: inf
ROOT
ATOM      1  C   UNL A   1      33.223  29.919  26.310  1.00  0.00     0.023 C 
ENDROOT
BRANCH   1   2
ATOM      2  C   UNL A   1      31.838  29.467  26.750  1.00  0.00     0.023 C 
BRANCH   2   3
ATOM      3  C   UNL A   1      31.771  28.206  27.600  1.00  0.00     0.116 C 
BRANCH   3   4
ATOM      4  N   UNL A   1      31.086  27.076  26.998  1.00  0.00    -0.352 N 
ATOM      5  O   UNL A   1      30.840  25.250  25.712  1.00  0.00    -0.270 OA
ATOM      6  C   UNL A   1      31.495  26.258  25.978  1.00  0.00     0.251 C 
ATOM      7  H   UNL A   1      30.202  26.867  27.378  1.00  0.00     0.163 HD
BRANCH   6   8
ATOM      8  C   UNL A   1      32.760  26.494  25.222  1.00  0.00     0.067 C 
ATOM      9  C   UNL A   1      33.954  26.076  25.681  1.00  0.00     0.025 C 
ATOM     10  C   UNL A   1      32.551  26.610  23.727  1.00  0.00     0.314 C 
ATOM     11  C   UNL A   1      34.462  24.931  24.883  1.00  0.00     0.019 A 
ATOM     12  O   UNL A   1      32.918  25.378  23.042  1.00  0.00    -0.475 OA
ATOM     13  C   UNL A   1      35.359  24.043  25.492  1.00  0.00     0.032 A 
ATOM     14  C   UNL A   1      33.857  24.593  23.662  1.00  0.00     0.128 A 
ATOM     15  C   UNL A   1      35.575  22.792  24.920  1.00  0.00     0.041 A 
ATOM     16  C   UNL A   1      34.110  23.353  23.080  1.00  0.00     0.048 A 
ATOM     17  Cl  UNL A   1      36.541  21.638  25.752  1.00  0.00    -0.084 Cl
ATOM     18  C   UNL A   1      34.948  22.439  23.724  1.00  0.00     0.024 A 
BRANCH  10  19
ATOM     19  C   UNL A   1      33.281  27.821  23.125  1.00  0.00     0.429 C 
ATOM     20  F   UNL A   1      33.653  27.583  21.844  1.00  0.00    -0.167 F 
ATOM     21  F   UNL A   1      32.494  28.922  23.108  1.00  0.00    -0.167 F 
ATOM     22  F   UNL A   1      34.401  28.145  23.814  1.00  0.00    -0.167 F 
ENDBRANCH  10  19
ENDBRANCH   6   8
ENDBRANCH   3   4
ENDBRANCH   2   3
ENDBRANCH   1   2
BRANCH   1  23
ATOM     23  C   UNL A   1      34.388  29.577  27.237  1.00  0.00     0.116 C 
BRANCH  23  24
ATOM     24  N   UNL A   1      34.559  30.471  28.374  1.00  0.00    -0.352 N 
ATOM     25  C   UNL A   1      35.667  30.693  29.168  1.00  0.00     0.251 C 
ATOM     26  H   UNL A   1      33.763  30.999  28.613  1.00  0.00     0.163 HD
ATOM     27  O   UNL A   1      35.611  31.495  30.090  1.00  0.00    -0.269 OA
BRANCH  25  28
ATOM     28  C   UNL A   1      36.911  29.919  28.944  1.00  0.00     0.039 A 
ATOM     29  C   UNL A   1      37.511  29.972  27.683  1.00  0.00     0.014 A 
ATOM     30  C   UNL A   1      37.512  29.190  29.972  1.00  0.00     0.014 A 
ATOM     31  C   UNL A   1      38.768  29.394  27.489  1.00  0.00     0.010 A 
ATOM     32  C   UNL A   1      38.801  28.689  29.802  1.00  0.00     0.010 A 
ATOM     33  C   UNL A   1      39.451  28.802  28.565  1.00  0.00    -0.014 A 
BRANCH  33  34
ATOM     34  C   UNL A   1      40.862  28.358  28.414  1.00  0.00     0.031 A 
ATOM     35  C   UNL A   1      41.195  26.932  28.075  1.00  0.00     0.074 A 
ATOM     36  C   UNL A   1      41.856  29.239  28.642  1.00  0.00     0.049 A 
ATOM     37  N   UNL A   1      42.367  26.385  27.872  1.00  0.00    -0.248 NA
ATOM     38  C   UNL A   1      40.069  25.991  27.980  1.00  0.00     0.031 C 
ATOM     39  C   UNL A   1      41.675  30.631  29.062  1.00  0.00     0.029 A 
ATOM     40  N   UNL A   1      43.218  29.099  28.547  1.00  0.00    -0.354 N 
ATOM     41  C   UNL A   1      42.121  25.038  27.641  1.00  0.00     0.074 A 
ATOM     42  C   UNL A   1      40.694  24.840  27.782  1.00  0.00     0.031 C 
ATOM     43  C   UNL A   1      42.875  31.229  29.138  1.00  0.00     0.029 A 
ATOM     44  C   UNL A   1      43.910  30.260  28.796  1.00  0.00     0.049 A 
ATOM     45  H   UNL A   1      43.658  28.248  28.321  1.00  0.00     0.167 HD
ATOM     46  C   UNL A   1      42.999  24.058  27.315  1.00  0.00     0.037 A 
ATOM     47  C   UNL A   1      45.229  30.522  28.734  1.00  0.00     0.037 A 
ATOM     48  C   UNL A   1      44.414  24.259  27.145  1.00  0.00     0.049 A 
ATOM     49  C   UNL A   1      46.177  29.431  28.326  1.00  0.00     0.074 A 
ATOM     50  C   UNL A   1      45.373  23.350  26.734  1.00  0.00     0.029 A 
ATOM     51  N   UNL A   1      45.075  25.455  27.382  1.00  0.00    -0.354 N 
ATOM     52  N   UNL A   1      45.919  28.186  28.009  1.00  0.00    -0.248 NA
ATOM     53  C   UNL A   1      47.601  29.787  28.255  1.00  0.00     0.031 C 
ATOM     54  C   UNL A   1      46.621  23.986  26.757  1.00  0.00     0.029 A 
ATOM     55  C   UNL A   1      46.432  25.302  27.145  1.00  0.00     0.049 A 
ATOM     56  H   UNL A   1      44.644  26.290  27.675  1.00  0.00     0.167 HD
ATOM     57  C   UNL A   1      47.141  27.618  27.674  1.00  0.00     0.074 A 
ATOM     58  C   UNL A   1      48.138  28.660  27.812  1.00  0.00     0.031 C 
ATOM     59  C   UNL A   1      47.412  26.348  27.286  1.00  0.00     0.037 A 
BRANCH  46  60
ATOM     60  C   UNL A   1      42.444  22.678  27.113  1.00  0.00     0.057 A 
ATOM     61  C   UNL A   1      42.045  21.877  28.192  1.00  0.00     0.134 A 
ATOM     62  C   UNL A   1      42.292  22.149  25.825  1.00  0.00     0.134 A 
ATOM     63  F   UNL A   1      42.178  22.320  29.452  1.00  0.00    -0.206 F 
ATOM     64  C   UNL A   1      41.545  20.589  28.000  1.00  0.00     0.040 A 
ATOM     65  C   UNL A   1      41.769  20.871  25.619  1.00  0.00     0.040 A 
ATOM     66  F   UNL A   1      42.648  22.863  24.748  1.00  0.00    -0.206 F 
ATOM     67  C   UNL A   1      41.402  20.084  26.710  1.00  0.00     0.006 A 
ENDBRANCH  46  60
BRANCH  47  68
ATOM     68  C   UNL A   1      45.727  31.895  28.995  1.00  0.00     0.057 A 
ATOM     69  C   UNL A   1      46.119  32.280  30.284  1.00  0.00     0.134 A 
ATOM     70  C   UNL A   1      45.818  32.852  27.980  1.00  0.00     0.134 A 
ATOM     71  F   UNL A   1      46.036  31.410  31.301  1.00  0.00    -0.206 F 
ATOM     72  C   UNL A   1      46.567  33.572  30.556  1.00  0.00     0.040 A 
ATOM     73  C   UNL A   1      46.285  34.142  28.233  1.00  0.00     0.040 A 
ATOM     74  F   UNL A   1      45.464  32.542  26.723  1.00  0.00    -0.206 F 
ATOM     75  C   UNL A   1      46.656  34.507  29.527  1.00  0.00     0.006 A 
ENDBRANCH  47  68
BRANCH  59  76
ATOM     76  C   UNL A   1      48.842  26.029  26.961  1.00  0.00     0.057 A 
ATOM     77  C   UNL A   1      49.716  25.494  27.915  1.00  0.00     0.134 A 
ATOM     78  C   UNL A   1      49.348  26.259  25.675  1.00  0.00     0.134 A 
ATOM     79  F   UNL A   1      49.298  25.266  29.168  1.00  0.00    -0.206 F 
ATOM     80  C   UNL A   1      51.053  25.227  27.610  1.00  0.00     0.040 A 
ATOM     81  C   UNL A   1      50.675  25.972  25.352  1.00  0.00     0.040 A 
ATOM     82  F   UNL A   1      48.561  26.764  24.713  1.00  0.00    -0.206 F 
ATOM     83  C   UNL A   1      51.534  25.464  26.324  1.00  0.00     0.006 A 
ENDBRANCH  59  76
ENDBRANCH  33  34
ENDBRANCH  25  28
ENDBRANCH  23  24
ENDBRANCH   1  23
TORSDOF 12
ENDMDL
