MODEL 1
REMARK VINA RESULT:     -12.3      0.000      0.000
REMARK SMILES CO[C@@H]1C[C@@H](C(=O)NCCCCNC(=O)c2ccc(-c3c4nc(c(-c5c(F)cccc5F)c5ccc([nH]5)c(-c5c(F)cccc5F)c5nc(c(-c6c(F)cccc6F)c6ccc3[nH]6)C=C5)C=C4)cc2)N(C(=O)c2nc(C(C)C)n[nH]2)C1
REMARK SMILES IDX 10 1 9 2 8 3 6 4 7 5 5 7 3 8 4 9 81 10 70 11 2 12 1 13 71 14
REMARK SMILES IDX 72 15 73 16 74 17 80 18 75 19 79 20 76 22 77 23 78 24 11 25
REMARK SMILES IDX 12 26 13 27 14 28 15 30 16 31 17 32 69 33 18 34 68 35 19 36
REMARK SMILES IDX 20 37 21 38 62 39 22 40 67 41 61 42 63 43 23 44 66 45 60 46
REMARK SMILES IDX 59 47 24 49 50 50 33 51 49 52 34 53 37 54 48 55 64 56 35 57
REMARK SMILES IDX 36 58 47 60 65 61 38 62 25 63 26 64 31 65 27 66 28 67 30 68
REMARK SMILES IDX 32 69 29 70 51 71 52 72 57 73 53 74 54 75 56 76 58 77 55 78
REMARK SMILES IDX 39 79 40 80 45 81 41 82 42 83 44 84 46 85 43 86
REMARK H PARENT 8 6 80 21 13 29 63 48 37 59
REMARK Flexibility Score: inf
ROOT
ATOM      1  C   UNL A   1      31.597  30.742  26.032  1.00  0.00     0.023 C 
ENDROOT
BRANCH   1   2
ATOM      2  C   UNL A   1      32.873  30.063  26.518  1.00  0.00     0.116 C 
BRANCH   2   3
ATOM      3  N   UNL A   1      33.749  29.585  25.462  1.00  0.00    -0.354 N 
ATOM      4  C   UNL A   1      33.476  28.589  24.564  1.00  0.00     0.242 C 
ATOM      5  O   UNL A   1      33.996  28.646  23.447  1.00  0.00    -0.273 OA
ATOM      6  H   UNL A   1      34.628  30.021  25.385  1.00  0.00     0.163 HD
BRANCH   4   7
ATOM      7  C   UNL A   1      32.575  27.421  24.979  1.00  0.00     0.177 C 
ATOM      8  C   UNL A   1      32.716  25.256  25.998  1.00  0.00     0.139 C 
ATOM      9  C   UNL A   1      33.354  26.636  26.047  1.00  0.00     0.069 C 
ATOM     10  C   UNL A   1      32.453  25.067  24.497  1.00  0.00     0.153 C 
ATOM     11  N   UNL A   1      32.312  26.413  23.949  1.00  0.00    -0.321 N 
BRANCH   8  12
ATOM     12  O   UNL A   1      31.475  25.236  26.713  1.00  0.00    -0.380 OA
ATOM     13  C   UNL A   1      30.538  24.303  26.189  1.00  0.00     0.195 C 
ENDBRANCH   8  12
BRANCH  11  14
ATOM     14  C   UNL A   1      31.698  26.600  22.717  1.00  0.00     0.291 C 
ATOM     15  O   UNL A   1      31.976  25.877  21.761  1.00  0.00    -0.265 OA
BRANCH  14  16
ATOM     16  C   UNL A   1      30.808  27.728  22.580  1.00  0.00     0.214 A 
ATOM     17  N   UNL A   1      29.556  27.803  22.994  1.00  0.00    -0.207 NA
ATOM     18  N   UNL A   1      31.124  28.880  21.920  1.00  0.00    -0.255 N 
ATOM     19  C   UNL A   1      29.138  29.027  22.527  1.00  0.00     0.153 A 
ATOM     20  N   UNL A   1      30.093  29.744  21.918  1.00  0.00    -0.158 NA
ATOM     21  H   UNL A   1      31.995  29.055  21.499  1.00  0.00     0.192 HD
BRANCH  19  22
ATOM     22  C   UNL A   1      27.748  29.556  22.710  1.00  0.00     0.053 C 
ATOM     23  C   UNL A   1      26.868  28.542  23.443  1.00  0.00     0.016 C 
ATOM     24  C   UNL A   1      27.718  30.901  23.438  1.00  0.00     0.016 C 
ENDBRANCH  19  22
ENDBRANCH  14  16
ENDBRANCH  11  14
ENDBRANCH   4   7
ENDBRANCH   2   3
ENDBRANCH   1   2
BRANCH   1  25
ATOM     25  C   UNL A   1      31.355  32.168  26.524  1.00  0.00     0.023 C 
BRANCH  25  26
ATOM     26  C   UNL A   1      32.506  32.850  27.259  1.00  0.00     0.116 C 
BRANCH  26  27
ATOM     27  N   UNL A   1      32.219  34.212  27.669  1.00  0.00    -0.352 N 
ATOM     28  C   UNL A   1      32.902  35.039  28.533  1.00  0.00     0.251 C 
ATOM     29  H   UNL A   1      31.411  34.607  27.267  1.00  0.00     0.163 HD
ATOM     30  O   UNL A   1      32.464  36.159  28.773  1.00  0.00    -0.269 OA
BRANCH  28  31
ATOM     31  C   UNL A   1      34.125  34.566  29.228  1.00  0.00     0.039 A 
ATOM     32  C   UNL A   1      34.002  34.101  30.541  1.00  0.00     0.014 A 
ATOM     33  C   UNL A   1      35.377  34.559  28.607  1.00  0.00     0.014 A 
ATOM     34  C   UNL A   1      35.103  33.535  31.190  1.00  0.00     0.010 A 
ATOM     35  C   UNL A   1      36.460  33.936  29.229  1.00  0.00     0.010 A 
ATOM     36  C   UNL A   1      36.328  33.398  30.519  1.00  0.00    -0.014 A 
BRANCH  36  37
ATOM     37  C   UNL A   1      37.459  32.651  31.130  1.00  0.00     0.031 A 
ATOM     38  C   UNL A   1      38.054  33.088  32.438  1.00  0.00     0.074 A 
ATOM     39  C   UNL A   1      38.001  31.610  30.466  1.00  0.00     0.049 A 
ATOM     40  N   UNL A   1      39.098  32.611  33.069  1.00  0.00    -0.248 NA
ATOM     41  C   UNL A   1      37.405  34.220  33.115  1.00  0.00     0.031 C 
ATOM     42  C   UNL A   1      37.551  31.105  29.168  1.00  0.00     0.029 A 
ATOM     43  N   UNL A   1      39.061  30.798  30.789  1.00  0.00    -0.354 N 
ATOM     44  C   UNL A   1      39.248  33.398  34.202  1.00  0.00     0.074 A 
ATOM     45  C   UNL A   1      38.199  34.397  34.163  1.00  0.00     0.031 C 
ATOM     46  C   UNL A   1      38.316  30.059  28.814  1.00  0.00     0.029 A 
ATOM     47  C   UNL A   1      39.328  29.840  29.842  1.00  0.00     0.049 A 
ATOM     48  H   UNL A   1      39.578  30.893  31.620  1.00  0.00     0.167 HD
ATOM     49  C   UNL A   1      40.165  33.293  35.193  1.00  0.00     0.037 A 
ATOM     50  C   UNL A   1      40.284  28.894  29.800  1.00  0.00     0.037 A 
ATOM     51  C   UNL A   1      41.186  32.282  35.263  1.00  0.00     0.049 A 
ATOM     52  C   UNL A   1      41.273  28.781  30.923  1.00  0.00     0.074 A 
ATOM     53  C   UNL A   1      42.122  32.068  36.262  1.00  0.00     0.029 A 
ATOM     54  N   UNL A   1      41.404  31.311  34.298  1.00  0.00    -0.354 N 
ATOM     55  N   UNL A   1      41.376  29.511  32.006  1.00  0.00    -0.248 NA
ATOM     56  C   UNL A   1      42.279  27.714  30.817  1.00  0.00     0.031 C 
ATOM     57  C   UNL A   1      42.917  30.977  35.892  1.00  0.00     0.029 A 
ATOM     58  C   UNL A   1      42.462  30.501  34.674  1.00  0.00     0.049 A 
ATOM     59  H   UNL A   1      40.883  31.213  33.468  1.00  0.00     0.167 HD
ATOM     60  C   UNL A   1      42.444  28.983  32.718  1.00  0.00     0.074 A 
ATOM     61  C   UNL A   1      42.953  27.866  31.949  1.00  0.00     0.031 C 
ATOM     62  C   UNL A   1      42.956  29.390  33.904  1.00  0.00     0.037 A 
BRANCH  49  63
ATOM     63  C   UNL A   1      40.103  34.306  36.293  1.00  0.00     0.057 A 
ATOM     64  C   UNL A   1      40.763  35.537  36.193  1.00  0.00     0.134 A 
ATOM     65  C   UNL A   1      39.347  34.064  37.446  1.00  0.00     0.134 A 
ATOM     66  F   UNL A   1      41.511  35.821  35.117  1.00  0.00    -0.206 F 
ATOM     67  C   UNL A   1      40.686  36.487  37.212  1.00  0.00     0.040 A 
ATOM     68  C   UNL A   1      39.250  35.012  38.465  1.00  0.00     0.040 A 
ATOM     69  F   UNL A   1      38.690  32.905  37.599  1.00  0.00    -0.206 F 
ATOM     70  C   UNL A   1      39.924  36.227  38.350  1.00  0.00     0.006 A 
ENDBRANCH  49  63
BRANCH  50  71
ATOM     71  C   UNL A   1      40.343  27.956  28.655  1.00  0.00     0.057 A 
ATOM     72  C   UNL A   1      41.067  28.277  27.503  1.00  0.00     0.134 A 
ATOM     73  C   UNL A   1      39.677  26.727  28.684  1.00  0.00     0.134 A 
ATOM     74  F   UNL A   1      41.708  29.452  27.414  1.00  0.00    -0.206 F 
ATOM     75  C   UNL A   1      41.121  27.410  26.410  1.00  0.00     0.040 A 
ATOM     76  C   UNL A   1      39.733  25.843  27.606  1.00  0.00     0.040 A 
ATOM     77  F   UNL A   1      38.969  26.365  29.764  1.00  0.00    -0.206 F 
ATOM     78  C   UNL A   1      40.455  26.186  26.463  1.00  0.00     0.006 A 
ENDBRANCH  50  71
BRANCH  62  79
ATOM     79  C   UNL A   1      44.110  28.610  34.451  1.00  0.00     0.057 A 
ATOM     80  C   UNL A   1      45.434  28.984  34.192  1.00  0.00     0.134 A 
ATOM     81  C   UNL A   1      43.894  27.492  35.265  1.00  0.00     0.134 A 
ATOM     82  F   UNL A   1      45.702  30.037  33.406  1.00  0.00    -0.206 F 
ATOM     83  C   UNL A   1      46.507  28.262  34.717  1.00  0.00     0.040 A 
ATOM     84  C   UNL A   1      44.959  26.771  35.806  1.00  0.00     0.040 A 
ATOM     85  F   UNL A   1      42.647  27.086  35.548  1.00  0.00    -0.206 F 
ATOM     86  C   UNL A   1      46.271  27.154  35.530  1.00  0.00     0.006 A 
ENDBRANCH  62  79
ENDBRANCH  36  37
ENDBRANCH  28  31
ENDBRANCH  26  27
ENDBRANCH  25  26
ENDBRANCH   1  25
TORSDOF 15
ENDMDL
MODEL 2
REMARK VINA RESULT:     -12.2      4.964      9.581
REMARK SMILES CO[C@@H]1C[C@@H](C(=O)NCCCCNC(=O)c2ccc(-c3c4nc(c(-c5c(F)cccc5F)c5ccc([nH]5)c(-c5c(F)cccc5F)c5nc(c(-c6c(F)cccc6F)c6ccc3[nH]6)C=C5)C=C4)cc2)N(C(=O)c2nc(C(C)C)n[nH]2)C1
REMARK SMILES IDX 10 1 9 2 8 3 6 4 7 5 5 7 3 8 4 9 81 10 70 11 2 12 1 13 71 14
REMARK SMILES IDX 72 15 73 16 74 17 80 18 75 19 79 20 76 22 77 23 78 24 11 25
REMARK SMILES IDX 12 26 13 27 14 28 15 30 16 31 17 32 69 33 18 34 68 35 19 36
REMARK SMILES IDX 20 37 21 38 62 39 22 40 67 41 61 42 63 43 23 44 66 45 60 46
REMARK SMILES IDX 59 47 24 49 50 50 33 51 49 52 34 53 37 54 48 55 64 56 35 57
REMARK SMILES IDX 36 58 47 60 65 61 38 62 25 63 26 64 31 65 27 66 28 67 30 68
REMARK SMILES IDX 32 69 29 70 51 71 52 72 57 73 53 74 54 75 56 76 58 77 55 78
REMARK SMILES IDX 39 79 40 80 45 81 41 82 42 83 44 84 46 85 43 86
REMARK H PARENT 8 6 80 21 13 29 63 48 37 59
REMARK Flexibility Score: inf
ROOT
ATOM      1  C   UNL A   1      36.284  21.834  24.533  1.00  0.00     0.023 C 
ENDROOT
BRANCH   1   2
ATOM      2  C   UNL A   1      36.236  22.945  25.574  1.00  0.00     0.116 C 
BRANCH   2   3
ATOM      3  N   UNL A   1      35.495  22.619  26.781  1.00  0.00    -0.354 N 
ATOM      4  C   UNL A   1      34.141  22.451  26.885  1.00  0.00     0.242 C 
ATOM      5  O   UNL A   1      33.709  21.677  27.744  1.00  0.00    -0.273 OA
ATOM      6  H   UNL A   1      36.019  22.510  27.607  1.00  0.00     0.163 HD
BRANCH   4   7
ATOM      7  C   UNL A   1      33.205  23.249  25.970  1.00  0.00     0.177 C 
ATOM      8  C   UNL A   1      31.050  24.298  26.003  1.00  0.00     0.139 C 
ATOM      9  C   UNL A   1      32.246  24.011  26.899  1.00  0.00     0.069 C 
ATOM     10  C   UNL A   1      30.950  23.015  25.166  1.00  0.00     0.153 C 
ATOM     11  N   UNL A   1      32.300  22.462  25.129  1.00  0.00    -0.321 N 
BRANCH   8  12
ATOM     12  O   UNL A   1      31.305  25.417  25.146  1.00  0.00    -0.380 OA
ATOM     13  C   UNL A   1      30.481  25.437  23.986  1.00  0.00     0.195 C 
ENDBRANCH   8  12
BRANCH  11  14
ATOM     14  C   UNL A   1      32.643  21.529  24.158  1.00  0.00     0.291 C 
ATOM     15  O   UNL A   1      32.753  21.864  22.979  1.00  0.00    -0.265 OA
BRANCH  14  16
ATOM     16  C   UNL A   1      32.762  20.151  24.569  1.00  0.00     0.214 A 
ATOM     17  N   UNL A   1      33.224  19.146  23.847  1.00  0.00    -0.207 NA
ATOM     18  N   UNL A   1      32.333  19.669  25.771  1.00  0.00    -0.255 N 
ATOM     19  C   UNL A   1      33.021  18.053  24.656  1.00  0.00     0.153 A 
ATOM     20  N   UNL A   1      32.536  18.343  25.870  1.00  0.00    -0.158 NA
ATOM     21  H   UNL A   1      31.925  20.222  26.476  1.00  0.00     0.192 HD
BRANCH  19  22
ATOM     22  C   UNL A   1      33.352  16.649  24.251  1.00  0.00     0.053 C 
ATOM     23  C   UNL A   1      34.160  16.628  22.953  1.00  0.00     0.016 C 
ATOM     24  C   UNL A   1      34.093  15.877  25.344  1.00  0.00     0.016 C 
ENDBRANCH  19  22
ENDBRANCH  14  16
ENDBRANCH  11  14
ENDBRANCH   4   7
ENDBRANCH   2   3
ENDBRANCH   1   2
BRANCH   1  25
ATOM     25  C   UNL A   1      37.182  20.639  24.852  1.00  0.00     0.023 C 
BRANCH  25  26
ATOM     26  C   UNL A   1      38.483  20.932  25.594  1.00  0.00     0.116 C 
BRANCH  26  27
ATOM     27  N   UNL A   1      39.448  19.850  25.543  1.00  0.00    -0.352 N 
ATOM     28  C   UNL A   1      40.754  19.808  25.976  1.00  0.00     0.251 C 
ATOM     29  H   UNL A   1      39.118  19.016  25.136  1.00  0.00     0.163 HD
ATOM     30  O   UNL A   1      41.418  18.790  25.803  1.00  0.00    -0.269 OA
BRANCH  28  31
ATOM     31  C   UNL A   1      41.390  21.001  26.588  1.00  0.00     0.039 A 
ATOM     32  C   UNL A   1      41.936  21.969  25.739  1.00  0.00     0.014 A 
ATOM     33  C   UNL A   1      41.443  21.186  27.972  1.00  0.00     0.014 A 
ATOM     34  C   UNL A   1      42.435  23.163  26.268  1.00  0.00     0.010 A 
ATOM     35  C   UNL A   1      41.881  22.403  28.496  1.00  0.00     0.010 A 
ATOM     36  C   UNL A   1      42.361  23.413  27.646  1.00  0.00    -0.014 A 
BRANCH  36  37
ATOM     37  C   UNL A   1      42.731  24.739  28.207  1.00  0.00     0.031 A 
ATOM     38  C   UNL A   1      41.691  25.800  28.429  1.00  0.00     0.074 A 
ATOM     39  C   UNL A   1      44.028  25.017  28.452  1.00  0.00     0.049 A 
ATOM     40  N   UNL A   1      41.848  27.039  28.822  1.00  0.00    -0.248 NA
ATOM     41  C   UNL A   1      40.296  25.426  28.155  1.00  0.00     0.031 C 
ATOM     42  C   UNL A   1      45.147  24.096  28.241  1.00  0.00     0.029 A 
ATOM     43  N   UNL A   1      44.624  26.162  28.921  1.00  0.00    -0.354 N 
ATOM     44  C   UNL A   1      40.578  27.601  28.820  1.00  0.00     0.074 A 
ATOM     45  C   UNL A   1      39.664  26.573  28.366  1.00  0.00     0.031 C 
ATOM     46  C   UNL A   1      46.290  24.705  28.597  1.00  0.00     0.029 A 
ATOM     47  C   UNL A   1      45.990  26.066  29.029  1.00  0.00     0.049 A 
ATOM     48  H   UNL A   1      44.120  26.973  29.158  1.00  0.00     0.167 HD
ATOM     49  C   UNL A   1      40.205  28.853  29.174  1.00  0.00     0.037 A 
ATOM     50  C   UNL A   1      46.902  26.974  29.425  1.00  0.00     0.037 A 
ATOM     51  C   UNL A   1      41.098  29.870  29.663  1.00  0.00     0.049 A 
ATOM     52  C   UNL A   1      46.459  28.347  29.838  1.00  0.00     0.074 A 
ATOM     53  C   UNL A   1      40.793  31.149  30.099  1.00  0.00     0.029 A 
ATOM     54  N   UNL A   1      42.470  29.723  29.786  1.00  0.00    -0.354 N 
ATOM     55  N   UNL A   1      45.249  28.848  29.865  1.00  0.00    -0.248 NA
ATOM     56  C   UNL A   1      47.508  29.279  30.274  1.00  0.00     0.031 C 
ATOM     57  C   UNL A   1      41.985  31.782  30.470  1.00  0.00     0.029 A 
ATOM     58  C   UNL A   1      43.027  30.889  30.284  1.00  0.00     0.049 A 
ATOM     59  H   UNL A   1      42.974  28.909  29.554  1.00  0.00     0.167 HD
ATOM     60  C   UNL A   1      45.388  30.146  30.335  1.00  0.00     0.074 A 
ATOM     61  C   UNL A   1      46.799  30.355  30.589  1.00  0.00     0.031 C 
ATOM     62  C   UNL A   1      44.430  31.082  30.537  1.00  0.00     0.037 A 
BRANCH  49  63
ATOM     63  C   UNL A   1      38.753  29.195  29.047  1.00  0.00     0.057 A 
ATOM     64  C   UNL A   1      37.891  29.155  30.150  1.00  0.00     0.134 A 
ATOM     65  C   UNL A   1      38.219  29.604  27.819  1.00  0.00     0.134 A 
ATOM     66  F   UNL A   1      38.344  28.760  31.350  1.00  0.00    -0.206 F 
ATOM     67  C   UNL A   1      36.543  29.493  30.033  1.00  0.00     0.040 A 
ATOM     68  C   UNL A   1      36.876  29.960  27.692  1.00  0.00     0.040 A 
ATOM     69  F   UNL A   1      38.995  29.667  26.726  1.00  0.00    -0.206 F 
ATOM     70  C   UNL A   1      36.034  29.902  28.801  1.00  0.00     0.006 A 
ENDBRANCH  49  63
BRANCH  50  71
ATOM     71  C   UNL A   1      48.336  26.605  29.471  1.00  0.00     0.057 A 
ATOM     72  C   UNL A   1      48.870  25.943  30.580  1.00  0.00     0.134 A 
ATOM     73  C   UNL A   1      49.200  26.906  28.413  1.00  0.00     0.134 A 
ATOM     74  F   UNL A   1      48.091  25.648  31.630  1.00  0.00    -0.206 F 
ATOM     75  C   UNL A   1      50.222  25.601  30.643  1.00  0.00     0.040 A 
ATOM     76  C   UNL A   1      50.550  26.557  28.455  1.00  0.00     0.040 A 
ATOM     77  F   UNL A   1      48.742  27.538  27.322  1.00  0.00    -0.206 F 
ATOM     78  C   UNL A   1      51.065  25.905  29.575  1.00  0.00     0.006 A 
ENDBRANCH  50  71
BRANCH  62  79
ATOM     79  C   UNL A   1      44.874  32.405  31.079  1.00  0.00     0.057 A 
ATOM     80  C   UNL A   1      45.229  33.461  30.232  1.00  0.00     0.134 A 
ATOM     81  C   UNL A   1      44.919  32.631  32.460  1.00  0.00     0.134 A 
ATOM     82  F   UNL A   1      45.219  33.297  28.901  1.00  0.00    -0.206 F 
ATOM     83  C   UNL A   1      45.627  34.697  30.742  1.00  0.00     0.040 A 
ATOM     84  C   UNL A   1      45.303  33.867  32.980  1.00  0.00     0.040 A 
ATOM     85  F   UNL A   1      44.590  31.657  33.321  1.00  0.00    -0.206 F 
ATOM     86  C   UNL A   1      45.661  34.904  32.120  1.00  0.00     0.006 A 
ENDBRANCH  62  79
ENDBRANCH  36  37
ENDBRANCH  28  31
ENDBRANCH  26  27
ENDBRANCH  25  26
ENDBRANCH   1  25
TORSDOF 15
ENDMDL
MODEL 3
REMARK VINA RESULT:     -12.2      1.098      1.859
REMARK SMILES CO[C@@H]1C[C@@H](C(=O)NCCCCNC(=O)c2ccc(-c3c4nc(c(-c5c(F)cccc5F)c5ccc([nH]5)c(-c5c(F)cccc5F)c5nc(c(-c6c(F)cccc6F)c6ccc3[nH]6)C=C5)C=C4)cc2)N(C(=O)c2nc(C(C)C)n[nH]2)C1
REMARK SMILES IDX 10 1 9 2 8 3 6 4 7 5 5 7 3 8 4 9 81 10 70 11 2 12 1 13 71 14
REMARK SMILES IDX 72 15 73 16 74 17 80 18 75 19 79 20 76 22 77 23 78 24 11 25
REMARK SMILES IDX 12 26 13 27 14 28 15 30 16 31 17 32 69 33 18 34 68 35 19 36
REMARK SMILES IDX 20 37 21 38 62 39 22 40 67 41 61 42 63 43 23 44 66 45 60 46
REMARK SMILES IDX 59 47 24 49 50 50 33 51 49 52 34 53 37 54 48 55 64 56 35 57
REMARK SMILES IDX 36 58 47 60 65 61 38 62 25 63 26 64 31 65 27 66 28 67 30 68
REMARK SMILES IDX 32 69 29 70 51 71 52 72 57 73 53 74 54 75 56 76 58 77 55 78
REMARK SMILES IDX 39 79 40 80 45 81 41 82 42 83 44 84 46 85 43 86
REMARK H PARENT 8 6 80 21 13 29 63 48 37 59
REMARK Flexibility Score: inf
ROOT
ATOM      1  C   UNL A   1      31.616  30.688  26.210  1.00  0.00     0.023 C 
ENDROOT
BRANCH   1   2
ATOM      2  C   UNL A   1      32.926  30.021  26.615  1.00  0.00     0.116 C 
BRANCH   2   3
ATOM      3  N   UNL A   1      33.753  29.578  25.506  1.00  0.00    -0.354 N 
ATOM      4  C   UNL A   1      33.433  28.621  24.582  1.00  0.00     0.242 C 
ATOM      5  O   UNL A   1      33.907  28.719  23.447  1.00  0.00    -0.273 OA
ATOM      6  H   UNL A   1      34.633  30.009  25.410  1.00  0.00     0.163 HD
BRANCH   4   7
ATOM      7  C   UNL A   1      32.537  27.446  24.987  1.00  0.00     0.177 C 
ATOM      8  C   UNL A   1      32.686  25.279  26.000  1.00  0.00     0.139 C 
ATOM      9  C   UNL A   1      33.315  26.663  26.057  1.00  0.00     0.069 C 
ATOM     10  C   UNL A   1      32.435  25.092  24.497  1.00  0.00     0.153 C 
ATOM     11  N   UNL A   1      32.288  26.439  23.952  1.00  0.00    -0.321 N 
BRANCH   8  12
ATOM     12  O   UNL A   1      31.441  25.248  26.706  1.00  0.00    -0.380 OA
ATOM     13  C   UNL A   1      30.505  24.326  26.160  1.00  0.00     0.195 C 
ENDBRANCH   8  12
BRANCH  11  14
ATOM     14  C   UNL A   1      31.681  26.626  22.716  1.00  0.00     0.291 C 
ATOM     15  O   UNL A   1      31.975  25.911  21.759  1.00  0.00    -0.265 OA
BRANCH  14  16
ATOM     16  C   UNL A   1      30.779  27.744  22.579  1.00  0.00     0.214 A 
ATOM     17  N   UNL A   1      29.527  27.808  22.998  1.00  0.00    -0.207 NA
ATOM     18  N   UNL A   1      31.080  28.897  21.915  1.00  0.00    -0.255 N 
ATOM     19  C   UNL A   1      29.096  29.026  22.527  1.00  0.00     0.153 A 
ATOM     20  N   UNL A   1      30.041  29.750  21.913  1.00  0.00    -0.158 NA
ATOM     21  H   UNL A   1      31.949  29.079  21.489  1.00  0.00     0.192 HD
BRANCH  19  22
ATOM     22  C   UNL A   1      27.701  29.540  22.714  1.00  0.00     0.053 C 
ATOM     23  C   UNL A   1      26.836  28.524  23.460  1.00  0.00     0.016 C 
ATOM     24  C   UNL A   1      27.660  30.891  23.430  1.00  0.00     0.016 C 
ENDBRANCH  19  22
ENDBRANCH  14  16
ENDBRANCH  11  14
ENDBRANCH   4   7
ENDBRANCH   2   3
ENDBRANCH   1   2
BRANCH   1  25
ATOM     25  C   UNL A   1      31.330  32.057  26.825  1.00  0.00     0.023 C 
BRANCH  25  26
ATOM     26  C   UNL A   1      32.375  33.147  26.602  1.00  0.00     0.116 C 
BRANCH  26  27
ATOM     27  N   UNL A   1      32.292  34.247  27.545  1.00  0.00    -0.352 N 
ATOM     28  C   UNL A   1      33.103  34.561  28.612  1.00  0.00     0.251 C 
ATOM     29  H   UNL A   1      31.539  34.865  27.399  1.00  0.00     0.163 HD
ATOM     30  O   UNL A   1      32.833  35.529  29.315  1.00  0.00    -0.269 OA
BRANCH  28  31
ATOM     31  C   UNL A   1      34.263  33.703  28.963  1.00  0.00     0.039 A 
ATOM     32  C   UNL A   1      35.537  34.280  28.961  1.00  0.00     0.014 A 
ATOM     33  C   UNL A   1      34.114  32.357  29.305  1.00  0.00     0.014 A 
ATOM     34  C   UNL A   1      36.640  33.543  29.402  1.00  0.00     0.010 A 
ATOM     35  C   UNL A   1      35.203  31.641  29.805  1.00  0.00     0.010 A 
ATOM     36  C   UNL A   1      36.473  32.234  29.879  1.00  0.00    -0.014 A 
BRANCH  36  37
ATOM     37  C   UNL A   1      37.602  31.496  30.505  1.00  0.00     0.031 A 
ATOM     38  C   UNL A   1      37.987  31.745  31.935  1.00  0.00     0.074 A 
ATOM     39  C   UNL A   1      38.332  30.643  29.758  1.00  0.00     0.049 A 
ATOM     40  N   UNL A   1      38.997  31.261  32.614  1.00  0.00    -0.248 NA
ATOM     41  C   UNL A   1      37.140  32.676  32.696  1.00  0.00     0.031 C 
ATOM     42  C   UNL A   1      38.096  30.338  28.345  1.00  0.00     0.029 A 
ATOM     43  N   UNL A   1      39.430  29.885  30.083  1.00  0.00    -0.354 N 
ATOM     44  C   UNL A   1      38.924  31.844  33.871  1.00  0.00     0.074 A 
ATOM     45  C   UNL A   1      37.781  32.735  33.856  1.00  0.00     0.031 C 
ATOM     46  C   UNL A   1      39.009  29.445  27.930  1.00  0.00     0.029 A 
ATOM     47  C   UNL A   1      39.912  29.139  29.035  1.00  0.00     0.049 A 
ATOM     48  H   UNL A   1      39.833  29.878  30.980  1.00  0.00     0.167 HD
ATOM     49  C   UNL A   1      39.725  31.647  34.945  1.00  0.00     0.037 A 
ATOM     50  C   UNL A   1      40.967  28.306  28.967  1.00  0.00     0.037 A 
ATOM     51  C   UNL A   1      40.838  30.736  34.984  1.00  0.00     0.049 A 
ATOM     52  C   UNL A   1      41.824  28.086  30.179  1.00  0.00     0.074 A 
ATOM     53  C   UNL A   1      41.668  30.434  36.051  1.00  0.00     0.029 A 
ATOM     54  N   UNL A   1      41.274  29.977  33.911  1.00  0.00    -0.354 N 
ATOM     55  N   UNL A   1      41.717  28.617  31.371  1.00  0.00    -0.248 NA
ATOM     56  C   UNL A   1      42.949  27.150  30.035  1.00  0.00     0.031 C 
ATOM     57  C   UNL A   1      42.618  29.503  35.617  1.00  0.00     0.029 A 
ATOM     58  C   UNL A   1      42.366  29.211  34.287  1.00  0.00     0.049 A 
ATOM     59  H   UNL A   1      40.868  29.981  33.014  1.00  0.00     0.167 HD
ATOM     60  C   UNL A   1      42.746  28.071  32.124  1.00  0.00     0.074 A 
ATOM     61  C   UNL A   1      43.465  27.158  31.257  1.00  0.00     0.031 C 
ATOM     62  C   UNL A   1      43.068  28.305  33.418  1.00  0.00     0.037 A 
BRANCH  49  63
ATOM     63  C   UNL A   1      39.421  32.439  36.179  1.00  0.00     0.057 A 
ATOM     64  C   UNL A   1      40.080  33.642  36.458  1.00  0.00     0.134 A 
ATOM     65  C   UNL A   1      38.435  32.013  37.077  1.00  0.00     0.134 A 
ATOM     66  F   UNL A   1      41.042  34.095  35.640  1.00  0.00    -0.206 F 
ATOM     67  C   UNL A   1      39.781  34.388  37.598  1.00  0.00     0.040 A 
ATOM     68  C   UNL A   1      38.115  32.758  38.212  1.00  0.00     0.040 A 
ATOM     69  F   UNL A   1      37.765  30.871  36.862  1.00  0.00    -0.206 F 
ATOM     70  C   UNL A   1      38.791  33.947  38.477  1.00  0.00     0.006 A 
ENDBRANCH  49  63
BRANCH  50  71
ATOM     71  C   UNL A   1      41.264  27.596  27.701  1.00  0.00     0.057 A 
ATOM     72  C   UNL A   1      40.761  26.313  27.464  1.00  0.00     0.134 A 
ATOM     73  C   UNL A   1      42.056  28.180  26.707  1.00  0.00     0.134 A 
ATOM     74  F   UNL A   1      40.013  25.700  28.392  1.00  0.00    -0.206 F 
ATOM     75  C   UNL A   1      41.043  25.627  26.282  1.00  0.00     0.040 A 
ATOM     76  C   UNL A   1      42.335  27.512  25.514  1.00  0.00     0.040 A 
ATOM     77  F   UNL A   1      42.564  29.409  26.879  1.00  0.00    -0.206 F 
ATOM     78  C   UNL A   1      41.830  26.229  25.301  1.00  0.00     0.006 A 
ENDBRANCH  50  71
BRANCH  62  79
ATOM     79  C   UNL A   1      44.230  27.548  33.979  1.00  0.00     0.057 A 
ATOM     80  C   UNL A   1      44.077  26.265  34.519  1.00  0.00     0.134 A 
ATOM     81  C   UNL A   1      45.518  28.096  33.955  1.00  0.00     0.134 A 
ATOM     82  F   UNL A   1      42.865  25.696  34.583  1.00  0.00    -0.206 F 
ATOM     83  C   UNL A   1      45.167  25.557  35.027  1.00  0.00     0.040 A 
ATOM     84  C   UNL A   1      46.616  27.392  34.448  1.00  0.00     0.040 A 
ATOM     85  F   UNL A   1      45.727  29.321  33.450  1.00  0.00    -0.206 F 
ATOM     86  C   UNL A   1      46.442  26.119  34.989  1.00  0.00     0.006 A 
ENDBRANCH  62  79
ENDBRANCH  36  37
ENDBRANCH  28  31
ENDBRANCH  26  27
ENDBRANCH  25  26
ENDBRANCH   1  25
TORSDOF 15
ENDMDL
