MODEL 1
REMARK VINA RESULT:     -11.5      0.000      0.000
REMARK SMILES CC[C@@]1(C)C[C@@H]([NH2+]C[C@H]2CC[C@@H](C(=O)NCCCCNC(=O)c3ccc(-c4c5nc(c(-c6c(F)cccc6F)c6ccc([nH]6)c(-c6c(F)cccc6F)c6nc(c(-c7c(F)cccc7F)c7ccc4[nH]7)C=C6)C=C5)cc3)CC2)CCO1
REMARK SMILES IDX 16 1 15 2 13 3 14 4 12 6 9 7 10 8 78 9 11 10 77 11 8 12 7 13
REMARK SMILES IDX 6 16 3 17 4 18 5 19 81 20 80 21 79 22 2 23 1 24 17 25 18 26
REMARK SMILES IDX 19 27 20 28 21 29 22 31 23 32 24 33 76 34 25 35 75 36 26 37
REMARK SMILES IDX 27 38 28 39 69 40 29 41 74 42 68 43 70 44 30 45 73 46 67 47
REMARK SMILES IDX 66 48 31 50 57 51 40 52 56 53 41 54 44 55 55 56 71 57 42 58
REMARK SMILES IDX 43 59 54 61 72 62 45 63 32 64 33 65 38 66 34 67 35 68 37 69
REMARK SMILES IDX 39 70 36 71 58 72 59 73 64 74 60 75 61 76 63 77 65 78 62 79
REMARK SMILES IDX 46 80 47 81 52 82 48 83 49 84 51 85 53 86 50 87
REMARK H PARENT 15 5 7 14 7 15 20 30 70 49 44 60
REMARK Flexibility Score: inf
ROOT
ATOM      1  C   UNL A   1      33.003  30.088  26.468  1.00  0.00     0.116 C 
ENDROOT
BRANCH   1   2
ATOM      2  N   UNL A   1      33.593  29.377  25.347  1.00  0.00    -0.356 N 
ATOM      3  C   UNL A   1      33.310  28.135  24.859  1.00  0.00     0.223 C 
ATOM      4  O   UNL A   1      33.972  27.708  23.913  1.00  0.00    -0.275 OA
ATOM      5  H   UNL A   1      34.302  29.864  24.868  1.00  0.00     0.163 HD
BRANCH   3   6
ATOM      6  C   UNL A   1      32.181  27.321  25.465  1.00  0.00     0.078 C 
ATOM      7  C   UNL A   1      30.657  24.766  25.441  1.00  0.00     0.044 C 
ATOM      8  C   UNL A   1      31.742  25.017  26.489  1.00  0.00     0.010 C 
ATOM      9  C   UNL A   1      30.046  26.059  24.896  1.00  0.00     0.010 C 
ATOM     10  C   UNL A   1      32.764  26.076  26.148  1.00  0.00     0.014 C 
ATOM     11  C   UNL A   1      31.058  27.091  24.447  1.00  0.00     0.014 C 
BRANCH   7  12
ATOM     12  C   UNL A   1      31.005  23.742  24.332  1.00  0.00     0.264 C 
BRANCH  12  13
ATOM     13  N   UNL A   1      31.839  22.609  24.751  1.00  0.00    -0.343 N 
ATOM     14  H   UNL A   1      32.320  22.879  25.609  1.00  0.00     0.346 HD
ATOM     15  H   UNL A   1      31.195  21.824  24.851  1.00  0.00     0.346 HD
BRANCH  13  16
ATOM     16  C   UNL A   1      32.860  22.150  23.794  1.00  0.00     0.187 C 
ATOM     17  C   UNL A   1      35.131  22.130  25.097  1.00  0.00     0.071 C 
ATOM     18  C   UNL A   1      36.307  21.168  25.342  1.00  0.00     0.042 C 
ATOM     19  C   UNL A   1      34.052  21.330  24.319  1.00  0.00     0.100 C 
ATOM     20  O   UNL A   1      35.597  23.146  24.179  1.00  0.00    -0.375 OA
ATOM     21  C   UNL A   1      34.574  24.049  23.741  1.00  0.00     0.167 C 
ATOM     22  C   UNL A   1      33.450  23.332  23.000  1.00  0.00     0.093 C 
BRANCH  17  23
ATOM     23  C   UNL A   1      34.746  22.846  26.428  1.00  0.00     0.032 C 
ATOM     24  C   UNL A   1      34.050  22.035  27.514  1.00  0.00     0.007 C 
ENDBRANCH  17  23
ENDBRANCH  13  16
ENDBRANCH  12  13
ENDBRANCH   7  12
ENDBRANCH   3   6
ENDBRANCH   1   2
BRANCH   1  25
ATOM     25  C   UNL A   1      31.716  30.792  26.071  1.00  0.00     0.023 C 
BRANCH  25  26
ATOM     26  C   UNL A   1      31.442  32.049  26.884  1.00  0.00     0.023 C 
BRANCH  26  27
ATOM     27  C   UNL A   1      32.691  32.850  27.217  1.00  0.00     0.116 C 
BRANCH  27  28
ATOM     28  N   UNL A   1      32.394  34.222  27.604  1.00  0.00    -0.352 N 
ATOM     29  C   UNL A   1      33.010  34.967  28.579  1.00  0.00     0.251 C 
ATOM     30  H   UNL A   1      31.668  34.667  27.110  1.00  0.00     0.163 HD
ATOM     31  O   UNL A   1      32.578  36.063  28.914  1.00  0.00    -0.269 OA
BRANCH  29  32
ATOM     32  C   UNL A   1      34.196  34.391  29.233  1.00  0.00     0.039 A 
ATOM     33  C   UNL A   1      34.026  33.555  30.336  1.00  0.00     0.014 A 
ATOM     34  C   UNL A   1      35.462  34.607  28.680  1.00  0.00     0.014 A 
ATOM     35  C   UNL A   1      35.133  32.892  30.863  1.00  0.00     0.010 A 
ATOM     36  C   UNL A   1      36.543  33.874  29.146  1.00  0.00     0.010 A 
ATOM     37  C   UNL A   1      36.393  33.028  30.255  1.00  0.00    -0.014 A 
BRANCH  37  38
ATOM     38  C   UNL A   1      37.585  32.336  30.796  1.00  0.00     0.031 A 
ATOM     39  C   UNL A   1      38.219  32.838  32.063  1.00  0.00     0.074 A 
ATOM     40  C   UNL A   1      38.131  31.305  30.123  1.00  0.00     0.049 A 
ATOM     41  N   UNL A   1      39.297  32.418  32.672  1.00  0.00    -0.248 NA
ATOM     42  C   UNL A   1      37.576  33.993  32.708  1.00  0.00     0.031 C 
ATOM     43  C   UNL A   1      37.643  30.768  28.851  1.00  0.00     0.029 A 
ATOM     44  N   UNL A   1      39.226  30.533  30.414  1.00  0.00    -0.354 N 
ATOM     45  C   UNL A   1      39.471  33.271  33.754  1.00  0.00     0.074 A 
ATOM     46  C   UNL A   1      38.431  34.272  33.678  1.00  0.00     0.031 C 
ATOM     47  C   UNL A   1      38.420  29.737  28.485  1.00  0.00     0.029 A 
ATOM     48  C   UNL A   1      39.476  29.560  29.478  1.00  0.00     0.049 A 
ATOM     49  H   UNL A   1      39.779  30.663  31.217  1.00  0.00     0.167 HD
ATOM     50  C   UNL A   1      40.393  33.208  34.744  1.00  0.00     0.037 A 
ATOM     51  C   UNL A   1      40.448  28.630  29.431  1.00  0.00     0.037 A 
ATOM     52  C   UNL A   1      41.405  32.190  34.831  1.00  0.00     0.049 A 
ATOM     53  C   UNL A   1      41.446  28.558  30.552  1.00  0.00     0.074 A 
ATOM     54  C   UNL A   1      42.351  31.995  35.821  1.00  0.00     0.029 A 
ATOM     55  N   UNL A   1      41.601  31.193  33.885  1.00  0.00    -0.354 N 
ATOM     56  N   UNL A   1      41.557  29.324  31.612  1.00  0.00    -0.248 NA
ATOM     57  C   UNL A   1      42.446  27.483  30.481  1.00  0.00     0.031 C 
ATOM     58  C   UNL A   1      43.145  30.904  35.454  1.00  0.00     0.029 A 
ATOM     59  C   UNL A   1      42.662  30.388  34.261  1.00  0.00     0.049 A 
ATOM     60  H   UNL A   1      41.065  31.077  33.068  1.00  0.00     0.167 HD
ATOM     61  C   UNL A   1      42.616  28.806  32.347  1.00  0.00     0.074 A 
ATOM     62  C   UNL A   1      43.107  27.656  31.616  1.00  0.00     0.031 C 
ATOM     63  C   UNL A   1      43.131  29.242  33.524  1.00  0.00     0.037 A 
BRANCH  50  64
ATOM     64  C   UNL A   1      40.334  34.273  35.801  1.00  0.00     0.057 A 
ATOM     65  C   UNL A   1      39.549  34.130  36.954  1.00  0.00     0.134 A 
ATOM     66  C   UNL A   1      41.057  35.463  35.657  1.00  0.00     0.134 A 
ATOM     67  F   UNL A   1      38.816  33.022  37.146  1.00  0.00    -0.206 F 
ATOM     68  C   UNL A   1      39.450  35.150  37.903  1.00  0.00     0.040 A 
ATOM     69  C   UNL A   1      40.992  36.476  36.616  1.00  0.00     0.040 A 
ATOM     70  F   UNL A   1      41.832  35.665  34.581  1.00  0.00    -0.206 F 
ATOM     71  C   UNL A   1      40.176  36.326  37.736  1.00  0.00     0.006 A 
ENDBRANCH  50  64
BRANCH  51  72
ATOM     72  C   UNL A   1      40.489  27.665  28.303  1.00  0.00     0.057 A 
ATOM     73  C   UNL A   1      39.819  26.440  28.379  1.00  0.00     0.134 A 
ATOM     74  C   UNL A   1      41.178  27.953  27.119  1.00  0.00     0.134 A 
ATOM     75  F   UNL A   1      39.154  26.101  29.492  1.00  0.00    -0.206 F 
ATOM     76  C   UNL A   1      39.842  25.528  27.322  1.00  0.00     0.040 A 
ATOM     77  C   UNL A   1      41.190  27.061  26.046  1.00  0.00     0.040 A 
ATOM     78  F   UNL A   1      41.831  29.117  26.982  1.00  0.00    -0.206 F 
ATOM     79  C   UNL A   1      40.524  25.841  26.149  1.00  0.00     0.006 A 
ENDBRANCH  51  72
BRANCH  63  80
ATOM     80  C   UNL A   1      44.257  28.445  34.116  1.00  0.00     0.057 A 
ATOM     81  C   UNL A   1      45.598  28.757  33.869  1.00  0.00     0.134 A 
ATOM     82  C   UNL A   1      43.989  27.375  34.979  1.00  0.00     0.134 A 
ATOM     83  F   UNL A   1      45.923  29.764  33.043  1.00  0.00    -0.206 F 
ATOM     84  C   UNL A   1      46.635  28.016  34.440  1.00  0.00     0.040 A 
ATOM     85  C   UNL A   1      45.015  26.644  35.578  1.00  0.00     0.040 A 
ATOM     86  F   UNL A   1      42.723  27.030  35.265  1.00  0.00    -0.206 F 
ATOM     87  C   UNL A   1      46.344  26.961  35.303  1.00  0.00     0.006 A 
ENDBRANCH  63  80
ENDBRANCH  37  38
ENDBRANCH  29  32
ENDBRANCH  27  28
ENDBRANCH  26  27
ENDBRANCH  25  26
ENDBRANCH   1  25
TORSDOF 15
ENDMDL
MODEL 2
REMARK VINA RESULT:     -11.5      0.139      1.596
REMARK SMILES CC[C@@]1(C)C[C@@H]([NH2+]C[C@H]2CC[C@@H](C(=O)NCCCCNC(=O)c3ccc(-c4c5nc(c(-c6c(F)cccc6F)c6ccc([nH]6)c(-c6c(F)cccc6F)c6nc(c(-c7c(F)cccc7F)c7ccc4[nH]7)C=C6)C=C5)cc3)CC2)CCO1
REMARK SMILES IDX 16 1 15 2 13 3 14 4 12 6 9 7 10 8 78 9 11 10 77 11 8 12 7 13
REMARK SMILES IDX 6 16 3 17 4 18 5 19 81 20 80 21 79 22 2 23 1 24 17 25 18 26
REMARK SMILES IDX 19 27 20 28 21 29 22 31 23 32 24 33 76 34 25 35 75 36 26 37
REMARK SMILES IDX 27 38 28 39 69 40 29 41 74 42 68 43 70 44 30 45 73 46 67 47
REMARK SMILES IDX 66 48 31 50 57 51 40 52 56 53 41 54 44 55 55 56 71 57 42 58
REMARK SMILES IDX 43 59 54 61 72 62 45 63 32 64 33 65 38 66 34 67 35 68 37 69
REMARK SMILES IDX 39 70 36 71 58 72 59 73 64 74 60 75 61 76 63 77 65 78 62 79
REMARK SMILES IDX 46 80 47 81 52 82 48 83 49 84 51 85 53 86 50 87
REMARK H PARENT 15 5 7 14 7 15 20 30 70 49 44 60
REMARK Flexibility Score: inf
ROOT
ATOM      1  C   UNL A   1      33.114  30.076  26.406  1.00  0.00     0.116 C 
ENDROOT
BRANCH   1   2
ATOM      2  N   UNL A   1      33.662  29.350  25.274  1.00  0.00    -0.356 N 
ATOM      3  C   UNL A   1      33.349  28.109  24.803  1.00  0.00     0.223 C 
ATOM      4  O   UNL A   1      33.978  27.667  23.841  1.00  0.00    -0.275 OA
ATOM      5  H   UNL A   1      34.364  29.824  24.771  1.00  0.00     0.163 HD
BRANCH   3   6
ATOM      6  C   UNL A   1      32.228  27.314  25.447  1.00  0.00     0.078 C 
ATOM      7  C   UNL A   1      30.678  24.775  25.492  1.00  0.00     0.044 C 
ATOM      8  C   UNL A   1      31.791  25.027  26.510  1.00  0.00     0.010 C 
ATOM      9  C   UNL A   1      30.066  26.067  24.946  1.00  0.00     0.010 C 
ATOM     10  C   UNL A   1      32.815  26.072  26.131  1.00  0.00     0.014 C 
ATOM     11  C   UNL A   1      31.077  27.083  24.459  1.00  0.00     0.014 C 
BRANCH   7  12
ATOM     12  C   UNL A   1      30.988  23.734  24.388  1.00  0.00     0.264 C 
BRANCH  12  13
ATOM     13  N   UNL A   1      31.787  22.577  24.809  1.00  0.00    -0.343 N 
ATOM     14  H   UNL A   1      32.287  22.839  25.659  1.00  0.00     0.346 HD
ATOM     15  H   UNL A   1      31.118  21.816  24.925  1.00  0.00     0.346 HD
BRANCH  13  16
ATOM     16  C   UNL A   1      32.781  22.073  23.846  1.00  0.00     0.187 C 
ATOM     17  C   UNL A   1      35.074  22.038  25.109  1.00  0.00     0.071 C 
ATOM     18  C   UNL A   1      36.235  21.058  25.356  1.00  0.00     0.042 C 
ATOM     19  C   UNL A   1      33.965  21.241  24.371  1.00  0.00     0.100 C 
ATOM     20  O   UNL A   1      35.544  23.021  24.156  1.00  0.00    -0.375 OA
ATOM     21  C   UNL A   1      34.532  23.933  23.714  1.00  0.00     0.167 C 
ATOM     22  C   UNL A   1      33.379  23.222  23.012  1.00  0.00     0.093 C 
BRANCH  17  23
ATOM     23  C   UNL A   1      34.729  22.796  26.427  1.00  0.00     0.032 C 
ATOM     24  C   UNL A   1      34.028  22.029  27.542  1.00  0.00     0.007 C 
ENDBRANCH  17  23
ENDBRANCH  13  16
ENDBRANCH  12  13
ENDBRANCH   7  12
ENDBRANCH   3   6
ENDBRANCH   1   2
BRANCH   1  25
ATOM     25  C   UNL A   1      31.772  30.708  26.071  1.00  0.00     0.023 C 
BRANCH  25  26
ATOM     26  C   UNL A   1      31.481  31.966  26.879  1.00  0.00     0.023 C 
BRANCH  26  27
ATOM     27  C   UNL A   1      32.716  32.798  27.187  1.00  0.00     0.116 C 
BRANCH  27  28
ATOM     28  N   UNL A   1      32.390  34.150  27.619  1.00  0.00    -0.352 N 
ATOM     29  C   UNL A   1      32.983  34.870  28.627  1.00  0.00     0.251 C 
ATOM     30  H   UNL A   1      31.662  34.600  27.133  1.00  0.00     0.163 HD
ATOM     31  O   UNL A   1      32.528  35.945  28.997  1.00  0.00    -0.269 OA
BRANCH  29  32
ATOM     32  C   UNL A   1      34.172  34.292  29.274  1.00  0.00     0.039 A 
ATOM     33  C   UNL A   1      34.003  33.387  30.322  1.00  0.00     0.014 A 
ATOM     34  C   UNL A   1      35.442  34.578  28.764  1.00  0.00     0.014 A 
ATOM     35  C   UNL A   1      35.119  32.727  30.834  1.00  0.00     0.010 A 
ATOM     36  C   UNL A   1      36.535  33.851  29.212  1.00  0.00     0.010 A 
ATOM     37  C   UNL A   1      36.387  32.936  30.265  1.00  0.00    -0.014 A 
BRANCH  37  38
ATOM     38  C   UNL A   1      37.588  32.249  30.793  1.00  0.00     0.031 A 
ATOM     39  C   UNL A   1      38.250  32.769  32.037  1.00  0.00     0.074 A 
ATOM     40  C   UNL A   1      38.117  31.206  30.124  1.00  0.00     0.049 A 
ATOM     41  N   UNL A   1      39.339  32.356  32.631  1.00  0.00    -0.248 NA
ATOM     42  C   UNL A   1      37.623  33.936  32.677  1.00  0.00     0.031 C 
ATOM     43  C   UNL A   1      37.601  30.650  28.872  1.00  0.00     0.029 A 
ATOM     44  N   UNL A   1      39.216  30.435  30.405  1.00  0.00    -0.354 N 
ATOM     45  C   UNL A   1      39.537  33.224  33.695  1.00  0.00     0.074 A 
ATOM     46  C   UNL A   1      38.500  34.228  33.625  1.00  0.00     0.031 C 
ATOM     47  C   UNL A   1      38.368  29.612  28.506  1.00  0.00     0.029 A 
ATOM     48  C   UNL A   1      39.444  29.447  29.479  1.00  0.00     0.049 A 
ATOM     49  H   UNL A   1      39.786  30.577  31.194  1.00  0.00     0.167 HD
ATOM     50  C   UNL A   1      40.480  33.174  34.667  1.00  0.00     0.037 A 
ATOM     51  C   UNL A   1      40.412  28.513  29.427  1.00  0.00     0.037 A 
ATOM     52  C   UNL A   1      41.491  32.155  34.749  1.00  0.00     0.049 A 
ATOM     53  C   UNL A   1      41.433  28.456  30.528  1.00  0.00     0.074 A 
ATOM     54  C   UNL A   1      42.456  31.972  35.722  1.00  0.00     0.029 A 
ATOM     55  N   UNL A   1      41.665  31.143  33.815  1.00  0.00    -0.354 N 
ATOM     56  N   UNL A   1      41.568  29.238  31.573  1.00  0.00    -0.248 NA
ATOM     57  C   UNL A   1      42.428  27.377  30.453  1.00  0.00     0.031 C 
ATOM     58  C   UNL A   1      43.240  30.873  35.356  1.00  0.00     0.029 A 
ATOM     59  C   UNL A   1      42.730  30.340  34.181  1.00  0.00     0.049 A 
ATOM     60  H   UNL A   1      41.111  31.015  33.011  1.00  0.00     0.167 HD
ATOM     61  C   UNL A   1      42.640  28.729  32.295  1.00  0.00     0.074 A 
ATOM     62  C   UNL A   1      43.113  27.565  31.571  1.00  0.00     0.031 C 
ATOM     63  C   UNL A   1      43.181  29.181  33.453  1.00  0.00     0.037 A 
BRANCH  50  64
ATOM     64  C   UNL A   1      40.446  34.256  35.708  1.00  0.00     0.057 A 
ATOM     65  C   UNL A   1      41.158  35.454  35.555  1.00  0.00     0.134 A 
ATOM     66  C   UNL A   1      39.706  34.092  36.885  1.00  0.00     0.134 A 
ATOM     67  F   UNL A   1      41.902  35.669  34.459  1.00  0.00    -0.206 F 
ATOM     68  C   UNL A   1      41.172  36.429  36.555  1.00  0.00     0.040 A 
ATOM     69  C   UNL A   1      39.685  35.075  37.877  1.00  0.00     0.040 A 
ATOM     70  F   UNL A   1      38.997  32.972  37.095  1.00  0.00    -0.206 F 
ATOM     71  C   UNL A   1      40.430  36.241  37.718  1.00  0.00     0.006 A 
ENDBRANCH  50  64
BRANCH  51  72
ATOM     72  C   UNL A   1      40.427  27.531  28.314  1.00  0.00     0.057 A 
ATOM     73  C   UNL A   1      41.170  27.768  27.153  1.00  0.00     0.134 A 
ATOM     74  C   UNL A   1      39.720  26.325  28.394  1.00  0.00     0.134 A 
ATOM     75  F   UNL A   1      41.856  28.912  27.013  1.00  0.00    -0.206 F 
ATOM     76  C   UNL A   1      41.200  26.849  26.103  1.00  0.00     0.040 A 
ATOM     77  C   UNL A   1      39.760  25.386  27.362  1.00  0.00     0.040 A 
ATOM     78  F   UNL A   1      38.999  26.033  29.486  1.00  0.00    -0.206 F 
ATOM     79  C   UNL A   1      40.498  25.650  26.209  1.00  0.00     0.006 A 
ENDBRANCH  51  72
BRANCH  63  80
ATOM     80  C   UNL A   1      44.316  28.390  34.034  1.00  0.00     0.057 A 
ATOM     81  C   UNL A   1      44.104  27.311  34.900  1.00  0.00     0.134 A 
ATOM     82  C   UNL A   1      45.639  28.690  33.686  1.00  0.00     0.134 A 
ATOM     83  F   UNL A   1      42.861  26.977  35.282  1.00  0.00    -0.206 F 
ATOM     84  C   UNL A   1      45.169  26.574  35.420  1.00  0.00     0.040 A 
ATOM     85  C   UNL A   1      46.711  27.945  34.177  1.00  0.00     0.040 A 
ATOM     86  F   UNL A   1      45.911  29.707  32.852  1.00  0.00    -0.206 F 
ATOM     87  C   UNL A   1      46.478  26.886  35.052  1.00  0.00     0.006 A 
ENDBRANCH  63  80
ENDBRANCH  37  38
ENDBRANCH  29  32
ENDBRANCH  27  28
ENDBRANCH  26  27
ENDBRANCH  25  26
ENDBRANCH   1  25
TORSDOF 15
ENDMDL
MODEL 3
REMARK VINA RESULT:     -11.2      0.659      6.272
REMARK SMILES CC[C@@]1(C)C[C@@H]([NH2+]C[C@H]2CC[C@@H](C(=O)NCCCCNC(=O)c3ccc(-c4c5nc(c(-c6c(F)cccc6F)c6ccc([nH]6)c(-c6c(F)cccc6F)c6nc(c(-c7c(F)cccc7F)c7ccc4[nH]7)C=C6)C=C5)cc3)CC2)CCO1
REMARK SMILES IDX 16 1 15 2 13 3 14 4 12 6 9 7 10 8 78 9 11 10 77 11 8 12 7 13
REMARK SMILES IDX 6 16 3 17 4 18 5 19 81 20 80 21 79 22 2 23 1 24 17 25 18 26
REMARK SMILES IDX 19 27 20 28 21 29 22 31 23 32 24 33 76 34 25 35 75 36 26 37
REMARK SMILES IDX 27 38 28 39 69 40 29 41 74 42 68 43 70 44 30 45 73 46 67 47
REMARK SMILES IDX 66 48 31 50 57 51 40 52 56 53 41 54 44 55 55 56 71 57 42 58
REMARK SMILES IDX 43 59 54 61 72 62 45 63 32 64 33 65 38 66 34 67 35 68 37 69
REMARK SMILES IDX 39 70 36 71 58 72 59 73 64 74 60 75 61 76 63 77 65 78 62 79
REMARK SMILES IDX 46 80 47 81 52 82 48 83 49 84 51 85 53 86 50 87
REMARK H PARENT 15 5 7 14 7 15 20 30 70 49 44 60
REMARK Flexibility Score: inf
ROOT
ATOM      1  C   UNL A   1      33.046  29.970  26.477  1.00  0.00     0.116 C 
ENDROOT
BRANCH   1   2
ATOM      2  N   UNL A   1      33.613  29.298  25.321  1.00  0.00    -0.356 N 
ATOM      3  C   UNL A   1      33.276  28.103  24.758  1.00  0.00     0.223 C 
ATOM      4  O   UNL A   1      33.927  27.700  23.794  1.00  0.00    -0.275 OA
ATOM      5  H   UNL A   1      34.351  29.777  24.878  1.00  0.00     0.163 HD
BRANCH   3   6
ATOM      6  C   UNL A   1      32.102  27.311  25.305  1.00  0.00     0.078 C 
ATOM      7  C   UNL A   1      30.600  24.743  25.285  1.00  0.00     0.044 C 
ATOM      8  C   UNL A   1      31.586  25.061  26.410  1.00  0.00     0.010 C 
ATOM      9  C   UNL A   1      30.033  25.999  24.618  1.00  0.00     0.010 C 
ATOM     10  C   UNL A   1      32.629  26.111  26.104  1.00  0.00     0.014 C 
ATOM     11  C   UNL A   1      31.075  27.015  24.205  1.00  0.00     0.014 C 
BRANCH   7  12
ATOM     12  C   UNL A   1      31.051  23.665  24.269  1.00  0.00     0.264 C 
BRANCH  12  13
ATOM     13  N   UNL A   1      31.975  22.648  24.787  1.00  0.00    -0.343 N 
ATOM     14  H   UNL A   1      32.418  23.031  25.623  1.00  0.00     0.346 HD
ATOM     15  H   UNL A   1      31.401  21.821  24.948  1.00  0.00     0.346 HD
BRANCH  13  16
ATOM     16  C   UNL A   1      33.046  22.204  23.878  1.00  0.00     0.187 C 
ATOM     17  C   UNL A   1      35.272  22.332  25.251  1.00  0.00     0.071 C 
ATOM     18  C   UNL A   1      36.481  21.434  25.566  1.00  0.00     0.042 C 
ATOM     19  C   UNL A   1      34.256  21.458  24.469  1.00  0.00     0.100 C 
ATOM     20  O   UNL A   1      35.722  23.337  24.312  1.00  0.00    -0.375 OA
ATOM     21  C   UNL A   1      34.675  24.176  23.811  1.00  0.00     0.167 C 
ATOM     22  C   UNL A   1      33.608  23.384  23.062  1.00  0.00     0.093 C 
BRANCH  17  23
ATOM     23  C   UNL A   1      34.812  23.076  26.543  1.00  0.00     0.032 C 
ATOM     24  C   UNL A   1      34.008  22.300  27.579  1.00  0.00     0.007 C 
ENDBRANCH  17  23
ENDBRANCH  13  16
ENDBRANCH  12  13
ENDBRANCH   7  12
ENDBRANCH   3   6
ENDBRANCH   1   2
BRANCH   1  25
ATOM     25  C   UNL A   1      31.826  30.797  26.103  1.00  0.00     0.023 C 
BRANCH  25  26
ATOM     26  C   UNL A   1      31.552  31.937  27.073  1.00  0.00     0.023 C 
BRANCH  26  27
ATOM     27  C   UNL A   1      32.765  32.809  27.357  1.00  0.00     0.116 C 
BRANCH  27  28
ATOM     28  N   UNL A   1      32.414  34.199  27.610  1.00  0.00    -0.352 N 
ATOM     29  C   UNL A   1      32.962  35.042  28.545  1.00  0.00     0.251 C 
ATOM     30  H   UNL A   1      31.702  34.578  27.046  1.00  0.00     0.163 HD
ATOM     31  O   UNL A   1      32.485  36.149  28.765  1.00  0.00    -0.269 OA
BRANCH  29  32
ATOM     32  C   UNL A   1      34.128  34.560  29.302  1.00  0.00     0.039 A 
ATOM     33  C   UNL A   1      33.931  33.950  30.541  1.00  0.00     0.014 A 
ATOM     34  C   UNL A   1      35.400  34.627  28.725  1.00  0.00     0.014 A 
ATOM     35  C   UNL A   1      35.016  33.361  31.188  1.00  0.00     0.010 A 
ATOM     36  C   UNL A   1      36.456  33.959  29.326  1.00  0.00     0.010 A 
ATOM     37  C   UNL A   1      36.279  33.340  30.572  1.00  0.00    -0.014 A 
BRANCH  37  38
ATOM     38  C   UNL A   1      37.448  32.722  31.240  1.00  0.00     0.031 A 
ATOM     39  C   UNL A   1      38.117  31.534  30.607  1.00  0.00     0.074 A 
ATOM     40  C   UNL A   1      37.865  33.182  32.434  1.00  0.00     0.049 A 
ATOM     41  N   UNL A   1      39.110  30.809  31.050  1.00  0.00    -0.248 NA
ATOM     42  C   UNL A   1      37.567  31.077  29.321  1.00  0.00     0.031 C 
ATOM     43  C   UNL A   1      37.257  34.288  33.177  1.00  0.00     0.029 A 
ATOM     44  N   UNL A   1      38.896  32.766  33.237  1.00  0.00    -0.354 N 
ATOM     45  C   UNL A   1      39.286  29.802  30.111  1.00  0.00     0.074 A 
ATOM     46  C   UNL A   1      38.254  29.966  29.112  1.00  0.00     0.031 C 
ATOM     47  C   UNL A   1      37.943  34.479  34.315  1.00  0.00     0.029 A 
ATOM     48  C   UNL A   1      39.017  33.493  34.396  1.00  0.00     0.049 A 
ATOM     49  H   UNL A   1      39.492  32.018  33.005  1.00  0.00     0.167 HD
ATOM     50  C   UNL A   1      40.242  28.844  30.065  1.00  0.00     0.037 A 
ATOM     51  C   UNL A   1      39.899  33.375  35.406  1.00  0.00     0.037 A 
ATOM     52  C   UNL A   1      41.285  28.705  31.045  1.00  0.00     0.049 A 
ATOM     53  C   UNL A   1      40.969  32.323  35.324  1.00  0.00     0.074 A 
ATOM     54  C   UNL A   1      42.339  27.810  31.064  1.00  0.00     0.029 A 
ATOM     55  N   UNL A   1      41.401  29.488  32.185  1.00  0.00    -0.354 N 
ATOM     56  N   UNL A   1      41.173  31.422  34.393  1.00  0.00    -0.248 NA
ATOM     57  C   UNL A   1      41.942  32.282  36.424  1.00  0.00     0.031 C 
ATOM     58  C   UNL A   1      43.070  28.026  32.237  1.00  0.00     0.029 A 
ATOM     59  C   UNL A   1      42.501  29.089  32.922  1.00  0.00     0.049 A 
ATOM     60  H   UNL A   1      40.790  30.220  32.432  1.00  0.00     0.167 HD
ATOM     61  C   UNL A   1      42.313  30.727  34.778  1.00  0.00     0.074 A 
ATOM     62  C   UNL A   1      42.760  31.320  36.023  1.00  0.00     0.031 C 
ATOM     63  C   UNL A   1      42.936  29.696  34.155  1.00  0.00     0.037 A 
BRANCH  50  64
ATOM     64  C   UNL A   1      40.190  27.883  28.912  1.00  0.00     0.057 A 
ATOM     65  C   UNL A   1      39.485  26.673  28.986  1.00  0.00     0.134 A 
ATOM     66  C   UNL A   1      40.866  28.162  27.718  1.00  0.00     0.134 A 
ATOM     67  F   UNL A   1      38.829  26.335  30.107  1.00  0.00    -0.206 F 
ATOM     68  C   UNL A   1      39.492  25.755  27.933  1.00  0.00     0.040 A 
ATOM     69  C   UNL A   1      40.853  27.267  26.646  1.00  0.00     0.040 A 
ATOM     70  F   UNL A   1      41.557  29.303  27.576  1.00  0.00    -0.206 F 
ATOM     71  C   UNL A   1      40.175  26.055  26.757  1.00  0.00     0.006 A 
ENDBRANCH  50  64
BRANCH  51  72
ATOM     72  C   UNL A   1      39.829  34.312  36.556  1.00  0.00     0.057 A 
ATOM     73  C   UNL A   1      40.446  35.566  36.502  1.00  0.00     0.134 A 
ATOM     74  C   UNL A   1      39.128  33.986  37.723  1.00  0.00     0.134 A 
ATOM     75  F   UNL A   1      41.143  35.929  35.417  1.00  0.00    -0.206 F 
ATOM     76  C   UNL A   1      40.380  36.459  37.572  1.00  0.00     0.040 A 
ATOM     77  C   UNL A   1      39.034  34.878  38.792  1.00  0.00     0.040 A 
ATOM     78  F   UNL A   1      38.506  32.802  37.831  1.00  0.00    -0.206 F 
ATOM     79  C   UNL A   1      39.667  36.118  38.720  1.00  0.00     0.006 A 
ENDBRANCH  51  72
BRANCH  63  80
ATOM     80  C   UNL A   1      44.192  29.172  34.786  1.00  0.00     0.057 A 
ATOM     81  C   UNL A   1      44.177  28.120  35.709  1.00  0.00     0.134 A 
ATOM     82  C   UNL A   1      45.438  29.703  34.430  1.00  0.00     0.134 A 
ATOM     83  F   UNL A   1      43.016  27.574  36.101  1.00  0.00    -0.206 F 
ATOM     84  C   UNL A   1      45.356  27.632  36.277  1.00  0.00     0.040 A 
ATOM     85  C   UNL A   1      46.625  29.206  34.969  1.00  0.00     0.040 A 
ATOM     86  F   UNL A   1      45.523  30.707  33.542  1.00  0.00    -0.206 F 
ATOM     87  C   UNL A   1      46.586  28.171  35.900  1.00  0.00     0.006 A 
ENDBRANCH  63  80
ENDBRANCH  37  38
ENDBRANCH  29  32
ENDBRANCH  27  28
ENDBRANCH  26  27
ENDBRANCH  25  26
ENDBRANCH   1  25
TORSDOF 15
ENDMDL
