MODEL 1
REMARK VINA RESULT:     -12.0      0.000      0.000
REMARK SMILES Cn1c(C[NH+](C)C)nnc1[C@@H]1CCC[N@@H+](Cc2ccccc2C(=O)NCCCCNC(=O)c2ccc(-c3c4nc(c(-c5c(F)cccc5F)c5ccc([nH]5)c(-c5c(F)cccc5F)c5nc(c(-c6c(F)cccc6F)c6ccc3[nH]6)C=C5)C=C4)cc2)C1
REMARK SMILES IDX 26 1 25 2 23 3 24 4 22 6 17 7 18 8 19 9 21 10 20 11 16 12
REMARK SMILES IDX 15 13 11 14 12 15 87 16 13 17 14 18 10 20 3 21 8 22 2 23
REMARK SMILES IDX 9 24 1 25 4 26 5 27 6 28 7 29 27 31 28 32 29 33 30 34 31 35
REMARK SMILES IDX 32 37 33 38 34 39 86 40 35 41 85 42 36 43 37 44 38 45 79 46
REMARK SMILES IDX 39 47 84 48 78 49 80 50 40 51 83 52 77 53 76 54 41 56 67 57
REMARK SMILES IDX 50 58 66 59 51 60 54 61 65 62 81 63 52 64 53 65 64 67 82 68
REMARK SMILES IDX 55 69 42 70 43 71 48 72 44 73 45 74 47 75 49 76 46 77 68 78
REMARK SMILES IDX 69 79 74 80 70 81 71 82 73 83 75 84 72 85 56 86 57 87 62 88
REMARK SMILES IDX 58 89 59 90 61 91 63 92 60 93
REMARK H PARENT 25 5 15 19 5 30 30 36 80 55 54 66
REMARK Flexibility Score: inf
ROOT
ATOM      1  C   UNL A   1      32.499  29.745  26.127  1.00  0.00     0.116 C 
ENDROOT
BRANCH   1   2
ATOM      2  N   UNL A   1      33.085  29.200  24.920  1.00  0.00    -0.352 N 
ATOM      3  C   UNL A   1      32.580  28.373  23.940  1.00  0.00     0.251 C 
ATOM      4  O   UNL A   1      33.290  28.206  22.944  1.00  0.00    -0.269 OA
ATOM      5  H   UNL A   1      34.019  29.471  24.773  1.00  0.00     0.163 HD
BRANCH   3   6
ATOM      6  C   UNL A   1      31.290  27.611  24.017  1.00  0.00     0.048 A 
ATOM      7  C   UNL A   1      31.028  26.375  24.641  1.00  0.00     0.019 A 
ATOM      8  C   UNL A   1      29.736  25.807  24.502  1.00  0.00     0.010 A 
ATOM      9  C   UNL A   1      28.691  26.492  23.892  1.00  0.00     0.001 A 
ATOM     10  C   UNL A   1      30.195  28.319  23.470  1.00  0.00     0.014 A 
ATOM     11  C   UNL A   1      28.909  27.774  23.420  1.00  0.00     0.001 A 
BRANCH   7  12
ATOM     12  C   UNL A   1      31.973  25.598  25.512  1.00  0.00     0.299 C 
BRANCH  12  13
ATOM     13  N   UNL A   1      32.998  24.794  24.867  1.00  0.00    -0.331 N 
ATOM     14  C   UNL A   1      33.601  22.905  23.361  1.00  0.00     0.113 C 
ATOM     15  C   UNL A   1      35.062  23.360  23.404  1.00  0.00     0.023 C 
ATOM     16  C   UNL A   1      32.644  24.063  23.658  1.00  0.00     0.274 C 
ATOM     17  C   UNL A   1      35.388  24.225  24.619  1.00  0.00     0.062 C 
ATOM     18  C   UNL A   1      34.351  25.335  24.861  1.00  0.00     0.262 C 
ATOM     19  H   UNL A   1      33.033  24.042  25.557  1.00  0.00     0.348 HD
BRANCH  14  20
ATOM     20  C   UNL A   1      33.334  21.629  24.131  1.00  0.00     0.141 A 
ATOM     21  C   UNL A   1      32.710  19.624  24.816  1.00  0.00     0.187 A 
ATOM     22  N   UNL A   1      33.338  20.223  25.807  1.00  0.00    -0.129 NA
ATOM     23  N   UNL A   1      32.706  20.468  23.723  1.00  0.00    -0.313 N 
ATOM     24  N   UNL A   1      33.729  21.460  25.380  1.00  0.00    -0.135 NA
ATOM     25  C   UNL A   1      32.226  20.126  22.416  1.00  0.00     0.153 C 
BRANCH  21  26
ATOM     26  C   UNL A   1      32.210  18.212  24.849  1.00  0.00     0.340 C 
BRANCH  26  27
ATOM     27  N   UNL A   1      33.260  17.218  24.764  1.00  0.00    -0.333 N 
ATOM     28  C   UNL A   1      33.822  16.997  23.456  1.00  0.00     0.332 C 
ATOM     29  C   UNL A   1      33.170  16.112  25.691  1.00  0.00     0.332 C 
ATOM     30  H   UNL A   1      34.062  17.687  25.183  1.00  0.00     0.348 HD
ENDBRANCH  26  27
ENDBRANCH  21  26
ENDBRANCH  14  20
ENDBRANCH  12  13
ENDBRANCH   7  12
ENDBRANCH   3   6
ENDBRANCH   1   2
BRANCH   1  31
ATOM     31  C   UNL A   1      31.377  30.761  25.914  1.00  0.00     0.023 C 
BRANCH  31  32
ATOM     32  C   UNL A   1      31.357  31.956  26.876  1.00  0.00     0.023 C 
BRANCH  32  33
ATOM     33  C   UNL A   1      32.218  33.175  26.524  1.00  0.00     0.116 C 
BRANCH  33  34
ATOM     34  N   UNL A   1      32.275  34.188  27.567  1.00  0.00    -0.352 N 
ATOM     35  C   UNL A   1      33.132  34.381  28.631  1.00  0.00     0.251 C 
ATOM     36  H   UNL A   1      31.565  34.867  27.502  1.00  0.00     0.163 HD
ATOM     37  O   UNL A   1      32.905  35.334  29.374  1.00  0.00    -0.269 OA
BRANCH  35  38
ATOM     38  C   UNL A   1      34.315  33.511  28.922  1.00  0.00     0.039 A 
ATOM     39  C   UNL A   1      35.596  34.087  28.842  1.00  0.00     0.014 A 
ATOM     40  C   UNL A   1      34.221  32.144  29.189  1.00  0.00     0.014 A 
ATOM     41  C   UNL A   1      36.740  33.335  29.141  1.00  0.00     0.010 A 
ATOM     42  C   UNL A   1      35.349  31.391  29.500  1.00  0.00     0.010 A 
ATOM     43  C   UNL A   1      36.605  31.997  29.536  1.00  0.00    -0.014 A 
BRANCH  43  44
ATOM     44  C   UNL A   1      37.672  31.295  30.281  1.00  0.00     0.031 A 
ATOM     45  C   UNL A   1      38.046  31.660  31.681  1.00  0.00     0.074 A 
ATOM     46  C   UNL A   1      38.436  30.457  29.553  1.00  0.00     0.049 A 
ATOM     47  N   UNL A   1      38.985  31.153  32.436  1.00  0.00    -0.248 NA
ATOM     48  C   UNL A   1      37.290  32.755  32.306  1.00  0.00     0.031 C 
ATOM     49  C   UNL A   1      38.226  30.159  28.130  1.00  0.00     0.029 A 
ATOM     50  N   UNL A   1      39.557  29.744  29.875  1.00  0.00    -0.354 N 
ATOM     51  C   UNL A   1      38.929  31.853  33.634  1.00  0.00     0.074 A 
ATOM     52  C   UNL A   1      37.897  32.859  33.483  1.00  0.00     0.031 C 
ATOM     53  C   UNL A   1      39.184  29.327  27.705  1.00  0.00     0.029 A 
ATOM     54  C   UNL A   1      40.076  29.039  28.818  1.00  0.00     0.049 A 
ATOM     55  H   UNL A   1      39.953  29.737  30.777  1.00  0.00     0.167 HD
ATOM     56  C   UNL A   1      39.668  31.656  34.754  1.00  0.00     0.037 A 
ATOM     57  C   UNL A   1      41.150  28.235  28.755  1.00  0.00     0.037 A 
ATOM     58  C   UNL A   1      40.728  30.680  34.843  1.00  0.00     0.049 A 
ATOM     59  C   UNL A   1      41.929  28.001  30.013  1.00  0.00     0.074 A 
ATOM     60  C   UNL A   1      41.499  30.330  35.937  1.00  0.00     0.029 A 
ATOM     61  N   UNL A   1      41.183  29.916  33.774  1.00  0.00    -0.354 N 
ATOM     62  N   UNL A   1      41.764  28.548  31.194  1.00  0.00    -0.248 NA
ATOM     63  C   UNL A   1      43.018  27.023  29.942  1.00  0.00     0.031 C 
ATOM     64  C   UNL A   1      42.452  29.393  35.518  1.00  0.00     0.029 A 
ATOM     65  C   UNL A   1      42.239  29.113  34.177  1.00  0.00     0.049 A 
ATOM     66  H   UNL A   1      40.811  29.941  32.863  1.00  0.00     0.167 HD
ATOM     67  C   UNL A   1      42.706  27.956  32.020  1.00  0.00     0.074 A 
ATOM     68  C   UNL A   1      43.431  27.001  31.202  1.00  0.00     0.031 C 
ATOM     69  C   UNL A   1      42.946  28.177  33.336  1.00  0.00     0.037 A 
BRANCH  56  70
ATOM     70  C   UNL A   1      39.350  32.500  35.959  1.00  0.00     0.057 A 
ATOM     71  C   UNL A   1      38.431  32.075  36.931  1.00  0.00     0.134 A 
ATOM     72  C   UNL A   1      39.986  33.728  36.179  1.00  0.00     0.134 A 
ATOM     73  F   UNL A   1      37.784  30.907  36.792  1.00  0.00    -0.206 F 
ATOM     74  C   UNL A   1      38.131  32.854  38.052  1.00  0.00     0.040 A 
ATOM     75  C   UNL A   1      39.716  34.503  37.312  1.00  0.00     0.040 A 
ATOM     76  F   UNL A   1      40.890  34.196  35.305  1.00  0.00    -0.206 F 
ATOM     77  C   UNL A   1      38.778  34.071  38.247  1.00  0.00     0.006 A 
ENDBRANCH  56  70
BRANCH  57  78
ATOM     78  C   UNL A   1      41.455  27.525  27.489  1.00  0.00     0.057 A 
ATOM     79  C   UNL A   1      42.284  28.113  26.528  1.00  0.00     0.134 A 
ATOM     80  C   UNL A   1      41.006  26.222  27.244  1.00  0.00     0.134 A 
ATOM     81  F   UNL A   1      42.751  29.357  26.710  1.00  0.00    -0.206 F 
ATOM     82  C   UNL A   1      42.645  27.438  25.362  1.00  0.00     0.040 A 
ATOM     83  C   UNL A   1      41.377  25.527  26.092  1.00  0.00     0.040 A 
ATOM     84  F   UNL A   1      40.233  25.591  28.141  1.00  0.00    -0.206 F 
ATOM     85  C   UNL A   1      42.197  26.138  25.145  1.00  0.00     0.006 A 
ENDBRANCH  57  78
BRANCH  69  86
ATOM     86  C   UNL A   1      44.021  27.346  33.969  1.00  0.00     0.057 A 
ATOM     87  C   UNL A   1      45.362  27.747  33.972  1.00  0.00     0.134 A 
ATOM     88  C   UNL A   1      43.703  26.140  34.605  1.00  0.00     0.134 A 
ATOM     89  F   UNL A   1      45.734  28.884  33.363  1.00  0.00    -0.206 F 
ATOM     90  C   UNL A   1      46.354  26.966  34.564  1.00  0.00     0.040 A 
ATOM     91  C   UNL A   1      44.681  25.364  35.227  1.00  0.00     0.040 A 
ATOM     92  F   UNL A   1      42.435  25.701  34.640  1.00  0.00    -0.206 F 
ATOM     93  C   UNL A   1      46.012  25.773  35.201  1.00  0.00     0.006 A 
ENDBRANCH  69  86
ENDBRANCH  43  44
ENDBRANCH  35  38
ENDBRANCH  33  34
ENDBRANCH  32  33
ENDBRANCH  31  32
ENDBRANCH   1  31
TORSDOF 16
ENDMDL
MODEL 2
REMARK VINA RESULT:     -12.0      0.656      6.089
REMARK SMILES Cn1c(C[NH+](C)C)nnc1[C@@H]1CCC[N@@H+](Cc2ccccc2C(=O)NCCCCNC(=O)c2ccc(-c3c4nc(c(-c5c(F)cccc5F)c5ccc([nH]5)c(-c5c(F)cccc5F)c5nc(c(-c6c(F)cccc6F)c6ccc3[nH]6)C=C5)C=C4)cc2)C1
REMARK SMILES IDX 26 1 25 2 23 3 24 4 22 6 17 7 18 8 19 9 21 10 20 11 16 12
REMARK SMILES IDX 15 13 11 14 12 15 87 16 13 17 14 18 10 20 3 21 8 22 2 23
REMARK SMILES IDX 9 24 1 25 4 26 5 27 6 28 7 29 27 31 28 32 29 33 30 34 31 35
REMARK SMILES IDX 32 37 33 38 34 39 86 40 35 41 85 42 36 43 37 44 38 45 79 46
REMARK SMILES IDX 39 47 84 48 78 49 80 50 40 51 83 52 77 53 76 54 41 56 67 57
REMARK SMILES IDX 50 58 66 59 51 60 54 61 65 62 81 63 52 64 53 65 64 67 82 68
REMARK SMILES IDX 55 69 42 70 43 71 48 72 44 73 45 74 47 75 49 76 46 77 68 78
REMARK SMILES IDX 69 79 74 80 70 81 71 82 73 83 75 84 72 85 56 86 57 87 62 88
REMARK SMILES IDX 58 89 59 90 61 91 63 92 60 93
REMARK H PARENT 25 5 15 19 5 30 30 36 80 55 54 66
REMARK Flexibility Score: inf
ROOT
ATOM      1  C   UNL A   1      32.761  29.742  26.515  1.00  0.00     0.116 C 
ENDROOT
BRANCH   1   2
ATOM      2  N   UNL A   1      33.443  29.213  25.352  1.00  0.00    -0.352 N 
ATOM      3  C   UNL A   1      32.997  28.483  24.271  1.00  0.00     0.251 C 
ATOM      4  O   UNL A   1      33.806  28.309  23.356  1.00  0.00    -0.269 OA
ATOM      5  H   UNL A   1      34.407  29.411  25.331  1.00  0.00     0.163 HD
BRANCH   3   6
ATOM      6  C   UNL A   1      31.652  27.830  24.153  1.00  0.00     0.048 A 
ATOM      7  C   UNL A   1      31.192  26.637  24.744  1.00  0.00     0.019 A 
ATOM      8  C   UNL A   1      29.895  26.171  24.408  1.00  0.00     0.010 A 
ATOM      9  C   UNL A   1      29.021  26.922  23.630  1.00  0.00     0.001 A 
ATOM     10  C   UNL A   1      30.720  28.609  23.428  1.00  0.00     0.014 A 
ATOM     11  C   UNL A   1      29.418  28.168  23.181  1.00  0.00     0.001 A 
BRANCH   7  12
ATOM     12  C   UNL A   1      31.919  25.810  25.765  1.00  0.00     0.299 C 
BRANCH  12  13
ATOM     13  N   UNL A   1      33.007  24.959  25.312  1.00  0.00    -0.331 N 
ATOM     14  C   UNL A   1      33.816  23.133  23.824  1.00  0.00     0.113 C 
ATOM     15  C   UNL A   1      35.252  23.441  24.258  1.00  0.00     0.023 C 
ATOM     16  C   UNL A   1      32.907  24.355  23.990  1.00  0.00     0.274 C 
ATOM     17  C   UNL A   1      35.334  24.181  25.590  1.00  0.00     0.062 C 
ATOM     18  C   UNL A   1      34.357  25.366  25.680  1.00  0.00     0.262 C 
ATOM     19  H   UNL A   1      32.813  24.160  25.917  1.00  0.00     0.348 HD
BRANCH  14  20
ATOM     20  C   UNL A   1      33.272  21.838  24.386  1.00  0.00     0.141 A 
ATOM     21  C   UNL A   1      32.974  19.803  25.194  1.00  0.00     0.187 A 
ATOM     22  N   UNL A   1      31.798  20.389  25.105  1.00  0.00    -0.129 NA
ATOM     23  N   UNL A   1      33.943  20.694  24.774  1.00  0.00    -0.313 N 
ATOM     24  N   UNL A   1      31.983  21.649  24.611  1.00  0.00    -0.135 NA
ATOM     25  C   UNL A   1      35.356  20.470  24.840  1.00  0.00     0.153 C 
BRANCH  21  26
ATOM     26  C   UNL A   1      33.212  18.446  25.782  1.00  0.00     0.340 C 
BRANCH  26  27
ATOM     27  N   UNL A   1      33.752  17.487  24.840  1.00  0.00    -0.333 N 
ATOM     28  C   UNL A   1      33.117  17.440  23.547  1.00  0.00     0.332 C 
ATOM     29  C   UNL A   1      34.297  16.273  25.405  1.00  0.00     0.332 C 
ATOM     30  H   UNL A   1      34.631  17.914  24.549  1.00  0.00     0.348 HD
ENDBRANCH  26  27
ENDBRANCH  21  26
ENDBRANCH  14  20
ENDBRANCH  12  13
ENDBRANCH   7  12
ENDBRANCH   3   6
ENDBRANCH   1   2
BRANCH   1  31
ATOM     31  C   UNL A   1      31.759  30.863  26.237  1.00  0.00     0.023 C 
BRANCH  31  32
ATOM     32  C   UNL A   1      31.736  32.015  27.250  1.00  0.00     0.023 C 
BRANCH  32  33
ATOM     33  C   UNL A   1      32.314  33.366  26.813  1.00  0.00     0.116 C 
BRANCH  33  34
ATOM     34  N   UNL A   1      32.417  34.347  27.884  1.00  0.00    -0.352 N 
ATOM     35  C   UNL A   1      33.325  34.512  28.909  1.00  0.00     0.251 C 
ATOM     36  H   UNL A   1      31.701  35.022  27.875  1.00  0.00     0.163 HD
ATOM     37  O   UNL A   1      33.130  35.440  29.692  1.00  0.00    -0.269 OA
BRANCH  35  38
ATOM     38  C   UNL A   1      34.526  33.643  29.113  1.00  0.00     0.039 A 
ATOM     39  C   UNL A   1      35.789  34.170  28.785  1.00  0.00     0.014 A 
ATOM     40  C   UNL A   1      34.455  32.314  29.534  1.00  0.00     0.014 A 
ATOM     41  C   UNL A   1      36.954  33.419  28.990  1.00  0.00     0.010 A 
ATOM     42  C   UNL A   1      35.606  31.563  29.754  1.00  0.00     0.010 A 
ATOM     43  C   UNL A   1      36.862  32.133  29.541  1.00  0.00    -0.014 A 
BRANCH  43  44
ATOM     44  C   UNL A   1      38.019  31.480  30.190  1.00  0.00     0.031 A 
ATOM     45  C   UNL A   1      38.820  30.415  29.514  1.00  0.00     0.074 A 
ATOM     46  C   UNL A   1      38.175  31.742  31.502  1.00  0.00     0.049 A 
ATOM     47  N   UNL A   1      39.833  29.733  29.981  1.00  0.00    -0.248 NA
ATOM     48  C   UNL A   1      38.415  30.042  28.151  1.00  0.00     0.031 C 
ATOM     49  C   UNL A   1      37.333  32.664  32.275  1.00  0.00     0.029 A 
ATOM     50  N   UNL A   1      39.044  31.237  32.428  1.00  0.00    -0.354 N 
ATOM     51  C   UNL A   1      40.203  28.859  28.966  1.00  0.00     0.074 A 
ATOM     52  C   UNL A   1      39.266  29.060  27.879  1.00  0.00     0.031 C 
ATOM     53  C   UNL A   1      37.728  32.658  33.554  1.00  0.00     0.029 A 
ATOM     54  C   UNL A   1      38.841  31.731  33.692  1.00  0.00     0.049 A 
ATOM     55  H   UNL A   1      39.748  30.582  32.209  1.00  0.00     0.167 HD
ATOM     56  C   UNL A   1      41.238  27.983  28.953  1.00  0.00     0.037 A 
ATOM     57  C   UNL A   1      39.492  31.474  34.839  1.00  0.00     0.037 A 
ATOM     58  C   UNL A   1      42.112  27.772  30.081  1.00  0.00     0.049 A 
ATOM     59  C   UNL A   1      40.656  30.533  34.793  1.00  0.00     0.074 A 
ATOM     60  C   UNL A   1      43.238  26.973  30.172  1.00  0.00     0.029 A 
ATOM     61  N   UNL A   1      41.933  28.350  31.333  1.00  0.00    -0.354 N 
ATOM     62  N   UNL A   1      41.104  29.831  33.779  1.00  0.00    -0.248 NA
ATOM     63  C   UNL A   1      41.422  30.371  36.031  1.00  0.00     0.031 C 
ATOM     64  C   UNL A   1      43.709  27.028  31.490  1.00  0.00     0.029 A 
ATOM     65  C   UNL A   1      42.913  27.908  32.208  1.00  0.00     0.049 A 
ATOM     66  H   UNL A   1      41.214  28.981  31.565  1.00  0.00     0.167 HD
ATOM     67  C   UNL A   1      42.227  29.167  34.246  1.00  0.00     0.074 A 
ATOM     68  C   UNL A   1      42.393  29.562  35.633  1.00  0.00     0.031 C 
ATOM     69  C   UNL A   1      43.049  28.313  33.587  1.00  0.00     0.037 A 
BRANCH  56  70
ATOM     70  C   UNL A   1      41.479  27.205  27.687  1.00  0.00     0.057 A 
ATOM     71  C   UNL A   1      42.263  27.723  26.645  1.00  0.00     0.134 A 
ATOM     72  C   UNL A   1      40.959  25.916  27.512  1.00  0.00     0.134 A 
ATOM     73  F   UNL A   1      42.799  28.950  26.741  1.00  0.00    -0.206 F 
ATOM     74  C   UNL A   1      42.490  27.006  25.467  1.00  0.00     0.040 A 
ATOM     75  C   UNL A   1      41.203  25.177  26.349  1.00  0.00     0.040 A 
ATOM     76  F   UNL A   1      40.213  25.344  28.469  1.00  0.00    -0.206 F 
ATOM     77  C   UNL A   1      41.962  25.726  25.319  1.00  0.00     0.006 A 
ENDBRANCH  56  70
BRANCH  57  78
ATOM     78  C   UNL A   1      39.114  32.209  36.070  1.00  0.00     0.057 A 
ATOM     79  C   UNL A   1      39.590  33.504  36.299  1.00  0.00     0.134 A 
ATOM     80  C   UNL A   1      38.208  31.682  36.999  1.00  0.00     0.134 A 
ATOM     81  F   UNL A   1      40.456  34.065  35.441  1.00  0.00    -0.206 F 
ATOM     82  C   UNL A   1      39.193  34.245  37.412  1.00  0.00     0.040 A 
ATOM     83  C   UNL A   1      37.785  32.420  38.105  1.00  0.00     0.040 A 
ATOM     84  F   UNL A   1      37.690  30.457  36.821  1.00  0.00    -0.206 F 
ATOM     85  C   UNL A   1      38.281  33.705  38.316  1.00  0.00     0.006 A 
ENDBRANCH  57  78
BRANCH  69  86
ATOM     86  C   UNL A   1      44.215  27.776  34.360  1.00  0.00     0.057 A 
ATOM     87  C   UNL A   1      44.145  26.568  35.063  1.00  0.00     0.134 A 
ATOM     88  C   UNL A   1      45.432  28.469  34.379  1.00  0.00     0.134 A 
ATOM     89  F   UNL A   1      43.001  25.866  35.098  1.00  0.00    -0.206 F 
ATOM     90  C   UNL A   1      45.237  26.078  35.778  1.00  0.00     0.040 A 
ATOM     91  C   UNL A   1      46.540  27.975  35.067  1.00  0.00     0.040 A 
ATOM     92  F   UNL A   1      45.565  29.632  33.723  1.00  0.00    -0.206 F 
ATOM     93  C   UNL A   1      46.442  26.779  35.775  1.00  0.00     0.006 A 
ENDBRANCH  69  86
ENDBRANCH  43  44
ENDBRANCH  35  38
ENDBRANCH  33  34
ENDBRANCH  32  33
ENDBRANCH  31  32
ENDBRANCH   1  31
TORSDOF 16
ENDMDL
MODEL 3
REMARK VINA RESULT:     -11.9      1.907      6.422
REMARK SMILES Cn1c(C[NH+](C)C)nnc1[C@@H]1CCC[N@@H+](Cc2ccccc2C(=O)NCCCCNC(=O)c2ccc(-c3c4nc(c(-c5c(F)cccc5F)c5ccc([nH]5)c(-c5c(F)cccc5F)c5nc(c(-c6c(F)cccc6F)c6ccc3[nH]6)C=C5)C=C4)cc2)C1
REMARK SMILES IDX 26 1 25 2 23 3 24 4 22 6 17 7 18 8 19 9 21 10 20 11 16 12
REMARK SMILES IDX 15 13 11 14 12 15 87 16 13 17 14 18 10 20 3 21 8 22 2 23
REMARK SMILES IDX 9 24 1 25 4 26 5 27 6 28 7 29 27 31 28 32 29 33 30 34 31 35
REMARK SMILES IDX 32 37 33 38 34 39 86 40 35 41 85 42 36 43 37 44 38 45 79 46
REMARK SMILES IDX 39 47 84 48 78 49 80 50 40 51 83 52 77 53 76 54 41 56 67 57
REMARK SMILES IDX 50 58 66 59 51 60 54 61 65 62 81 63 52 64 53 65 64 67 82 68
REMARK SMILES IDX 55 69 42 70 43 71 48 72 44 73 45 74 47 75 49 76 46 77 68 78
REMARK SMILES IDX 69 79 74 80 70 81 71 82 73 83 75 84 72 85 56 86 57 87 62 88
REMARK SMILES IDX 58 89 59 90 61 91 63 92 60 93
REMARK H PARENT 25 5 15 19 5 30 30 36 80 55 54 66
REMARK Flexibility Score: inf
ROOT
ATOM      1  C   UNL A   1      33.238  28.146  26.044  1.00  0.00     0.116 C 
ENDROOT
BRANCH   1   2
ATOM      2  N   UNL A   1      33.545  27.507  24.781  1.00  0.00    -0.352 N 
ATOM      3  C   UNL A   1      32.864  27.450  23.584  1.00  0.00     0.251 C 
ATOM      4  O   UNL A   1      33.467  26.945  22.633  1.00  0.00    -0.269 OA
ATOM      5  H   UNL A   1      34.400  27.021  24.778  1.00  0.00     0.163 HD
BRANCH   3   6
ATOM      6  C   UNL A   1      31.443  27.879  23.366  1.00  0.00     0.048 A 
ATOM      7  C   UNL A   1      30.263  27.350  23.926  1.00  0.00     0.019 A 
ATOM      8  C   UNL A   1      29.016  27.871  23.495  1.00  0.00     0.010 A 
ATOM      9  C   UNL A   1      28.930  28.970  22.648  1.00  0.00     0.001 A 
ATOM     10  C   UNL A   1      31.331  29.041  22.568  1.00  0.00     0.014 A 
ATOM     11  C   UNL A   1      30.092  29.589  22.225  1.00  0.00     0.001 A 
BRANCH   7  12
ATOM     12  C   UNL A   1      30.177  26.308  25.004  1.00  0.00     0.299 C 
BRANCH  12  13
ATOM     13  N   UNL A   1      30.751  24.998  24.740  1.00  0.00    -0.331 N 
ATOM     14  C   UNL A   1      32.048  23.031  25.545  1.00  0.00     0.113 C 
ATOM     15  C   UNL A   1      31.676  22.284  24.261  1.00  0.00     0.023 C 
ATOM     16  C   UNL A   1      31.027  24.124  25.872  1.00  0.00     0.274 C 
ATOM     17  C   UNL A   1      31.274  23.212  23.118  1.00  0.00     0.062 C 
ATOM     18  C   UNL A   1      30.277  24.301  23.552  1.00  0.00     0.262 C 
ATOM     19  H   UNL A   1      31.689  25.311  24.490  1.00  0.00     0.348 HD
BRANCH  14  20
ATOM     20  C   UNL A   1      33.499  23.459  25.605  1.00  0.00     0.141 A 
ATOM     21  C   UNL A   1      35.688  23.600  25.864  1.00  0.00     0.187 A 
ATOM     22  N   UNL A   1      35.246  24.765  25.435  1.00  0.00    -0.129 NA
ATOM     23  N   UNL A   1      34.619  22.732  25.960  1.00  0.00    -0.313 N 
ATOM     24  N   UNL A   1      33.893  24.674  25.270  1.00  0.00    -0.135 NA
ATOM     25  C   UNL A   1      34.713  21.337  26.274  1.00  0.00     0.153 C 
BRANCH  21  26
ATOM     26  C   UNL A   1      37.132  23.258  26.075  1.00  0.00     0.340 C 
BRANCH  26  27
ATOM     27  N   UNL A   1      37.713  22.486  24.997  1.00  0.00    -0.333 N 
ATOM     28  C   UNL A   1      37.029  22.549  23.730  1.00  0.00     0.332 C 
ATOM     29  C   UNL A   1      38.387  21.264  25.376  1.00  0.00     0.332 C 
ATOM     30  H   UNL A   1      38.537  23.026  24.738  1.00  0.00     0.348 HD
ENDBRANCH  26  27
ENDBRANCH  21  26
ENDBRANCH  14  20
ENDBRANCH  12  13
ENDBRANCH   7  12
ENDBRANCH   3   6
ENDBRANCH   1   2
BRANCH   1  31
ATOM     31  C   UNL A   1      34.341  29.039  26.615  1.00  0.00     0.023 C 
BRANCH  31  32
ATOM     32  C   UNL A   1      33.953  30.497  26.890  1.00  0.00     0.023 C 
BRANCH  32  33
ATOM     33  C   UNL A   1      32.463  30.828  27.035  1.00  0.00     0.116 C 
BRANCH  33  34
ATOM     34  N   UNL A   1      32.171  32.253  27.106  1.00  0.00    -0.352 N 
ATOM     35  C   UNL A   1      32.815  33.304  27.724  1.00  0.00     0.251 C 
ATOM     36  H   UNL A   1      31.356  32.517  26.621  1.00  0.00     0.163 HD
ATOM     37  O   UNL A   1      32.302  34.417  27.627  1.00  0.00    -0.269 OA
BRANCH  35  38
ATOM     38  C   UNL A   1      34.096  33.171  28.488  1.00  0.00     0.039 A 
ATOM     39  C   UNL A   1      34.034  32.670  29.801  1.00  0.00     0.014 A 
ATOM     40  C   UNL A   1      35.334  33.589  27.998  1.00  0.00     0.014 A 
ATOM     41  C   UNL A   1      35.202  32.485  30.553  1.00  0.00     0.010 A 
ATOM     42  C   UNL A   1      36.502  33.398  28.730  1.00  0.00     0.010 A 
ATOM     43  C   UNL A   1      36.447  32.790  29.985  1.00  0.00    -0.014 A 
BRANCH  43  44
ATOM     44  C   UNL A   1      37.704  32.219  30.514  1.00  0.00     0.031 A 
ATOM     45  C   UNL A   1      38.313  30.971  29.959  1.00  0.00     0.074 A 
ATOM     46  C   UNL A   1      38.152  32.760  31.663  1.00  0.00     0.049 A 
ATOM     47  N   UNL A   1      39.389  30.341  30.352  1.00  0.00    -0.248 NA
ATOM     48  C   UNL A   1      37.609  30.329  28.840  1.00  0.00     0.031 C 
ATOM     49  C   UNL A   1      37.522  33.893  32.353  1.00  0.00     0.029 A 
ATOM     50  N   UNL A   1      39.193  32.417  32.480  1.00  0.00    -0.354 N 
ATOM     51  C   UNL A   1      39.506  29.235  29.520  1.00  0.00     0.074 A 
ATOM     52  C   UNL A   1      38.357  29.252  28.637  1.00  0.00     0.031 C 
ATOM     53  C   UNL A   1      38.189  34.149  33.484  1.00  0.00     0.029 A 
ATOM     54  C   UNL A   1      39.285  33.199  33.604  1.00  0.00     0.049 A 
ATOM     55  H   UNL A   1      39.816  31.680  32.281  1.00  0.00     0.167 HD
ATOM     56  C   UNL A   1      40.493  28.305  29.500  1.00  0.00     0.037 A 
ATOM     57  C   UNL A   1      40.167  33.163  34.616  1.00  0.00     0.037 A 
ATOM     58  C   UNL A   1      41.591  28.293  30.437  1.00  0.00     0.049 A 
ATOM     59  C   UNL A   1      41.271  32.154  34.552  1.00  0.00     0.074 A 
ATOM     60  C   UNL A   1      42.691  27.455  30.477  1.00  0.00     0.029 A 
ATOM     61  N   UNL A   1      41.705  29.152  31.524  1.00  0.00    -0.354 N 
ATOM     62  N   UNL A   1      41.469  31.209  33.665  1.00  0.00    -0.248 NA
ATOM     63  C   UNL A   1      42.288  32.222  35.605  1.00  0.00     0.031 C 
ATOM     64  C   UNL A   1      43.442  27.775  31.615  1.00  0.00     0.029 A 
ATOM     65  C   UNL A   1      42.844  28.851  32.254  1.00  0.00     0.049 A 
ATOM     66  H   UNL A   1      41.069  29.871  31.744  1.00  0.00     0.167 HD
ATOM     67  C   UNL A   1      42.652  30.587  34.030  1.00  0.00     0.074 A 
ATOM     68  C   UNL A   1      43.130  31.274  35.216  1.00  0.00     0.031 C 
ATOM     69  C   UNL A   1      43.289  29.548  33.436  1.00  0.00     0.037 A 
BRANCH  56  70
ATOM     70  C   UNL A   1      40.432  27.244  28.434  1.00  0.00     0.057 A 
ATOM     71  C   UNL A   1      41.179  27.347  27.250  1.00  0.00     0.134 A 
ATOM     72  C   UNL A   1      39.653  26.091  28.596  1.00  0.00     0.134 A 
ATOM     73  F   UNL A   1      41.952  28.422  27.025  1.00  0.00    -0.206 F 
ATOM     74  C   UNL A   1      41.125  26.366  26.257  1.00  0.00     0.040 A 
ATOM     75  C   UNL A   1      39.614  25.088  27.621  1.00  0.00     0.040 A 
ATOM     76  F   UNL A   1      38.923  25.909  29.706  1.00  0.00    -0.206 F 
ATOM     77  C   UNL A   1      40.344  25.229  26.443  1.00  0.00     0.006 A 
ENDBRANCH  56  70
BRANCH  57  78
ATOM     78  C   UNL A   1      40.086  34.185  35.688  1.00  0.00     0.057 A 
ATOM     79  C   UNL A   1      40.662  35.447  35.510  1.00  0.00     0.134 A 
ATOM     80  C   UNL A   1      39.366  33.964  36.869  1.00  0.00     0.134 A 
ATOM     81  F   UNL A   1      41.358  35.720  34.397  1.00  0.00    -0.206 F 
ATOM     82  C   UNL A   1      40.538  36.450  36.472  1.00  0.00     0.040 A 
ATOM     83  C   UNL A   1      39.216  34.966  37.829  1.00  0.00     0.040 A 
ATOM     84  F   UNL A   1      38.764  32.785  37.085  1.00  0.00    -0.206 F 
ATOM     85  C   UNL A   1      39.807  36.213  37.633  1.00  0.00     0.006 A 
ENDBRANCH  57  78
BRANCH  69  86
ATOM     86  C   UNL A   1      44.586  29.117  34.053  1.00  0.00     0.057 A 
ATOM     87  C   UNL A   1      45.809  29.686  33.680  1.00  0.00     0.134 A 
ATOM     88  C   UNL A   1      44.604  28.135  35.050  1.00  0.00     0.134 A 
ATOM     89  F   UNL A   1      45.861  30.619  32.716  1.00  0.00    -0.206 F 
ATOM     90  C   UNL A   1      47.009  29.277  34.260  1.00  0.00     0.040 A 
ATOM     91  C   UNL A   1      45.794  27.737  35.660  1.00  0.00     0.040 A 
ATOM     92  F   UNL A   1      43.465  27.552  35.454  1.00  0.00    -0.206 F 
ATOM     93  C   UNL A   1      47.002  28.304  35.260  1.00  0.00     0.006 A 
ENDBRANCH  69  86
ENDBRANCH  43  44
ENDBRANCH  35  38
ENDBRANCH  33  34
ENDBRANCH  32  33
ENDBRANCH  31  32
ENDBRANCH   1  31
TORSDOF 16
ENDMDL
