MODEL 1
REMARK VINA RESULT:     -11.0      0.000      0.000
REMARK SMILES Nc1cnc(Cl)c(C(=O)NCCCCNC(=O)c2ccc(-c3c4nc(c(-c5c(F)cccc5F)c5ccc([nH]5)c(-c5c(F)cccc5F)c5nc(c(-c6c(F)cccc6F)c6ccc3[nH]6)C=C5)C=C4)cc2)c1
REMARK SMILES IDX 13 1 12 2 11 3 10 4 8 5 9 6 7 8 2 9 3 10 72 11 4 12 5 13
REMARK SMILES IDX 6 14 1 15 14 18 15 19 16 20 17 22 18 23 19 24 71 25 20 26
REMARK SMILES IDX 70 27 21 28 22 29 23 30 64 31 24 32 69 33 63 34 65 35 25 36
REMARK SMILES IDX 68 37 62 38 61 39 26 41 52 42 35 43 51 44 36 45 39 46 50 47
REMARK SMILES IDX 66 48 37 49 38 50 49 52 67 53 40 54 27 55 28 56 33 57 29 58
REMARK SMILES IDX 30 59 32 60 34 61 31 62 53 63 54 64 59 65 55 66 56 67 58 68
REMARK SMILES IDX 60 69 57 70 41 71 42 72 47 73 43 74 44 75 46 76 48 77 45 78
REMARK H PARENT 10 7 1 16 1 17 15 21 65 40 39 51
REMARK Flexibility Score: inf
ROOT
ATOM      1  C   UNL A   1      37.455  20.634  24.963  1.00  0.00     0.023 C 
ENDROOT
BRANCH   1   2
ATOM      2  C   UNL A   1      36.274  21.491  25.436  1.00  0.00     0.023 C 
BRANCH   2   3
ATOM      3  C   UNL A   1      35.467  22.149  24.310  1.00  0.00     0.116 C 
BRANCH   3   4
ATOM      4  N   UNL A   1      34.156  22.544  24.789  1.00  0.00    -0.352 N 
ATOM      5  C   UNL A   1      32.947  21.895  24.881  1.00  0.00     0.254 C 
ATOM      6  O   UNL A   1      31.993  22.590  25.227  1.00  0.00    -0.269 OA
ATOM      7  H   UNL A   1      34.124  23.472  25.116  1.00  0.00     0.163 HD
BRANCH   5   8
ATOM      8  C   UNL A   1      32.754  20.449  24.589  1.00  0.00     0.079 A 
ATOM      9  C   UNL A   1      32.775  18.096  25.247  1.00  0.00     0.051 A 
ATOM     10  C   UNL A   1      32.430  17.791  23.937  1.00  0.00     0.138 A 
ATOM     11  C   UNL A   1      33.000  19.444  25.535  1.00  0.00     0.044 A 
ATOM     12  N   UNL A   1      32.212  18.710  22.975  1.00  0.00    -0.242 NA
ATOM     13  C   UNL A   1      32.367  20.016  23.320  1.00  0.00     0.141 A 
ATOM     14  Cl  UNL A   1      31.961  21.040  21.994  1.00  0.00    -0.061 Cl
BRANCH   9  15
ATOM     15  N   UNL A   1      33.023  17.119  26.196  1.00  0.00    -0.397 N 
ATOM     16  H   UNL A   1      33.288  16.214  25.912  1.00  0.00     0.156 HD
ATOM     17  H   UNL A   1      32.934  17.328  27.154  1.00  0.00     0.156 HD
ENDBRANCH   9  15
ENDBRANCH   5   8
ENDBRANCH   3   4
ENDBRANCH   2   3
ENDBRANCH   1   2
BRANCH   1  18
ATOM     18  C   UNL A   1      38.754  20.857  25.727  1.00  0.00     0.116 C 
BRANCH  18  19
ATOM     19  N   UNL A   1      39.700  19.757  25.611  1.00  0.00    -0.352 N 
ATOM     20  C   UNL A   1      41.037  19.738  25.946  1.00  0.00     0.251 C 
ATOM     21  H   UNL A   1      39.338  18.918  25.243  1.00  0.00     0.163 HD
ATOM     22  O   UNL A   1      41.725  18.762  25.698  1.00  0.00    -0.269 OA
BRANCH  20  23
ATOM     23  C   UNL A   1      41.640  20.945  26.558  1.00  0.00     0.039 A 
ATOM     24  C   UNL A   1      41.660  21.106  27.942  1.00  0.00     0.014 A 
ATOM     25  C   UNL A   1      42.136  21.953  25.725  1.00  0.00     0.014 A 
ATOM     26  C   UNL A   1      42.000  22.340  28.484  1.00  0.00     0.010 A 
ATOM     27  C   UNL A   1      42.561  23.164  26.279  1.00  0.00     0.010 A 
ATOM     28  C   UNL A   1      42.439  23.389  27.659  1.00  0.00    -0.014 A 
BRANCH  28  29
ATOM     29  C   UNL A   1      42.724  24.712  28.274  1.00  0.00     0.031 A 
ATOM     30  C   UNL A   1      44.140  25.136  28.566  1.00  0.00     0.074 A 
ATOM     31  C   UNL A   1      41.710  25.576  28.471  1.00  0.00     0.049 A 
ATOM     32  N   UNL A   1      44.581  26.288  29.007  1.00  0.00    -0.248 NA
ATOM     33  C   UNL A   1      45.198  24.140  28.338  1.00  0.00     0.031 C 
ATOM     34  C   UNL A   1      40.296  25.287  28.219  1.00  0.00     0.029 A 
ATOM     35  N   UNL A   1      41.714  26.883  28.885  1.00  0.00    -0.354 N 
ATOM     36  C   UNL A   1      45.960  26.153  29.117  1.00  0.00     0.074 A 
ATOM     37  C   UNL A   1      46.281  24.795  28.734  1.00  0.00     0.031 C 
ATOM     38  C   UNL A   1      39.579  26.404  28.413  1.00  0.00     0.029 A 
ATOM     39  C   UNL A   1      40.472  27.470  28.855  1.00  0.00     0.049 A 
ATOM     40  H   UNL A   1      42.527  27.356  29.175  1.00  0.00     0.167 HD
ATOM     41  C   UNL A   1      46.879  27.078  29.486  1.00  0.00     0.037 A 
ATOM     42  C   UNL A   1      40.094  28.727  29.148  1.00  0.00     0.037 A 
ATOM     43  C   UNL A   1      46.567  28.435  29.853  1.00  0.00     0.049 A 
ATOM     44  C   UNL A   1      41.130  29.719  29.594  1.00  0.00     0.074 A 
ATOM     45  C   UNL A   1      47.430  29.448  30.234  1.00  0.00     0.029 A 
ATOM     46  N   UNL A   1      45.288  28.969  29.880  1.00  0.00    -0.354 N 
ATOM     47  N   UNL A   1      42.429  29.575  29.685  1.00  0.00    -0.248 NA
ATOM     48  C   UNL A   1      40.640  31.046  29.991  1.00  0.00     0.031 C 
ATOM     49  C   UNL A   1      46.669  30.587  30.525  1.00  0.00     0.029 A 
ATOM     50  C   UNL A   1      45.336  30.293  30.289  1.00  0.00     0.049 A 
ATOM     51  H   UNL A   1      44.466  28.481  29.644  1.00  0.00     0.167 HD
ATOM     52  C   UNL A   1      42.913  30.793  30.139  1.00  0.00     0.074 A 
ATOM     53  C   UNL A   1      41.771  31.674  30.278  1.00  0.00     0.031 C 
ATOM     54  C   UNL A   1      44.188  31.150  30.428  1.00  0.00     0.037 A 
BRANCH  41  55
ATOM     55  C   UNL A   1      48.317  26.646  29.517  1.00  0.00     0.057 A 
ATOM     56  C   UNL A   1      49.141  26.822  28.400  1.00  0.00     0.134 A 
ATOM     57  C   UNL A   1      48.877  26.031  30.644  1.00  0.00     0.134 A 
ATOM     58  F   UNL A   1      48.667  27.401  27.286  1.00  0.00    -0.206 F 
ATOM     59  C   UNL A   1      50.473  26.401  28.400  1.00  0.00     0.040 A 
ATOM     60  C   UNL A   1      50.213  25.624  30.666  1.00  0.00     0.040 A 
ATOM     61  F   UNL A   1      48.144  25.846  31.752  1.00  0.00    -0.206 F 
ATOM     62  C   UNL A   1      51.013  25.806  29.538  1.00  0.00     0.006 A 
ENDBRANCH  41  55
BRANCH  42  63
ATOM     63  C   UNL A   1      38.671  29.126  29.031  1.00  0.00     0.057 A 
ATOM     64  C   UNL A   1      37.810  29.089  30.135  1.00  0.00     0.134 A 
ATOM     65  C   UNL A   1      38.145  29.579  27.816  1.00  0.00     0.134 A 
ATOM     66  F   UNL A   1      38.254  28.661  31.326  1.00  0.00    -0.206 F 
ATOM     67  C   UNL A   1      36.475  29.482  30.033  1.00  0.00     0.040 A 
ATOM     68  C   UNL A   1      36.818  30.000  27.706  1.00  0.00     0.040 A 
ATOM     69  F   UNL A   1      38.927  29.657  26.729  1.00  0.00    -0.206 F 
ATOM     70  C   UNL A   1      35.979  29.948  28.817  1.00  0.00     0.006 A 
ENDBRANCH  42  63
BRANCH  54  71
ATOM     71  C   UNL A   1      44.401  32.554  30.910  1.00  0.00     0.057 A 
ATOM     72  C   UNL A   1      44.619  33.598  30.003  1.00  0.00     0.134 A 
ATOM     73  C   UNL A   1      44.385  32.871  32.274  1.00  0.00     0.134 A 
ATOM     74  F   UNL A   1      44.650  33.359  28.683  1.00  0.00    -0.206 F 
ATOM     75  C   UNL A   1      44.806  34.911  30.436  1.00  0.00     0.040 A 
ATOM     76  C   UNL A   1      44.548  34.184  32.718  1.00  0.00     0.040 A 
ATOM     77  F   UNL A   1      44.163  31.918  33.191  1.00  0.00    -0.206 F 
ATOM     78  C   UNL A   1      44.762  35.208  31.798  1.00  0.00     0.006 A 
ENDBRANCH  54  71
ENDBRANCH  28  29
ENDBRANCH  20  23
ENDBRANCH  18  19
ENDBRANCH   1  18
TORSDOF 12
ENDMDL
MODEL 2
REMARK VINA RESULT:     -10.9      5.438      9.818
REMARK SMILES Nc1cnc(Cl)c(C(=O)NCCCCNC(=O)c2ccc(-c3c4nc(c(-c5c(F)cccc5F)c5ccc([nH]5)c(-c5c(F)cccc5F)c5nc(c(-c6c(F)cccc6F)c6ccc3[nH]6)C=C5)C=C4)cc2)c1
REMARK SMILES IDX 13 1 12 2 11 3 10 4 8 5 9 6 7 8 2 9 3 10 72 11 4 12 5 13
REMARK SMILES IDX 6 14 1 15 14 18 15 19 16 20 17 22 18 23 19 24 71 25 20 26
REMARK SMILES IDX 70 27 21 28 22 29 23 30 64 31 24 32 69 33 63 34 65 35 25 36
REMARK SMILES IDX 68 37 62 38 61 39 26 41 52 42 35 43 51 44 36 45 39 46 50 47
REMARK SMILES IDX 66 48 37 49 38 50 49 52 67 53 40 54 27 55 28 56 33 57 29 58
REMARK SMILES IDX 30 59 32 60 34 61 31 62 53 63 54 64 59 65 55 66 56 67 58 68
REMARK SMILES IDX 60 69 57 70 41 71 42 72 47 73 43 74 44 75 46 76 48 77 45 78
REMARK H PARENT 10 7 1 16 1 17 15 21 65 40 39 51
REMARK Flexibility Score: inf
ROOT
ATOM      1  C   UNL A   1      31.364  30.459  25.606  1.00  0.00     0.023 C 
ENDROOT
BRANCH   1   2
ATOM      2  C   UNL A   1      31.702  29.043  25.124  1.00  0.00     0.023 C 
BRANCH   2   3
ATOM      3  C   UNL A   1      32.681  28.984  23.945  1.00  0.00     0.116 C 
BRANCH   3   4
ATOM      4  N   UNL A   1      32.267  27.973  22.991  1.00  0.00    -0.352 N 
ATOM      5  C   UNL A   1      31.089  27.727  22.326  1.00  0.00     0.254 C 
ATOM      6  O   UNL A   1      31.051  26.685  21.674  1.00  0.00    -0.269 OA
ATOM      7  H   UNL A   1      32.977  27.327  22.775  1.00  0.00     0.163 HD
BRANCH   5   8
ATOM      8  C   UNL A   1      29.907  28.630  22.362  1.00  0.00     0.079 A 
ATOM      9  C   UNL A   1      28.776  30.723  21.805  1.00  0.00     0.051 A 
ATOM     10  C   UNL A   1      27.691  30.260  22.536  1.00  0.00     0.138 A 
ATOM     11  C   UNL A   1      29.911  29.910  21.788  1.00  0.00     0.044 A 
ATOM     12  N   UNL A   1      27.639  29.054  23.137  1.00  0.00    -0.242 NA
ATOM     13  C   UNL A   1      28.739  28.262  23.030  1.00  0.00     0.141 A 
ATOM     14  Cl  UNL A   1      28.454  26.735  23.779  1.00  0.00    -0.061 Cl
BRANCH   9  15
ATOM     15  N   UNL A   1      28.801  31.983  21.231  1.00  0.00    -0.397 N 
ATOM     16  H   UNL A   1      28.737  32.080  20.254  1.00  0.00     0.156 HD
ATOM     17  H   UNL A   1      28.882  32.783  21.801  1.00  0.00     0.156 HD
ENDBRANCH   9  15
ENDBRANCH   5   8
ENDBRANCH   3   4
ENDBRANCH   2   3
ENDBRANCH   1   2
BRANCH   1  18
ATOM     18  C   UNL A   1      32.096  30.898  26.868  1.00  0.00     0.116 C 
BRANCH  18  19
ATOM     19  N   UNL A   1      32.021  32.329  27.123  1.00  0.00    -0.352 N 
ATOM     20  C   UNL A   1      32.974  33.149  27.688  1.00  0.00     0.251 C 
ATOM     21  H   UNL A   1      31.180  32.767  26.858  1.00  0.00     0.163 HD
ATOM     22  O   UNL A   1      32.725  34.319  27.925  1.00  0.00    -0.269 OA
BRANCH  20  23
ATOM     23  C   UNL A   1      34.288  32.572  28.060  1.00  0.00     0.039 A 
ATOM     24  C   UNL A   1      34.397  31.231  28.423  1.00  0.00     0.014 A 
ATOM     25  C   UNL A   1      35.408  33.407  28.100  1.00  0.00     0.014 A 
ATOM     26  C   UNL A   1      35.575  30.772  29.002  1.00  0.00     0.010 A 
ATOM     27  C   UNL A   1      36.619  32.917  28.601  1.00  0.00     0.010 A 
ATOM     28  C   UNL A   1      36.695  31.613  29.113  1.00  0.00    -0.014 A 
BRANCH  28  29
ATOM     29  C   UNL A   1      37.908  31.102  29.802  1.00  0.00     0.031 A 
ATOM     30  C   UNL A   1      38.159  31.414  31.254  1.00  0.00     0.074 A 
ATOM     31  C   UNL A   1      38.733  30.266  29.142  1.00  0.00     0.049 A 
ATOM     32  N   UNL A   1      39.111  30.973  32.040  1.00  0.00    -0.248 NA
ATOM     33  C   UNL A   1      37.226  32.342  31.910  1.00  0.00     0.031 C 
ATOM     34  C   UNL A   1      38.593  29.880  27.736  1.00  0.00     0.029 A 
ATOM     35  N   UNL A   1      39.824  29.557  29.575  1.00  0.00    -0.354 N 
ATOM     36  C   UNL A   1      38.896  31.574  33.274  1.00  0.00     0.074 A 
ATOM     37  C   UNL A   1      37.748  32.441  33.126  1.00  0.00     0.031 C 
ATOM     38  C   UNL A   1      39.515  28.950  27.443  1.00  0.00     0.029 A 
ATOM     39  C   UNL A   1      40.343  28.715  28.621  1.00  0.00     0.049 A 
ATOM     40  H   UNL A   1      40.199  29.642  30.481  1.00  0.00     0.167 HD
ATOM     41  C   UNL A   1      39.581  31.408  34.432  1.00  0.00     0.037 A 
ATOM     42  C   UNL A   1      41.370  27.850  28.687  1.00  0.00     0.037 A 
ATOM     43  C   UNL A   1      40.714  30.535  34.590  1.00  0.00     0.049 A 
ATOM     44  C   UNL A   1      42.137  27.718  29.972  1.00  0.00     0.074 A 
ATOM     45  C   UNL A   1      41.469  30.293  35.725  1.00  0.00     0.029 A 
ATOM     46  N   UNL A   1      41.254  29.754  33.579  1.00  0.00    -0.354 N 
ATOM     47  N   UNL A   1      41.915  28.289  31.131  1.00  0.00    -0.248 NA
ATOM     48  C   UNL A   1      43.306  26.828  29.952  1.00  0.00     0.031 C 
ATOM     49  C   UNL A   1      42.488  29.391  35.392  1.00  0.00     0.029 A 
ATOM     50  C   UNL A   1      42.344  29.045  34.059  1.00  0.00     0.049 A 
ATOM     51  H   UNL A   1      40.915  29.711  32.656  1.00  0.00     0.167 HD
ATOM     52  C   UNL A   1      42.908  27.821  31.979  1.00  0.00     0.074 A 
ATOM     53  C   UNL A   1      43.717  26.897  31.209  1.00  0.00     0.031 C 
ATOM     54  C   UNL A   1      43.140  28.136  33.276  1.00  0.00     0.037 A 
BRANCH  41  55
ATOM     55  C   UNL A   1      39.122  32.198  35.624  1.00  0.00     0.057 A 
ATOM     56  C   UNL A   1      38.258  31.631  36.568  1.00  0.00     0.134 A 
ATOM     57  C   UNL A   1      39.511  33.529  35.820  1.00  0.00     0.134 A 
ATOM     58  F   UNL A   1      37.842  30.362  36.438  1.00  0.00    -0.206 F 
ATOM     59  C   UNL A   1      37.798  32.360  37.667  1.00  0.00     0.040 A 
ATOM     60  C   UNL A   1      39.076  34.262  36.926  1.00  0.00     0.040 A 
ATOM     61  F   UNL A   1      40.349  34.126  34.959  1.00  0.00    -0.206 F 
ATOM     62  C   UNL A   1      38.212  33.677  37.851  1.00  0.00     0.006 A 
ENDBRANCH  41  55
BRANCH  42  63
ATOM     63  C   UNL A   1      41.740  27.037  27.504  1.00  0.00     0.057 A 
ATOM     64  C   UNL A   1      42.579  27.544  26.504  1.00  0.00     0.134 A 
ATOM     65  C   UNL A   1      41.283  25.722  27.359  1.00  0.00     0.134 A 
ATOM     66  F   UNL A   1      43.047  28.798  26.584  1.00  0.00    -0.206 F 
ATOM     67  C   UNL A   1      42.944  26.775  25.398  1.00  0.00     0.040 A 
ATOM     68  C   UNL A   1      41.662  24.933  26.271  1.00  0.00     0.040 A 
ATOM     69  F   UNL A   1      40.494  25.175  28.295  1.00  0.00    -0.206 F 
ATOM     70  C   UNL A   1      42.492  25.462  25.286  1.00  0.00     0.006 A 
ENDBRANCH  42  63
BRANCH  54  71
ATOM     71  C   UNL A   1      44.307  27.463  33.934  1.00  0.00     0.057 A 
ATOM     72  C   UNL A   1      44.158  26.220  34.560  1.00  0.00     0.134 A 
ATOM     73  C   UNL A   1      45.581  28.045  33.940  1.00  0.00     0.134 A 
ATOM     74  F   UNL A   1      42.963  25.611  34.593  1.00  0.00    -0.206 F 
ATOM     75  C   UNL A   1      45.239  25.576  35.165  1.00  0.00     0.040 A 
ATOM     76  C   UNL A   1      46.673  27.401  34.521  1.00  0.00     0.040 A 
ATOM     77  F   UNL A   1      45.791  29.227  33.340  1.00  0.00    -0.206 F 
ATOM     78  C   UNL A   1      46.503  26.163  35.139  1.00  0.00     0.006 A 
ENDBRANCH  54  71
ENDBRANCH  28  29
ENDBRANCH  20  23
ENDBRANCH  18  19
ENDBRANCH   1  18
TORSDOF 12
ENDMDL
MODEL 3
REMARK VINA RESULT:     -10.9      5.283      9.891
REMARK SMILES Nc1cnc(Cl)c(C(=O)NCCCCNC(=O)c2ccc(-c3c4nc(c(-c5c(F)cccc5F)c5ccc([nH]5)c(-c5c(F)cccc5F)c5nc(c(-c6c(F)cccc6F)c6ccc3[nH]6)C=C5)C=C4)cc2)c1
REMARK SMILES IDX 13 1 12 2 11 3 10 4 8 5 9 6 7 8 2 9 3 10 72 11 4 12 5 13
REMARK SMILES IDX 6 14 1 15 14 18 15 19 16 20 17 22 18 23 19 24 71 25 20 26
REMARK SMILES IDX 70 27 21 28 22 29 23 30 64 31 24 32 69 33 63 34 65 35 25 36
REMARK SMILES IDX 68 37 62 38 61 39 26 41 52 42 35 43 51 44 36 45 39 46 50 47
REMARK SMILES IDX 66 48 37 49 38 50 49 52 67 53 40 54 27 55 28 56 33 57 29 58
REMARK SMILES IDX 30 59 32 60 34 61 31 62 53 63 54 64 59 65 55 66 56 67 58 68
REMARK SMILES IDX 60 69 57 70 41 71 42 72 47 73 43 74 44 75 46 76 48 77 45 78
REMARK H PARENT 10 7 1 16 1 17 15 21 65 40 39 51
REMARK Flexibility Score: inf
ROOT
ATOM      1  C   UNL A   1      36.111  33.628  29.380  1.00  0.00     0.023 C 
ENDROOT
BRANCH   1   2
ATOM      2  C   UNL A   1      37.611  33.329  29.269  1.00  0.00     0.023 C 
BRANCH   2   3
ATOM      3  C   UNL A   1      38.518  34.308  30.024  1.00  0.00     0.116 C 
BRANCH   3   4
ATOM      4  N   UNL A   1      37.856  34.795  31.220  1.00  0.00    -0.352 N 
ATOM      5  C   UNL A   1      37.662  34.268  32.474  1.00  0.00     0.254 C 
ATOM      6  O   UNL A   1      36.930  34.917  33.219  1.00  0.00    -0.269 OA
ATOM      7  H   UNL A   1      37.463  35.691  31.109  1.00  0.00     0.163 HD
BRANCH   5   8
ATOM      8  C   UNL A   1      38.273  32.997  32.948  1.00  0.00     0.079 A 
ATOM      9  C   UNL A   1      38.165  30.607  33.444  1.00  0.00     0.051 A 
ATOM     10  C   UNL A   1      39.471  30.705  33.901  1.00  0.00     0.138 A 
ATOM     11  C   UNL A   1      37.557  31.794  33.030  1.00  0.00     0.044 A 
ATOM     12  N   UNL A   1      40.201  31.839  33.879  1.00  0.00    -0.242 NA
ATOM     13  C   UNL A   1      39.594  32.955  33.396  1.00  0.00     0.141 A 
ATOM     14  Cl  UNL A   1      40.703  34.275  33.362  1.00  0.00    -0.061 Cl
BRANCH   9  15
ATOM     15  N   UNL A   1      37.441  29.429  33.516  1.00  0.00    -0.397 N 
ATOM     16  H   UNL A   1      36.724  29.252  32.865  1.00  0.00     0.156 HD
ATOM     17  H   UNL A   1      37.642  28.768  34.218  1.00  0.00     0.156 HD
ENDBRANCH   9  15
ENDBRANCH   5   8
ENDBRANCH   3   4
ENDBRANCH   2   3
ENDBRANCH   1   2
BRANCH   1  18
ATOM     18  C   UNL A   1      35.286  32.528  30.037  1.00  0.00     0.116 C 
BRANCH  18  19
ATOM     19  N   UNL A   1      34.428  31.804  29.111  1.00  0.00    -0.352 N 
ATOM     20  C   UNL A   1      34.727  30.687  28.361  1.00  0.00     0.251 C 
ATOM     21  H   UNL A   1      33.515  32.160  29.006  1.00  0.00     0.163 HD
ATOM     22  O   UNL A   1      33.925  30.250  27.552  1.00  0.00    -0.269 OA
BRANCH  20  23
ATOM     23  C   UNL A   1      36.062  30.060  28.508  1.00  0.00     0.039 A 
ATOM     24  C   UNL A   1      36.433  29.453  29.706  1.00  0.00     0.014 A 
ATOM     25  C   UNL A   1      36.969  30.139  27.448  1.00  0.00     0.014 A 
ATOM     26  C   UNL A   1      37.760  29.094  29.910  1.00  0.00     0.010 A 
ATOM     27  C   UNL A   1      38.283  29.696  27.626  1.00  0.00     0.010 A 
ATOM     28  C   UNL A   1      38.705  29.226  28.879  1.00  0.00    -0.014 A 
BRANCH  28  29
ATOM     29  C   UNL A   1      40.126  28.896  29.164  1.00  0.00     0.031 A 
ATOM     30  C   UNL A   1      40.712  27.577  28.731  1.00  0.00     0.074 A 
ATOM     31  C   UNL A   1      40.918  29.832  29.720  1.00  0.00     0.049 A 
ATOM     32  N   UNL A   1      41.952  27.161  28.807  1.00  0.00    -0.248 NA
ATOM     33  C   UNL A   1      39.789  26.596  28.140  1.00  0.00     0.031 C 
ATOM     34  C   UNL A   1      40.471  31.152  30.175  1.00  0.00     0.029 A 
ATOM     35  N   UNL A   1      42.268  29.838  29.958  1.00  0.00    -0.354 N 
ATOM     36  C   UNL A   1      41.956  25.874  28.284  1.00  0.00     0.074 A 
ATOM     37  C   UNL A   1      40.589  25.559  27.929  1.00  0.00     0.031 C 
ATOM     38  C   UNL A   1      41.538  31.863  30.568  1.00  0.00     0.029 A 
ATOM     39  C   UNL A   1      42.733  31.035  30.445  1.00  0.00     0.049 A 
ATOM     40  H   UNL A   1      42.849  29.059  29.796  1.00  0.00     0.167 HD
ATOM     41  C   UNL A   1      43.004  25.033  28.100  1.00  0.00     0.037 A 
ATOM     42  C   UNL A   1      43.982  31.425  30.757  1.00  0.00     0.037 A 
ATOM     43  C   UNL A   1      44.367  25.346  28.436  1.00  0.00     0.049 A 
ATOM     44  C   UNL A   1      45.117  30.457  30.580  1.00  0.00     0.074 A 
ATOM     45  C   UNL A   1      45.499  24.564  28.280  1.00  0.00     0.029 A 
ATOM     46  N   UNL A   1      44.786  26.544  28.996  1.00  0.00    -0.354 N 
ATOM     47  N   UNL A   1      45.103  29.247  30.078  1.00  0.00    -0.248 NA
ATOM     48  C   UNL A   1      46.442  30.909  31.028  1.00  0.00     0.031 C 
ATOM     49  C   UNL A   1      46.598  25.275  28.776  1.00  0.00     0.029 A 
ATOM     50  C   UNL A   1      46.156  26.514  29.208  1.00  0.00     0.049 A 
ATOM     51  H   UNL A   1      44.197  27.303  29.212  1.00  0.00     0.167 HD
ATOM     52  C   UNL A   1      46.414  28.797  30.140  1.00  0.00     0.074 A 
ATOM     53  C   UNL A   1      47.202  29.875  30.702  1.00  0.00     0.031 C 
ATOM     54  C   UNL A   1      46.921  27.594  29.775  1.00  0.00     0.037 A 
BRANCH  41  55
ATOM     55  C   UNL A   1      42.709  23.684  27.509  1.00  0.00     0.057 A 
ATOM     56  C   UNL A   1      42.713  23.495  26.122  1.00  0.00     0.134 A 
ATOM     57  C   UNL A   1      42.393  22.581  28.312  1.00  0.00     0.134 A 
ATOM     58  F   UNL A   1      43.002  24.511  25.295  1.00  0.00    -0.206 F 
ATOM     59  C   UNL A   1      42.414  22.255  25.553  1.00  0.00     0.040 A 
ATOM     60  C   UNL A   1      42.113  21.330  27.758  1.00  0.00     0.040 A 
ATOM     61  F   UNL A   1      42.386  22.693  29.649  1.00  0.00    -0.206 F 
ATOM     62  C   UNL A   1      42.119  21.167  26.373  1.00  0.00     0.006 A 
ENDBRANCH  41  55
BRANCH  42  63
ATOM     63  C   UNL A   1      44.233  32.793  31.268  1.00  0.00     0.057 A 
ATOM     64  C   UNL A   1      44.523  33.854  30.402  1.00  0.00     0.134 A 
ATOM     65  C   UNL A   1      44.163  33.077  32.637  1.00  0.00     0.134 A 
ATOM     66  F   UNL A   1      44.607  33.645  29.080  1.00  0.00    -0.206 F 
ATOM     67  C   UNL A   1      44.741  35.147  30.879  1.00  0.00     0.040 A 
ATOM     68  C   UNL A   1      44.353  34.371  33.125  1.00  0.00     0.040 A 
ATOM     69  F   UNL A   1      43.868  32.105  33.513  1.00  0.00    -0.206 F 
ATOM     70  C   UNL A   1      44.647  35.409  32.244  1.00  0.00     0.006 A 
ENDBRANCH  42  63
BRANCH  54  71
ATOM     71  C   UNL A   1      48.395  27.399  29.968  1.00  0.00     0.057 A 
ATOM     72  C   UNL A   1      49.303  27.768  28.969  1.00  0.00     0.134 A 
ATOM     73  C   UNL A   1      48.913  26.849  31.146  1.00  0.00     0.134 A 
ATOM     74  F   UNL A   1      48.870  28.297  27.814  1.00  0.00    -0.206 F 
ATOM     75  C   UNL A   1      50.679  27.605  29.139  1.00  0.00     0.040 A 
ATOM     76  C   UNL A   1      50.287  26.701  31.338  1.00  0.00     0.040 A 
ATOM     77  F   UNL A   1      48.095  26.492  32.148  1.00  0.00    -0.206 F 
ATOM     78  C   UNL A   1      51.175  27.077  30.331  1.00  0.00     0.006 A 
ENDBRANCH  54  71
ENDBRANCH  28  29
ENDBRANCH  20  23
ENDBRANCH  18  19
ENDBRANCH   1  18
TORSDOF 12
ENDMDL
