MODEL 1
REMARK VINA RESULT:     -12.8      0.000      0.000
REMARK SMILES Cc1ccc2c(=O)c3cccc(CC(=O)NCCCCNC(=O)c4ccc(-c5c6nc(c(-c7c(F)cccc7F)c7ccc([nH]7)c(-c7c(F)cccc7F)c7nc(c(-c8c(F)cccc8F)c8ccc5[nH]8)C=C7)C=C6)cc4)c3oc2c1C
REMARK SMILES IDX 19 1 18 2 17 3 16 4 14 5 15 6 13 8 12 9 1 10 2 11 3 12 81 13
REMARK SMILES IDX 4 14 80 15 82 16 5 17 79 18 6 19 78 20 7 21 8 22 9 23 11 24
REMARK SMILES IDX 10 25 20 26 21 27 22 28 23 30 24 31 25 32 77 33 26 34 76 35
REMARK SMILES IDX 27 36 28 37 29 38 70 39 30 40 75 41 69 42 71 43 31 44 74 45
REMARK SMILES IDX 68 46 67 47 32 49 58 50 41 51 57 52 42 53 45 54 56 55 72 56
REMARK SMILES IDX 43 57 44 58 55 60 73 61 46 62 33 63 34 64 39 65 35 66 36 67
REMARK SMILES IDX 38 68 40 69 37 70 59 71 60 72 65 73 61 74 62 75 64 76 66 77
REMARK SMILES IDX 63 78 47 79 48 80 53 81 49 82 50 83 52 84 54 85 51 86
REMARK H PARENT 16 7 21 29 71 48 45 59
REMARK Flexibility Score: inf
ROOT
ATOM      1  C   UNL A   1      31.377  31.955  26.872  1.00  0.00     0.023 C 
ENDROOT
BRANCH   1   2
ATOM      2  C   UNL A   1      31.782  30.479  26.865  1.00  0.00     0.023 C 
BRANCH   2   3
ATOM      3  C   UNL A   1      33.278  30.219  26.689  1.00  0.00     0.116 C 
BRANCH   3   4
ATOM      4  N   UNL A   1      33.594  29.658  25.390  1.00  0.00    -0.356 N 
ATOM      5  C   UNL A   1      33.868  28.365  25.050  1.00  0.00     0.224 C 
ATOM      6  O   UNL A   1      34.065  28.112  23.859  1.00  0.00    -0.275 OA
ATOM      7  H   UNL A   1      33.614  30.303  24.647  1.00  0.00     0.163 HD
BRANCH   5   8
ATOM      8  C   UNL A   1      33.847  27.265  26.099  1.00  0.00     0.139 C 
BRANCH   8   9
ATOM      9  C   UNL A   1      32.690  26.297  25.995  1.00  0.00     0.005 A 
ATOM     10  C   UNL A   1      37.458  20.898  24.788  1.00  0.00     0.045 C 
ATOM     11  C   UNL A   1      36.054  21.386  25.026  1.00  0.00    -0.044 A 
ATOM     12  C   UNL A   1      35.008  20.448  24.990  1.00  0.00     0.005 A 
ATOM     13  C   UNL A   1      35.764  22.742  25.305  1.00  0.00    -0.005 A 
ATOM     14  C   UNL A   1      33.688  20.840  25.200  1.00  0.00     0.016 A 
ATOM     15  C   UNL A   1      34.421  23.132  25.497  1.00  0.00     0.141 A 
ATOM     16  C   UNL A   1      36.844  23.790  25.398  1.00  0.00     0.049 C 
ATOM     17  C   UNL A   1      33.402  22.182  25.445  1.00  0.00     0.066 A 
ATOM     18  O   UNL A   1      34.184  24.468  25.731  1.00  0.00    -0.455 OA
ATOM     19  C   UNL A   1      32.014  22.617  25.643  1.00  0.00     0.200 A 
ATOM     20  C   UNL A   1      32.888  24.914  25.836  1.00  0.00     0.142 A 
ATOM     21  O   UNL A   1      31.086  21.817  25.667  1.00  0.00    -0.288 OA
ATOM     22  C   UNL A   1      31.786  24.059  25.800  1.00  0.00     0.066 A 
ATOM     23  C   UNL A   1      30.484  24.556  25.905  1.00  0.00     0.016 A 
ATOM     24  C   UNL A   1      31.372  26.791  26.056  1.00  0.00     0.008 A 
ATOM     25  C   UNL A   1      30.278  25.926  26.024  1.00  0.00     0.001 A 
ENDBRANCH   8   9
ENDBRANCH   5   8
ENDBRANCH   3   4
ENDBRANCH   2   3
ENDBRANCH   1   2
BRANCH   1  26
ATOM     26  C   UNL A   1      32.526  32.947  26.744  1.00  0.00     0.116 C 
BRANCH  26  27
ATOM     27  N   UNL A   1      32.408  34.099  27.626  1.00  0.00    -0.352 N 
ATOM     28  C   UNL A   1      33.229  34.464  28.669  1.00  0.00     0.251 C 
ATOM     29  H   UNL A   1      31.643  34.694  27.454  1.00  0.00     0.163 HD
ATOM     30  O   UNL A   1      32.946  35.425  29.379  1.00  0.00    -0.269 OA
BRANCH  28  31
ATOM     31  C   UNL A   1      34.429  33.652  28.962  1.00  0.00     0.039 A 
ATOM     32  C   UNL A   1      34.305  32.367  29.494  1.00  0.00     0.014 A 
ATOM     33  C   UNL A   1      35.693  34.214  28.764  1.00  0.00     0.014 A 
ATOM     34  C   UNL A   1      35.430  31.718  29.991  1.00  0.00     0.010 A 
ATOM     35  C   UNL A   1      36.831  33.526  29.195  1.00  0.00     0.010 A 
ATOM     36  C   UNL A   1      36.702  32.301  29.867  1.00  0.00    -0.014 A 
BRANCH  36  37
ATOM     37  C   UNL A   1      37.874  31.628  30.485  1.00  0.00     0.031 A 
ATOM     38  C   UNL A   1      38.234  31.888  31.925  1.00  0.00     0.074 A 
ATOM     39  C   UNL A   1      38.576  30.730  29.769  1.00  0.00     0.049 A 
ATOM     40  N   UNL A   1      39.201  31.368  32.641  1.00  0.00    -0.248 NA
ATOM     41  C   UNL A   1      37.405  32.858  32.656  1.00  0.00     0.031 C 
ATOM     42  C   UNL A   1      38.322  30.381  28.370  1.00  0.00     0.029 A 
ATOM     43  N   UNL A   1      39.631  29.930  30.125  1.00  0.00    -0.354 N 
ATOM     44  C   UNL A   1      39.110  31.963  33.894  1.00  0.00     0.074 A 
ATOM     45  C   UNL A   1      38.009  32.900  33.835  1.00  0.00     0.031 C 
ATOM     46  C   UNL A   1      39.163  29.404  28.002  1.00  0.00     0.029 A 
ATOM     47  C   UNL A   1      40.049  29.095  29.120  1.00  0.00     0.049 A 
ATOM     48  H   UNL A   1      40.048  29.952  31.017  1.00  0.00     0.167 HD
ATOM     49  C   UNL A   1      39.867  31.742  34.995  1.00  0.00     0.037 A 
ATOM     50  C   UNL A   1      41.041  28.186  29.097  1.00  0.00     0.037 A 
ATOM     51  C   UNL A   1      40.941  30.786  35.067  1.00  0.00     0.049 A 
ATOM     52  C   UNL A   1      41.883  27.984  30.323  1.00  0.00     0.074 A 
ATOM     53  C   UNL A   1      41.738  30.464  36.153  1.00  0.00     0.029 A 
ATOM     54  N   UNL A   1      41.368  29.998  34.010  1.00  0.00    -0.354 N 
ATOM     55  N   UNL A   1      41.773  28.543  31.503  1.00  0.00    -0.248 NA
ATOM     56  C   UNL A   1      42.995  27.029  30.208  1.00  0.00     0.031 C 
ATOM     57  C   UNL A   1      42.671  29.504  35.741  1.00  0.00     0.029 A 
ATOM     58  C   UNL A   1      42.431  29.206  34.410  1.00  0.00     0.049 A 
ATOM     59  H   UNL A   1      40.974  30.002  33.108  1.00  0.00     0.167 HD
ATOM     60  C   UNL A   1      42.793  28.003  32.273  1.00  0.00     0.074 A 
ATOM     61  C   UNL A   1      43.497  27.055  31.434  1.00  0.00     0.031 C 
ATOM     62  C   UNL A   1      43.122  28.272  33.561  1.00  0.00     0.037 A 
BRANCH  49  63
ATOM     63  C   UNL A   1      39.566  32.560  36.216  1.00  0.00     0.057 A 
ATOM     64  C   UNL A   1      38.548  32.178  37.097  1.00  0.00     0.134 A 
ATOM     65  C   UNL A   1      40.259  33.745  36.502  1.00  0.00     0.134 A 
ATOM     66  F   UNL A   1      37.843  31.057  36.878  1.00  0.00    -0.206 F 
ATOM     67  C   UNL A   1      38.226  32.944  38.219  1.00  0.00     0.040 A 
ATOM     68  C   UNL A   1      39.960  34.509  37.632  1.00  0.00     0.040 A 
ATOM     69  F   UNL A   1      41.255  34.159  35.704  1.00  0.00    -0.206 F 
ATOM     70  C   UNL A   1      38.937  34.111  38.491  1.00  0.00     0.006 A 
ENDBRANCH  49  63
BRANCH  50  71
ATOM     71  C   UNL A   1      41.298  27.400  27.867  1.00  0.00     0.057 A 
ATOM     72  C   UNL A   1      40.720  26.140  27.674  1.00  0.00     0.134 A 
ATOM     73  C   UNL A   1      42.118  27.899  26.850  1.00  0.00     0.134 A 
ATOM     74  F   UNL A   1      39.926  25.607  28.615  1.00  0.00    -0.206 F 
ATOM     75  C   UNL A   1      40.955  25.399  26.516  1.00  0.00     0.040 A 
ATOM     76  C   UNL A   1      42.343  27.180  25.676  1.00  0.00     0.040 A 
ATOM     77  F   UNL A   1      42.683  29.109  26.970  1.00  0.00    -0.206 F 
ATOM     78  C   UNL A   1      41.764  25.923  25.509  1.00  0.00     0.006 A 
ENDBRANCH  50  71
BRANCH  62  79
ATOM     79  C   UNL A   1      44.284  27.518  34.131  1.00  0.00     0.057 A 
ATOM     80  C   UNL A   1      45.579  28.045  34.074  1.00  0.00     0.134 A 
ATOM     81  C   UNL A   1      44.119  26.262  34.732  1.00  0.00     0.134 A 
ATOM     82  F   UNL A   1      45.803  29.241  33.508  1.00  0.00    -0.206 F 
ATOM     83  C   UNL A   1      46.671  27.353  34.599  1.00  0.00     0.040 A 
ATOM     84  C   UNL A   1      45.200  25.570  35.278  1.00  0.00     0.040 A 
ATOM     85  F   UNL A   1      42.900  25.712  34.831  1.00  0.00    -0.206 F 
ATOM     86  C   UNL A   1      46.481  26.114  35.209  1.00  0.00     0.006 A 
ENDBRANCH  62  79
ENDBRANCH  36  37
ENDBRANCH  28  31
ENDBRANCH  26  27
ENDBRANCH   1  26
TORSDOF 12
ENDMDL
MODEL 2
REMARK VINA RESULT:     -12.7      4.828     10.186
REMARK SMILES Cc1ccc2c(=O)c3cccc(CC(=O)NCCCCNC(=O)c4ccc(-c5c6nc(c(-c7c(F)cccc7F)c7ccc([nH]7)c(-c7c(F)cccc7F)c7nc(c(-c8c(F)cccc8F)c8ccc5[nH]8)C=C7)C=C6)cc4)c3oc2c1C
REMARK SMILES IDX 19 1 18 2 17 3 16 4 14 5 15 6 13 8 12 9 1 10 2 11 3 12 81 13
REMARK SMILES IDX 4 14 80 15 82 16 5 17 79 18 6 19 78 20 7 21 8 22 9 23 11 24
REMARK SMILES IDX 10 25 20 26 21 27 22 28 23 30 24 31 25 32 77 33 26 34 76 35
REMARK SMILES IDX 27 36 28 37 29 38 70 39 30 40 75 41 69 42 71 43 31 44 74 45
REMARK SMILES IDX 68 46 67 47 32 49 58 50 41 51 57 52 42 53 45 54 56 55 72 56
REMARK SMILES IDX 43 57 44 58 55 60 73 61 46 62 33 63 34 64 39 65 35 66 36 67
REMARK SMILES IDX 38 68 40 69 37 70 59 71 60 72 65 73 61 74 62 75 64 76 66 77
REMARK SMILES IDX 63 78 47 79 48 80 53 81 49 82 50 83 52 84 54 85 51 86
REMARK H PARENT 16 7 21 29 71 48 45 59
REMARK Flexibility Score: inf
ROOT
ATOM      1  C   UNL A   1      38.149  19.877  24.991  1.00  0.00     0.023 C 
ENDROOT
BRANCH   1   2
ATOM      2  C   UNL A   1      37.317  21.122  24.675  1.00  0.00     0.023 C 
BRANCH   2   3
ATOM      3  C   UNL A   1      37.353  22.212  25.746  1.00  0.00     0.116 C 
BRANCH   3   4
ATOM      4  N   UNL A   1      36.093  22.335  26.453  1.00  0.00    -0.356 N 
ATOM      5  C   UNL A   1      35.134  23.302  26.350  1.00  0.00     0.224 C 
ATOM      6  O   UNL A   1      34.111  23.172  27.026  1.00  0.00    -0.275 OA
ATOM      7  H   UNL A   1      35.902  21.619  27.101  1.00  0.00     0.163 HD
BRANCH   5   8
ATOM      8  C   UNL A   1      35.295  24.453  25.370  1.00  0.00     0.139 C 
BRANCH   8   9
ATOM      9  C   UNL A   1      34.312  24.461  24.219  1.00  0.00     0.005 A 
ATOM     10  C   UNL A   1      31.777  30.892  26.576  1.00  0.00     0.045 C 
ATOM     11  C   UNL A   1      31.808  29.781  25.561  1.00  0.00    -0.044 A 
ATOM     12  C   UNL A   1      30.928  29.854  24.467  1.00  0.00     0.005 A 
ATOM     13  C   UNL A   1      32.702  28.691  25.664  1.00  0.00    -0.005 A 
ATOM     14  C   UNL A   1      30.910  28.855  23.497  1.00  0.00     0.016 A 
ATOM     15  C   UNL A   1      32.662  27.673  24.685  1.00  0.00     0.141 A 
ATOM     16  C   UNL A   1      33.698  28.574  26.791  1.00  0.00     0.049 C 
ATOM     17  C   UNL A   1      31.772  27.767  23.617  1.00  0.00     0.066 A 
ATOM     18  O   UNL A   1      33.527  26.615  24.846  1.00  0.00    -0.455 OA
ATOM     19  C   UNL A   1      31.747  26.692  22.617  1.00  0.00     0.200 A 
ATOM     20  C   UNL A   1      33.466  25.557  23.971  1.00  0.00     0.142 A 
ATOM     21  O   UNL A   1      31.029  26.750  21.627  1.00  0.00    -0.288 OA
ATOM     22  C   UNL A   1      32.617  25.535  22.865  1.00  0.00     0.066 A 
ATOM     23  C   UNL A   1      32.583  24.434  22.003  1.00  0.00     0.016 A 
ATOM     24  C   UNL A   1      34.238  23.340  23.371  1.00  0.00     0.008 A 
ATOM     25  C   UNL A   1      33.389  23.331  22.264  1.00  0.00     0.001 A 
ENDBRANCH   8   9
ENDBRANCH   5   8
ENDBRANCH   3   4
ENDBRANCH   2   3
ENDBRANCH   1   2
BRANCH   1  26
ATOM     26  C   UNL A   1      39.438  20.131  25.762  1.00  0.00     0.116 C 
BRANCH  26  27
ATOM     27  N   UNL A   1      40.360  19.005  25.751  1.00  0.00    -0.352 N 
ATOM     28  C   UNL A   1      41.712  19.004  26.013  1.00  0.00     0.251 C 
ATOM     29  H   UNL A   1      39.966  18.131  25.529  1.00  0.00     0.163 HD
ATOM     30  O   UNL A   1      42.373  17.979  25.879  1.00  0.00    -0.269 OA
BRANCH  28  31
ATOM     31  C   UNL A   1      42.372  20.268  26.403  1.00  0.00     0.039 A 
ATOM     32  C   UNL A   1      42.270  20.749  27.710  1.00  0.00     0.014 A 
ATOM     33  C   UNL A   1      43.044  21.011  25.429  1.00  0.00     0.014 A 
ATOM     34  C   UNL A   1      42.681  22.046  27.998  1.00  0.00     0.010 A 
ATOM     35  C   UNL A   1      43.525  22.286  25.740  1.00  0.00     0.010 A 
ATOM     36  C   UNL A   1      43.293  22.836  27.011  1.00  0.00    -0.014 A 
BRANCH  36  37
ATOM     37  C   UNL A   1      43.641  24.247  27.320  1.00  0.00     0.031 A 
ATOM     38  C   UNL A   1      45.045  24.752  27.114  1.00  0.00     0.074 A 
ATOM     39  C   UNL A   1      42.676  25.094  27.726  1.00  0.00     0.049 A 
ATOM     40  N   UNL A   1      45.525  25.957  27.300  1.00  0.00    -0.248 NA
ATOM     41  C   UNL A   1      46.042  23.780  26.640  1.00  0.00     0.031 C 
ATOM     42  C   UNL A   1      41.276  24.731  27.953  1.00  0.00     0.029 A 
ATOM     43  N   UNL A   1      42.720  26.437  27.995  1.00  0.00    -0.354 N 
ATOM     44  C   UNL A   1      46.878  25.881  26.989  1.00  0.00     0.074 A 
ATOM     45  C   UNL A   1      47.149  24.508  26.625  1.00  0.00     0.031 C 
ATOM     46  C   UNL A   1      40.585  25.834  28.280  1.00  0.00     0.029 A 
ATOM     47  C   UNL A   1      41.501  26.968  28.335  1.00  0.00     0.049 A 
ATOM     48  H   UNL A   1      43.547  26.970  27.948  1.00  0.00     0.167 HD
ATOM     49  C   UNL A   1      47.806  26.868  26.996  1.00  0.00     0.037 A 
ATOM     50  C   UNL A   1      41.160  28.228  28.664  1.00  0.00     0.037 A 
ATOM     51  C   UNL A   1      47.533  28.242  27.325  1.00  0.00     0.049 A 
ATOM     52  C   UNL A   1      42.216  29.294  28.693  1.00  0.00     0.074 A 
ATOM     53  C   UNL A   1      48.402  29.320  27.321  1.00  0.00     0.029 A 
ATOM     54  N   UNL A   1      46.296  28.728  27.717  1.00  0.00    -0.354 N 
ATOM     55  N   UNL A   1      43.485  29.208  28.381  1.00  0.00    -0.248 NA
ATOM     56  C   UNL A   1      41.791  30.631  29.131  1.00  0.00     0.031 C 
ATOM     57  C   UNL A   1      47.697  30.454  27.743  1.00  0.00     0.029 A 
ATOM     58  C   UNL A   1      46.382  30.086  27.978  1.00  0.00     0.049 A 
ATOM     59  H   UNL A   1      45.477  28.189  27.798  1.00  0.00     0.167 HD
ATOM     60  C   UNL A   1      44.009  30.478  28.575  1.00  0.00     0.074 A 
ATOM     61  C   UNL A   1      42.914  31.322  29.009  1.00  0.00     0.031 C 
ATOM     62  C   UNL A   1      45.285  30.908  28.413  1.00  0.00     0.037 A 
BRANCH  49  63
ATOM     63  C   UNL A   1      49.216  26.492  26.647  1.00  0.00     0.057 A 
ATOM     64  C   UNL A   1      49.692  26.650  25.340  1.00  0.00     0.134 A 
ATOM     65  C   UNL A   1      50.091  25.940  27.592  1.00  0.00     0.134 A 
ATOM     66  F   UNL A   1      48.904  27.167  24.386  1.00  0.00    -0.206 F 
ATOM     67  C   UNL A   1      50.988  26.273  24.984  1.00  0.00     0.040 A 
ATOM     68  C   UNL A   1      51.396  25.578  27.253  1.00  0.00     0.040 A 
ATOM     69  F   UNL A   1      49.700  25.775  28.865  1.00  0.00    -0.206 F 
ATOM     70  C   UNL A   1      51.846  25.739  25.943  1.00  0.00     0.006 A 
ENDBRANCH  49  63
BRANCH  50  71
ATOM     71  C   UNL A   1      39.752  28.550  29.001  1.00  0.00     0.057 A 
ATOM     72  C   UNL A   1      39.246  28.343  30.289  1.00  0.00     0.134 A 
ATOM     73  C   UNL A   1      38.886  29.088  28.043  1.00  0.00     0.134 A 
ATOM     74  F   UNL A   1      40.028  27.828  31.250  1.00  0.00    -0.206 F 
ATOM     75  C   UNL A   1      37.925  28.650  30.612  1.00  0.00     0.040 A 
ATOM     76  C   UNL A   1      37.569  29.422  28.357  1.00  0.00     0.040 A 
ATOM     77  F   UNL A   1      39.321  29.328  26.798  1.00  0.00    -0.206 F 
ATOM     78  C   UNL A   1      37.084  29.198  29.646  1.00  0.00     0.006 A 
ENDBRANCH  50  71
BRANCH  62  79
ATOM     79  C   UNL A   1      45.549  32.355  28.696  1.00  0.00     0.057 A 
ATOM     80  C   UNL A   1      45.400  33.321  27.693  1.00  0.00     0.134 A 
ATOM     81  C   UNL A   1      45.961  32.792  29.963  1.00  0.00     0.134 A 
ATOM     82  F   UNL A   1      45.014  32.965  26.459  1.00  0.00    -0.206 F 
ATOM     83  C   UNL A   1      45.646  34.672  27.941  1.00  0.00     0.040 A 
ATOM     84  C   UNL A   1      46.189  34.143  30.227  1.00  0.00     0.040 A 
ATOM     85  F   UNL A   1      46.105  31.916  30.969  1.00  0.00    -0.206 F 
ATOM     86  C   UNL A   1      46.035  35.086  29.213  1.00  0.00     0.006 A 
ENDBRANCH  62  79
ENDBRANCH  36  37
ENDBRANCH  28  31
ENDBRANCH  26  27
ENDBRANCH   1  26
TORSDOF 12
ENDMDL
MODEL 3
REMARK VINA RESULT:     -12.6      1.346      2.189
REMARK SMILES Cc1ccc2c(=O)c3cccc(CC(=O)NCCCCNC(=O)c4ccc(-c5c6nc(c(-c7c(F)cccc7F)c7ccc([nH]7)c(-c7c(F)cccc7F)c7nc(c(-c8c(F)cccc8F)c8ccc5[nH]8)C=C7)C=C6)cc4)c3oc2c1C
REMARK SMILES IDX 19 1 18 2 17 3 16 4 14 5 15 6 13 8 12 9 1 10 2 11 3 12 81 13
REMARK SMILES IDX 4 14 80 15 82 16 5 17 79 18 6 19 78 20 7 21 8 22 9 23 11 24
REMARK SMILES IDX 10 25 20 26 21 27 22 28 23 30 24 31 25 32 77 33 26 34 76 35
REMARK SMILES IDX 27 36 28 37 29 38 70 39 30 40 75 41 69 42 71 43 31 44 74 45
REMARK SMILES IDX 68 46 67 47 32 49 58 50 41 51 57 52 42 53 45 54 56 55 72 56
REMARK SMILES IDX 43 57 44 58 55 60 73 61 46 62 33 63 34 64 39 65 35 66 36 67
REMARK SMILES IDX 38 68 40 69 37 70 59 71 60 72 65 73 61 74 62 75 64 76 66 77
REMARK SMILES IDX 63 78 47 79 48 80 53 81 49 82 50 83 52 84 54 85 51 86
REMARK H PARENT 16 7 21 29 71 48 45 59
REMARK Flexibility Score: inf
ROOT
ATOM      1  C   UNL A   1      31.207  32.359  26.532  1.00  0.00     0.023 C 
ENDROOT
BRANCH   1   2
ATOM      2  C   UNL A   1      31.333  30.899  26.090  1.00  0.00     0.023 C 
BRANCH   2   3
ATOM      3  C   UNL A   1      32.145  30.007  27.029  1.00  0.00     0.116 C 
BRANCH   3   4
ATOM      4  N   UNL A   1      31.561  28.689  27.183  1.00  0.00    -0.356 N 
ATOM      5  C   UNL A   1      32.092  27.467  26.887  1.00  0.00     0.224 C 
ATOM      6  O   UNL A   1      31.419  26.467  27.150  1.00  0.00    -0.275 OA
ATOM      7  H   UNL A   1      30.649  28.674  27.554  1.00  0.00     0.163 HD
BRANCH   5   8
ATOM      8  C   UNL A   1      33.501  27.348  26.329  1.00  0.00     0.139 C 
BRANCH   8   9
ATOM      9  C   UNL A   1      33.600  27.364  24.819  1.00  0.00     0.005 A 
ATOM     10  C   UNL A   1      32.295  20.178  24.768  1.00  0.00     0.045 C 
ATOM     11  C   UNL A   1      32.504  21.484  24.048  1.00  0.00    -0.044 A 
ATOM     12  C   UNL A   1      32.523  21.474  22.643  1.00  0.00     0.005 A 
ATOM     13  C   UNL A   1      32.657  22.709  24.738  1.00  0.00    -0.005 A 
ATOM     14  C   UNL A   1      32.714  22.650  21.922  1.00  0.00     0.016 A 
ATOM     15  C   UNL A   1      32.870  23.892  23.998  1.00  0.00     0.141 A 
ATOM     16  C   UNL A   1      32.606  22.794  26.243  1.00  0.00     0.049 C 
ATOM     17  C   UNL A   1      32.894  23.851  22.605  1.00  0.00     0.066 A 
ATOM     18  O   UNL A   1      33.048  25.055  24.714  1.00  0.00    -0.455 OA
ATOM     19  C   UNL A   1      33.123  25.096  21.861  1.00  0.00     0.200 A 
ATOM     20  C   UNL A   1      33.347  26.218  24.045  1.00  0.00     0.142 A 
ATOM     21  O   UNL A   1      33.095  25.129  20.637  1.00  0.00    -0.288 OA
ATOM     22  C   UNL A   1      33.399  26.301  22.653  1.00  0.00     0.066 A 
ATOM     23  C   UNL A   1      33.713  27.504  22.014  1.00  0.00     0.016 A 
ATOM     24  C   UNL A   1      33.958  28.559  24.167  1.00  0.00     0.008 A 
ATOM     25  C   UNL A   1      34.001  28.632  22.774  1.00  0.00     0.001 A 
ENDBRANCH   8   9
ENDBRANCH   5   8
ENDBRANCH   3   4
ENDBRANCH   2   3
ENDBRANCH   1   2
BRANCH   1  26
ATOM     26  C   UNL A   1      32.523  33.070  26.819  1.00  0.00     0.116 C 
BRANCH  26  27
ATOM     27  N   UNL A   1      32.395  34.198  27.730  1.00  0.00    -0.352 N 
ATOM     28  C   UNL A   1      33.206  34.539  28.788  1.00  0.00     0.251 C 
ATOM     29  H   UNL A   1      31.629  34.794  27.568  1.00  0.00     0.163 HD
ATOM     30  O   UNL A   1      32.915  35.480  29.520  1.00  0.00    -0.269 OA
BRANCH  28  31
ATOM     31  C   UNL A   1      34.407  33.723  29.069  1.00  0.00     0.039 A 
ATOM     32  C   UNL A   1      34.287  32.455  29.639  1.00  0.00     0.014 A 
ATOM     33  C   UNL A   1      35.670  34.268  28.821  1.00  0.00     0.014 A 
ATOM     34  C   UNL A   1      35.420  31.809  30.121  1.00  0.00     0.010 A 
ATOM     35  C   UNL A   1      36.814  33.582  29.238  1.00  0.00     0.010 A 
ATOM     36  C   UNL A   1      36.693  32.375  29.946  1.00  0.00    -0.014 A 
BRANCH  36  37
ATOM     37  C   UNL A   1      37.876  31.708  30.549  1.00  0.00     0.031 A 
ATOM     38  C   UNL A   1      38.263  31.983  31.979  1.00  0.00     0.074 A 
ATOM     39  C   UNL A   1      38.564  30.802  29.829  1.00  0.00     0.049 A 
ATOM     40  N   UNL A   1      39.243  31.470  32.682  1.00  0.00    -0.248 NA
ATOM     41  C   UNL A   1      37.449  32.961  32.716  1.00  0.00     0.031 C 
ATOM     42  C   UNL A   1      38.283  30.439  28.440  1.00  0.00     0.029 A 
ATOM     43  N   UNL A   1      39.624  30.005  30.174  1.00  0.00    -0.354 N 
ATOM     44  C   UNL A   1      39.176  32.079  33.930  1.00  0.00     0.074 A 
ATOM     45  C   UNL A   1      38.075  33.016  33.882  1.00  0.00     0.031 C 
ATOM     46  C   UNL A   1      39.116  29.457  28.065  1.00  0.00     0.029 A 
ATOM     47  C   UNL A   1      40.023  29.159  29.170  1.00  0.00     0.049 A 
ATOM     48  H   UNL A   1      40.058  30.037  31.058  1.00  0.00     0.167 HD
ATOM     49  C   UNL A   1      39.954  31.868  35.019  1.00  0.00     0.037 A 
ATOM     50  C   UNL A   1      41.014  28.249  29.138  1.00  0.00     0.037 A 
ATOM     51  C   UNL A   1      41.028  30.912  35.081  1.00  0.00     0.049 A 
ATOM     52  C   UNL A   1      41.879  28.059  30.350  1.00  0.00     0.074 A 
ATOM     53  C   UNL A   1      41.846  30.601  36.154  1.00  0.00     0.029 A 
ATOM     54  N   UNL A   1      41.435  30.113  34.025  1.00  0.00    -0.354 N 
ATOM     55  N   UNL A   1      41.792  28.630  31.525  1.00  0.00    -0.248 NA
ATOM     56  C   UNL A   1      42.988  27.103  30.224  1.00  0.00     0.031 C 
ATOM     57  C   UNL A   1      42.770  29.635  35.736  1.00  0.00     0.029 A 
ATOM     58  C   UNL A   1      42.505  29.324  34.413  1.00  0.00     0.049 A 
ATOM     59  H   UNL A   1      41.024  30.108  33.130  1.00  0.00     0.167 HD
ATOM     60  C   UNL A   1      42.825  28.098  32.282  1.00  0.00     0.074 A 
ATOM     61  C   UNL A   1      43.513  27.141  31.440  1.00  0.00     0.031 C 
ATOM     62  C   UNL A   1      43.179  28.381  33.560  1.00  0.00     0.037 A 
BRANCH  49  63
ATOM     63  C   UNL A   1      39.677  32.700  36.237  1.00  0.00     0.057 A 
ATOM     64  C   UNL A   1      38.699  32.309  37.159  1.00  0.00     0.134 A 
ATOM     65  C   UNL A   1      40.351  33.904  36.480  1.00  0.00     0.134 A 
ATOM     66  F   UNL A   1      38.013  31.169  36.982  1.00  0.00    -0.206 F 
ATOM     67  C   UNL A   1      38.398  33.086  38.279  1.00  0.00     0.040 A 
ATOM     68  C   UNL A   1      40.075  34.680  37.607  1.00  0.00     0.040 A 
ATOM     69  F   UNL A   1      41.309  34.327  35.641  1.00  0.00    -0.206 F 
ATOM     70  C   UNL A   1      39.091  34.273  38.508  1.00  0.00     0.006 A 
ENDBRANCH  49  63
BRANCH  50  71
ATOM     71  C   UNL A   1      41.248  27.450  27.911  1.00  0.00     0.057 A 
ATOM     72  C   UNL A   1      40.664  26.189  27.742  1.00  0.00     0.134 A 
ATOM     73  C   UNL A   1      42.049  27.937  26.874  1.00  0.00     0.134 A 
ATOM     74  F   UNL A   1      39.888  25.667  28.703  1.00  0.00    -0.206 F 
ATOM     75  C   UNL A   1      40.877  25.436  26.588  1.00  0.00     0.040 A 
ATOM     76  C   UNL A   1      42.251  27.206  25.704  1.00  0.00     0.040 A 
ATOM     77  F   UNL A   1      42.617  29.148  26.971  1.00  0.00    -0.206 F 
ATOM     78  C   UNL A   1      41.667  25.947  25.561  1.00  0.00     0.006 A 
ENDBRANCH  50  71
BRANCH  62  79
ATOM     79  C   UNL A   1      44.351  27.631  34.117  1.00  0.00     0.057 A 
ATOM     80  C   UNL A   1      44.178  26.388  34.737  1.00  0.00     0.134 A 
ATOM     81  C   UNL A   1      45.652  28.147  34.045  1.00  0.00     0.134 A 
ATOM     82  F   UNL A   1      42.956  25.844  34.842  1.00  0.00    -0.206 F 
ATOM     83  C   UNL A   1      45.259  25.680  35.263  1.00  0.00     0.040 A 
ATOM     84  C   UNL A   1      46.743  27.438  34.549  1.00  0.00     0.040 A 
ATOM     85  F   UNL A   1      45.883  29.325  33.448  1.00  0.00    -0.206 F 
ATOM     86  C   UNL A   1      46.547  26.202  35.163  1.00  0.00     0.006 A 
ENDBRANCH  62  79
ENDBRANCH  36  37
ENDBRANCH  28  31
ENDBRANCH  26  27
ENDBRANCH   1  26
TORSDOF 12
ENDMDL
