MODEL 1
REMARK VINA RESULT:     -11.8      0.000      0.000
REMARK SMILES Cc1cscc1CNC(=O)N[C@@H](C)c1nc(C(=O)NCCCCNC(=O)c2ccc(-c3c4nc(c(-c5c(F)cccc5F)c5ccc([nH]5)c(-c5c(F)cccc5F)c5nc(c(-c6c(F)cccc6F)c6ccc3[nH]6)C=C5)C=C4)cc2)cs1
REMARK SMILES IDX 20 1 19 2 17 3 18 4 16 6 14 7 15 8 82 9 81 10 12 11 13 12
REMARK SMILES IDX 11 13 8 14 9 15 10 17 7 19 6 20 1 21 2 22 3 23 4 24 5 25
REMARK SMILES IDX 21 26 22 27 23 28 24 29 25 30 26 32 27 33 28 34 80 35 29 36
REMARK SMILES IDX 79 37 30 38 31 39 32 40 73 41 33 42 78 43 72 44 74 45 34 46
REMARK SMILES IDX 77 47 71 48 70 49 35 51 61 52 44 53 60 54 45 55 48 56 59 57
REMARK SMILES IDX 75 58 46 59 47 60 58 62 76 63 49 64 36 65 37 66 42 67 38 68
REMARK SMILES IDX 39 69 41 70 43 71 40 72 62 73 63 74 68 75 64 76 65 77 67 78
REMARK SMILES IDX 69 79 66 80 50 81 51 82 56 83 52 84 53 85 55 86 57 87 54 88
REMARK H PARENT 19 5 8 16 11 18 24 31 74 50 48 61
REMARK Flexibility Score: inf
ROOT
ATOM      1  C   UNL A   1      36.678  22.167  25.342  1.00  0.00     0.116 C 
ENDROOT
BRANCH   1   2
ATOM      2  N   UNL A   1      35.806  21.677  26.394  1.00  0.00    -0.351 N 
ATOM      3  C   UNL A   1      34.433  21.571  26.444  1.00  0.00     0.270 C 
ATOM      4  O   UNL A   1      33.939  21.099  27.463  1.00  0.00    -0.267 OA
ATOM      5  H   UNL A   1      36.272  21.371  27.204  1.00  0.00     0.163 HD
BRANCH   3   6
ATOM      6  C   UNL A   1      33.604  21.972  25.297  1.00  0.00     0.139 A 
ATOM      7  C   UNL A   1      32.435  23.337  23.976  1.00  0.00     0.116 A 
ATOM      8  N   UNL A   1      33.031  23.232  25.145  1.00  0.00    -0.234 NA
ATOM      9  S   UNL A   1      32.441  21.911  23.022  1.00  0.00    -0.124 S 
ATOM     10  C   UNL A   1      33.329  21.112  24.246  1.00  0.00     0.101 A 
BRANCH   7  11
ATOM     11  C   UNL A   1      31.804  24.611  23.464  1.00  0.00     0.140 C 
ATOM     12  C   UNL A   1      30.280  24.498  23.517  1.00  0.00     0.039 C 
BRANCH  11  13
ATOM     13  N   UNL A   1      32.226  24.788  22.081  1.00  0.00    -0.329 N 
ATOM     14  N   UNL A   1      33.243  26.908  21.876  1.00  0.00    -0.334 N 
ATOM     15  C   UNL A   1      32.855  25.732  21.385  1.00  0.00     0.315 C 
ATOM     16  H   UNL A   1      33.746  27.441  21.219  1.00  0.00     0.165 HD
ATOM     17  O   UNL A   1      33.111  25.496  20.203  1.00  0.00    -0.249 OA
ATOM     18  H   UNL A   1      31.985  24.016  21.520  1.00  0.00     0.166 HD
BRANCH  14  19
ATOM     19  C   UNL A   1      33.103  27.586  23.142  1.00  0.00     0.154 C 
BRANCH  19  20
ATOM     20  C   UNL A   1      31.811  28.355  23.216  1.00  0.00    -0.015 A 
ATOM     21  C   UNL A   1      32.427  29.685  25.379  1.00  0.00     0.045 C 
ATOM     22  C   UNL A   1      31.507  29.320  24.258  1.00  0.00    -0.035 A 
ATOM     23  C   UNL A   1      30.248  29.867  24.094  1.00  0.00     0.068 A 
ATOM     24  S   UNL A   1      29.436  29.267  22.723  1.00  0.00    -0.152 S 
ATOM     25  C   UNL A   1      30.751  28.254  22.329  1.00  0.00     0.070 A 
ENDBRANCH  19  20
ENDBRANCH  14  19
ENDBRANCH  11  13
ENDBRANCH   7  11
ENDBRANCH   3   6
ENDBRANCH   1   2
BRANCH   1  26
ATOM     26  C   UNL A   1      37.011  21.067  24.337  1.00  0.00     0.023 C 
BRANCH  26  27
ATOM     27  C   UNL A   1      37.755  19.871  24.945  1.00  0.00     0.023 C 
BRANCH  27  28
ATOM     28  C   UNL A   1      39.010  20.221  25.744  1.00  0.00     0.116 C 
BRANCH  28  29
ATOM     29  N   UNL A   1      39.997  19.153  25.769  1.00  0.00    -0.352 N 
ATOM     30  C   UNL A   1      41.344  19.231  26.026  1.00  0.00     0.251 C 
ATOM     31  H   UNL A   1      39.653  18.251  25.576  1.00  0.00     0.163 HD
ATOM     32  O   UNL A   1      42.056  18.239  25.913  1.00  0.00    -0.269 OA
BRANCH  30  33
ATOM     33  C   UNL A   1      41.943  20.530  26.399  1.00  0.00     0.039 A 
ATOM     34  C   UNL A   1      42.381  21.381  25.380  1.00  0.00     0.014 A 
ATOM     35  C   UNL A   1      42.051  20.917  27.737  1.00  0.00     0.014 A 
ATOM     36  C   UNL A   1      42.861  22.651  25.702  1.00  0.00     0.010 A 
ATOM     37  C   UNL A   1      42.472  22.207  28.053  1.00  0.00     0.010 A 
ATOM     38  C   UNL A   1      42.872  23.088  27.037  1.00  0.00    -0.014 A 
BRANCH  38  39
ATOM     39  C   UNL A   1      43.271  24.476  27.378  1.00  0.00     0.031 A 
ATOM     40  C   UNL A   1      44.711  24.899  27.308  1.00  0.00     0.074 A 
ATOM     41  C   UNL A   1      42.334  25.343  27.810  1.00  0.00     0.049 A 
ATOM     42  N   UNL A   1      45.243  26.061  27.591  1.00  0.00    -0.248 NA
ATOM     43  C   UNL A   1      45.682  23.877  26.892  1.00  0.00     0.031 C 
ATOM     44  C   UNL A   1      40.913  25.035  27.982  1.00  0.00     0.029 A 
ATOM     45  N   UNL A   1      42.438  26.657  28.190  1.00  0.00    -0.354 N 
ATOM     46  C   UNL A   1      46.610  25.906  27.397  1.00  0.00     0.074 A 
ATOM     47  C   UNL A   1      46.829  24.525  27.023  1.00  0.00     0.031 C 
ATOM     48  C   UNL A   1      40.273  26.135  28.407  1.00  0.00     0.029 A 
ATOM     49  C   UNL A   1      41.241  27.216  28.565  1.00  0.00     0.049 A 
ATOM     50  H   UNL A   1      43.288  27.152  28.192  1.00  0.00     0.167 HD
ATOM     51  C   UNL A   1      47.590  26.835  27.500  1.00  0.00     0.037 A 
ATOM     52  C   UNL A   1      40.955  28.462  28.988  1.00  0.00     0.037 A 
ATOM     53  C   UNL A   1      47.366  28.214  27.852  1.00  0.00     0.049 A 
ATOM     54  C   UNL A   1      42.057  29.479  29.081  1.00  0.00     0.074 A 
ATOM     55  C   UNL A   1      48.284  29.249  27.909  1.00  0.00     0.029 A 
ATOM     56  N   UNL A   1      46.138  28.749  28.209  1.00  0.00    -0.354 N 
ATOM     57  N   UNL A   1      43.333  29.341  28.814  1.00  0.00    -0.248 NA
ATOM     58  C   UNL A   1      41.677  30.827  29.525  1.00  0.00     0.031 C 
ATOM     59  C   UNL A   1      47.618  30.401  28.342  1.00  0.00     0.029 A 
ATOM     60  C   UNL A   1      46.277  30.094  28.511  1.00  0.00     0.049 A 
ATOM     61  H   UNL A   1      45.291  28.247  28.242  1.00  0.00     0.167 HD
ATOM     62  C   UNL A   1      43.905  30.585  29.039  1.00  0.00     0.074 A 
ATOM     63  C   UNL A   1      42.833  31.470  29.446  1.00  0.00     0.031 C 
ATOM     64  C   UNL A   1      45.202  30.960  28.920  1.00  0.00     0.037 A 
BRANCH  51  65
ATOM     65  C   UNL A   1      48.995  26.389  27.223  1.00  0.00     0.057 A 
ATOM     66  C   UNL A   1      49.528  26.394  25.927  1.00  0.00     0.134 A 
ATOM     67  C   UNL A   1      49.834  25.973  28.264  1.00  0.00     0.134 A 
ATOM     68  F   UNL A   1      48.774  26.769  24.883  1.00  0.00    -0.206 F 
ATOM     69  C   UNL A   1      50.836  25.977  25.673  1.00  0.00     0.040 A 
ATOM     70  C   UNL A   1      51.152  25.578  28.026  1.00  0.00     0.040 A 
ATOM     71  F   UNL A   1      49.389  25.949  29.530  1.00  0.00    -0.206 F 
ATOM     72  C   UNL A   1      51.653  25.573  26.726  1.00  0.00     0.006 A 
ENDBRANCH  51  65
BRANCH  52  73
ATOM     73  C   UNL A   1      39.556  28.825  29.324  1.00  0.00     0.057 A 
ATOM     74  C   UNL A   1      38.698  29.358  28.355  1.00  0.00     0.134 A 
ATOM     75  C   UNL A   1      39.043  28.644  30.613  1.00  0.00     0.134 A 
ATOM     76  F   UNL A   1      39.140  29.569  27.106  1.00  0.00    -0.206 F 
ATOM     77  C   UNL A   1      37.383  29.712  28.659  1.00  0.00     0.040 A 
ATOM     78  C   UNL A   1      37.723  28.974  30.926  1.00  0.00     0.040 A 
ATOM     79  F   UNL A   1      39.813  28.131  31.583  1.00  0.00    -0.206 F 
ATOM     80  C   UNL A   1      36.891  29.514  29.947  1.00  0.00     0.006 A 
ENDBRANCH  52  73
BRANCH  64  81
ATOM     81  C   UNL A   1      45.526  32.395  29.220  1.00  0.00     0.057 A 
ATOM     82  C   UNL A   1      45.930  32.807  30.495  1.00  0.00     0.134 A 
ATOM     83  C   UNL A   1      45.458  33.367  28.216  1.00  0.00     0.134 A 
ATOM     84  F   UNL A   1      46.002  31.926  31.504  1.00  0.00    -0.206 F 
ATOM     85  C   UNL A   1      46.233  34.142  30.768  1.00  0.00     0.040 A 
ATOM     86  C   UNL A   1      45.781  34.701  28.469  1.00  0.00     0.040 A 
ATOM     87  F   UNL A   1      45.084  33.036  26.970  1.00  0.00    -0.206 F 
ATOM     88  C   UNL A   1      46.164  35.092  29.750  1.00  0.00     0.006 A 
ENDBRANCH  64  81
ENDBRANCH  38  39
ENDBRANCH  30  33
ENDBRANCH  28  29
ENDBRANCH  27  28
ENDBRANCH  26  27
ENDBRANCH   1  26
TORSDOF 15
ENDMDL
MODEL 2
REMARK VINA RESULT:     -11.8      0.387      6.268
REMARK SMILES Cc1cscc1CNC(=O)N[C@@H](C)c1nc(C(=O)NCCCCNC(=O)c2ccc(-c3c4nc(c(-c5c(F)cccc5F)c5ccc([nH]5)c(-c5c(F)cccc5F)c5nc(c(-c6c(F)cccc6F)c6ccc3[nH]6)C=C5)C=C4)cc2)cs1
REMARK SMILES IDX 20 1 19 2 17 3 18 4 16 6 14 7 15 8 82 9 81 10 12 11 13 12
REMARK SMILES IDX 11 13 8 14 9 15 10 17 7 19 6 20 1 21 2 22 3 23 4 24 5 25
REMARK SMILES IDX 21 26 22 27 23 28 24 29 25 30 26 32 27 33 28 34 80 35 29 36
REMARK SMILES IDX 79 37 30 38 31 39 32 40 73 41 33 42 78 43 72 44 74 45 34 46
REMARK SMILES IDX 77 47 71 48 70 49 35 51 61 52 44 53 60 54 45 55 48 56 59 57
REMARK SMILES IDX 75 58 46 59 47 60 58 62 76 63 49 64 36 65 37 66 42 67 38 68
REMARK SMILES IDX 39 69 41 70 43 71 40 72 62 73 63 74 68 75 64 76 65 77 67 78
REMARK SMILES IDX 69 79 66 80 50 81 51 82 56 83 52 84 53 85 55 86 57 87 54 88
REMARK H PARENT 19 5 8 16 11 18 24 31 74 50 48 61
REMARK Flexibility Score: inf
ROOT
ATOM      1  C   UNL A   1      36.684  22.365  25.249  1.00  0.00     0.116 C 
ENDROOT
BRANCH   1   2
ATOM      2  N   UNL A   1      35.844  21.856  26.317  1.00  0.00    -0.351 N 
ATOM      3  C   UNL A   1      34.475  21.718  26.393  1.00  0.00     0.270 C 
ATOM      4  O   UNL A   1      34.011  21.235  27.422  1.00  0.00    -0.267 OA
ATOM      5  H   UNL A   1      36.331  21.561  27.119  1.00  0.00     0.163 HD
BRANCH   3   6
ATOM      6  C   UNL A   1      33.615  22.097  25.261  1.00  0.00     0.139 A 
ATOM      7  C   UNL A   1      32.413  23.439  23.946  1.00  0.00     0.116 A 
ATOM      8  N   UNL A   1      33.040  23.355  25.101  1.00  0.00    -0.234 NA
ATOM      9  S   UNL A   1      32.390  21.994  23.021  1.00  0.00    -0.124 S 
ATOM     10  C   UNL A   1      33.310  21.217  24.236  1.00  0.00     0.101 A 
BRANCH   7  11
ATOM     11  C   UNL A   1      31.771  24.704  23.426  1.00  0.00     0.140 C 
ATOM     12  C   UNL A   1      30.250  24.609  23.553  1.00  0.00     0.039 C 
BRANCH  11  13
ATOM     13  N   UNL A   1      32.129  24.836  22.020  1.00  0.00    -0.329 N 
ATOM     14  N   UNL A   1      33.000  27.002  21.673  1.00  0.00    -0.334 N 
ATOM     15  C   UNL A   1      32.670  25.781  21.256  1.00  0.00     0.315 C 
ATOM     16  H   UNL A   1      33.443  27.531  20.970  1.00  0.00     0.165 HD
ATOM     17  O   UNL A   1      32.898  25.501  20.076  1.00  0.00    -0.249 OA
ATOM     18  H   UNL A   1      31.918  24.022  21.508  1.00  0.00     0.166 HD
BRANCH  14  19
ATOM     19  C   UNL A   1      32.863  27.733  22.909  1.00  0.00     0.154 C 
BRANCH  19  20
ATOM     20  C   UNL A   1      31.555  28.477  22.968  1.00  0.00    -0.015 A 
ATOM     21  C   UNL A   1      31.980  29.558  25.309  1.00  0.00     0.045 C 
ATOM     22  C   UNL A   1      31.155  29.314  24.085  1.00  0.00    -0.035 A 
ATOM     23  C   UNL A   1      29.902  29.864  23.886  1.00  0.00     0.068 A 
ATOM     24  S   UNL A   1      29.209  29.416  22.397  1.00  0.00    -0.152 S 
ATOM     25  C   UNL A   1      30.568  28.467  21.995  1.00  0.00     0.070 A 
ENDBRANCH  19  20
ENDBRANCH  14  19
ENDBRANCH  11  13
ENDBRANCH   7  11
ENDBRANCH   3   6
ENDBRANCH   1   2
BRANCH   1  26
ATOM     26  C   UNL A   1      37.115  21.249  24.300  1.00  0.00     0.023 C 
BRANCH  26  27
ATOM     27  C   UNL A   1      37.763  20.049  25.002  1.00  0.00     0.023 C 
BRANCH  27  28
ATOM     28  C   UNL A   1      39.050  20.356  25.766  1.00  0.00     0.116 C 
BRANCH  28  29
ATOM     29  N   UNL A   1      39.992  19.248  25.787  1.00  0.00    -0.352 N 
ATOM     30  C   UNL A   1      41.342  19.270  26.034  1.00  0.00     0.251 C 
ATOM     31  H   UNL A   1      39.608  18.361  25.599  1.00  0.00     0.163 HD
ATOM     32  O   UNL A   1      42.011  18.248  25.918  1.00  0.00    -0.269 OA
BRANCH  30  33
ATOM     33  C   UNL A   1      41.998  20.542  26.400  1.00  0.00     0.039 A 
ATOM     34  C   UNL A   1      42.495  21.356  25.378  1.00  0.00     0.014 A 
ATOM     35  C   UNL A   1      42.103  20.942  27.735  1.00  0.00     0.014 A 
ATOM     36  C   UNL A   1      43.032  22.605  25.690  1.00  0.00     0.010 A 
ATOM     37  C   UNL A   1      42.581  22.215  28.040  1.00  0.00     0.010 A 
ATOM     38  C   UNL A   1      43.042  23.060  27.020  1.00  0.00    -0.014 A 
BRANCH  38  39
ATOM     39  C   UNL A   1      43.503  24.432  27.349  1.00  0.00     0.031 A 
ATOM     40  C   UNL A   1      42.523  25.488  27.775  1.00  0.00     0.074 A 
ATOM     41  C   UNL A   1      44.807  24.741  27.206  1.00  0.00     0.049 A 
ATOM     42  N   UNL A   1      42.743  26.742  28.079  1.00  0.00    -0.248 NA
ATOM     43  C   UNL A   1      41.109  25.090  27.843  1.00  0.00     0.031 C 
ATOM     44  C   UNL A   1      45.847  23.822  26.739  1.00  0.00     0.029 A 
ATOM     45  N   UNL A   1      45.478  25.915  27.431  1.00  0.00    -0.354 N 
ATOM     46  C   UNL A   1      41.497  27.285  28.364  1.00  0.00     0.074 A 
ATOM     47  C   UNL A   1      40.521  26.237  28.146  1.00  0.00     0.031 C 
ATOM     48  C   UNL A   1      47.028  24.458  26.738  1.00  0.00     0.029 A 
ATOM     49  C   UNL A   1      46.826  25.836  27.176  1.00  0.00     0.049 A 
ATOM     50  H   UNL A   1      45.037  26.736  27.747  1.00  0.00     0.167 HD
ATOM     51  C   UNL A   1      41.195  28.534  28.788  1.00  0.00     0.037 A 
ATOM     52  C   UNL A   1      47.790  26.768  27.284  1.00  0.00     0.037 A 
ATOM     53  C   UNL A   1      42.169  29.568  29.025  1.00  0.00     0.049 A 
ATOM     54  C   UNL A   1      47.433  28.144  27.771  1.00  0.00     0.074 A 
ATOM     55  C   UNL A   1      41.971  30.842  29.527  1.00  0.00     0.029 A 
ATOM     56  N   UNL A   1      43.527  29.446  28.772  1.00  0.00    -0.354 N 
ATOM     57  N   UNL A   1      46.261  28.620  28.116  1.00  0.00    -0.248 NA
ATOM     58  C   UNL A   1      48.533  29.110  27.890  1.00  0.00     0.031 C 
ATOM     59  C   UNL A   1      43.203  31.506  29.538  1.00  0.00     0.029 A 
ATOM     60  C   UNL A   1      44.175  30.630  29.084  1.00  0.00     0.049 A 
ATOM     61  H   UNL A   1      43.966  28.636  28.421  1.00  0.00     0.167 HD
ATOM     62  C   UNL A   1      46.485  29.931  28.512  1.00  0.00     0.074 A 
ATOM     63  C   UNL A   1      47.907  30.170  28.381  1.00  0.00     0.031 C 
ATOM     64  C   UNL A   1      45.591  30.854  28.944  1.00  0.00     0.037 A 
BRANCH  51  65
ATOM     65  C   UNL A   1      39.748  28.850  29.031  1.00  0.00     0.057 A 
ATOM     66  C   UNL A   1      39.163  28.704  30.296  1.00  0.00     0.134 A 
ATOM     67  C   UNL A   1      38.936  29.329  27.995  1.00  0.00     0.134 A 
ATOM     68  F   UNL A   1      39.882  28.238  31.327  1.00  0.00    -0.206 F 
ATOM     69  C   UNL A   1      37.816  28.998  30.516  1.00  0.00     0.040 A 
ATOM     70  C   UNL A   1      37.594  29.650  28.209  1.00  0.00     0.040 A 
ATOM     71  F   UNL A   1      39.434  29.498  26.761  1.00  0.00    -0.206 F 
ATOM     72  C   UNL A   1      37.030  29.478  29.472  1.00  0.00     0.006 A 
ENDBRANCH  51  65
BRANCH  52  73
ATOM     73  C   UNL A   1      49.194  26.420  26.956  1.00  0.00     0.057 A 
ATOM     74  C   UNL A   1      50.060  25.920  27.935  1.00  0.00     0.134 A 
ATOM     75  C   UNL A   1      49.702  26.572  25.660  1.00  0.00     0.134 A 
ATOM     76  F   UNL A   1      49.635  25.771  29.198  1.00  0.00    -0.206 F 
ATOM     77  C   UNL A   1      51.386  25.597  27.642  1.00  0.00     0.040 A 
ATOM     78  C   UNL A   1      51.019  26.232  25.348  1.00  0.00     0.040 A 
ATOM     79  F   UNL A   1      48.919  27.039  24.676  1.00  0.00    -0.206 F 
ATOM     80  C   UNL A   1      51.867  25.747  26.343  1.00  0.00     0.006 A 
ENDBRANCH  52  73
BRANCH  64  81
ATOM     81  C   UNL A   1      46.133  32.202  29.320  1.00  0.00     0.057 A 
ATOM     82  C   UNL A   1      46.211  33.249  28.394  1.00  0.00     0.134 A 
ATOM     83  C   UNL A   1      46.557  32.462  30.629  1.00  0.00     0.134 A 
ATOM     84  F   UNL A   1      45.833  33.061  27.121  1.00  0.00    -0.206 F 
ATOM     85  C   UNL A   1      46.713  34.502  28.751  1.00  0.00     0.040 A 
ATOM     86  C   UNL A   1      47.039  33.717  31.004  1.00  0.00     0.040 A 
ATOM     87  F   UNL A   1      46.502  31.503  31.566  1.00  0.00    -0.206 F 
ATOM     88  C   UNL A   1      47.124  34.739  30.061  1.00  0.00     0.006 A 
ENDBRANCH  64  81
ENDBRANCH  38  39
ENDBRANCH  30  33
ENDBRANCH  28  29
ENDBRANCH  27  28
ENDBRANCH  26  27
ENDBRANCH   1  26
TORSDOF 15
ENDMDL
MODEL 3
REMARK VINA RESULT:     -11.8      0.662      6.178
REMARK SMILES Cc1cscc1CNC(=O)N[C@@H](C)c1nc(C(=O)NCCCCNC(=O)c2ccc(-c3c4nc(c(-c5c(F)cccc5F)c5ccc([nH]5)c(-c5c(F)cccc5F)c5nc(c(-c6c(F)cccc6F)c6ccc3[nH]6)C=C5)C=C4)cc2)cs1
REMARK SMILES IDX 20 1 19 2 17 3 18 4 16 6 14 7 15 8 82 9 81 10 12 11 13 12
REMARK SMILES IDX 11 13 8 14 9 15 10 17 7 19 6 20 1 21 2 22 3 23 4 24 5 25
REMARK SMILES IDX 21 26 22 27 23 28 24 29 25 30 26 32 27 33 28 34 80 35 29 36
REMARK SMILES IDX 79 37 30 38 31 39 32 40 73 41 33 42 78 43 72 44 74 45 34 46
REMARK SMILES IDX 77 47 71 48 70 49 35 51 61 52 44 53 60 54 45 55 48 56 59 57
REMARK SMILES IDX 75 58 46 59 47 60 58 62 76 63 49 64 36 65 37 66 42 67 38 68
REMARK SMILES IDX 39 69 41 70 43 71 40 72 62 73 63 74 68 75 64 76 65 77 67 78
REMARK SMILES IDX 69 79 66 80 50 81 51 82 56 83 52 84 53 85 55 86 57 87 54 88
REMARK H PARENT 19 5 8 16 11 18 24 31 74 50 48 61
REMARK Flexibility Score: inf
ROOT
ATOM      1  C   UNL A   1      36.745  22.299  25.367  1.00  0.00     0.116 C 
ENDROOT
BRANCH   1   2
ATOM      2  N   UNL A   1      35.931  21.836  26.475  1.00  0.00    -0.351 N 
ATOM      3  C   UNL A   1      34.567  21.665  26.577  1.00  0.00     0.270 C 
ATOM      4  O   UNL A   1      34.129  21.236  27.640  1.00  0.00    -0.267 OA
ATOM      5  H   UNL A   1      36.436  21.607  27.288  1.00  0.00     0.163 HD
BRANCH   3   6
ATOM      6  C   UNL A   1      33.685  21.948  25.435  1.00  0.00     0.139 A 
ATOM      7  C   UNL A   1      32.415  23.165  24.064  1.00  0.00     0.116 A 
ATOM      8  N   UNL A   1      33.052  23.168  25.216  1.00  0.00    -0.234 NA
ATOM      9  S   UNL A   1      32.453  21.676  23.212  1.00  0.00    -0.124 S 
ATOM     10  C   UNL A   1      33.415  21.004  24.457  1.00  0.00     0.101 A 
BRANCH   7  11
ATOM     11  C   UNL A   1      31.712  24.372  23.486  1.00  0.00     0.140 C 
ATOM     12  C   UNL A   1      30.245  24.041  23.212  1.00  0.00     0.039 C 
BRANCH  11  13
ATOM     13  N   UNL A   1      32.373  24.710  22.232  1.00  0.00    -0.329 N 
ATOM     14  N   UNL A   1      31.724  26.894  21.613  1.00  0.00    -0.334 N 
ATOM     15  C   UNL A   1      32.418  25.771  21.431  1.00  0.00     0.315 C 
ATOM     16  H   UNL A   1      31.943  27.582  20.944  1.00  0.00     0.165 HD
ATOM     17  O   UNL A   1      33.168  25.717  20.453  1.00  0.00    -0.249 OA
ATOM     18  H   UNL A   1      32.923  23.967  21.894  1.00  0.00     0.166 HD
BRANCH  14  19
ATOM     19  C   UNL A   1      30.731  27.341  22.558  1.00  0.00     0.154 C 
BRANCH  19  20
ATOM     20  C   UNL A   1      31.343  28.184  23.646  1.00  0.00    -0.015 A 
ATOM     21  C   UNL A   1      29.553  30.083  23.538  1.00  0.00     0.045 C 
ATOM     22  C   UNL A   1      30.793  29.452  24.087  1.00  0.00    -0.035 A 
ATOM     23  C   UNL A   1      31.561  30.022  25.086  1.00  0.00     0.068 A 
ATOM     24  S   UNL A   1      32.907  29.070  25.513  1.00  0.00    -0.152 S 
ATOM     25  C   UNL A   1      32.493  27.882  24.360  1.00  0.00     0.070 A 
ENDBRANCH  19  20
ENDBRANCH  14  19
ENDBRANCH  11  13
ENDBRANCH   7  11
ENDBRANCH   3   6
ENDBRANCH   1   2
BRANCH   1  26
ATOM     26  C   UNL A   1      37.052  21.166  24.390  1.00  0.00     0.023 C 
BRANCH  26  27
ATOM     27  C   UNL A   1      37.801  19.985  25.021  1.00  0.00     0.023 C 
BRANCH  27  28
ATOM     28  C   UNL A   1      39.092  20.348  25.753  1.00  0.00     0.116 C 
BRANCH  28  29
ATOM     29  N   UNL A   1      40.051  19.255  25.814  1.00  0.00    -0.352 N 
ATOM     30  C   UNL A   1      41.390  19.301  26.112  1.00  0.00     0.251 C 
ATOM     31  H   UNL A   1      39.690  18.361  25.614  1.00  0.00     0.163 HD
ATOM     32  O   UNL A   1      42.080  18.290  26.026  1.00  0.00    -0.269 OA
BRANCH  30  33
ATOM     33  C   UNL A   1      42.011  20.585  26.498  1.00  0.00     0.039 A 
ATOM     34  C   UNL A   1      42.525  21.408  25.492  1.00  0.00     0.014 A 
ATOM     35  C   UNL A   1      42.064  20.988  27.835  1.00  0.00     0.014 A 
ATOM     36  C   UNL A   1      43.029  22.667  25.821  1.00  0.00     0.010 A 
ATOM     37  C   UNL A   1      42.509  22.269  28.155  1.00  0.00     0.010 A 
ATOM     38  C   UNL A   1      42.987  23.123  27.149  1.00  0.00    -0.014 A 
BRANCH  38  39
ATOM     39  C   UNL A   1      43.412  24.503  27.492  1.00  0.00     0.031 A 
ATOM     40  C   UNL A   1      42.399  25.539  27.890  1.00  0.00     0.074 A 
ATOM     41  C   UNL A   1      44.713  24.837  27.387  1.00  0.00     0.049 A 
ATOM     42  N   UNL A   1      42.585  26.797  28.200  1.00  0.00    -0.248 NA
ATOM     43  C   UNL A   1      40.992  25.114  27.916  1.00  0.00     0.031 C 
ATOM     44  C   UNL A   1      45.783  23.939  26.950  1.00  0.00     0.029 A 
ATOM     45  N   UNL A   1      45.354  26.024  27.632  1.00  0.00    -0.354 N 
ATOM     46  C   UNL A   1      41.321  27.315  28.449  1.00  0.00     0.074 A 
ATOM     47  C   UNL A   1      40.372  26.249  28.202  1.00  0.00     0.031 C 
ATOM     48  C   UNL A   1      46.951  24.598  26.984  1.00  0.00     0.029 A 
ATOM     49  C   UNL A   1      46.710  25.971  27.416  1.00  0.00     0.049 A 
ATOM     50  H   UNL A   1      44.888  26.836  27.935  1.00  0.00     0.167 HD
ATOM     51  C   UNL A   1      40.983  28.559  28.865  1.00  0.00     0.037 A 
ATOM     52  C   UNL A   1      47.652  26.922  27.552  1.00  0.00     0.037 A 
ATOM     53  C   UNL A   1      41.930  29.610  29.129  1.00  0.00     0.049 A 
ATOM     54  C   UNL A   1      47.254  28.290  28.029  1.00  0.00     0.074 A 
ATOM     55  C   UNL A   1      41.692  30.881  29.626  1.00  0.00     0.029 A 
ATOM     56  N   UNL A   1      43.297  29.515  28.916  1.00  0.00    -0.354 N 
ATOM     57  N   UNL A   1      46.064  28.743  28.340  1.00  0.00    -0.248 NA
ATOM     58  C   UNL A   1      48.332  29.277  28.181  1.00  0.00     0.031 C 
ATOM     59  C   UNL A   1      42.910  31.568  29.673  1.00  0.00     0.029 A 
ATOM     60  C   UNL A   1      43.912  30.711  29.247  1.00  0.00     0.049 A 
ATOM     61  H   UNL A   1      43.761  28.715  28.578  1.00  0.00     0.167 HD
ATOM     62  C   UNL A   1      46.250  30.058  28.742  1.00  0.00     0.074 A 
ATOM     63  C   UNL A   1      47.671  30.324  28.653  1.00  0.00     0.031 C 
ATOM     64  C   UNL A   1      45.327  30.963  29.148  1.00  0.00     0.037 A 
BRANCH  51  65
ATOM     65  C   UNL A   1      39.524  28.846  29.065  1.00  0.00     0.057 A 
ATOM     66  C   UNL A   1      38.905  28.689  30.312  1.00  0.00     0.134 A 
ATOM     67  C   UNL A   1      38.732  29.308  28.005  1.00  0.00     0.134 A 
ATOM     68  F   UNL A   1      39.604  28.237  31.365  1.00  0.00    -0.206 F 
ATOM     69  C   UNL A   1      37.547  28.957  30.494  1.00  0.00     0.040 A 
ATOM     70  C   UNL A   1      37.379  29.603  28.181  1.00  0.00     0.040 A 
ATOM     71  F   UNL A   1      39.262  29.486  26.786  1.00  0.00    -0.206 F 
ATOM     72  C   UNL A   1      36.782  29.420  29.426  1.00  0.00     0.006 A 
ENDBRANCH  51  65
BRANCH  52  73
ATOM     73  C   UNL A   1      49.071  26.602  27.265  1.00  0.00     0.057 A 
ATOM     74  C   UNL A   1      49.624  26.846  26.002  1.00  0.00     0.134 A 
ATOM     75  C   UNL A   1      49.910  26.050  28.242  1.00  0.00     0.134 A 
ATOM     76  F   UNL A   1      48.865  27.356  25.022  1.00  0.00    -0.206 F 
ATOM     77  C   UNL A   1      50.955  26.541  25.716  1.00  0.00     0.040 A 
ATOM     78  C   UNL A   1      51.249  25.761  27.975  1.00  0.00     0.040 A 
ATOM     79  F   UNL A   1      49.441  25.800  29.473  1.00  0.00    -0.206 F 
ATOM     80  C   UNL A   1      51.773  26.002  26.707  1.00  0.00     0.006 A 
ENDBRANCH  52  73
BRANCH  64  81
ATOM     81  C   UNL A   1      45.832  32.321  29.540  1.00  0.00     0.057 A 
ATOM     82  C   UNL A   1      46.213  32.613  30.855  1.00  0.00     0.134 A 
ATOM     83  C   UNL A   1      45.962  33.337  28.587  1.00  0.00     0.134 A 
ATOM     84  F   UNL A   1      46.099  31.686  31.819  1.00  0.00    -0.206 F 
ATOM     85  C   UNL A   1      46.684  33.877  31.214  1.00  0.00     0.040 A 
ATOM     86  C   UNL A   1      46.455  34.599  28.928  1.00  0.00     0.040 A 
ATOM     87  F   UNL A   1      45.621  33.120  27.307  1.00  0.00    -0.206 F 
ATOM     88  C   UNL A   1      46.811  34.872  30.247  1.00  0.00     0.006 A 
ENDBRANCH  64  81
ENDBRANCH  38  39
ENDBRANCH  30  33
ENDBRANCH  28  29
ENDBRANCH  27  28
ENDBRANCH  26  27
ENDBRANCH   1  26
TORSDOF 15
ENDMDL
