MODEL 1
REMARK VINA RESULT:     -12.4      0.000      0.000
REMARK SMILES COc1ccc(C[N@@H+]2CCO[C@H](Cc3ccc(F)cc3)C2)cc1C(=O)NCCCCNC(=O)c1ccc(-c2c3nc(c(-c4c(F)cccc4F)c4ccc([nH]4)c(-c4c(F)cccc4F)c4nc(c(-c5c(F)cccc5F)c5ccc2[nH]5)C=C4)C=C3)cc1
REMARK SMILES IDX 27 1 26 2 24 3 25 4 23 6 3 7 4 8 5 9 22 10 6 11 2 12 1 13
REMARK SMILES IDX 7 14 8 15 9 16 21 17 10 19 12 20 11 21 13 22 14 23 15 24
REMARK SMILES IDX 20 25 16 26 19 27 17 28 18 29 28 30 29 31 30 32 31 33 32 34
REMARK SMILES IDX 33 36 34 37 35 38 87 39 36 40 86 41 37 42 38 43 39 44 80 45
REMARK SMILES IDX 40 46 85 47 79 48 81 49 41 50 84 51 78 52 77 53 42 55 68 56
REMARK SMILES IDX 51 57 67 58 52 59 55 60 66 61 82 62 53 63 54 64 65 66 83 67
REMARK SMILES IDX 56 68 43 69 44 70 49 71 45 72 46 73 48 74 50 75 47 76 69 77
REMARK SMILES IDX 70 78 75 79 71 80 72 81 74 82 76 83 73 84 57 85 58 86 63 87
REMARK SMILES IDX 59 88 60 89 62 90 64 91 61 92
REMARK H PARENT 26 5 8 18 31 35 81 54 55 65
REMARK Flexibility Score: inf
ROOT
ATOM      1  C   UNL A   1      37.655  23.425  25.697  1.00  0.00     0.116 C 
ENDROOT
BRANCH   1   2
ATOM      2  N   UNL A   1      37.219  23.375  24.331  1.00  0.00    -0.352 N 
ATOM      3  C   UNL A   1      35.888  23.156  23.922  1.00  0.00     0.255 C 
ATOM      4  O   UNL A   1      35.624  23.289  22.725  1.00  0.00    -0.269 OA
ATOM      5  H   UNL A   1      37.899  23.502  23.629  1.00  0.00     0.163 HD
BRANCH   3   6
ATOM      6  C   UNL A   1      34.760  22.664  24.837  1.00  0.00     0.082 A 
ATOM      7  C   UNL A   1      34.154  20.971  24.845  1.00  0.00     0.131 A 
ATOM      8  C   UNL A   1      32.208  20.640  25.277  1.00  0.00     0.048 A 
ATOM      9  C   UNL A   1      31.182  22.024  25.782  1.00  0.00     0.013 A 
ATOM     10  C   UNL A   1      33.637  23.925  25.390  1.00  0.00     0.027 A 
ATOM     11  C   UNL A   1      31.896  23.629  25.786  1.00  0.00     0.007 A 
BRANCH   7  12
ATOM     12  O   UNL A   1      35.263  20.058  24.889  1.00  0.00    -0.496 OA
ATOM     13  C   UNL A   1      34.965  18.678  24.565  1.00  0.00     0.278 C 
ENDBRANCH   7  12
BRANCH  11  14
ATOM     14  C   UNL A   1      30.913  24.815  25.660  1.00  0.00     0.299 C 
BRANCH  14  15
ATOM     15  N   UNL A   1      30.218  25.050  24.362  1.00  0.00    -0.327 N 
ATOM     16  C   UNL A   1      30.595  24.200  23.233  1.00  0.00     0.291 C 
ATOM     17  C   UNL A   1      30.053  26.420  23.844  1.00  0.00     0.295 C 
ATOM     18  H   UNL A   1      29.312  24.768  24.737  1.00  0.00     0.348 HD
ATOM     19  C   UNL A   1      31.622  24.764  22.210  1.00  0.00     0.222 C 
ATOM     20  C   UNL A   1      31.352  26.968  23.176  1.00  0.00     0.177 C 
ATOM     21  O   UNL A   1      31.718  26.180  22.050  1.00  0.00    -0.366 OA
BRANCH  20  22
ATOM     22  C   UNL A   1      32.367  27.257  24.315  1.00  0.00     0.073 C 
BRANCH  22  23
ATOM     23  C   UNL A   1      32.486  28.554  25.260  1.00  0.00    -0.045 A 
ATOM     24  C   UNL A   1      31.493  30.298  25.521  1.00  0.00     0.007 A 
ATOM     25  C   UNL A   1      33.965  28.284  26.251  1.00  0.00     0.007 A 
ATOM     26  C   UNL A   1      32.073  31.442  26.812  1.00  0.00     0.039 A 
ATOM     27  C   UNL A   1      34.450  29.503  27.414  1.00  0.00     0.039 A 
ATOM     28  C   UNL A   1      33.537  30.996  27.714  1.00  0.00     0.123 A 
ATOM     29  F   UNL A   1      34.048  31.871  28.593  1.00  0.00    -0.207 F 
ENDBRANCH  22  23
ENDBRANCH  20  22
ENDBRANCH  14  15
ENDBRANCH  11  14
ENDBRANCH   3   6
ENDBRANCH   1   2
BRANCH   1  30
ATOM     30  C   UNL A   1      38.948  22.919  26.307  1.00  0.00     0.023 C 
BRANCH  30  31
ATOM     31  C   UNL A   1      39.536  21.638  25.730  1.00  0.00     0.023 C 
BRANCH  31  32
ATOM     32  C   UNL A   1      39.544  20.389  26.618  1.00  0.00     0.116 C 
BRANCH  32  33
ATOM     33  N   UNL A   1      40.404  19.293  26.175  1.00  0.00    -0.352 N 
ATOM     34  C   UNL A   1      41.784  19.261  26.082  1.00  0.00     0.251 C 
ATOM     35  H   UNL A   1      39.939  18.468  25.909  1.00  0.00     0.163 HD
ATOM     36  O   UNL A   1      42.371  18.276  25.645  1.00  0.00    -0.269 OA
BRANCH  34  37
ATOM     37  C   UNL A   1      42.555  20.464  26.463  1.00  0.00     0.039 A 
ATOM     38  C   UNL A   1      43.230  21.176  25.471  1.00  0.00     0.014 A 
ATOM     39  C   UNL A   1      42.501  20.950  27.770  1.00  0.00     0.014 A 
ATOM     40  C   UNL A   1      43.738  22.443  25.765  1.00  0.00     0.010 A 
ATOM     41  C   UNL A   1      42.896  22.258  28.027  1.00  0.00     0.010 A 
ATOM     42  C   UNL A   1      43.505  23.026  27.023  1.00  0.00    -0.014 A 
BRANCH  42  43
ATOM     43  C   UNL A   1      43.848  24.450  27.279  1.00  0.00     0.031 A 
ATOM     44  C   UNL A   1      45.270  24.924  27.179  1.00  0.00     0.074 A 
ATOM     45  C   UNL A   1      42.882  25.308  27.666  1.00  0.00     0.049 A 
ATOM     46  N   UNL A   1      45.759  26.117  27.397  1.00  0.00    -0.248 NA
ATOM     47  C   UNL A   1      46.278  23.918  26.810  1.00  0.00     0.031 C 
ATOM     48  C   UNL A   1      41.473  24.962  27.859  1.00  0.00     0.029 A 
ATOM     49  N   UNL A   1      42.938  26.645  27.972  1.00  0.00    -0.354 N 
ATOM     50  C   UNL A   1      47.129  26.005  27.201  1.00  0.00     0.074 A 
ATOM     51  C   UNL A   1      47.400  24.614  26.909  1.00  0.00     0.031 C 
ATOM     52  C   UNL A   1      40.793  26.061  28.214  1.00  0.00     0.029 A 
ATOM     53  C   UNL A   1      41.725  27.178  28.340  1.00  0.00     0.049 A 
ATOM     54  H   UNL A   1      43.767  27.174  27.931  1.00  0.00     0.167 HD
ATOM     55  C   UNL A   1      48.073  26.975  27.242  1.00  0.00     0.037 A 
ATOM     56  C   UNL A   1      41.398  28.415  28.759  1.00  0.00     0.037 A 
ATOM     57  C   UNL A   1      47.795  28.356  27.541  1.00  0.00     0.049 A 
ATOM     58  C   UNL A   1      42.466  29.469  28.835  1.00  0.00     0.074 A 
ATOM     59  C   UNL A   1      48.671  29.427  27.547  1.00  0.00     0.029 A 
ATOM     60  N   UNL A   1      46.556  28.854  27.919  1.00  0.00    -0.354 N 
ATOM     61  N   UNL A   1      43.743  29.371  28.555  1.00  0.00    -0.248 NA
ATOM     62  C   UNL A   1      42.050  30.805  29.282  1.00  0.00     0.031 C 
ATOM     63  C   UNL A   1      47.987  30.548  28.022  1.00  0.00     0.029 A 
ATOM     64  C   UNL A   1      46.658  30.204  28.218  1.00  0.00     0.049 A 
ATOM     65  H   UNL A   1      45.726  28.325  27.968  1.00  0.00     0.167 HD
ATOM     66  C   UNL A   1      44.281  30.632  28.775  1.00  0.00     0.074 A 
ATOM     67  C   UNL A   1      43.186  31.485  29.189  1.00  0.00     0.031 C 
ATOM     68  C   UNL A   1      45.566  31.044  28.645  1.00  0.00     0.037 A 
BRANCH  55  69
ATOM     69  C   UNL A   1      49.499  26.564  26.999  1.00  0.00     0.057 A 
ATOM     70  C   UNL A   1      50.038  26.447  25.709  1.00  0.00     0.134 A 
ATOM     71  C   UNL A   1      50.350  26.284  28.076  1.00  0.00     0.134 A 
ATOM     72  F   UNL A   1      49.283  26.696  24.629  1.00  0.00    -0.206 F 
ATOM     73  C   UNL A   1      51.350  26.015  25.501  1.00  0.00     0.040 A 
ATOM     74  C   UNL A   1      51.675  25.893  27.882  1.00  0.00     0.040 A 
ATOM     75  F   UNL A   1      49.908  26.388  29.339  1.00  0.00    -0.206 F 
ATOM     76  C   UNL A   1      52.174  25.742  26.590  1.00  0.00     0.006 A 
ENDBRANCH  55  69
BRANCH  56  77
ATOM     77  C   UNL A   1      39.997  28.708  29.157  1.00  0.00     0.057 A 
ATOM     78  C   UNL A   1      39.057  29.192  28.240  1.00  0.00     0.134 A 
ATOM     79  C   UNL A   1      39.559  28.488  30.470  1.00  0.00     0.134 A 
ATOM     80  F   UNL A   1      39.415  29.443  26.973  1.00  0.00    -0.206 F 
ATOM     81  C   UNL A   1      37.737  29.456  28.617  1.00  0.00     0.040 A 
ATOM     82  C   UNL A   1      38.237  28.715  30.851  1.00  0.00     0.040 A 
ATOM     83  F   UNL A   1      40.408  28.018  31.397  1.00  0.00    -0.206 F 
ATOM     84  C   UNL A   1      37.322  29.207  29.924  1.00  0.00     0.006 A 
ENDBRANCH  56  77
BRANCH  68  85
ATOM     85  C   UNL A   1      45.863  32.490  28.935  1.00  0.00     0.057 A 
ATOM     86  C   UNL A   1      46.271  32.928  30.201  1.00  0.00     0.134 A 
ATOM     87  C   UNL A   1      45.785  33.451  27.917  1.00  0.00     0.134 A 
ATOM     88  F   UNL A   1      46.362  32.064  31.224  1.00  0.00    -0.206 F 
ATOM     89  C   UNL A   1      46.560  34.271  30.452  1.00  0.00     0.040 A 
ATOM     90  C   UNL A   1      46.108  34.789  28.146  1.00  0.00     0.040 A 
ATOM     91  F   UNL A   1      45.414  33.101  26.676  1.00  0.00    -0.206 F 
ATOM     92  C   UNL A   1      46.487  35.204  29.420  1.00  0.00     0.006 A 
ENDBRANCH  68  85
ENDBRANCH  42  43
ENDBRANCH  34  37
ENDBRANCH  32  33
ENDBRANCH  31  32
ENDBRANCH  30  31
ENDBRANCH   1  30
TORSDOF 16
ENDMDL
MODEL 2
REMARK VINA RESULT:     -12.4      0.409      6.085
REMARK SMILES COc1ccc(C[N@@H+]2CCO[C@H](Cc3ccc(F)cc3)C2)cc1C(=O)NCCCCNC(=O)c1ccc(-c2c3nc(c(-c4c(F)cccc4F)c4ccc([nH]4)c(-c4c(F)cccc4F)c4nc(c(-c5c(F)cccc5F)c5ccc2[nH]5)C=C4)C=C3)cc1
REMARK SMILES IDX 27 1 26 2 24 3 25 4 23 6 3 7 4 8 5 9 22 10 6 11 2 12 1 13
REMARK SMILES IDX 7 14 8 15 9 16 21 17 10 19 12 20 11 21 13 22 14 23 15 24
REMARK SMILES IDX 20 25 16 26 19 27 17 28 18 29 28 30 29 31 30 32 31 33 32 34
REMARK SMILES IDX 33 36 34 37 35 38 87 39 36 40 86 41 37 42 38 43 39 44 80 45
REMARK SMILES IDX 40 46 85 47 79 48 81 49 41 50 84 51 78 52 77 53 42 55 68 56
REMARK SMILES IDX 51 57 67 58 52 59 55 60 66 61 82 62 53 63 54 64 65 66 83 67
REMARK SMILES IDX 56 68 43 69 44 70 49 71 45 72 46 73 48 74 50 75 47 76 69 77
REMARK SMILES IDX 70 78 75 79 71 80 72 81 74 82 76 83 73 84 57 85 58 86 63 87
REMARK SMILES IDX 59 88 60 89 62 90 64 91 61 92
REMARK H PARENT 26 5 8 18 31 35 81 54 55 65
REMARK Flexibility Score: inf
ROOT
ATOM      1  C   UNL A   1      37.600  23.656  25.720  1.00  0.00     0.116 C 
ENDROOT
BRANCH   1   2
ATOM      2  N   UNL A   1      37.183  23.525  24.353  1.00  0.00    -0.352 N 
ATOM      3  C   UNL A   1      35.864  23.247  23.941  1.00  0.00     0.255 C 
ATOM      4  O   UNL A   1      35.611  23.312  22.736  1.00  0.00    -0.269 OA
ATOM      5  H   UNL A   1      37.867  23.637  23.653  1.00  0.00     0.163 HD
BRANCH   3   6
ATOM      6  C   UNL A   1      34.739  22.769  24.867  1.00  0.00     0.082 A 
ATOM      7  C   UNL A   1      34.146  21.072  24.915  1.00  0.00     0.131 A 
ATOM      8  C   UNL A   1      32.202  20.736  25.354  1.00  0.00     0.048 A 
ATOM      9  C   UNL A   1      31.166  22.124  25.826  1.00  0.00     0.013 A 
ATOM     10  C   UNL A   1      33.606  24.034  25.389  1.00  0.00     0.027 A 
ATOM     11  C   UNL A   1      31.867  23.734  25.792  1.00  0.00     0.007 A 
BRANCH   7  12
ATOM     12  O   UNL A   1      35.262  20.169  24.981  1.00  0.00    -0.496 OA
ATOM     13  C   UNL A   1      34.991  18.795  24.612  1.00  0.00     0.278 C 
ENDBRANCH   7  12
BRANCH  11  14
ATOM     14  C   UNL A   1      30.876  24.910  25.638  1.00  0.00     0.299 C 
BRANCH  14  15
ATOM     15  N   UNL A   1      30.223  25.143  24.317  1.00  0.00    -0.327 N 
ATOM     16  C   UNL A   1      30.642  24.295  23.201  1.00  0.00     0.291 C 
ATOM     17  C   UNL A   1      30.070  26.513  23.795  1.00  0.00     0.295 C 
ATOM     18  H   UNL A   1      29.306  24.856  24.661  1.00  0.00     0.348 HD
ATOM     19  C   UNL A   1      31.699  24.865  22.213  1.00  0.00     0.222 C 
ATOM     20  C   UNL A   1      31.388  27.067  23.171  1.00  0.00     0.177 C 
ATOM     21  O   UNL A   1      31.795  26.281  22.057  1.00  0.00    -0.366 OA
BRANCH  20  22
ATOM     22  C   UNL A   1      32.364  27.359  24.343  1.00  0.00     0.073 C 
BRANCH  22  23
ATOM     23  C   UNL A   1      32.468  28.670  25.271  1.00  0.00    -0.045 A 
ATOM     24  C   UNL A   1      31.384  30.347  25.599  1.00  0.00     0.007 A 
ATOM     25  C   UNL A   1      34.032  28.507  26.147  1.00  0.00     0.007 A 
ATOM     26  C   UNL A   1      31.983  31.539  26.838  1.00  0.00     0.039 A 
ATOM     27  C   UNL A   1      34.522  29.766  27.265  1.00  0.00     0.039 A 
ATOM     28  C   UNL A   1      33.537  31.199  27.626  1.00  0.00     0.123 A 
ATOM     29  F   UNL A   1      34.054  32.114  28.461  1.00  0.00    -0.207 F 
ENDBRANCH  22  23
ENDBRANCH  20  22
ENDBRANCH  14  15
ENDBRANCH  11  14
ENDBRANCH   3   6
ENDBRANCH   1   2
BRANCH   1  30
ATOM     30  C   UNL A   1      38.832  23.093  26.401  1.00  0.00     0.023 C 
BRANCH  30  31
ATOM     31  C   UNL A   1      39.433  21.822  25.815  1.00  0.00     0.023 C 
BRANCH  31  32
ATOM     32  C   UNL A   1      39.668  20.638  26.759  1.00  0.00     0.116 C 
BRANCH  32  33
ATOM     33  N   UNL A   1      40.467  19.538  26.222  1.00  0.00    -0.352 N 
ATOM     34  C   UNL A   1      41.836  19.480  26.025  1.00  0.00     0.251 C 
ATOM     35  H   UNL A   1      39.965  18.732  25.966  1.00  0.00     0.163 HD
ATOM     36  O   UNL A   1      42.366  18.497  25.517  1.00  0.00    -0.269 OA
BRANCH  34  37
ATOM     37  C   UNL A   1      42.661  20.654  26.383  1.00  0.00     0.039 A 
ATOM     38  C   UNL A   1      43.260  21.396  25.364  1.00  0.00     0.014 A 
ATOM     39  C   UNL A   1      42.731  21.088  27.708  1.00  0.00     0.014 A 
ATOM     40  C   UNL A   1      43.815  22.641  25.661  1.00  0.00     0.010 A 
ATOM     41  C   UNL A   1      43.173  22.377  27.980  1.00  0.00     0.010 A 
ATOM     42  C   UNL A   1      43.706  23.176  26.956  1.00  0.00    -0.014 A 
BRANCH  42  43
ATOM     43  C   UNL A   1      44.098  24.582  27.237  1.00  0.00     0.031 A 
ATOM     44  C   UNL A   1      43.076  25.584  27.693  1.00  0.00     0.074 A 
ATOM     45  C   UNL A   1      45.370  24.975  27.020  1.00  0.00     0.049 A 
ATOM     46  N   UNL A   1      43.228  26.857  27.956  1.00  0.00    -0.248 NA
ATOM     47  C   UNL A   1      41.697  25.098  27.852  1.00  0.00     0.031 C 
ATOM     48  C   UNL A   1      46.445  24.116  26.522  1.00  0.00     0.029 A 
ATOM     49  N   UNL A   1      45.973  26.197  27.185  1.00  0.00    -0.354 N 
ATOM     50  C   UNL A   1      41.966  27.324  28.300  1.00  0.00     0.074 A 
ATOM     51  C   UNL A   1      41.051  26.214  28.152  1.00  0.00     0.031 C 
ATOM     52  C   UNL A   1      47.581  24.825  26.454  1.00  0.00     0.029 A 
ATOM     53  C   UNL A   1      47.305  26.205  26.841  1.00  0.00     0.049 A 
ATOM     54  H   UNL A   1      45.499  26.993  27.518  1.00  0.00     0.167 HD
ATOM     55  C   UNL A   1      41.607  28.561  28.719  1.00  0.00     0.037 A 
ATOM     56  C   UNL A   1      48.199  27.211  26.813  1.00  0.00     0.037 A 
ATOM     57  C   UNL A   1      42.523  29.663  28.856  1.00  0.00     0.049 A 
ATOM     58  C   UNL A   1      47.772  28.585  27.245  1.00  0.00     0.074 A 
ATOM     59  C   UNL A   1      42.270  30.937  29.332  1.00  0.00     0.029 A 
ATOM     60  N   UNL A   1      43.862  29.634  28.488  1.00  0.00    -0.354 N 
ATOM     61  N   UNL A   1      46.596  28.991  27.658  1.00  0.00    -0.248 NA
ATOM     62  C   UNL A   1      48.793  29.640  27.209  1.00  0.00     0.031 C 
ATOM     63  C   UNL A   1      43.425  31.704  29.160  1.00  0.00     0.029 A 
ATOM     64  C   UNL A   1      44.430  30.885  28.671  1.00  0.00     0.049 A 
ATOM     65  H   UNL A   1      44.337  28.841  28.148  1.00  0.00     0.167 HD
ATOM     66  C   UNL A   1      46.738  30.342  27.948  1.00  0.00     0.074 A 
ATOM     67  C   UNL A   1      48.122  30.680  27.685  1.00  0.00     0.031 C 
ATOM     68  C   UNL A   1      45.806  31.220  28.392  1.00  0.00     0.037 A 
BRANCH  55  69
ATOM     69  C   UNL A   1      40.151  28.794  29.017  1.00  0.00     0.057 A 
ATOM     70  C   UNL A   1      39.613  28.645  30.304  1.00  0.00     0.134 A 
ATOM     71  C   UNL A   1      39.272  29.179  27.997  1.00  0.00     0.134 A 
ATOM     72  F   UNL A   1      40.394  28.276  31.331  1.00  0.00    -0.206 F 
ATOM     73  C   UNL A   1      38.249  28.817  30.552  1.00  0.00     0.040 A 
ATOM     74  C   UNL A   1      37.915  29.396  28.240  1.00  0.00     0.040 A 
ATOM     75  F   UNL A   1      39.716  29.355  26.743  1.00  0.00    -0.206 F 
ATOM     76  C   UNL A   1      37.397  29.198  29.519  1.00  0.00     0.006 A 
ENDBRANCH  55  69
BRANCH  56  77
ATOM     77  C   UNL A   1      49.582  26.949  26.335  1.00  0.00     0.057 A 
ATOM     78  C   UNL A   1      50.609  26.589  27.214  1.00  0.00     0.134 A 
ATOM     79  C   UNL A   1      49.902  27.033  24.973  1.00  0.00     0.134 A 
ATOM     80  F   UNL A   1      50.374  26.510  28.532  1.00  0.00    -0.206 F 
ATOM     81  C   UNL A   1      51.905  26.333  26.759  1.00  0.00     0.040 A 
ATOM     82  C   UNL A   1      51.183  26.746  24.501  1.00  0.00     0.040 A 
ATOM     83  F   UNL A   1      48.962  27.365  24.076  1.00  0.00    -0.206 F 
ATOM     84  C   UNL A   1      52.192  26.401  25.397  1.00  0.00     0.006 A 
ENDBRANCH  56  77
BRANCH  68  85
ATOM     85  C   UNL A   1      46.249  32.635  28.643  1.00  0.00     0.057 A 
ATOM     86  C   UNL A   1      46.168  33.627  27.657  1.00  0.00     0.134 A 
ATOM     87  C   UNL A   1      46.721  33.020  29.905  1.00  0.00     0.134 A 
ATOM     88  F   UNL A   1      45.732  33.328  26.424  1.00  0.00    -0.206 F 
ATOM     89  C   UNL A   1      46.568  34.941  27.909  1.00  0.00     0.040 A 
ATOM     90  C   UNL A   1      47.087  34.338  30.180  1.00  0.00     0.040 A 
ATOM     91  F   UNL A   1      46.813  32.125  30.901  1.00  0.00    -0.206 F 
ATOM     92  C   UNL A   1      47.021  35.301  29.176  1.00  0.00     0.006 A 
ENDBRANCH  68  85
ENDBRANCH  42  43
ENDBRANCH  34  37
ENDBRANCH  32  33
ENDBRANCH  31  32
ENDBRANCH  30  31
ENDBRANCH   1  30
TORSDOF 16
ENDMDL
MODEL 3
REMARK VINA RESULT:     -12.1      1.392      2.115
REMARK SMILES COc1ccc(C[N@@H+]2CCO[C@H](Cc3ccc(F)cc3)C2)cc1C(=O)NCCCCNC(=O)c1ccc(-c2c3nc(c(-c4c(F)cccc4F)c4ccc([nH]4)c(-c4c(F)cccc4F)c4nc(c(-c5c(F)cccc5F)c5ccc2[nH]5)C=C4)C=C3)cc1
REMARK SMILES IDX 27 1 26 2 24 3 25 4 23 6 3 7 4 8 5 9 22 10 6 11 2 12 1 13
REMARK SMILES IDX 7 14 8 15 9 16 21 17 10 19 12 20 11 21 13 22 14 23 15 24
REMARK SMILES IDX 20 25 16 26 19 27 17 28 18 29 28 30 29 31 30 32 31 33 32 34
REMARK SMILES IDX 33 36 34 37 35 38 87 39 36 40 86 41 37 42 38 43 39 44 80 45
REMARK SMILES IDX 40 46 85 47 79 48 81 49 41 50 84 51 78 52 77 53 42 55 68 56
REMARK SMILES IDX 51 57 67 58 52 59 55 60 66 61 82 62 53 63 54 64 65 66 83 67
REMARK SMILES IDX 56 68 43 69 44 70 49 71 45 72 46 73 48 74 50 75 47 76 69 77
REMARK SMILES IDX 70 78 75 79 71 80 72 81 74 82 76 83 73 84 57 85 58 86 63 87
REMARK SMILES IDX 59 88 60 89 62 90 64 91 61 92
REMARK H PARENT 26 5 8 18 31 35 81 54 55 65
REMARK Flexibility Score: inf
ROOT
ATOM      1  C   UNL A   1      38.262  21.767  25.745  1.00  0.00     0.116 C 
ENDROOT
BRANCH   1   2
ATOM      2  N   UNL A   1      37.925  22.080  24.386  1.00  0.00    -0.352 N 
ATOM      3  C   UNL A   1      36.656  22.516  23.955  1.00  0.00     0.255 C 
ATOM      4  O   UNL A   1      36.543  22.897  22.788  1.00  0.00    -0.269 OA
ATOM      5  H   UNL A   1      38.631  21.982  23.706  1.00  0.00     0.163 HD
BRANCH   3   6
ATOM      6  C   UNL A   1      35.377  22.459  24.799  1.00  0.00     0.082 A 
ATOM      7  C   UNL A   1      34.287  21.031  24.854  1.00  0.00     0.131 A 
ATOM      8  C   UNL A   1      32.308  21.332  25.139  1.00  0.00     0.048 A 
ATOM      9  C   UNL A   1      31.722  22.995  25.475  1.00  0.00     0.013 A 
ATOM     10  C   UNL A   1      34.657  24.039  25.181  1.00  0.00     0.027 A 
ATOM     11  C   UNL A   1      32.887  24.308  25.446  1.00  0.00     0.007 A 
BRANCH   7  12
ATOM     12  O   UNL A   1      35.061  19.835  25.045  1.00  0.00    -0.496 OA
ATOM     13  C   UNL A   1      34.484  18.614  24.521  1.00  0.00     0.278 C 
ENDBRANCH   7  12
BRANCH  11  14
ATOM     14  C   UNL A   1      32.321  25.720  25.170  1.00  0.00     0.299 C 
BRANCH  14  15
ATOM     15  N   UNL A   1      31.999  26.113  23.768  1.00  0.00    -0.327 N 
ATOM     16  C   UNL A   1      33.114  26.514  22.909  1.00  0.00     0.291 C 
ATOM     17  C   UNL A   1      30.880  27.032  23.492  1.00  0.00     0.295 C 
ATOM     18  H   UNL A   1      31.676  25.177  23.524  1.00  0.00     0.348 HD
ATOM     19  C   UNL A   1      33.391  28.035  22.739  1.00  0.00     0.222 C 
ATOM     20  C   UNL A   1      31.250  28.524  23.759  1.00  0.00     0.177 C 
ATOM     21  O   UNL A   1      32.307  28.949  22.907  1.00  0.00    -0.366 OA
BRANCH  20  22
ATOM     22  C   UNL A   1      31.342  28.706  25.299  1.00  0.00     0.073 C 
BRANCH  22  23
ATOM     23  C   UNL A   1      32.333  29.644  26.150  1.00  0.00    -0.045 A 
ATOM     24  C   UNL A   1      32.340  31.539  26.860  1.00  0.00     0.007 A 
ATOM     25  C   UNL A   1      33.809  28.649  26.424  1.00  0.00     0.007 A 
ATOM     26  C   UNL A   1      33.777  32.099  27.828  1.00  0.00     0.039 A 
ATOM     27  C   UNL A   1      35.152  29.338  27.318  1.00  0.00     0.039 A 
ATOM     28  C   UNL A   1      35.133  30.968  28.020  1.00  0.00     0.123 A 
ATOM     29  F   UNL A   1      36.248  31.393  28.635  1.00  0.00    -0.207 F 
ENDBRANCH  22  23
ENDBRANCH  20  22
ENDBRANCH  14  15
ENDBRANCH  11  14
ENDBRANCH   3   6
ENDBRANCH   1   2
BRANCH   1  30
ATOM     30  C   UNL A   1      39.630  21.582  26.372  1.00  0.00     0.023 C 
BRANCH  30  31
ATOM     31  C   UNL A   1      40.360  20.276  26.082  1.00  0.00     0.023 C 
BRANCH  31  32
ATOM     32  C   UNL A   1      41.865  20.217  26.361  1.00  0.00     0.116 C 
BRANCH  32  33
ATOM     33  N   UNL A   1      42.650  19.369  25.468  1.00  0.00    -0.352 N 
ATOM     34  C   UNL A   1      43.833  19.663  24.813  1.00  0.00     0.251 C 
ATOM     35  H   UNL A   1      42.290  18.466  25.311  1.00  0.00     0.163 HD
ATOM     36  O   UNL A   1      44.358  18.858  24.051  1.00  0.00    -0.269 OA
BRANCH  34  37
ATOM     37  C   UNL A   1      44.438  21.000  24.996  1.00  0.00     0.039 A 
ATOM     38  C   UNL A   1      44.118  22.016  24.095  1.00  0.00     0.014 A 
ATOM     39  C   UNL A   1      45.213  21.274  26.124  1.00  0.00     0.014 A 
ATOM     40  C   UNL A   1      44.465  23.334  24.399  1.00  0.00     0.010 A 
ATOM     41  C   UNL A   1      45.449  22.596  26.483  1.00  0.00     0.010 A 
ATOM     42  C   UNL A   1      45.063  23.643  25.632  1.00  0.00    -0.014 A 
BRANCH  42  43
ATOM     43  C   UNL A   1      45.242  25.055  26.061  1.00  0.00     0.031 A 
ATOM     44  C   UNL A   1      46.596  25.704  26.009  1.00  0.00     0.074 A 
ATOM     45  C   UNL A   1      44.191  25.738  26.559  1.00  0.00     0.049 A 
ATOM     46  N   UNL A   1      46.946  26.912  26.369  1.00  0.00    -0.248 NA
ATOM     47  C   UNL A   1      47.707  24.879  25.510  1.00  0.00     0.031 C 
ATOM     48  C   UNL A   1      42.837  25.206  26.718  1.00  0.00     0.029 A 
ATOM     49  N   UNL A   1      44.096  27.025  27.027  1.00  0.00    -0.354 N 
ATOM     50  C   UNL A   1      48.316  26.989  26.150  1.00  0.00     0.074 A 
ATOM     51  C   UNL A   1      48.741  25.686  25.686  1.00  0.00     0.031 C 
ATOM     52  C   UNL A   1      42.041  26.164  27.212  1.00  0.00     0.029 A 
ATOM     53  C   UNL A   1      42.838  27.360  27.469  1.00  0.00     0.049 A 
ATOM     54  H   UNL A   1      44.857  27.650  27.046  1.00  0.00     0.167 HD
ATOM     55  C   UNL A   1      49.139  28.053  26.304  1.00  0.00     0.037 A 
ATOM     56  C   UNL A   1      42.378  28.490  28.040  1.00  0.00     0.037 A 
ATOM     57  C   UNL A   1      48.708  29.344  26.775  1.00  0.00     0.049 A 
ATOM     58  C   UNL A   1      43.316  29.646  28.238  1.00  0.00     0.074 A 
ATOM     59  C   UNL A   1      49.453  30.502  26.907  1.00  0.00     0.029 A 
ATOM     60  N   UNL A   1      47.428  29.640  27.221  1.00  0.00    -0.354 N 
ATOM     61  N   UNL A   1      44.589  29.736  27.938  1.00  0.00    -0.248 NA
ATOM     62  C   UNL A   1      42.756  30.858  28.850  1.00  0.00     0.031 C 
ATOM     63  C   UNL A   1      48.652  31.468  27.522  1.00  0.00     0.029 A 
ATOM     64  C   UNL A   1      47.378  30.945  27.684  1.00  0.00     0.049 A 
ATOM     65  H   UNL A   1      46.667  29.014  27.210  1.00  0.00     0.167 HD
ATOM     66  C   UNL A   1      44.980  31.016  28.308  1.00  0.00     0.074 A 
ATOM     67  C   UNL A   1      43.801  31.674  28.834  1.00  0.00     0.031 C 
ATOM     68  C   UNL A   1      46.204  31.591  28.221  1.00  0.00     0.037 A 
BRANCH  55  69
ATOM     69  C   UNL A   1      50.598  27.847  26.000  1.00  0.00     0.057 A 
ATOM     70  C   UNL A   1      51.116  27.941  24.701  1.00  0.00     0.134 A 
ATOM     71  C   UNL A   1      51.502  27.555  27.030  1.00  0.00     0.134 A 
ATOM     72  F   UNL A   1      50.311  28.214  23.663  1.00  0.00    -0.206 F 
ATOM     73  C   UNL A   1      52.465  27.697  24.431  1.00  0.00     0.040 A 
ATOM     74  C   UNL A   1      52.860  27.352  26.779  1.00  0.00     0.040 A 
ATOM     75  F   UNL A   1      51.083  27.464  28.302  1.00  0.00    -0.206 F 
ATOM     76  C   UNL A   1      53.341  27.407  25.473  1.00  0.00     0.006 A 
ENDBRANCH  55  69
BRANCH  56  77
ATOM     77  C   UNL A   1      40.961  28.562  28.482  1.00  0.00     0.057 A 
ATOM     78  C   UNL A   1      40.581  28.250  29.792  1.00  0.00     0.134 A 
ATOM     79  C   UNL A   1      39.950  28.971  27.600  1.00  0.00     0.134 A 
ATOM     80  F   UNL A   1      41.496  27.834  30.680  1.00  0.00    -0.206 F 
ATOM     81  C   UNL A   1      39.249  28.330  30.206  1.00  0.00     0.040 A 
ATOM     82  C   UNL A   1      38.622  29.089  28.010  1.00  0.00     0.040 A 
ATOM     83  F   UNL A   1      40.247  29.292  26.332  1.00  0.00    -0.206 F 
ATOM     84  C   UNL A   1      38.267  28.761  29.316  1.00  0.00     0.006 A 
ENDBRANCH  56  77
BRANCH  68  85
ATOM     85  C   UNL A   1      46.336  33.015  28.685  1.00  0.00     0.057 A 
ATOM     86  C   UNL A   1      46.080  34.102  27.839  1.00  0.00     0.134 A 
ATOM     87  C   UNL A   1      46.679  33.303  30.014  1.00  0.00     0.134 A 
ATOM     88  F   UNL A   1      45.753  33.901  26.553  1.00  0.00    -0.206 F 
ATOM     89  C   UNL A   1      46.190  35.420  28.288  1.00  0.00     0.040 A 
ATOM     90  C   UNL A   1      46.754  34.614  30.484  1.00  0.00     0.040 A 
ATOM     91  F   UNL A   1      46.925  32.312  30.885  1.00  0.00    -0.206 F 
ATOM     92  C   UNL A   1      46.519  35.678  29.616  1.00  0.00     0.006 A 
ENDBRANCH  68  85
ENDBRANCH  42  43
ENDBRANCH  34  37
ENDBRANCH  32  33
ENDBRANCH  31  32
ENDBRANCH  30  31
ENDBRANCH   1  30
TORSDOF 16
ENDMDL
