MODEL 1
REMARK VINA RESULT:     -11.4      0.000      0.000
REMARK SMILES C[NH2+][C@@]1(C(=O)NCCCCNC(=O)c2ccc(-c3c4nc(c(-c5c(F)cccc5F)c5ccc([nH]5)c(-c5c(F)cccc5F)c5nc(c(-c6c(F)cccc6F)c6ccc3[nH]6)C=C5)C=C4)cc2)CCC[C@H]1CCSc1nccc(=O)[nH]1
REMARK SMILES IDX 7 1 6 2 4 3 5 4 3 6 68 7 71 8 69 9 70 10 2 11 1 12 72 15
REMARK SMILES IDX 73 16 74 17 75 18 76 19 81 20 77 21 79 22 78 24 80 25 8 26
REMARK SMILES IDX 9 27 10 28 11 29 12 30 13 32 14 33 15 34 67 35 16 36 66 37
REMARK SMILES IDX 17 38 18 39 19 40 60 41 20 42 65 43 59 44 61 45 21 46 64 47
REMARK SMILES IDX 58 48 57 49 22 51 48 52 31 53 47 54 32 55 35 56 46 57 62 58
REMARK SMILES IDX 33 59 34 60 45 62 63 63 36 64 23 65 24 66 29 67 25 68 26 69
REMARK SMILES IDX 28 70 30 71 27 72 49 73 50 74 55 75 51 76 52 77 54 78 56 79
REMARK SMILES IDX 53 80 37 81 38 82 43 83 39 84 40 85 42 86 44 87 41 88
REMARK H PARENT 6 5 2 13 2 14 81 23 11 31 61 50 35 61
REMARK Flexibility Score: inf
ROOT
ATOM      1  C   UNL A   1      32.481  28.291  26.007  1.00  0.00     0.116 C 
ENDROOT
BRANCH   1   2
ATOM      2  N   UNL A   1      32.923  26.986  26.425  1.00  0.00    -0.351 N 
ATOM      3  C   UNL A   1      32.587  25.732  26.017  1.00  0.00     0.281 C 
ATOM      4  O   UNL A   1      33.489  24.905  26.235  1.00  0.00    -0.268 OA
ATOM      5  H   UNL A   1      33.597  27.005  27.143  1.00  0.00     0.163 HD
BRANCH   3   6
ATOM      6  C   UNL A   1      31.246  25.301  25.257  1.00  0.00     0.178 C 
ATOM      7  C   UNL A   1      31.498  23.914  24.603  1.00  0.00     0.079 C 
ATOM      8  C   UNL A   1      30.780  26.198  24.052  1.00  0.00     0.061 C 
ATOM      9  C   UNL A   1      31.897  24.134  23.163  1.00  0.00     0.008 C 
ATOM     10  C   UNL A   1      31.235  25.439  22.760  1.00  0.00     0.011 C 
BRANCH   6  11
ATOM     11  N   UNL A   1      30.183  24.979  26.275  1.00  0.00    -0.336 N 
ATOM     12  C   UNL A   1      30.058  23.607  26.751  1.00  0.00     0.331 C 
ATOM     13  H   UNL A   1      30.364  25.565  27.091  1.00  0.00     0.346 HD
ATOM     14  H   UNL A   1      29.308  25.148  25.778  1.00  0.00     0.346 HD
ENDBRANCH   6  11
BRANCH   8  15
ATOM     15  C   UNL A   1      29.267  26.469  23.829  1.00  0.00     0.022 C 
BRANCH  15  16
ATOM     16  C   UNL A   1      28.735  27.846  23.433  1.00  0.00     0.079 C 
BRANCH  16  17
ATOM     17  S   UNL A   1      29.966  29.169  23.265  1.00  0.00    -0.088 SA
BRANCH  17  18
ATOM     18  C   UNL A   1      29.195  30.401  22.323  1.00  0.00     0.168 A 
ATOM     19  N   UNL A   1      28.608  30.212  21.191  1.00  0.00    -0.233 NA
ATOM     20  N   UNL A   1      29.269  31.608  22.941  1.00  0.00    -0.301 N 
ATOM     21  C   UNL A   1      28.022  31.307  20.608  1.00  0.00     0.120 A 
ATOM     22  C   UNL A   1      28.669  32.721  22.434  1.00  0.00     0.251 A 
ATOM     23  H   UNL A   1      29.774  31.681  23.783  1.00  0.00     0.172 HD
ATOM     24  C   UNL A   1      27.991  32.530  21.142  1.00  0.00     0.091 A 
ATOM     25  O   UNL A   1      28.667  33.801  23.002  1.00  0.00    -0.269 OA
ENDBRANCH  17  18
ENDBRANCH  16  17
ENDBRANCH  15  16
ENDBRANCH   8  15
ENDBRANCH   3   6
ENDBRANCH   1   2
BRANCH   1  26
ATOM     26  C   UNL A   1      31.965  29.184  27.124  1.00  0.00     0.023 C 
BRANCH  26  27
ATOM     27  C   UNL A   1      31.730  30.639  26.735  1.00  0.00     0.023 C 
BRANCH  27  28
ATOM     28  C   UNL A   1      32.863  31.603  27.069  1.00  0.00     0.116 C 
BRANCH  28  29
ATOM     29  N   UNL A   1      32.422  32.944  27.428  1.00  0.00    -0.352 N 
ATOM     30  C   UNL A   1      33.062  33.871  28.219  1.00  0.00     0.251 C 
ATOM     31  H   UNL A   1      31.555  33.225  27.055  1.00  0.00     0.163 HD
ATOM     32  O   UNL A   1      32.530  34.941  28.490  1.00  0.00    -0.269 OA
BRANCH  30  33
ATOM     33  C   UNL A   1      34.386  33.534  28.781  1.00  0.00     0.039 A 
ATOM     34  C   UNL A   1      34.451  32.878  30.011  1.00  0.00     0.014 A 
ATOM     35  C   UNL A   1      35.548  33.786  28.046  1.00  0.00     0.014 A 
ATOM     36  C   UNL A   1      35.679  32.392  30.464  1.00  0.00     0.010 A 
ATOM     37  C   UNL A   1      36.750  33.224  28.455  1.00  0.00     0.010 A 
ATOM     38  C   UNL A   1      36.829  32.518  29.666  1.00  0.00    -0.014 A 
BRANCH  38  39
ATOM     39  C   UNL A   1      38.121  31.908  30.073  1.00  0.00     0.031 A 
ATOM     40  C   UNL A   1      39.045  32.653  30.995  1.00  0.00     0.074 A 
ATOM     41  C   UNL A   1      38.494  30.722  29.555  1.00  0.00     0.049 A 
ATOM     42  N   UNL A   1      40.242  32.323  31.409  1.00  0.00    -0.248 NA
ATOM     43  C   UNL A   1      38.577  33.956  31.494  1.00  0.00     0.031 C 
ATOM     44  C   UNL A   1      37.713  29.927  28.604  1.00  0.00     0.029 A 
ATOM     45  N   UNL A   1      39.633  29.980  29.748  1.00  0.00    -0.354 N 
ATOM     46  C   UNL A   1      40.673  33.381  32.199  1.00  0.00     0.074 A 
ATOM     47  C   UNL A   1      39.638  34.389  32.158  1.00  0.00     0.031 C 
ATOM     48  C   UNL A   1      38.383  28.799  28.318  1.00  0.00     0.029 A 
ATOM     49  C   UNL A   1      39.656  28.807  29.030  1.00  0.00     0.049 A 
ATOM     50  H   UNL A   1      40.363  30.260  30.345  1.00  0.00     0.167 HD
ATOM     51  C   UNL A   1      41.817  33.492  32.915  1.00  0.00     0.037 A 
ATOM     52  C   UNL A   1      40.601  27.850  28.950  1.00  0.00     0.037 A 
ATOM     53  C   UNL A   1      42.833  32.475  32.974  1.00  0.00     0.049 A 
ATOM     54  C   UNL A   1      41.863  27.997  29.755  1.00  0.00     0.074 A 
ATOM     55  C   UNL A   1      43.995  32.462  33.724  1.00  0.00     0.029 A 
ATOM     56  N   UNL A   1      42.810  31.292  32.251  1.00  0.00    -0.354 N 
ATOM     57  N   UNL A   1      42.222  28.968  30.560  1.00  0.00    -0.248 NA
ATOM     58  C   UNL A   1      42.848  26.911  29.648  1.00  0.00     0.031 C 
ATOM     59  C   UNL A   1      44.703  31.297  33.414  1.00  0.00     0.029 A 
ATOM     60  C   UNL A   1      43.952  30.554  32.516  1.00  0.00     0.049 A 
ATOM     61  H   UNL A   1      42.089  31.017  31.638  1.00  0.00     0.167 HD
ATOM     62  C   UNL A   1      43.458  28.598  31.075  1.00  0.00     0.074 A 
ATOM     63  C   UNL A   1      43.779  27.306  30.503  1.00  0.00     0.031 C 
ATOM     64  C   UNL A   1      44.256  29.267  31.944  1.00  0.00     0.037 A 
BRANCH  51  65
ATOM     65  C   UNL A   1      42.028  34.758  33.693  1.00  0.00     0.057 A 
ATOM     66  C   UNL A   1      41.570  34.904  35.010  1.00  0.00     0.134 A 
ATOM     67  C   UNL A   1      42.729  35.833  33.133  1.00  0.00     0.134 A 
ATOM     68  F   UNL A   1      40.879  33.918  35.603  1.00  0.00    -0.206 F 
ATOM     69  C   UNL A   1      41.776  36.082  35.730  1.00  0.00     0.040 A 
ATOM     70  C   UNL A   1      42.969  37.004  33.853  1.00  0.00     0.040 A 
ATOM     71  F   UNL A   1      43.201  35.760  31.879  1.00  0.00    -0.206 F 
ATOM     72  C   UNL A   1      42.485  37.133  35.153  1.00  0.00     0.006 A 
ENDBRANCH  51  65
BRANCH  52  73
ATOM     73  C   UNL A   1      40.383  26.660  28.090  1.00  0.00     0.057 A 
ATOM     74  C   UNL A   1      39.539  25.618  28.495  1.00  0.00     0.134 A 
ATOM     75  C   UNL A   1      41.016  26.527  26.848  1.00  0.00     0.134 A 
ATOM     76  F   UNL A   1      38.918  25.676  29.682  1.00  0.00    -0.206 F 
ATOM     77  C   UNL A   1      39.349  24.481  27.709  1.00  0.00     0.040 A 
ATOM     78  C   UNL A   1      40.813  25.408  26.038  1.00  0.00     0.040 A 
ATOM     79  F   UNL A   1      41.831  27.493  26.397  1.00  0.00    -0.206 F 
ATOM     80  C   UNL A   1      39.984  24.377  26.473  1.00  0.00     0.006 A 
ENDBRANCH  52  73
BRANCH  64  81
ATOM     81  C   UNL A   1      45.535  28.600  32.359  1.00  0.00     0.057 A 
ATOM     82  C   UNL A   1      45.591  27.702  33.431  1.00  0.00     0.134 A 
ATOM     83  C   UNL A   1      46.719  28.828  31.644  1.00  0.00     0.134 A 
ATOM     84  F   UNL A   1      44.496  27.448  34.163  1.00  0.00    -0.206 F 
ATOM     85  C   UNL A   1      46.782  27.072  33.795  1.00  0.00     0.040 A 
ATOM     86  C   UNL A   1      47.909  28.182  31.979  1.00  0.00     0.040 A 
ATOM     87  F   UNL A   1      46.734  29.669  30.599  1.00  0.00    -0.206 F 
ATOM     88  C   UNL A   1      47.945  27.306  33.062  1.00  0.00     0.006 A 
ENDBRANCH  64  81
ENDBRANCH  38  39
ENDBRANCH  30  33
ENDBRANCH  28  29
ENDBRANCH  27  28
ENDBRANCH  26  27
ENDBRANCH   1  26
TORSDOF 16
ENDMDL
MODEL 2
REMARK VINA RESULT:     -11.3      2.803      7.444
REMARK SMILES C[NH2+][C@@]1(C(=O)NCCCCNC(=O)c2ccc(-c3c4nc(c(-c5c(F)cccc5F)c5ccc([nH]5)c(-c5c(F)cccc5F)c5nc(c(-c6c(F)cccc6F)c6ccc3[nH]6)C=C5)C=C4)cc2)CCC[C@H]1CCSc1nccc(=O)[nH]1
REMARK SMILES IDX 7 1 6 2 4 3 5 4 3 6 68 7 71 8 69 9 70 10 2 11 1 12 72 15
REMARK SMILES IDX 73 16 74 17 75 18 76 19 81 20 77 21 79 22 78 24 80 25 8 26
REMARK SMILES IDX 9 27 10 28 11 29 12 30 13 32 14 33 15 34 67 35 16 36 66 37
REMARK SMILES IDX 17 38 18 39 19 40 60 41 20 42 65 43 59 44 61 45 21 46 64 47
REMARK SMILES IDX 58 48 57 49 22 51 48 52 31 53 47 54 32 55 35 56 46 57 62 58
REMARK SMILES IDX 33 59 34 60 45 62 63 63 36 64 23 65 24 66 29 67 25 68 26 69
REMARK SMILES IDX 28 70 30 71 27 72 49 73 50 74 55 75 51 76 52 77 54 78 56 79
REMARK SMILES IDX 53 80 37 81 38 82 43 83 39 84 40 85 42 86 44 87 41 88
REMARK H PARENT 6 5 2 13 2 14 81 23 11 31 61 50 35 61
REMARK Flexibility Score: inf
ROOT
ATOM      1  C   UNL A   1      31.780  29.655  25.484  1.00  0.00     0.116 C 
ENDROOT
BRANCH   1   2
ATOM      2  N   UNL A   1      32.886  29.439  24.589  1.00  0.00    -0.351 N 
ATOM      3  C   UNL A   1      33.209  28.403  23.766  1.00  0.00     0.281 C 
ATOM      4  O   UNL A   1      33.926  28.759  22.816  1.00  0.00    -0.268 OA
ATOM      5  H   UNL A   1      33.533  30.182  24.567  1.00  0.00     0.163 HD
BRANCH   3   6
ATOM      6  C   UNL A   1      32.695  26.892  23.885  1.00  0.00     0.178 C 
ATOM      7  C   UNL A   1      32.740  26.495  25.387  1.00  0.00     0.079 C 
ATOM      8  C   UNL A   1      33.557  25.780  23.183  1.00  0.00     0.061 C 
ATOM      9  C   UNL A   1      34.037  25.766  25.646  1.00  0.00     0.008 C 
ATOM     10  C   UNL A   1      34.403  25.119  24.323  1.00  0.00     0.011 C 
BRANCH   6  11
ATOM     11  N   UNL A   1      31.218  26.849  23.594  1.00  0.00    -0.336 N 
ATOM     12  C   UNL A   1      30.708  27.573  22.435  1.00  0.00     0.331 C 
ATOM     13  H   UNL A   1      30.966  25.869  23.470  1.00  0.00     0.346 HD
ATOM     14  H   UNL A   1      30.797  27.330  24.389  1.00  0.00     0.346 HD
ENDBRANCH   6  11
BRANCH   8  15
ATOM     15  C   UNL A   1      32.854  24.586  22.481  1.00  0.00     0.022 C 
BRANCH  15  16
ATOM     16  C   UNL A   1      33.474  23.189  22.434  1.00  0.00     0.079 C 
BRANCH  16  17
ATOM     17  S   UNL A   1      32.518  21.855  23.211  1.00  0.00    -0.088 SA
BRANCH  17  18
ATOM     18  C   UNL A   1      32.778  22.031  24.913  1.00  0.00     0.168 A 
ATOM     19  N   UNL A   1      33.786  21.560  25.563  1.00  0.00    -0.233 NA
ATOM     20  N   UNL A   1      31.782  22.753  25.488  1.00  0.00    -0.301 N 
ATOM     21  C   UNL A   1      33.836  21.831  26.907  1.00  0.00     0.120 A 
ATOM     22  C   UNL A   1      31.800  23.093  26.807  1.00  0.00     0.251 A 
ATOM     23  H   UNL A   1      31.021  23.041  24.933  1.00  0.00     0.172 HD
ATOM     24  C   UNL A   1      32.942  22.568  27.571  1.00  0.00     0.091 A 
ATOM     25  O   UNL A   1      30.951  23.796  27.332  1.00  0.00    -0.269 OA
ENDBRANCH  17  18
ENDBRANCH  16  17
ENDBRANCH  15  16
ENDBRANCH   8  15
ENDBRANCH   3   6
ENDBRANCH   1   2
BRANCH   1  26
ATOM     26  C   UNL A   1      32.136  30.346  26.791  1.00  0.00     0.023 C 
BRANCH  26  27
ATOM     27  C   UNL A   1      31.800  31.832  26.851  1.00  0.00     0.023 C 
BRANCH  27  28
ATOM     28  C   UNL A   1      32.886  32.731  27.429  1.00  0.00     0.116 C 
BRANCH  28  29
ATOM     29  N   UNL A   1      32.460  34.103  27.675  1.00  0.00    -0.352 N 
ATOM     30  C   UNL A   1      32.997  35.021  28.549  1.00  0.00     0.251 C 
ATOM     31  H   UNL A   1      31.689  34.414  27.146  1.00  0.00     0.163 HD
ATOM     32  O   UNL A   1      32.483  36.123  28.697  1.00  0.00    -0.269 OA
BRANCH  30  33
ATOM     33  C   UNL A   1      34.180  34.637  29.345  1.00  0.00     0.039 A 
ATOM     34  C   UNL A   1      33.997  34.192  30.655  1.00  0.00     0.014 A 
ATOM     35  C   UNL A   1      35.450  34.633  28.763  1.00  0.00     0.014 A 
ATOM     36  C   UNL A   1      35.080  33.656  31.354  1.00  0.00     0.010 A 
ATOM     37  C   UNL A   1      36.503  34.016  29.427  1.00  0.00     0.010 A 
ATOM     38  C   UNL A   1      36.330  33.518  30.727  1.00  0.00    -0.014 A 
BRANCH  38  39
ATOM     39  C   UNL A   1      37.465  32.845  31.409  1.00  0.00     0.031 A 
ATOM     40  C   UNL A   1      38.138  31.667  30.762  1.00  0.00     0.074 A 
ATOM     41  C   UNL A   1      37.839  33.244  32.640  1.00  0.00     0.049 A 
ATOM     42  N   UNL A   1      39.094  30.904  31.226  1.00  0.00    -0.248 NA
ATOM     43  C   UNL A   1      37.651  31.273  29.430  1.00  0.00     0.031 C 
ATOM     44  C   UNL A   1      37.226  34.336  33.400  1.00  0.00     0.029 A 
ATOM     45  N   UNL A   1      38.820  32.771  33.475  1.00  0.00    -0.354 N 
ATOM     46  C   UNL A   1      39.310  29.935  30.254  1.00  0.00     0.074 A 
ATOM     47  C   UNL A   1      38.345  30.169  29.203  1.00  0.00     0.031 C 
ATOM     48  C   UNL A   1      37.861  34.465  34.576  1.00  0.00     0.029 A 
ATOM     49  C   UNL A   1      38.898  33.442  34.672  1.00  0.00     0.049 A 
ATOM     50  H   UNL A   1      39.413  32.022  33.239  1.00  0.00     0.167 HD
ATOM     51  C   UNL A   1      40.244  28.955  30.227  1.00  0.00     0.037 A 
ATOM     52  C   UNL A   1      39.708  33.251  35.731  1.00  0.00     0.037 A 
ATOM     53  C   UNL A   1      41.219  28.743  31.263  1.00  0.00     0.049 A 
ATOM     54  C   UNL A   1      40.738  32.155  35.677  1.00  0.00     0.074 A 
ATOM     55  C   UNL A   1      42.251  27.822  31.298  1.00  0.00     0.029 A 
ATOM     56  N   UNL A   1      41.280  29.458  32.450  1.00  0.00    -0.354 N 
ATOM     57  N   UNL A   1      40.981  31.296  34.716  1.00  0.00    -0.248 NA
ATOM     58  C   UNL A   1      41.610  32.007  36.850  1.00  0.00     0.031 C 
ATOM     59  C   UNL A   1      42.903  27.943  32.529  1.00  0.00     0.029 A 
ATOM     60  C   UNL A   1      42.316  28.980  33.236  1.00  0.00     0.049 A 
ATOM     61  H   UNL A   1      40.676  30.196  32.698  1.00  0.00     0.167 HD
ATOM     62  C   UNL A   1      42.051  30.526  35.157  1.00  0.00     0.074 A 
ATOM     63  C   UNL A   1      42.419  31.031  36.464  1.00  0.00     0.031 C 
ATOM     64  C   UNL A   1      42.673  29.495  34.534  1.00  0.00     0.037 A 
BRANCH  51  65
ATOM     65  C   UNL A   1      40.256  28.041  29.037  1.00  0.00     0.057 A 
ATOM     66  C   UNL A   1      39.527  26.844  29.015  1.00  0.00     0.134 A 
ATOM     67  C   UNL A   1      40.975  28.377  27.884  1.00  0.00     0.134 A 
ATOM     68  F   UNL A   1      38.826  26.454  30.091  1.00  0.00    -0.206 F 
ATOM     69  C   UNL A   1      39.537  26.002  27.901  1.00  0.00     0.040 A 
ATOM     70  C   UNL A   1      40.969  27.560  26.753  1.00  0.00     0.040 A 
ATOM     71  F   UNL A   1      41.691  29.511  27.834  1.00  0.00    -0.206 F 
ATOM     72  C   UNL A   1      40.254  26.364  26.763  1.00  0.00     0.006 A 
ENDBRANCH  51  65
BRANCH  52  73
ATOM     73  C   UNL A   1      39.592  34.126  36.925  1.00  0.00     0.057 A 
ATOM     74  C   UNL A   1      38.817  33.748  38.027  1.00  0.00     0.134 A 
ATOM     75  C   UNL A   1      40.245  35.363  36.993  1.00  0.00     0.134 A 
ATOM     76  F   UNL A   1      38.152  32.583  38.016  1.00  0.00    -0.206 F 
ATOM     77  C   UNL A   1      38.676  34.574  39.143  1.00  0.00     0.040 A 
ATOM     78  C   UNL A   1      40.137  36.187  38.114  1.00  0.00     0.040 A 
ATOM     79  F   UNL A   1      41.011  35.781  35.974  1.00  0.00    -0.206 F 
ATOM     80  C   UNL A   1      39.343  35.797  39.190  1.00  0.00     0.006 A 
ENDBRANCH  52  73
BRANCH  64  81
ATOM     81  C   UNL A   1      43.839  28.866  35.240  1.00  0.00     0.057 A 
ATOM     82  C   UNL A   1      45.150  29.324  35.064  1.00  0.00     0.134 A 
ATOM     83  C   UNL A   1      43.638  27.815  36.145  1.00  0.00     0.134 A 
ATOM     84  F   UNL A   1      45.413  30.320  34.204  1.00  0.00    -0.206 F 
ATOM     85  C   UNL A   1      46.223  28.744  35.742  1.00  0.00     0.040 A 
ATOM     86  C   UNL A   1      44.698  27.247  36.852  1.00  0.00     0.040 A 
ATOM     87  F   UNL A   1      42.405  27.334  36.370  1.00  0.00    -0.206 F 
ATOM     88  C   UNL A   1      45.997  27.707  36.646  1.00  0.00     0.006 A 
ENDBRANCH  64  81
ENDBRANCH  38  39
ENDBRANCH  30  33
ENDBRANCH  28  29
ENDBRANCH  27  28
ENDBRANCH  26  27
ENDBRANCH   1  26
TORSDOF 16
ENDMDL
MODEL 3
REMARK VINA RESULT:     -11.2      0.775      6.263
REMARK SMILES C[NH2+][C@@]1(C(=O)NCCCCNC(=O)c2ccc(-c3c4nc(c(-c5c(F)cccc5F)c5ccc([nH]5)c(-c5c(F)cccc5F)c5nc(c(-c6c(F)cccc6F)c6ccc3[nH]6)C=C5)C=C4)cc2)CCC[C@H]1CCSc1nccc(=O)[nH]1
REMARK SMILES IDX 7 1 6 2 4 3 5 4 3 6 68 7 71 8 69 9 70 10 2 11 1 12 72 15
REMARK SMILES IDX 73 16 74 17 75 18 76 19 81 20 77 21 79 22 78 24 80 25 8 26
REMARK SMILES IDX 9 27 10 28 11 29 12 30 13 32 14 33 15 34 67 35 16 36 66 37
REMARK SMILES IDX 17 38 18 39 19 40 60 41 20 42 65 43 59 44 61 45 21 46 64 47
REMARK SMILES IDX 58 48 57 49 22 51 48 52 31 53 47 54 32 55 35 56 46 57 62 58
REMARK SMILES IDX 33 59 34 60 45 62 63 63 36 64 23 65 24 66 29 67 25 68 26 69
REMARK SMILES IDX 28 70 30 71 27 72 49 73 50 74 55 75 51 76 52 77 54 78 56 79
REMARK SMILES IDX 53 80 37 81 38 82 43 83 39 84 40 85 42 86 44 87 41 88
REMARK H PARENT 6 5 2 13 2 14 81 23 11 31 61 50 35 61
REMARK Flexibility Score: inf
ROOT
ATOM      1  C   UNL A   1      32.665  28.573  25.950  1.00  0.00     0.116 C 
ENDROOT
BRANCH   1   2
ATOM      2  N   UNL A   1      33.310  27.315  26.224  1.00  0.00    -0.351 N 
ATOM      3  C   UNL A   1      33.099  26.056  25.752  1.00  0.00     0.281 C 
ATOM      4  O   UNL A   1      34.116  25.347  25.821  1.00  0.00    -0.268 OA
ATOM      5  H   UNL A   1      34.045  27.378  26.876  1.00  0.00     0.163 HD
BRANCH   3   6
ATOM      6  C   UNL A   1      31.754  25.498  25.086  1.00  0.00     0.178 C 
ATOM      7  C   UNL A   1      32.030  24.043  24.613  1.00  0.00     0.079 C 
ATOM      8  C   UNL A   1      31.241  26.218  23.785  1.00  0.00     0.061 C 
ATOM      9  C   UNL A   1      32.394  24.081  23.148  1.00  0.00     0.008 C 
ATOM     10  C   UNL A   1      31.690  25.306  22.593  1.00  0.00     0.011 C 
BRANCH   6  11
ATOM     11  N   UNL A   1      30.722  25.287  26.162  1.00  0.00    -0.336 N 
ATOM     12  C   UNL A   1      30.362  23.924  26.534  1.00  0.00     0.331 C 
ATOM     13  H   UNL A   1      31.070  25.746  27.004  1.00  0.00     0.346 HD
ATOM     14  H   UNL A   1      29.865  25.666  25.758  1.00  0.00     0.346 HD
ENDBRANCH   6  11
BRANCH   8  15
ATOM     15  C   UNL A   1      29.717  26.420  23.565  1.00  0.00     0.022 C 
BRANCH  15  16
ATOM     16  C   UNL A   1      29.076  27.807  23.529  1.00  0.00     0.079 C 
BRANCH  16  17
ATOM     17  S   UNL A   1      30.204  29.213  23.308  1.00  0.00    -0.088 SA
BRANCH  17  18
ATOM     18  C   UNL A   1      29.322  30.370  22.370  1.00  0.00     0.168 A 
ATOM     19  N   UNL A   1      28.674  30.109  21.287  1.00  0.00    -0.233 NA
ATOM     20  N   UNL A   1      29.382  31.604  22.933  1.00  0.00    -0.301 N 
ATOM     21  C   UNL A   1      28.006  31.153  20.700  1.00  0.00     0.120 A 
ATOM     22  C   UNL A   1      28.702  32.669  22.422  1.00  0.00     0.251 A 
ATOM     23  H   UNL A   1      29.934  31.734  23.737  1.00  0.00     0.172 HD
ATOM     24  C   UNL A   1      27.954  32.396  21.186  1.00  0.00     0.091 A 
ATOM     25  O   UNL A   1      28.688  33.771  22.947  1.00  0.00    -0.269 OA
ENDBRANCH  17  18
ENDBRANCH  16  17
ENDBRANCH  15  16
ENDBRANCH   8  15
ENDBRANCH   3   6
ENDBRANCH   1   2
BRANCH   1  26
ATOM     26  C   UNL A   1      32.401  29.439  27.170  1.00  0.00     0.023 C 
BRANCH  26  27
ATOM     27  C   UNL A   1      32.062  30.895  26.870  1.00  0.00     0.023 C 
BRANCH  27  28
ATOM     28  C   UNL A   1      33.145  31.910  27.217  1.00  0.00     0.116 C 
BRANCH  28  29
ATOM     29  N   UNL A   1      32.639  33.230  27.572  1.00  0.00    -0.352 N 
ATOM     30  C   UNL A   1      33.191  34.155  28.428  1.00  0.00     0.251 C 
ATOM     31  H   UNL A   1      31.791  33.493  27.144  1.00  0.00     0.163 HD
ATOM     32  O   UNL A   1      32.608  35.202  28.682  1.00  0.00    -0.269 OA
BRANCH  30  33
ATOM     33  C   UNL A   1      34.481  33.844  29.076  1.00  0.00     0.039 A 
ATOM     34  C   UNL A   1      34.484  33.087  30.248  1.00  0.00     0.014 A 
ATOM     35  C   UNL A   1      35.683  34.224  28.471  1.00  0.00     0.014 A 
ATOM     36  C   UNL A   1      35.697  32.633  30.768  1.00  0.00     0.010 A 
ATOM     37  C   UNL A   1      36.879  33.695  28.938  1.00  0.00     0.010 A 
ATOM     38  C   UNL A   1      36.900  32.891  30.088  1.00  0.00    -0.014 A 
BRANCH  38  39
ATOM     39  C   UNL A   1      38.188  32.320  30.558  1.00  0.00     0.031 A 
ATOM     40  C   UNL A   1      38.698  31.034  29.971  1.00  0.00     0.074 A 
ATOM     41  C   UNL A   1      38.859  32.917  31.562  1.00  0.00     0.049 A 
ATOM     42  N   UNL A   1      39.760  30.341  30.295  1.00  0.00    -0.248 NA
ATOM     43  C   UNL A   1      37.892  30.428  28.899  1.00  0.00     0.031 C 
ATOM     44  C   UNL A   1      38.439  34.137  32.256  1.00  0.00     0.029 A 
ATOM     45  N   UNL A   1      40.034  32.573  32.182  1.00  0.00    -0.354 N 
ATOM     46  C   UNL A   1      39.739  29.215  29.482  1.00  0.00     0.074 A 
ATOM     47  C   UNL A   1      38.529  29.286  28.693  1.00  0.00     0.031 C 
ATOM     48  C   UNL A   1      39.355  34.452  33.186  1.00  0.00     0.029 A 
ATOM     49  C   UNL A   1      40.404  33.438  33.184  1.00  0.00     0.049 A 
ATOM     50  H   UNL A   1      40.563  31.781  31.932  1.00  0.00     0.167 HD
ATOM     51  C   UNL A   1      40.656  28.224  29.382  1.00  0.00     0.037 A 
ATOM     52  C   UNL A   1      41.466  33.414  34.013  1.00  0.00     0.037 A 
ATOM     53  C   UNL A   1      41.871  28.172  30.150  1.00  0.00     0.049 A 
ATOM     54  C   UNL A   1      42.471  32.303  33.883  1.00  0.00     0.074 A 
ATOM     55  C   UNL A   1      42.899  27.248  30.074  1.00  0.00     0.029 A 
ATOM     56  N   UNL A   1      42.222  29.079  31.139  1.00  0.00    -0.354 N 
ATOM     57  N   UNL A   1      42.478  31.286  33.054  1.00  0.00    -0.248 NA
ATOM     58  C   UNL A   1      43.622  32.339  34.797  1.00  0.00     0.031 C 
ATOM     59  C   UNL A   1      43.845  27.564  31.054  1.00  0.00     0.029 A 
ATOM     60  C   UNL A   1      43.436  28.721  31.700  1.00  0.00     0.049 A 
ATOM     61  H   UNL A   1      41.686  29.861  31.405  1.00  0.00     0.167 HD
ATOM     62  C   UNL A   1      43.643  30.580  33.328  1.00  0.00     0.074 A 
ATOM     63  C   UNL A   1      44.325  31.293  34.387  1.00  0.00     0.031 C 
ATOM     64  C   UNL A   1      44.106  29.443  32.752  1.00  0.00     0.037 A 
BRANCH  51  65
ATOM     65  C   UNL A   1      40.380  27.119  28.406  1.00  0.00     0.057 A 
ATOM     66  C   UNL A   1      39.512  26.060  28.709  1.00  0.00     0.134 A 
ATOM     67  C   UNL A   1      40.961  27.129  27.131  1.00  0.00     0.134 A 
ATOM     68  F   UNL A   1      38.933  25.981  29.918  1.00  0.00    -0.206 F 
ATOM     69  C   UNL A   1      39.255  25.040  27.793  1.00  0.00     0.040 A 
ATOM     70  C   UNL A   1      40.687  26.131  26.195  1.00  0.00     0.040 A 
ATOM     71  F   UNL A   1      41.797  28.115  26.771  1.00  0.00    -0.206 F 
ATOM     72  C   UNL A   1      39.838  25.078  26.528  1.00  0.00     0.006 A 
ENDBRANCH  51  65
BRANCH  52  73
ATOM     73  C   UNL A   1      41.643  34.484  35.027  1.00  0.00     0.057 A 
ATOM     74  C   UNL A   1      42.345  35.657  34.727  1.00  0.00     0.134 A 
ATOM     75  C   UNL A   1      41.125  34.359  36.323  1.00  0.00     0.134 A 
ATOM     76  F   UNL A   1      42.882  35.829  33.510  1.00  0.00    -0.206 F 
ATOM     77  C   UNL A   1      42.544  36.657  35.680  1.00  0.00     0.040 A 
ATOM     78  C   UNL A   1      41.292  35.363  37.278  1.00  0.00     0.040 A 
ATOM     79  F   UNL A   1      40.436  33.262  36.673  1.00  0.00    -0.206 F 
ATOM     80  C   UNL A   1      42.011  36.512  36.960  1.00  0.00     0.006 A 
ENDBRANCH  52  73
BRANCH  64  81
ATOM     81  C   UNL A   1      45.430  28.919  33.228  1.00  0.00     0.057 A 
ATOM     82  C   UNL A   1      46.641  29.336  32.664  1.00  0.00     0.134 A 
ATOM     83  C   UNL A   1      45.492  28.017  34.300  1.00  0.00     0.134 A 
ATOM     84  F   UNL A   1      46.651  30.189  31.629  1.00  0.00    -0.206 F 
ATOM     85  C   UNL A   1      47.866  28.857  33.130  1.00  0.00     0.040 A 
ATOM     86  C   UNL A   1      46.712  27.555  34.794  1.00  0.00     0.040 A 
ATOM     87  F   UNL A   1      44.370  27.585  34.894  1.00  0.00    -0.206 F 
ATOM     88  C   UNL A   1      47.904  27.969  34.204  1.00  0.00     0.006 A 
ENDBRANCH  64  81
ENDBRANCH  38  39
ENDBRANCH  30  33
ENDBRANCH  28  29
ENDBRANCH  27  28
ENDBRANCH  26  27
ENDBRANCH   1  26
TORSDOF 16
ENDMDL
