MODEL 1
REMARK VINA RESULT:     -12.4      0.000      0.000
REMARK SMILES Cc1ccc(S(=O)(=O)N2CCC(C(=O)N3CCC[C@@H](C(=O)NCCCCNC(=O)c4ccc(-c5c6nc(c(-c7c(F)cccc7F)c7ccc([nH]7)c(-c7c(F)cccc7F)c7nc(c(-c8c(F)cccc8F)c8ccc5[nH]8)C=C7)C=C6)cc4)C3)CC2)cc1
REMARK SMILES IDX 23 1 22 2 20 3 21 4 19 6 15 7 16 8 84 9 17 10 18 11 13 12
REMARK SMILES IDX 14 13 12 14 9 15 10 16 86 17 11 18 85 19 6 20 7 21 8 22 5 23
REMARK SMILES IDX 1 24 2 25 3 26 88 27 4 28 87 29 24 30 25 31 26 32 27 33
REMARK SMILES IDX 28 34 29 36 30 37 31 38 83 39 32 40 82 41 33 42 34 43 35 44
REMARK SMILES IDX 76 45 36 46 81 47 75 48 77 49 37 50 80 51 74 52 73 53 38 55
REMARK SMILES IDX 64 56 47 57 63 58 48 59 51 60 62 61 78 62 49 63 50 64 61 66
REMARK SMILES IDX 79 67 52 68 39 69 40 70 45 71 41 72 42 73 44 74 46 75 43 76
REMARK SMILES IDX 65 77 66 78 71 79 67 80 68 81 70 82 72 83 69 84 53 85 54 86
REMARK SMILES IDX 59 87 55 88 56 89 58 90 60 91 57 92
REMARK H PARENT 22 5 27 35 77 54 51 65
REMARK Flexibility Score: inf
ROOT
ATOM      1  C   UNL A   1      34.224  23.425  25.062  1.00  0.00     0.116 C 
ENDROOT
BRANCH   1   2
ATOM      2  N   UNL A   1      34.262  24.004  23.734  1.00  0.00    -0.356 N 
ATOM      3  C   UNL A   1      33.640  25.059  23.158  1.00  0.00     0.224 C 
ATOM      4  O   UNL A   1      33.957  25.293  21.984  1.00  0.00    -0.275 OA
ATOM      5  H   UNL A   1      34.868  23.529  23.121  1.00  0.00     0.163 HD
BRANCH   3   6
ATOM      6  C   UNL A   1      32.526  25.884  23.795  1.00  0.00     0.098 C 
ATOM      7  N   UNL A   1      32.159  27.800  25.336  1.00  0.00    -0.342 N 
ATOM      8  C   UNL A   1      31.069  28.307  24.513  1.00  0.00     0.119 C 
ATOM      9  C   UNL A   1      33.165  26.971  24.668  1.00  0.00     0.133 C 
ATOM     10  C   UNL A   1      30.374  27.178  23.772  1.00  0.00     0.022 C 
ATOM     11  C   UNL A   1      31.409  26.447  22.921  1.00  0.00     0.017 C 
BRANCH   7  12
ATOM     12  C   UNL A   1      32.078  27.994  26.700  1.00  0.00     0.225 C 
ATOM     13  O   UNL A   1      31.152  27.518  27.364  1.00  0.00    -0.275 OA
BRANCH  12  14
ATOM     14  C   UNL A   1      32.963  29.064  27.325  1.00  0.00     0.081 C 
ATOM     15  N   UNL A   1      34.605  31.409  27.584  1.00  0.00    -0.198 NA
ATOM     16  C   UNL A   1      35.172  30.073  27.893  1.00  0.00     0.103 C 
ATOM     17  C   UNL A   1      33.131  31.554  27.641  1.00  0.00     0.103 C 
ATOM     18  C   UNL A   1      34.462  29.002  27.077  1.00  0.00     0.030 C 
ATOM     19  C   UNL A   1      32.437  30.435  26.889  1.00  0.00     0.030 C 
BRANCH  15  20
ATOM     20  S   UNL A   1      35.523  32.758  28.073  1.00  0.00     0.243 S 
ATOM     21  O   UNL A   1      34.924  33.930  27.452  1.00  0.00    -0.207 OA
ATOM     22  O   UNL A   1      36.914  32.441  27.878  1.00  0.00    -0.207 OA
BRANCH  20  23
ATOM     23  C   UNL A   1      35.285  32.956  29.829  1.00  0.00     0.082 A 
ATOM     24  C   UNL A   1      34.575  33.644  34.017  1.00  0.00     0.044 C 
ATOM     25  C   UNL A   1      34.827  33.407  32.558  1.00  0.00    -0.051 A 
ATOM     26  C   UNL A   1      34.560  34.411  31.621  1.00  0.00     0.005 A 
ATOM     27  C   UNL A   1      35.329  32.179  32.119  1.00  0.00     0.005 A 
ATOM     28  C   UNL A   1      34.786  34.189  30.261  1.00  0.00     0.022 A 
ATOM     29  C   UNL A   1      35.558  31.956  30.761  1.00  0.00     0.022 A 
ENDBRANCH  20  23
ENDBRANCH  15  20
ENDBRANCH  12  14
ENDBRANCH   7  12
ENDBRANCH   3   6
ENDBRANCH   1   2
BRANCH   1  30
ATOM     30  C   UNL A   1      35.591  23.440  25.750  1.00  0.00     0.023 C 
BRANCH  30  31
ATOM     31  C   UNL A   1      36.316  22.090  25.744  1.00  0.00     0.023 C 
BRANCH  31  32
ATOM     32  C   UNL A   1      37.762  22.166  25.277  1.00  0.00     0.116 C 
BRANCH  32  33
ATOM     33  N   UNL A   1      38.762  21.860  26.289  1.00  0.00    -0.352 N 
ATOM     34  C   UNL A   1      39.619  22.693  26.991  1.00  0.00     0.251 C 
ATOM     35  H   UNL A   1      38.843  20.905  26.512  1.00  0.00     0.163 HD
ATOM     36  O   UNL A   1      40.485  22.183  27.698  1.00  0.00    -0.269 OA
BRANCH  34  37
ATOM     37  C   UNL A   1      39.388  24.166  27.078  1.00  0.00     0.039 A 
ATOM     38  C   UNL A   1      39.946  24.950  26.052  1.00  0.00     0.014 A 
ATOM     39  C   UNL A   1      39.106  24.753  28.296  1.00  0.00     0.014 A 
ATOM     40  C   UNL A   1      40.556  26.153  26.375  1.00  0.00     0.010 A 
ATOM     41  C   UNL A   1      39.902  25.794  28.679  1.00  0.00     0.010 A 
ATOM     42  C   UNL A   1      40.664  26.462  27.719  1.00  0.00    -0.014 A 
BRANCH  42  43
ATOM     43  C   UNL A   1      41.440  27.539  28.280  1.00  0.00     0.031 A 
ATOM     44  C   UNL A   1      40.706  28.773  28.591  1.00  0.00     0.074 A 
ATOM     45  C   UNL A   1      42.652  27.233  28.791  1.00  0.00     0.049 A 
ATOM     46  N   UNL A   1      41.259  29.853  28.999  1.00  0.00    -0.248 NA
ATOM     47  C   UNL A   1      39.257  28.900  28.431  1.00  0.00     0.031 C 
ATOM     48  C   UNL A   1      43.395  27.922  29.837  1.00  0.00     0.029 A 
ATOM     49  N   UNL A   1      43.557  26.281  28.304  1.00  0.00    -0.354 N 
ATOM     50  C   UNL A   1      40.259  30.672  29.473  1.00  0.00     0.074 A 
ATOM     51  C   UNL A   1      39.039  30.105  28.963  1.00  0.00     0.031 C 
ATOM     52  C   UNL A   1      44.697  27.601  29.730  1.00  0.00     0.029 A 
ATOM     53  C   UNL A   1      44.843  26.844  28.498  1.00  0.00     0.049 A 
ATOM     54  H   UNL A   1      43.344  25.405  27.908  1.00  0.00     0.167 HD
ATOM     55  C   UNL A   1      40.614  31.638  30.365  1.00  0.00     0.037 A 
ATOM     56  C   UNL A   1      45.576  27.250  27.413  1.00  0.00     0.037 A 
ATOM     57  C   UNL A   1      42.072  31.668  30.500  1.00  0.00     0.049 A 
ATOM     58  C   UNL A   1      45.806  28.751  27.356  1.00  0.00     0.074 A 
ATOM     59  C   UNL A   1      42.980  31.177  31.422  1.00  0.00     0.029 A 
ATOM     60  N   UNL A   1      42.806  31.992  29.380  1.00  0.00    -0.354 N 
ATOM     61  N   UNL A   1      45.207  29.611  28.134  1.00  0.00    -0.248 NA
ATOM     62  C   UNL A   1      46.680  29.411  26.387  1.00  0.00     0.031 C 
ATOM     63  C   UNL A   1      44.273  31.198  30.812  1.00  0.00     0.029 A 
ATOM     64  C   UNL A   1      44.144  31.725  29.538  1.00  0.00     0.049 A 
ATOM     65  H   UNL A   1      42.416  32.373  28.560  1.00  0.00     0.167 HD
ATOM     66  C   UNL A   1      45.551  30.888  27.779  1.00  0.00     0.074 A 
ATOM     67  C   UNL A   1      46.467  30.710  26.667  1.00  0.00     0.031 C 
ATOM     68  C   UNL A   1      45.026  31.982  28.409  1.00  0.00     0.037 A 
BRANCH  55  69
ATOM     69  C   UNL A   1      39.707  32.448  31.259  1.00  0.00     0.057 A 
ATOM     70  C   UNL A   1      39.101  33.615  30.744  1.00  0.00     0.134 A 
ATOM     71  C   UNL A   1      39.426  32.211  32.615  1.00  0.00     0.134 A 
ATOM     72  F   UNL A   1      39.211  33.956  29.453  1.00  0.00    -0.206 F 
ATOM     73  C   UNL A   1      38.349  34.498  31.526  1.00  0.00     0.040 A 
ATOM     74  C   UNL A   1      38.665  33.082  33.408  1.00  0.00     0.040 A 
ATOM     75  F   UNL A   1      39.854  31.129  33.266  1.00  0.00    -0.206 F 
ATOM     76  C   UNL A   1      38.137  34.241  32.868  1.00  0.00     0.006 A 
ENDBRANCH  55  69
BRANCH  56  77
ATOM     77  C   UNL A   1      45.331  26.355  26.239  1.00  0.00     0.057 A 
ATOM     78  C   UNL A   1      45.969  25.097  26.238  1.00  0.00     0.134 A 
ATOM     79  C   UNL A   1      44.157  26.471  25.490  1.00  0.00     0.134 A 
ATOM     80  F   UNL A   1      47.114  24.923  26.919  1.00  0.00    -0.206 F 
ATOM     81  C   UNL A   1      45.358  23.963  25.698  1.00  0.00     0.040 A 
ATOM     82  C   UNL A   1      43.554  25.344  24.915  1.00  0.00     0.040 A 
ATOM     83  F   UNL A   1      43.495  27.636  25.431  1.00  0.00    -0.206 F 
ATOM     84  C   UNL A   1      44.117  24.079  25.079  1.00  0.00     0.006 A 
ENDBRANCH  56  77
BRANCH  68  85
ATOM     85  C   UNL A   1      45.275  33.412  28.000  1.00  0.00     0.057 A 
ATOM     86  C   UNL A   1      44.692  33.989  26.868  1.00  0.00     0.134 A 
ATOM     87  C   UNL A   1      46.215  34.227  28.675  1.00  0.00     0.134 A 
ATOM     88  F   UNL A   1      43.843  33.293  26.099  1.00  0.00    -0.206 F 
ATOM     89  C   UNL A   1      44.985  35.300  26.468  1.00  0.00     0.040 A 
ATOM     90  C   UNL A   1      46.565  35.507  28.245  1.00  0.00     0.040 A 
ATOM     91  F   UNL A   1      46.818  33.839  29.808  1.00  0.00    -0.206 F 
ATOM     92  C   UNL A   1      45.933  36.058  27.146  1.00  0.00     0.006 A 
ENDBRANCH  68  85
ENDBRANCH  42  43
ENDBRANCH  34  37
ENDBRANCH  32  33
ENDBRANCH  31  32
ENDBRANCH  30  31
ENDBRANCH   1  30
TORSDOF 15
ENDMDL
MODEL 2
REMARK VINA RESULT:     -12.3      3.216      5.473
REMARK SMILES Cc1ccc(S(=O)(=O)N2CCC(C(=O)N3CCC[C@@H](C(=O)NCCCCNC(=O)c4ccc(-c5c6nc(c(-c7c(F)cccc7F)c7ccc([nH]7)c(-c7c(F)cccc7F)c7nc(c(-c8c(F)cccc8F)c8ccc5[nH]8)C=C7)C=C6)cc4)C3)CC2)cc1
REMARK SMILES IDX 23 1 22 2 20 3 21 4 19 6 15 7 16 8 84 9 17 10 18 11 13 12
REMARK SMILES IDX 14 13 12 14 9 15 10 16 86 17 11 18 85 19 6 20 7 21 8 22 5 23
REMARK SMILES IDX 1 24 2 25 3 26 88 27 4 28 87 29 24 30 25 31 26 32 27 33
REMARK SMILES IDX 28 34 29 36 30 37 31 38 83 39 32 40 82 41 33 42 34 43 35 44
REMARK SMILES IDX 76 45 36 46 81 47 75 48 77 49 37 50 80 51 74 52 73 53 38 55
REMARK SMILES IDX 64 56 47 57 63 58 48 59 51 60 62 61 78 62 49 63 50 64 61 66
REMARK SMILES IDX 79 67 52 68 39 69 40 70 45 71 41 72 42 73 44 74 46 75 43 76
REMARK SMILES IDX 65 77 66 78 71 79 67 80 68 81 70 82 72 83 69 84 53 85 54 86
REMARK SMILES IDX 59 87 55 88 56 89 58 90 60 91 57 92
REMARK H PARENT 22 5 27 35 77 54 51 65
REMARK Flexibility Score: inf
ROOT
ATOM      1  C   UNL A   1      38.387  23.132  26.114  1.00  0.00     0.116 C 
ENDROOT
BRANCH   1   2
ATOM      2  N   UNL A   1      38.201  21.777  25.635  1.00  0.00    -0.356 N 
ATOM      3  C   UNL A   1      37.116  21.061  25.258  1.00  0.00     0.224 C 
ATOM      4  O   UNL A   1      37.346  19.913  24.852  1.00  0.00    -0.275 OA
ATOM      5  H   UNL A   1      39.042  21.270  25.572  1.00  0.00     0.163 HD
BRANCH   3   6
ATOM      6  C   UNL A   1      35.666  21.511  25.403  1.00  0.00     0.098 C 
ATOM      7  N   UNL A   1      33.348  20.830  24.820  1.00  0.00    -0.342 N 
ATOM      8  C   UNL A   1      32.849  21.266  26.117  1.00  0.00     0.119 C 
ATOM      9  C   UNL A   1      34.764  20.462  24.743  1.00  0.00     0.133 C 
ATOM     10  C   UNL A   1      33.691  22.402  26.672  1.00  0.00     0.022 C 
ATOM     11  C   UNL A   1      35.138  21.928  26.772  1.00  0.00     0.017 C 
BRANCH   7  12
ATOM     12  C   UNL A   1      32.506  20.951  23.734  1.00  0.00     0.225 C 
ATOM     13  O   UNL A   1      32.180  19.970  23.060  1.00  0.00    -0.275 OA
BRANCH  12  14
ATOM     14  C   UNL A   1      32.242  22.348  23.185  1.00  0.00     0.081 C 
ATOM     15  N   UNL A   1      32.401  25.196  22.838  1.00  0.00    -0.198 NA
ATOM     16  C   UNL A   1      31.107  24.568  23.202  1.00  0.00     0.103 C 
ATOM     17  C   UNL A   1      33.418  24.335  22.189  1.00  0.00     0.103 C 
ATOM     18  C   UNL A   1      31.350  23.285  23.984  1.00  0.00     0.030 C 
ATOM     19  C   UNL A   1      33.591  23.027  22.936  1.00  0.00     0.030 C 
BRANCH  15  20
ATOM     20  S   UNL A   1      32.343  26.821  22.332  1.00  0.00     0.243 S 
ATOM     21  O   UNL A   1      30.996  27.068  21.839  1.00  0.00    -0.207 OA
ATOM     22  O   UNL A   1      33.496  27.069  21.505  1.00  0.00    -0.207 OA
BRANCH  20  23
ATOM     23  C   UNL A   1      32.528  27.839  23.785  1.00  0.00     0.082 A 
ATOM     24  C   UNL A   1      33.218  30.218  27.304  1.00  0.00     0.044 C 
ATOM     25  C   UNL A   1      32.975  29.385  26.081  1.00  0.00    -0.051 A 
ATOM     26  C   UNL A   1      33.892  28.397  25.704  1.00  0.00     0.005 A 
ATOM     27  C   UNL A   1      31.833  29.589  25.303  1.00  0.00     0.005 A 
ATOM     28  C   UNL A   1      33.672  27.626  24.560  1.00  0.00     0.022 A 
ATOM     29  C   UNL A   1      31.610  28.819  24.162  1.00  0.00     0.022 A 
ENDBRANCH  20  23
ENDBRANCH  15  20
ENDBRANCH  12  14
ENDBRANCH   7  12
ENDBRANCH   3   6
ENDBRANCH   1   2
BRANCH   1  30
ATOM     30  C   UNL A   1      39.697  23.310  26.886  1.00  0.00     0.023 C 
BRANCH  30  31
ATOM     31  C   UNL A   1      40.775  22.276  26.546  1.00  0.00     0.023 C 
BRANCH  31  32
ATOM     32  C   UNL A   1      41.948  22.841  25.759  1.00  0.00     0.116 C 
BRANCH  32  33
ATOM     33  N   UNL A   1      42.841  21.853  25.172  1.00  0.00    -0.352 N 
ATOM     34  C   UNL A   1      44.198  21.914  24.897  1.00  0.00     0.251 C 
ATOM     35  H   UNL A   1      42.411  21.001  24.933  1.00  0.00     0.163 HD
ATOM     36  O   UNL A   1      44.710  20.995  24.260  1.00  0.00    -0.269 OA
BRANCH  34  37
ATOM     37  C   UNL A   1      45.082  22.941  25.524  1.00  0.00     0.039 A 
ATOM     38  C   UNL A   1      45.221  22.879  26.922  1.00  0.00     0.014 A 
ATOM     39  C   UNL A   1      45.323  24.137  24.876  1.00  0.00     0.014 A 
ATOM     40  C   UNL A   1      45.210  24.056  27.657  1.00  0.00     0.010 A 
ATOM     41  C   UNL A   1      45.064  25.281  25.574  1.00  0.00     0.010 A 
ATOM     42  C   UNL A   1      44.960  25.227  26.964  1.00  0.00    -0.014 A 
BRANCH  42  43
ATOM     43  C   UNL A   1      44.693  26.516  27.551  1.00  0.00     0.031 A 
ATOM     44  C   UNL A   1      43.315  27.011  27.425  1.00  0.00     0.074 A 
ATOM     45  C   UNL A   1      45.587  26.991  28.444  1.00  0.00     0.049 A 
ATOM     46  N   UNL A   1      42.935  28.174  27.801  1.00  0.00    -0.248 NA
ATOM     47  C   UNL A   1      42.238  26.227  26.820  1.00  0.00     0.031 C 
ATOM     48  C   UNL A   1      45.365  27.925  29.540  1.00  0.00     0.029 A 
ATOM     49  N   UNL A   1      46.978  26.833  28.411  1.00  0.00    -0.354 N 
ATOM     50  C   UNL A   1      41.558  28.170  27.814  1.00  0.00     0.074 A 
ATOM     51  C   UNL A   1      41.181  27.005  27.061  1.00  0.00     0.031 C 
ATOM     52  C   UNL A   1      46.541  28.483  29.881  1.00  0.00     0.029 A 
ATOM     53  C   UNL A   1      47.512  28.056  28.888  1.00  0.00     0.049 A 
ATOM     54  H   UNL A   1      47.480  26.039  28.116  1.00  0.00     0.167 HD
ATOM     55  C   UNL A   1      40.939  29.092  28.604  1.00  0.00     0.037 A 
ATOM     56  C   UNL A   1      48.165  28.894  28.023  1.00  0.00     0.037 A 
ATOM     57  C   UNL A   1      41.937  30.006  29.164  1.00  0.00     0.049 A 
ATOM     58  C   UNL A   1      47.453  30.218  27.796  1.00  0.00     0.074 A 
ATOM     59  C   UNL A   1      42.583  30.124  30.382  1.00  0.00     0.029 A 
ATOM     60  N   UNL A   1      42.651  30.783  28.278  1.00  0.00    -0.354 N 
ATOM     61  N   UNL A   1      46.242  30.474  28.210  1.00  0.00    -0.248 NA
ATOM     62  C   UNL A   1      48.018  31.335  27.040  1.00  0.00     0.031 C 
ATOM     63  C   UNL A   1      43.716  30.976  30.192  1.00  0.00     0.029 A 
ATOM     64  C   UNL A   1      43.733  31.389  28.871  1.00  0.00     0.049 A 
ATOM     65  H   UNL A   1      42.414  30.893  27.329  1.00  0.00     0.167 HD
ATOM     66  C   UNL A   1      45.846  31.710  27.774  1.00  0.00     0.074 A 
ATOM     67  C   UNL A   1      46.991  32.205  27.031  1.00  0.00     0.031 C 
ATOM     68  C   UNL A   1      44.598  32.206  28.032  1.00  0.00     0.037 A 
BRANCH  55  69
ATOM     69  C   UNL A   1      39.495  29.112  29.042  1.00  0.00     0.057 A 
ATOM     70  C   UNL A   1      38.499  29.458  28.104  1.00  0.00     0.134 A 
ATOM     71  C   UNL A   1      39.002  28.879  30.338  1.00  0.00     0.134 A 
ATOM     72  F   UNL A   1      38.786  29.650  26.809  1.00  0.00    -0.206 F 
ATOM     73  C   UNL A   1      37.152  29.628  28.441  1.00  0.00     0.040 A 
ATOM     74  C   UNL A   1      37.653  29.036  30.687  1.00  0.00     0.040 A 
ATOM     75  F   UNL A   1      39.776  28.481  31.348  1.00  0.00    -0.206 F 
ATOM     76  C   UNL A   1      36.724  29.428  29.741  1.00  0.00     0.006 A 
ENDBRANCH  55  69
BRANCH  56  77
ATOM     77  C   UNL A   1      48.916  28.115  26.989  1.00  0.00     0.057 A 
ATOM     78  C   UNL A   1      50.093  27.456  27.402  1.00  0.00     0.134 A 
ATOM     79  C   UNL A   1      48.254  27.591  25.874  1.00  0.00     0.134 A 
ATOM     80  F   UNL A   1      50.790  27.920  28.452  1.00  0.00    -0.206 F 
ATOM     81  C   UNL A   1      50.471  26.222  26.867  1.00  0.00     0.040 A 
ATOM     82  C   UNL A   1      48.647  26.371  25.310  1.00  0.00     0.040 A 
ATOM     83  F   UNL A   1      47.133  28.165  25.413  1.00  0.00    -0.206 F 
ATOM     84  C   UNL A   1      49.713  25.651  25.850  1.00  0.00     0.006 A 
ENDBRANCH  56  77
BRANCH  68  85
ATOM     85  C   UNL A   1      44.060  33.506  27.492  1.00  0.00     0.057 A 
ATOM     86  C   UNL A   1      43.647  34.555  28.318  1.00  0.00     0.134 A 
ATOM     87  C   UNL A   1      43.825  33.700  26.110  1.00  0.00     0.134 A 
ATOM     88  F   UNL A   1      43.743  34.464  29.651  1.00  0.00    -0.206 F 
ATOM     89  C   UNL A   1      43.088  35.733  27.800  1.00  0.00     0.040 A 
ATOM     90  C   UNL A   1      43.207  34.837  25.590  1.00  0.00     0.040 A 
ATOM     91  F   UNL A   1      44.215  32.810  25.185  1.00  0.00    -0.206 F 
ATOM     92  C   UNL A   1      42.853  35.872  26.437  1.00  0.00     0.006 A 
ENDBRANCH  68  85
ENDBRANCH  42  43
ENDBRANCH  34  37
ENDBRANCH  32  33
ENDBRANCH  31  32
ENDBRANCH  30  31
ENDBRANCH   1  30
TORSDOF 15
ENDMDL
MODEL 3
REMARK VINA RESULT:     -11.8      2.882      5.118
REMARK SMILES Cc1ccc(S(=O)(=O)N2CCC(C(=O)N3CCC[C@@H](C(=O)NCCCCNC(=O)c4ccc(-c5c6nc(c(-c7c(F)cccc7F)c7ccc([nH]7)c(-c7c(F)cccc7F)c7nc(c(-c8c(F)cccc8F)c8ccc5[nH]8)C=C7)C=C6)cc4)C3)CC2)cc1
REMARK SMILES IDX 23 1 22 2 20 3 21 4 19 6 15 7 16 8 84 9 17 10 18 11 13 12
REMARK SMILES IDX 14 13 12 14 9 15 10 16 86 17 11 18 85 19 6 20 7 21 8 22 5 23
REMARK SMILES IDX 1 24 2 25 3 26 88 27 4 28 87 29 24 30 25 31 26 32 27 33
REMARK SMILES IDX 28 34 29 36 30 37 31 38 83 39 32 40 82 41 33 42 34 43 35 44
REMARK SMILES IDX 76 45 36 46 81 47 75 48 77 49 37 50 80 51 74 52 73 53 38 55
REMARK SMILES IDX 64 56 47 57 63 58 48 59 51 60 62 61 78 62 49 63 50 64 61 66
REMARK SMILES IDX 79 67 52 68 39 69 40 70 45 71 41 72 42 73 44 74 46 75 43 76
REMARK SMILES IDX 65 77 66 78 71 79 67 80 68 81 70 82 72 83 69 84 53 85 54 86
REMARK SMILES IDX 59 87 55 88 56 89 58 90 60 91 57 92
REMARK H PARENT 22 5 27 35 77 54 51 65
REMARK Flexibility Score: inf
ROOT
ATOM      1  C   UNL A   1      38.251  21.830  25.875  1.00  0.00     0.116 C 
ENDROOT
BRANCH   1   2
ATOM      2  N   UNL A   1      37.783  22.298  24.586  1.00  0.00    -0.356 N 
ATOM      3  C   UNL A   1      36.556  22.427  24.029  1.00  0.00     0.224 C 
ATOM      4  O   UNL A   1      36.533  22.917  22.892  1.00  0.00    -0.275 OA
ATOM      5  H   UNL A   1      38.512  22.582  23.989  1.00  0.00     0.163 HD
BRANCH   3   6
ATOM      6  C   UNL A   1      35.253  21.918  24.636  1.00  0.00     0.098 C 
ATOM      7  N   UNL A   1      32.794  22.269  24.543  1.00  0.00    -0.342 N 
ATOM      8  C   UNL A   1      32.544  20.837  24.630  1.00  0.00     0.119 C 
ATOM      9  C   UNL A   1      34.089  22.685  23.998  1.00  0.00     0.133 C 
ATOM     10  C   UNL A   1      33.654  20.135  25.392  1.00  0.00     0.022 C 
ATOM     11  C   UNL A   1      34.979  20.418  24.687  1.00  0.00     0.017 C 
BRANCH   7  12
ATOM     12  C   UNL A   1      31.875  23.119  25.125  1.00  0.00     0.225 C 
ATOM     13  O   UNL A   1      30.728  22.746  25.385  1.00  0.00    -0.275 OA
BRANCH  12  14
ATOM     14  C   UNL A   1      32.192  24.609  25.149  1.00  0.00     0.081 C 
ATOM     15  N   UNL A   1      31.815  27.458  25.193  1.00  0.00    -0.198 NA
ATOM     16  C   UNL A   1      32.546  26.826  24.066  1.00  0.00     0.103 C 
ATOM     17  C   UNL A   1      31.745  26.704  26.467  1.00  0.00     0.103 C 
ATOM     18  C   UNL A   1      32.057  25.400  23.858  1.00  0.00     0.030 C 
ATOM     19  C   UNL A   1      31.333  25.263  26.234  1.00  0.00     0.030 C 
BRANCH  15  20
ATOM     20  S   UNL A   1      31.920  29.153  25.315  1.00  0.00     0.243 S 
ATOM     21  O   UNL A   1      33.196  29.545  24.733  1.00  0.00    -0.207 OA
ATOM     22  O   UNL A   1      31.572  29.523  26.663  1.00  0.00    -0.207 OA
BRANCH  20  23
ATOM     23  C   UNL A   1      30.664  29.843  24.254  1.00  0.00     0.082 A 
ATOM     24  C   UNL A   1      27.659  31.729  21.819  1.00  0.00     0.044 C 
ATOM     25  C   UNL A   1      28.702  31.070  22.671  1.00  0.00    -0.051 A 
ATOM     26  C   UNL A   1      29.144  31.682  23.849  1.00  0.00     0.005 A 
ATOM     27  C   UNL A   1      29.245  29.839  22.295  1.00  0.00     0.005 A 
ATOM     28  C   UNL A   1      30.122  31.073  24.640  1.00  0.00     0.022 A 
ATOM     29  C   UNL A   1      30.221  29.229  23.084  1.00  0.00     0.022 A 
ENDBRANCH  20  23
ENDBRANCH  15  20
ENDBRANCH  12  14
ENDBRANCH   7  12
ENDBRANCH   3   6
ENDBRANCH   1   2
BRANCH   1  30
ATOM     30  C   UNL A   1      39.279  22.773  26.506  1.00  0.00     0.023 C 
BRANCH  30  31
ATOM     31  C   UNL A   1      40.630  22.120  26.813  1.00  0.00     0.023 C 
BRANCH  31  32
ATOM     32  C   UNL A   1      41.798  22.724  26.048  1.00  0.00     0.116 C 
BRANCH  32  33
ATOM     33  N   UNL A   1      42.662  21.769  25.370  1.00  0.00    -0.352 N 
ATOM     34  C   UNL A   1      43.989  21.870  24.984  1.00  0.00     0.251 C 
ATOM     35  H   UNL A   1      42.234  20.911  25.150  1.00  0.00     0.163 HD
ATOM     36  O   UNL A   1      44.468  20.975  24.289  1.00  0.00    -0.269 OA
BRANCH  34  37
ATOM     37  C   UNL A   1      44.898  22.907  25.555  1.00  0.00     0.039 A 
ATOM     38  C   UNL A   1      45.112  22.857  26.944  1.00  0.00     0.014 A 
ATOM     39  C   UNL A   1      45.095  24.100  24.886  1.00  0.00     0.014 A 
ATOM     40  C   UNL A   1      45.132  24.040  27.670  1.00  0.00     0.010 A 
ATOM     41  C   UNL A   1      44.865  25.248  25.589  1.00  0.00     0.010 A 
ATOM     42  C   UNL A   1      44.836  25.203  26.983  1.00  0.00    -0.014 A 
BRANCH  42  43
ATOM     43  C   UNL A   1      44.591  26.495  27.574  1.00  0.00     0.031 A 
ATOM     44  C   UNL A   1      43.207  26.984  27.509  1.00  0.00     0.074 A 
ATOM     45  C   UNL A   1      45.524  26.979  28.421  1.00  0.00     0.049 A 
ATOM     46  N   UNL A   1      42.840  28.148  27.895  1.00  0.00    -0.248 NA
ATOM     47  C   UNL A   1      42.106  26.192  26.960  1.00  0.00     0.031 C 
ATOM     48  C   UNL A   1      45.350  27.920  29.520  1.00  0.00     0.029 A 
ATOM     49  N   UNL A   1      46.913  26.827  28.324  1.00  0.00    -0.354 N 
ATOM     50  C   UNL A   1      41.466  28.139  27.973  1.00  0.00     0.074 A 
ATOM     51  C   UNL A   1      41.058  26.967  27.245  1.00  0.00     0.031 C 
ATOM     52  C   UNL A   1      46.538  28.484  29.803  1.00  0.00     0.029 A 
ATOM     53  C   UNL A   1      47.463  28.054  28.768  1.00  0.00     0.049 A 
ATOM     54  H   UNL A   1      47.404  26.032  28.011  1.00  0.00     0.167 HD
ATOM     55  C   UNL A   1      40.880  29.063  28.785  1.00  0.00     0.037 A 
ATOM     56  C   UNL A   1      48.072  28.890  27.868  1.00  0.00     0.037 A 
ATOM     57  C   UNL A   1      41.900  29.985  29.292  1.00  0.00     0.049 A 
ATOM     58  C   UNL A   1      47.345  30.209  27.667  1.00  0.00     0.074 A 
ATOM     59  C   UNL A   1      42.601  30.112  30.478  1.00  0.00     0.029 A 
ATOM     60  N   UNL A   1      42.568  30.759  28.369  1.00  0.00    -0.354 N 
ATOM     61  N   UNL A   1      46.153  30.463  28.136  1.00  0.00    -0.248 NA
ATOM     62  C   UNL A   1      47.869  31.323  26.879  1.00  0.00     0.031 C 
ATOM     63  C   UNL A   1      43.720  30.968  30.231  1.00  0.00     0.029 A 
ATOM     64  C   UNL A   1      43.674  31.373  28.907  1.00  0.00     0.049 A 
ATOM     65  H   UNL A   1      42.286  30.861  27.432  1.00  0.00     0.167 HD
ATOM     66  C   UNL A   1      45.732  31.694  27.711  1.00  0.00     0.074 A 
ATOM     67  C   UNL A   1      46.839  32.190  26.912  1.00  0.00     0.031 C 
ATOM     68  C   UNL A   1      44.496  32.187  28.024  1.00  0.00     0.037 A 
BRANCH  55  69
ATOM     69  C   UNL A   1      39.458  29.080  29.290  1.00  0.00     0.057 A 
ATOM     70  C   UNL A   1      38.423  29.465  28.411  1.00  0.00     0.134 A 
ATOM     71  C   UNL A   1      39.023  28.809  30.599  1.00  0.00     0.134 A 
ATOM     72  F   UNL A   1      38.652  29.697  27.111  1.00  0.00    -0.206 F 
ATOM     73  C   UNL A   1      37.095  29.634  28.816  1.00  0.00     0.040 A 
ATOM     74  C   UNL A   1      37.693  28.965  31.016  1.00  0.00     0.040 A 
ATOM     75  F   UNL A   1      39.839  28.372  31.559  1.00  0.00    -0.206 F 
ATOM     76  C   UNL A   1      36.725  29.396  30.127  1.00  0.00     0.006 A 
ENDBRANCH  55  69
BRANCH  56  77
ATOM     77  C   UNL A   1      48.777  28.107  26.805  1.00  0.00     0.057 A 
ATOM     78  C   UNL A   1      49.979  27.462  27.165  1.00  0.00     0.134 A 
ATOM     79  C   UNL A   1      48.065  27.567  25.730  1.00  0.00     0.134 A 
ATOM     80  F   UNL A   1      50.724  27.942  28.174  1.00  0.00    -0.206 F 
ATOM     81  C   UNL A   1      50.341  26.226  26.623  1.00  0.00     0.040 A 
ATOM     82  C   UNL A   1      48.440  26.345  25.158  1.00  0.00     0.040 A 
ATOM     83  F   UNL A   1      46.917  28.127  25.321  1.00  0.00    -0.206 F 
ATOM     84  C   UNL A   1      49.538  25.639  25.651  1.00  0.00     0.006 A 
ENDBRANCH  56  77
BRANCH  68  85
ATOM     85  C   UNL A   1      43.927  33.482  27.502  1.00  0.00     0.057 A 
ATOM     86  C   UNL A   1      43.668  33.704  26.147  1.00  0.00     0.134 A 
ATOM     87  C   UNL A   1      43.732  34.604  28.343  1.00  0.00     0.134 A 
ATOM     88  F   UNL A   1      43.887  32.745  25.236  1.00  0.00    -0.206 F 
ATOM     89  C   UNL A   1      43.200  34.937  25.671  1.00  0.00     0.040 A 
ATOM     90  C   UNL A   1      43.334  35.854  27.872  1.00  0.00     0.040 A 
ATOM     91  F   UNL A   1      43.885  34.537  29.674  1.00  0.00    -0.206 F 
ATOM     92  C   UNL A   1      43.045  36.020  26.530  1.00  0.00     0.006 A 
ENDBRANCH  68  85
ENDBRANCH  42  43
ENDBRANCH  34  37
ENDBRANCH  32  33
ENDBRANCH  31  32
ENDBRANCH  30  31
ENDBRANCH   1  30
TORSDOF 15
ENDMDL
