MODEL 1
REMARK VINA RESULT:     -12.0      0.000      0.000
REMARK SMILES C[C@@H](C(=O)NCCCCNC(=O)c1ccc(-c2c3nc(c(-c4c(F)cccc4F)c4ccc([nH]4)c(-c4c(F)cccc4F)c4nc(c(-c5c(F)cccc5F)c5ccc2[nH]5)C=C4)C=C3)cc1)c1ccc2c(c1)[nH]c1ccc(Cl)cc12
REMARK SMILES IDX 8 1 7 2 6 3 5 4 3 5 4 6 2 8 1 9 67 10 68 11 72 12 69 13
REMARK SMILES IDX 71 14 70 15 73 16 80 17 74 18 79 20 75 21 77 22 76 23 78 24
REMARK SMILES IDX 9 25 10 26 11 27 12 29 13 30 14 31 66 32 15 33 65 34 16 35
REMARK SMILES IDX 17 36 18 37 59 38 19 39 64 40 58 41 60 42 20 43 63 44 57 45
REMARK SMILES IDX 56 46 21 48 47 49 30 50 46 51 31 52 34 53 45 54 61 55 32 56
REMARK SMILES IDX 33 57 44 59 62 60 35 61 22 62 23 63 28 64 24 65 25 66 27 67
REMARK SMILES IDX 29 68 26 69 48 70 49 71 54 72 50 73 51 74 53 75 55 76 52 77
REMARK SMILES IDX 36 78 37 79 42 80 38 81 39 82 41 83 43 84 40 85
REMARK H PARENT 5 7 73 19 10 28 60 47 34 58
REMARK Flexibility Score: inf
ROOT
ATOM      1  C   UNL A   1      33.654  28.601  25.899  1.00  0.00     0.023 C 
ENDROOT
BRANCH   1   2
ATOM      2  C   UNL A   1      32.889  29.660  25.093  1.00  0.00     0.023 C 
BRANCH   2   3
ATOM      3  C   UNL A   1      31.384  29.413  24.975  1.00  0.00     0.116 C 
BRANCH   3   4
ATOM      4  N   UNL A   1      30.902  29.733  23.649  1.00  0.00    -0.356 N 
ATOM      5  C   UNL A   1      30.375  28.961  22.660  1.00  0.00     0.227 C 
ATOM      6  O   UNL A   1      30.078  29.567  21.626  1.00  0.00    -0.274 OA
ATOM      7  H   UNL A   1      30.968  30.688  23.418  1.00  0.00     0.163 HD
BRANCH   5   8
ATOM      8  C   UNL A   1      30.101  27.452  22.854  1.00  0.00     0.105 C 
ATOM      9  C   UNL A   1      28.938  27.131  23.805  1.00  0.00     0.023 C 
BRANCH   8  10
ATOM     10  C   UNL A   1      31.336  26.723  23.398  1.00  0.00    -0.034 A 
ATOM     11  C   UNL A   1      32.555  26.733  22.708  1.00  0.00     0.005 A 
ATOM     12  C   UNL A   1      31.222  25.983  24.589  1.00  0.00     0.031 A 
ATOM     13  C   UNL A   1      33.659  25.996  23.175  1.00  0.00     0.011 A 
ATOM     14  C   UNL A   1      32.311  25.218  25.007  1.00  0.00     0.047 A 
ATOM     15  C   UNL A   1      33.530  25.204  24.337  1.00  0.00     0.007 A 
ATOM     16  N   UNL A   1      32.413  24.363  26.072  1.00  0.00    -0.355 N 
ATOM     17  C   UNL A   1      34.389  24.302  25.049  1.00  0.00     0.009 A 
ATOM     18  C   UNL A   1      33.638  23.744  26.087  1.00  0.00     0.047 A 
ATOM     19  H   UNL A   1      31.704  24.212  26.738  1.00  0.00     0.167 HD
ATOM     20  C   UNL A   1      35.724  23.879  24.891  1.00  0.00     0.031 A 
ATOM     21  C   UNL A   1      34.123  22.747  26.938  1.00  0.00     0.028 A 
ATOM     22  C   UNL A   1      36.231  22.896  25.750  1.00  0.00     0.041 A 
ATOM     23  C   UNL A   1      35.440  22.324  26.744  1.00  0.00     0.022 A 
ATOM     24  Cl  UNL A   1      37.863  22.375  25.570  1.00  0.00    -0.084 Cl
ENDBRANCH   8  10
ENDBRANCH   5   8
ENDBRANCH   3   4
ENDBRANCH   2   3
ENDBRANCH   1   2
BRANCH   1  25
ATOM     25  C   UNL A   1      33.615  28.769  27.417  1.00  0.00     0.116 C 
BRANCH  25  26
ATOM     26  N   UNL A   1      33.740  30.155  27.838  1.00  0.00    -0.352 N 
ATOM     27  C   UNL A   1      34.822  30.810  28.384  1.00  0.00     0.251 C 
ATOM     28  H   UNL A   1      32.934  30.707  27.715  1.00  0.00     0.163 HD
ATOM     29  O   UNL A   1      34.704  31.958  28.790  1.00  0.00    -0.269 OA
BRANCH  27  30
ATOM     30  C   UNL A   1      36.116  30.106  28.517  1.00  0.00     0.039 A 
ATOM     31  C   UNL A   1      36.977  30.074  27.416  1.00  0.00     0.014 A 
ATOM     32  C   UNL A   1      36.491  29.507  29.721  1.00  0.00     0.014 A 
ATOM     33  C   UNL A   1      38.257  29.531  27.553  1.00  0.00     0.010 A 
ATOM     34  C   UNL A   1      37.786  29.013  29.872  1.00  0.00     0.010 A 
ATOM     35  C   UNL A   1      38.689  29.046  28.798  1.00  0.00    -0.014 A 
BRANCH  35  36
ATOM     36  C   UNL A   1      40.103  28.648  29.022  1.00  0.00     0.031 A 
ATOM     37  C   UNL A   1      41.113  29.645  29.512  1.00  0.00     0.074 A 
ATOM     38  C   UNL A   1      40.496  27.404  28.675  1.00  0.00     0.049 A 
ATOM     39  N   UNL A   1      42.408  29.512  29.640  1.00  0.00    -0.248 NA
ATOM     40  C   UNL A   1      40.605  30.974  29.889  1.00  0.00     0.031 C 
ATOM     41  C   UNL A   1      39.621  26.357  28.142  1.00  0.00     0.029 A 
ATOM     42  N   UNL A   1      41.738  26.818  28.691  1.00  0.00    -0.354 N 
ATOM     43  C   UNL A   1      42.873  30.739  30.092  1.00  0.00     0.074 A 
ATOM     44  C   UNL A   1      41.726  31.615  30.191  1.00  0.00     0.031 C 
ATOM     45  C   UNL A   1      40.352  25.263  27.879  1.00  0.00     0.029 A 
ATOM     46  C   UNL A   1      41.751  25.541  28.181  1.00  0.00     0.049 A 
ATOM     47  H   UNL A   1      42.542  27.269  29.036  1.00  0.00     0.167 HD
ATOM     48  C   UNL A   1      44.141  31.096  30.404  1.00  0.00     0.037 A 
ATOM     49  C   UNL A   1      42.777  24.700  27.953  1.00  0.00     0.037 A 
ATOM     50  C   UNL A   1      45.277  30.213  30.335  1.00  0.00     0.049 A 
ATOM     51  C   UNL A   1      44.176  25.133  28.293  1.00  0.00     0.074 A 
ATOM     52  C   UNL A   1      46.581  30.458  30.730  1.00  0.00     0.029 A 
ATOM     53  N   UNL A   1      45.246  28.923  29.831  1.00  0.00    -0.354 N 
ATOM     54  N   UNL A   1      44.587  26.266  28.809  1.00  0.00    -0.248 NA
ATOM     55  C   UNL A   1      45.255  24.174  28.016  1.00  0.00     0.031 C 
ATOM     56  C   UNL A   1      47.352  29.335  30.413  1.00  0.00     0.029 A 
ATOM     57  C   UNL A   1      46.518  28.375  29.866  1.00  0.00     0.049 A 
ATOM     58  H   UNL A   1      44.441  28.464  29.497  1.00  0.00     0.167 HD
ATOM     59  C   UNL A   1      45.964  26.149  28.933  1.00  0.00     0.074 A 
ATOM     60  C   UNL A   1      46.319  24.827  28.460  1.00  0.00     0.031 C 
ATOM     61  C   UNL A   1      46.857  27.058  29.392  1.00  0.00     0.037 A 
BRANCH  48  62
ATOM     62  C   UNL A   1      44.387  32.504  30.855  1.00  0.00     0.057 A 
ATOM     63  C   UNL A   1      44.664  33.533  29.948  1.00  0.00     0.134 A 
ATOM     64  C   UNL A   1      44.252  32.851  32.207  1.00  0.00     0.134 A 
ATOM     65  F   UNL A   1      44.812  33.266  28.642  1.00  0.00    -0.206 F 
ATOM     66  C   UNL A   1      44.804  34.858  30.368  1.00  0.00     0.040 A 
ATOM     67  C   UNL A   1      44.368  34.173  32.635  1.00  0.00     0.040 A 
ATOM     68  F   UNL A   1      43.979  31.913  33.127  1.00  0.00    -0.206 F 
ATOM     69  C   UNL A   1      44.646  35.182  31.715  1.00  0.00     0.006 A 
ENDBRANCH  48  62
BRANCH  49  70
ATOM     70  C   UNL A   1      42.533  23.367  27.345  1.00  0.00     0.057 A 
ATOM     71  C   UNL A   1      42.601  23.176  25.961  1.00  0.00     0.134 A 
ATOM     72  C   UNL A   1      42.189  22.260  28.131  1.00  0.00     0.134 A 
ATOM     73  F   UNL A   1      42.903  24.203  25.153  1.00  0.00    -0.206 F 
ATOM     74  C   UNL A   1      42.307  21.943  25.376  1.00  0.00     0.040 A 
ATOM     75  C   UNL A   1      41.920  21.014  27.564  1.00  0.00     0.040 A 
ATOM     76  F   UNL A   1      42.112  22.374  29.466  1.00  0.00    -0.206 F 
ATOM     77  C   UNL A   1      41.968  20.856  26.179  1.00  0.00     0.006 A 
ENDBRANCH  49  70
BRANCH  61  78
ATOM     78  C   UNL A   1      48.301  26.652  29.420  1.00  0.00     0.057 A 
ATOM     79  C   UNL A   1      49.176  26.982  28.378  1.00  0.00     0.134 A 
ATOM     80  C   UNL A   1      48.831  25.962  30.517  1.00  0.00     0.134 A 
ATOM     81  F   UNL A   1      48.727  27.629  27.291  1.00  0.00    -0.206 F 
ATOM     82  C   UNL A   1      50.526  26.628  28.420  1.00  0.00     0.040 A 
ATOM     83  C   UNL A   1      50.183  25.624  30.582  1.00  0.00     0.040 A 
ATOM     84  F   UNL A   1      48.047  25.621  31.551  1.00  0.00    -0.206 F 
ATOM     85  C   UNL A   1      51.034  25.954  29.528  1.00  0.00     0.006 A 
ENDBRANCH  61  78
ENDBRANCH  35  36
ENDBRANCH  27  30
ENDBRANCH  25  26
ENDBRANCH   1  25
TORSDOF 12
ENDMDL
MODEL 2
REMARK VINA RESULT:     -11.9      3.527      6.404
REMARK SMILES C[C@@H](C(=O)NCCCCNC(=O)c1ccc(-c2c3nc(c(-c4c(F)cccc4F)c4ccc([nH]4)c(-c4c(F)cccc4F)c4nc(c(-c5c(F)cccc5F)c5ccc2[nH]5)C=C4)C=C3)cc1)c1ccc2c(c1)[nH]c1ccc(Cl)cc12
REMARK SMILES IDX 8 1 7 2 6 3 5 4 3 5 4 6 2 8 1 9 67 10 68 11 72 12 69 13
REMARK SMILES IDX 71 14 70 15 73 16 80 17 74 18 79 20 75 21 77 22 76 23 78 24
REMARK SMILES IDX 9 25 10 26 11 27 12 29 13 30 14 31 66 32 15 33 65 34 16 35
REMARK SMILES IDX 17 36 18 37 59 38 19 39 64 40 58 41 60 42 20 43 63 44 57 45
REMARK SMILES IDX 56 46 21 48 47 49 30 50 46 51 31 52 34 53 45 54 61 55 32 56
REMARK SMILES IDX 33 57 44 59 62 60 35 61 22 62 23 63 28 64 24 65 25 66 27 67
REMARK SMILES IDX 29 68 26 69 48 70 49 71 54 72 50 73 51 74 53 75 55 76 52 77
REMARK SMILES IDX 36 78 37 79 42 80 38 81 39 82 41 83 43 84 40 85
REMARK H PARENT 5 7 73 19 10 28 60 47 34 58
REMARK Flexibility Score: inf
ROOT
ATOM      1  C   UNL A   1      34.880  34.220  29.390  1.00  0.00     0.023 C 
ENDROOT
BRANCH   1   2
ATOM      2  C   UNL A   1      33.500  34.863  29.195  1.00  0.00     0.023 C 
BRANCH   2   3
ATOM      3  C   UNL A   1      33.297  36.185  29.940  1.00  0.00     0.116 C 
BRANCH   3   4
ATOM      4  N   UNL A   1      32.164  36.114  30.835  1.00  0.00    -0.356 N 
ATOM      5  C   UNL A   1      32.071  36.144  32.192  1.00  0.00     0.227 C 
ATOM      6  O   UNL A   1      30.925  36.042  32.640  1.00  0.00    -0.274 OA
ATOM      7  H   UNL A   1      31.296  36.029  30.377  1.00  0.00     0.163 HD
BRANCH   5   8
ATOM      8  C   UNL A   1      33.305  36.365  33.095  1.00  0.00     0.105 C 
ATOM      9  C   UNL A   1      34.095  37.648  32.795  1.00  0.00     0.023 C 
BRANCH   8  10
ATOM     10  C   UNL A   1      34.295  35.198  32.988  1.00  0.00    -0.034 A 
ATOM     11  C   UNL A   1      33.855  33.875  32.853  1.00  0.00     0.005 A 
ATOM     12  C   UNL A   1      35.674  35.461  33.083  1.00  0.00     0.031 A 
ATOM     13  C   UNL A   1      34.769  32.805  32.836  1.00  0.00     0.011 A 
ATOM     14  C   UNL A   1      36.559  34.384  33.117  1.00  0.00     0.047 A 
ATOM     15  C   UNL A   1      36.149  33.061  32.993  1.00  0.00     0.007 A 
ATOM     16  N   UNL A   1      37.919  34.382  33.286  1.00  0.00    -0.355 N 
ATOM     17  C   UNL A   1      37.326  32.246  33.086  1.00  0.00     0.009 A 
ATOM     18  C   UNL A   1      38.404  33.100  33.335  1.00  0.00     0.047 A 
ATOM     19  H   UNL A   1      38.474  35.192  33.360  1.00  0.00     0.167 HD
ATOM     20  C   UNL A   1      37.575  30.860  33.016  1.00  0.00     0.031 A 
ATOM     21  C   UNL A   1      39.704  32.646  33.578  1.00  0.00     0.028 A 
ATOM     22  C   UNL A   1      38.877  30.394  33.236  1.00  0.00     0.041 A 
ATOM     23  C   UNL A   1      39.921  31.268  33.531  1.00  0.00     0.022 A 
ATOM     24  Cl  UNL A   1      39.196  28.703  33.148  1.00  0.00    -0.084 Cl
ENDBRANCH   8  10
ENDBRANCH   5   8
ENDBRANCH   3   4
ENDBRANCH   2   3
ENDBRANCH   1   2
BRANCH   1  25
ATOM     25  C   UNL A   1      35.291  33.201  28.329  1.00  0.00     0.116 C 
BRANCH  25  26
ATOM     26  N   UNL A   1      34.269  32.198  28.078  1.00  0.00    -0.352 N 
ATOM     27  C   UNL A   1      34.392  30.831  27.972  1.00  0.00     0.251 C 
ATOM     28  H   UNL A   1      33.355  32.547  27.967  1.00  0.00     0.163 HD
ATOM     29  O   UNL A   1      33.431  30.152  27.637  1.00  0.00    -0.269 OA
BRANCH  27  30
ATOM     30  C   UNL A   1      35.701  30.189  28.224  1.00  0.00     0.039 A 
ATOM     31  C   UNL A   1      36.609  30.086  27.166  1.00  0.00     0.014 A 
ATOM     32  C   UNL A   1      36.043  29.719  29.493  1.00  0.00     0.014 A 
ATOM     33  C   UNL A   1      37.899  29.603  27.405  1.00  0.00     0.010 A 
ATOM     34  C   UNL A   1      37.344  29.288  29.743  1.00  0.00     0.010 A 
ATOM     35  C   UNL A   1      38.292  29.252  28.707  1.00  0.00    -0.014 A 
BRANCH  35  36
ATOM     36  C   UNL A   1      39.707  28.928  29.024  1.00  0.00     0.031 A 
ATOM     37  C   UNL A   1      40.627  29.974  29.584  1.00  0.00     0.074 A 
ATOM     38  C   UNL A   1      40.187  27.708  28.702  1.00  0.00     0.049 A 
ATOM     39  N   UNL A   1      41.917  29.908  29.798  1.00  0.00    -0.248 NA
ATOM     40  C   UNL A   1      40.026  31.272  29.929  1.00  0.00     0.031 C 
ATOM     41  C   UNL A   1      39.406  26.620  28.109  1.00  0.00     0.029 A 
ATOM     42  N   UNL A   1      41.454  27.188  28.800  1.00  0.00    -0.354 N 
ATOM     43  C   UNL A   1      42.285  31.155  30.283  1.00  0.00     0.074 A 
ATOM     44  C   UNL A   1      41.089  31.970  30.306  1.00  0.00     0.031 C 
ATOM     45  C   UNL A   1      40.210  25.567  27.893  1.00  0.00     0.029 A 
ATOM     46  C   UNL A   1      41.569  25.917  28.289  1.00  0.00     0.049 A 
ATOM     47  H   UNL A   1      42.209  27.679  29.199  1.00  0.00     0.167 HD
ATOM     48  C   UNL A   1      43.509  31.577  30.680  1.00  0.00     0.037 A 
ATOM     49  C   UNL A   1      42.651  25.132  28.128  1.00  0.00     0.037 A 
ATOM     50  C   UNL A   1      44.691  30.754  30.685  1.00  0.00     0.049 A 
ATOM     51  C   UNL A   1      43.999  25.636  28.562  1.00  0.00     0.074 A 
ATOM     52  C   UNL A   1      45.952  31.065  31.167  1.00  0.00     0.029 A 
ATOM     53  N   UNL A   1      44.763  29.468  30.177  1.00  0.00    -0.354 N 
ATOM     54  N   UNL A   1      44.314  26.786  29.107  1.00  0.00    -0.248 NA
ATOM     55  C   UNL A   1      45.144  24.736  28.356  1.00  0.00     0.031 C 
ATOM     56  C   UNL A   1      46.800  29.986  30.901  1.00  0.00     0.029 A 
ATOM     57  C   UNL A   1      46.057  28.987  30.296  1.00  0.00     0.049 A 
ATOM     58  H   UNL A   1      44.007  28.969  29.790  1.00  0.00     0.167 HD
ATOM     59  C   UNL A   1      45.685  26.740  29.323  1.00  0.00     0.074 A 
ATOM     60  C   UNL A   1      46.139  25.442  28.872  1.00  0.00     0.031 C 
ATOM     61  C   UNL A   1      46.496  27.692  29.844  1.00  0.00     0.037 A 
BRANCH  48  62
ATOM     62  C   UNL A   1      43.649  32.993  31.150  1.00  0.00     0.057 A 
ATOM     63  C   UNL A   1      43.958  34.036  30.270  1.00  0.00     0.134 A 
ATOM     64  C   UNL A   1      43.379  33.329  32.484  1.00  0.00     0.134 A 
ATOM     65  F   UNL A   1      44.233  33.780  28.982  1.00  0.00    -0.206 F 
ATOM     66  C   UNL A   1      44.000  35.364  30.700  1.00  0.00     0.040 A 
ATOM     67  C   UNL A   1      43.397  34.654  32.920  1.00  0.00     0.040 A 
ATOM     68  F   UNL A   1      43.069  32.376  33.377  1.00  0.00    -0.206 F 
ATOM     69  C   UNL A   1      43.708  35.676  32.027  1.00  0.00     0.006 A 
ENDBRANCH  48  62
BRANCH  49  70
ATOM     70  C   UNL A   1      42.519  23.791  27.502  1.00  0.00     0.057 A 
ATOM     71  C   UNL A   1      42.326  22.643  28.278  1.00  0.00     0.134 A 
ATOM     72  C   UNL A   1      42.619  23.621  26.115  1.00  0.00     0.134 A 
ATOM     73  F   UNL A   1      42.244  22.739  29.614  1.00  0.00    -0.206 F 
ATOM     74  C   UNL A   1      42.268  21.373  27.704  1.00  0.00     0.040 A 
ATOM     75  C   UNL A   1      42.535  22.361  25.524  1.00  0.00     0.040 A 
ATOM     76  F   UNL A   1      42.798  24.682  25.314  1.00  0.00    -0.206 F 
ATOM     77  C   UNL A   1      42.369  21.229  26.322  1.00  0.00     0.006 A 
ENDBRANCH  49  70
BRANCH  61  78
ATOM     78  C   UNL A   1      47.953  27.362  29.967  1.00  0.00     0.057 A 
ATOM     79  C   UNL A   1      48.458  26.671  31.076  1.00  0.00     0.134 A 
ATOM     80  C   UNL A   1      48.854  27.699  28.949  1.00  0.00     0.134 A 
ATOM     81  F   UNL A   1      47.650  26.334  32.092  1.00  0.00    -0.206 F 
ATOM     82  C   UNL A   1      49.811  26.340  31.174  1.00  0.00     0.040 A 
ATOM     83  C   UNL A   1      50.203  27.352  29.023  1.00  0.00     0.040 A 
ATOM     84  F   UNL A   1      48.433  28.355  27.856  1.00  0.00    -0.206 F 
ATOM     85  C   UNL A   1      50.685  26.673  30.142  1.00  0.00     0.006 A 
ENDBRANCH  61  78
ENDBRANCH  35  36
ENDBRANCH  27  30
ENDBRANCH  25  26
ENDBRANCH   1  25
TORSDOF 12
ENDMDL
MODEL 3
REMARK VINA RESULT:     -11.9      3.064      7.723
REMARK SMILES C[C@@H](C(=O)NCCCCNC(=O)c1ccc(-c2c3nc(c(-c4c(F)cccc4F)c4ccc([nH]4)c(-c4c(F)cccc4F)c4nc(c(-c5c(F)cccc5F)c5ccc2[nH]5)C=C4)C=C3)cc1)c1ccc2c(c1)[nH]c1ccc(Cl)cc12
REMARK SMILES IDX 8 1 7 2 6 3 5 4 3 5 4 6 2 8 1 9 67 10 68 11 72 12 69 13
REMARK SMILES IDX 71 14 70 15 73 16 80 17 74 18 79 20 75 21 77 22 76 23 78 24
REMARK SMILES IDX 9 25 10 26 11 27 12 29 13 30 14 31 66 32 15 33 65 34 16 35
REMARK SMILES IDX 17 36 18 37 59 38 19 39 64 40 58 41 60 42 20 43 63 44 57 45
REMARK SMILES IDX 56 46 21 48 47 49 30 50 46 51 31 52 34 53 45 54 61 55 32 56
REMARK SMILES IDX 33 57 44 59 62 60 35 61 22 62 23 63 28 64 24 65 25 66 27 67
REMARK SMILES IDX 29 68 26 69 48 70 49 71 54 72 50 73 51 74 53 75 55 76 52 77
REMARK SMILES IDX 36 78 37 79 42 80 38 81 39 82 41 83 43 84 40 85
REMARK H PARENT 5 7 73 19 10 28 60 47 34 58
REMARK Flexibility Score: inf
ROOT
ATOM      1  C   UNL A   1      37.523  20.696  24.898  1.00  0.00     0.023 C 
ENDROOT
BRANCH   1   2
ATOM      2  C   UNL A   1      36.393  21.719  25.080  1.00  0.00     0.023 C 
BRANCH   2   3
ATOM      3  C   UNL A   1      36.558  23.008  24.272  1.00  0.00     0.116 C 
BRANCH   3   4
ATOM      4  N   UNL A   1      35.552  23.113  23.239  1.00  0.00    -0.356 N 
ATOM      5  C   UNL A   1      34.417  23.857  23.144  1.00  0.00     0.227 C 
ATOM      6  O   UNL A   1      33.765  23.687  22.109  1.00  0.00    -0.274 OA
ATOM      7  H   UNL A   1      35.719  22.537  22.457  1.00  0.00     0.163 HD
BRANCH   5   8
ATOM      8  C   UNL A   1      34.022  24.893  24.221  1.00  0.00     0.105 C 
ATOM      9  C   UNL A   1      33.348  24.296  25.465  1.00  0.00     0.023 C 
BRANCH   8  10
ATOM     10  C   UNL A   1      33.062  25.949  23.658  1.00  0.00    -0.034 A 
ATOM     11  C   UNL A   1      33.535  27.110  23.033  1.00  0.00     0.005 A 
ATOM     12  C   UNL A   1      31.677  25.770  23.824  1.00  0.00     0.031 A 
ATOM     13  C   UNL A   1      32.649  28.109  22.591  1.00  0.00     0.011 A 
ATOM     14  C   UNL A   1      30.819  26.795  23.427  1.00  0.00     0.047 A 
ATOM     15  C   UNL A   1      31.262  27.961  22.811  1.00  0.00     0.007 A 
ATOM     16  N   UNL A   1      29.458  26.888  23.559  1.00  0.00    -0.355 N 
ATOM     17  C   UNL A   1      30.104  28.771  22.565  1.00  0.00     0.009 A 
ATOM     18  C   UNL A   1      29.004  28.101  23.105  1.00  0.00     0.047 A 
ATOM     19  H   UNL A   1      28.882  26.180  23.930  1.00  0.00     0.167 HD
ATOM     20  C   UNL A   1      29.890  30.029  21.964  1.00  0.00     0.031 A 
ATOM     21  C   UNL A   1      27.714  28.639  23.134  1.00  0.00     0.028 A 
ATOM     22  C   UNL A   1      28.598  30.570  21.967  1.00  0.00     0.041 A 
ATOM     23  C   UNL A   1      27.531  29.897  22.558  1.00  0.00     0.022 A 
ATOM     24  Cl  UNL A   1      28.322  32.104  21.232  1.00  0.00    -0.084 Cl
ENDBRANCH   8  10
ENDBRANCH   5   8
ENDBRANCH   3   4
ENDBRANCH   2   3
ENDBRANCH   1   2
BRANCH   1  25
ATOM     25  C   UNL A   1      38.743  20.892  25.796  1.00  0.00     0.116 C 
BRANCH  25  26
ATOM     26  N   UNL A   1      39.671  19.773  25.745  1.00  0.00    -0.352 N 
ATOM     27  C   UNL A   1      41.012  19.734  26.055  1.00  0.00     0.251 C 
ATOM     28  H   UNL A   1      39.284  18.918  25.447  1.00  0.00     0.163 HD
ATOM     29  O   UNL A   1      41.664  18.722  25.835  1.00  0.00    -0.269 OA
BRANCH  27  30
ATOM     30  C   UNL A   1      41.673  20.934  26.612  1.00  0.00     0.039 A 
ATOM     31  C   UNL A   1      42.157  21.903  25.728  1.00  0.00     0.014 A 
ATOM     32  C   UNL A   1      41.792  21.118  27.991  1.00  0.00     0.014 A 
ATOM     33  C   UNL A   1      42.668  23.104  26.228  1.00  0.00     0.010 A 
ATOM     34  C   UNL A   1      42.251  22.336  28.488  1.00  0.00     0.010 A 
ATOM     35  C   UNL A   1      42.668  23.351  27.611  1.00  0.00    -0.014 A 
BRANCH  35  36
ATOM     36  C   UNL A   1      43.017  24.688  28.156  1.00  0.00     0.031 A 
ATOM     37  C   UNL A   1      41.952  25.716  28.409  1.00  0.00     0.074 A 
ATOM     38  C   UNL A   1      44.317  25.009  28.319  1.00  0.00     0.049 A 
ATOM     39  N   UNL A   1      42.083  26.970  28.756  1.00  0.00    -0.248 NA
ATOM     40  C   UNL A   1      40.557  25.285  28.228  1.00  0.00     0.031 C 
ATOM     41  C   UNL A   1      45.449  24.115  28.063  1.00  0.00     0.029 A 
ATOM     42  N   UNL A   1      44.909  26.184  28.712  1.00  0.00    -0.354 N 
ATOM     43  C   UNL A   1      40.795  27.484  28.818  1.00  0.00     0.074 A 
ATOM     44  C   UNL A   1      39.895  26.414  28.445  1.00  0.00     0.031 C 
ATOM     45  C   UNL A   1      46.594  24.774  28.300  1.00  0.00     0.029 A 
ATOM     46  C   UNL A   1      46.283  26.146  28.682  1.00  0.00     0.049 A 
ATOM     47  H   UNL A   1      44.398  26.979  28.990  1.00  0.00     0.167 HD
ATOM     48  C   UNL A   1      40.402  28.733  29.163  1.00  0.00     0.037 A 
ATOM     49  C   UNL A   1      47.192  27.115  28.905  1.00  0.00     0.037 A 
ATOM     50  C   UNL A   1      41.297  29.787  29.564  1.00  0.00     0.049 A 
ATOM     51  C   UNL A   1      46.722  28.496  29.269  1.00  0.00     0.074 A 
ATOM     52  C   UNL A   1      40.981  31.052  30.030  1.00  0.00     0.029 A 
ATOM     53  N   UNL A   1      42.680  29.704  29.538  1.00  0.00    -0.354 N 
ATOM     54  N   UNL A   1      45.498  28.941  29.414  1.00  0.00    -0.248 NA
ATOM     55  C   UNL A   1      47.760  29.513  29.496  1.00  0.00     0.031 C 
ATOM     56  C   UNL A   1      42.173  31.754  30.234  1.00  0.00     0.029 A 
ATOM     57  C   UNL A   1      43.231  30.910  29.939  1.00  0.00     0.049 A 
ATOM     58  H   UNL A   1      43.194  28.907  29.273  1.00  0.00     0.167 HD
ATOM     59  C   UNL A   1      45.619  30.278  29.764  1.00  0.00     0.074 A 
ATOM     60  C   UNL A   1      47.035  30.570  29.832  1.00  0.00     0.031 C 
ATOM     61  C   UNL A   1      44.642  31.187  30.003  1.00  0.00     0.037 A 
BRANCH  48  62
ATOM     62  C   UNL A   1      38.936  29.045  29.130  1.00  0.00     0.057 A 
ATOM     63  C   UNL A   1      38.134  28.942  30.273  1.00  0.00     0.134 A 
ATOM     64  C   UNL A   1      38.342  29.545  27.964  1.00  0.00     0.134 A 
ATOM     65  F   UNL A   1      38.641  28.465  31.419  1.00  0.00    -0.206 F 
ATOM     66  C   UNL A   1      36.789  29.319  30.255  1.00  0.00     0.040 A 
ATOM     67  C   UNL A   1      37.005  29.945  27.940  1.00  0.00     0.040 A 
ATOM     68  F   UNL A   1      39.058  29.676  26.836  1.00  0.00    -0.206 F 
ATOM     69  C   UNL A   1      36.225  29.832  29.089  1.00  0.00     0.006 A 
ENDBRANCH  48  62
BRANCH  49  70
ATOM     70  C   UNL A   1      48.643  26.829  28.767  1.00  0.00     0.057 A 
ATOM     71  C   UNL A   1      49.312  27.035  27.556  1.00  0.00     0.134 A 
ATOM     72  C   UNL A   1      49.387  26.306  29.833  1.00  0.00     0.134 A 
ATOM     73  F   UNL A   1      48.648  27.512  26.492  1.00  0.00    -0.206 F 
ATOM     74  C   UNL A   1      50.659  26.706  27.398  1.00  0.00     0.040 A 
ATOM     75  C   UNL A   1      50.741  25.999  29.699  1.00  0.00     0.040 A 
ATOM     76  F   UNL A   1      48.806  26.090  31.023  1.00  0.00    -0.206 F 
ATOM     77  C   UNL A   1      51.378  26.189  28.474  1.00  0.00     0.006 A 
ENDBRANCH  49  70
BRANCH  61  78
ATOM     78  C   UNL A   1      45.070  32.576  30.372  1.00  0.00     0.057 A 
ATOM     79  C   UNL A   1      45.349  32.929  31.699  1.00  0.00     0.134 A 
ATOM     80  C   UNL A   1      45.247  33.557  29.390  1.00  0.00     0.134 A 
ATOM     81  F   UNL A   1      45.183  32.039  32.689  1.00  0.00    -0.206 F 
ATOM     82  C   UNL A   1      45.775  34.215  32.036  1.00  0.00     0.040 A 
ATOM     83  C   UNL A   1      45.696  34.838  29.710  1.00  0.00     0.040 A 
ATOM     84  F   UNL A   1      45.004  33.281  28.099  1.00  0.00    -0.206 F 
ATOM     85  C   UNL A   1      45.957  35.171  31.039  1.00  0.00     0.006 A 
ENDBRANCH  61  78
ENDBRANCH  35  36
ENDBRANCH  27  30
ENDBRANCH  25  26
ENDBRANCH   1  25
TORSDOF 12
ENDMDL
