MODEL 1
REMARK VINA RESULT:     -11.2      0.000      0.000
REMARK SMILES O=C(NCCCCNC(=O)[C@@H]1CSCN1C(=O)COc1ccc(Cl)cc1Cl)c1ccc(-c2c3nc(c(-c4c(F)cccc4F)c4ccc([nH]4)c(-c4c(F)cccc4F)c4nc(c(-c5c(F)cccc5F)c5ccc2[nH]5)C=C4)C=C3)cc1
REMARK SMILES IDX 6 1 5 2 4 3 3 4 1 5 2 6 28 8 29 9 81 10 30 11 80 12 31 13
REMARK SMILES IDX 32 14 33 15 74 16 34 17 79 18 73 19 75 20 35 21 78 22 72 23
REMARK SMILES IDX 71 24 36 26 62 27 45 28 61 29 46 30 49 31 60 32 76 33 47 34
REMARK SMILES IDX 48 35 59 37 77 38 50 39 37 40 38 41 43 42 39 43 40 44 42 45
REMARK SMILES IDX 44 46 41 47 63 48 64 49 69 50 65 51 66 52 68 53 70 54 67 55
REMARK SMILES IDX 51 56 52 57 57 58 53 59 54 60 56 61 58 62 55 63 7 64 8 65
REMARK SMILES IDX 9 66 10 68 11 69 12 70 15 71 13 72 14 73 16 74 17 75 18 76
REMARK SMILES IDX 19 77 20 78 21 79 26 80 22 81 25 82 27 83 23 84 24 85
REMARK H PARENT 3 7 75 25 49 36 8 67
REMARK Flexibility Score: inf
ROOT
ATOM      1  C   UNL A   1      36.620  19.609  24.975  1.00  0.00     0.023 C 
ENDROOT
BRANCH   1   2
ATOM      2  C   UNL A   1      38.026  20.123  24.660  1.00  0.00     0.023 C 
BRANCH   2   3
ATOM      3  C   UNL A   1      38.957  20.236  25.861  1.00  0.00     0.116 C 
BRANCH   3   4
ATOM      4  N   UNL A   1      40.076  19.309  25.799  1.00  0.00    -0.352 N 
ATOM      5  O   UNL A   1      42.238  18.666  25.838  1.00  0.00    -0.269 OA
ATOM      6  C   UNL A   1      41.404  19.535  26.073  1.00  0.00     0.251 C 
ATOM      7  H   UNL A   1      39.851  18.391  25.524  1.00  0.00     0.163 HD
BRANCH   6   8
ATOM      8  C   UNL A   1      41.828  20.840  26.622  1.00  0.00     0.039 A 
ATOM      9  C   UNL A   1      41.786  21.083  27.996  1.00  0.00     0.014 A 
ATOM     10  C   UNL A   1      42.266  21.838  25.745  1.00  0.00     0.014 A 
ATOM     11  C   UNL A   1      42.035  22.362  28.478  1.00  0.00     0.010 A 
ATOM     12  C   UNL A   1      42.599  23.100  26.242  1.00  0.00     0.010 A 
ATOM     13  C   UNL A   1      42.451  23.383  27.608  1.00  0.00    -0.014 A 
BRANCH  13  14
ATOM     14  C   UNL A   1      42.766  24.723  28.165  1.00  0.00     0.031 A 
ATOM     15  C   UNL A   1      44.180  25.128  28.468  1.00  0.00     0.074 A 
ATOM     16  C   UNL A   1      41.757  25.596  28.354  1.00  0.00     0.049 A 
ATOM     17  N   UNL A   1      44.631  26.277  28.910  1.00  0.00    -0.248 NA
ATOM     18  C   UNL A   1      45.226  24.115  28.260  1.00  0.00     0.031 C 
ATOM     19  C   UNL A   1      40.342  25.312  28.104  1.00  0.00     0.029 A 
ATOM     20  N   UNL A   1      41.767  26.901  28.770  1.00  0.00    -0.354 N 
ATOM     21  C   UNL A   1      46.004  26.120  29.051  1.00  0.00     0.074 A 
ATOM     22  C   UNL A   1      46.312  24.757  28.671  1.00  0.00     0.031 C 
ATOM     23  C   UNL A   1      39.627  26.426  28.316  1.00  0.00     0.029 A 
ATOM     24  C   UNL A   1      40.522  27.483  28.770  1.00  0.00     0.049 A 
ATOM     25  H   UNL A   1      42.585  27.376  29.043  1.00  0.00     0.167 HD
ATOM     26  C   UNL A   1      46.923  27.031  29.453  1.00  0.00     0.037 A 
ATOM     27  C   UNL A   1      40.142  28.729  29.105  1.00  0.00     0.037 A 
ATOM     28  C   UNL A   1      46.615  28.393  29.810  1.00  0.00     0.049 A 
ATOM     29  C   UNL A   1      41.178  29.712  29.562  1.00  0.00     0.074 A 
ATOM     30  C   UNL A   1      47.482  29.403  30.188  1.00  0.00     0.029 A 
ATOM     31  N   UNL A   1      45.338  28.933  29.836  1.00  0.00    -0.354 N 
ATOM     32  N   UNL A   1      42.477  29.558  29.656  1.00  0.00    -0.248 NA
ATOM     33  C   UNL A   1      40.696  31.039  29.964  1.00  0.00     0.031 C 
ATOM     34  C   UNL A   1      46.726  30.544  30.483  1.00  0.00     0.029 A 
ATOM     35  C   UNL A   1      45.391  30.257  30.246  1.00  0.00     0.049 A 
ATOM     36  H   UNL A   1      44.515  28.449  29.599  1.00  0.00     0.167 HD
ATOM     37  C   UNL A   1      42.970  30.773  30.111  1.00  0.00     0.074 A 
ATOM     38  C   UNL A   1      41.831  31.658  30.256  1.00  0.00     0.031 C 
ATOM     39  C   UNL A   1      44.250  31.123  30.388  1.00  0.00     0.037 A 
BRANCH  26  40
ATOM     40  C   UNL A   1      48.353  26.581  29.547  1.00  0.00     0.057 A 
ATOM     41  C   UNL A   1      48.849  25.918  30.677  1.00  0.00     0.134 A 
ATOM     42  C   UNL A   1      49.233  26.778  28.475  1.00  0.00     0.134 A 
ATOM     43  F   UNL A   1      48.063  25.707  31.743  1.00  0.00    -0.206 F 
ATOM     44  C   UNL A   1      50.177  25.488  30.746  1.00  0.00     0.040 A 
ATOM     45  C   UNL A   1      50.555  26.333  28.523  1.00  0.00     0.040 A 
ATOM     46  F   UNL A   1      48.820  27.399  27.360  1.00  0.00    -0.206 F 
ATOM     47  C   UNL A   1      51.031  25.689  29.663  1.00  0.00     0.006 A 
ENDBRANCH  26  40
BRANCH  27  48
ATOM     48  C   UNL A   1      38.713  29.113  29.009  1.00  0.00     0.057 A 
ATOM     49  C   UNL A   1      38.155  29.516  27.791  1.00  0.00     0.134 A 
ATOM     50  C   UNL A   1      37.869  29.071  30.125  1.00  0.00     0.134 A 
ATOM     51  F   UNL A   1      38.918  29.590  26.691  1.00  0.00    -0.206 F 
ATOM     52  C   UNL A   1      36.810  29.874  27.688  1.00  0.00     0.040 A 
ATOM     53  C   UNL A   1      36.517  29.400  30.031  1.00  0.00     0.040 A 
ATOM     54  F   UNL A   1      38.343  28.685  31.319  1.00  0.00    -0.206 F 
ATOM     55  C   UNL A   1      35.986  29.809  28.810  1.00  0.00     0.006 A 
ENDBRANCH  27  48
BRANCH  39  56
ATOM     56  C   UNL A   1      44.481  32.530  30.849  1.00  0.00     0.057 A 
ATOM     57  C   UNL A   1      44.706  33.575  29.944  1.00  0.00     0.134 A 
ATOM     58  C   UNL A   1      44.465  32.846  32.214  1.00  0.00     0.134 A 
ATOM     59  F   UNL A   1      44.750  33.333  28.624  1.00  0.00    -0.206 F 
ATOM     60  C   UNL A   1      44.935  34.880  30.381  1.00  0.00     0.040 A 
ATOM     61  C   UNL A   1      44.669  34.151  32.661  1.00  0.00     0.040 A 
ATOM     62  F   UNL A   1      44.249  31.891  33.130  1.00  0.00    -0.206 F 
ATOM     63  C   UNL A   1      44.911  35.171  31.744  1.00  0.00     0.006 A 
ENDBRANCH  39  56
ENDBRANCH  13  14
ENDBRANCH   6   8
ENDBRANCH   3   4
ENDBRANCH   2   3
ENDBRANCH   1   2
BRANCH   1  64
ATOM     64  C   UNL A   1      35.584  20.702  25.236  1.00  0.00     0.116 C 
BRANCH  64  65
ATOM     65  N   UNL A   1      34.235  20.191  25.092  1.00  0.00    -0.354 N 
ATOM     66  C   UNL A   1      33.044  20.838  25.254  1.00  0.00     0.243 C 
ATOM     67  H   UNL A   1      34.170  19.241  24.844  1.00  0.00     0.163 HD
ATOM     68  O   UNL A   1      32.021  20.150  25.245  1.00  0.00    -0.273 OA
BRANCH  66  69
ATOM     69  C   UNL A   1      33.025  22.364  25.489  1.00  0.00     0.185 C 
ATOM     70  C   UNL A   1      32.272  22.671  26.781  1.00  0.00     0.106 C 
ATOM     71  N   UNL A   1      32.376  23.033  24.359  1.00  0.00    -0.318 N 
ATOM     72  S   UNL A   1      30.821  23.661  26.340  1.00  0.00    -0.138 SA
ATOM     73  C   UNL A   1      30.986  23.356  24.572  1.00  0.00     0.190 C 
BRANCH  71  74
ATOM     74  C   UNL A   1      33.057  23.171  23.169  1.00  0.00     0.261 C 
ATOM     75  O   UNL A   1      32.783  22.472  22.189  1.00  0.00    -0.271 OA
BRANCH  74  76
ATOM     76  C   UNL A   1      34.169  24.227  23.080  1.00  0.00     0.329 C 
BRANCH  76  77
ATOM     77  O   UNL A   1      33.752  25.577  22.919  1.00  0.00    -0.482 OA
BRANCH  77  78
ATOM     78  C   UNL A   1      33.220  26.176  24.032  1.00  0.00     0.138 A 
ATOM     79  C   UNL A   1      33.900  26.247  25.250  1.00  0.00     0.049 A 
ATOM     80  C   UNL A   1      31.987  26.835  23.906  1.00  0.00     0.084 A 
ATOM     81  C   UNL A   1      33.360  26.958  26.325  1.00  0.00     0.024 A 
ATOM     82  C   UNL A   1      31.438  27.536  24.983  1.00  0.00     0.045 A 
ATOM     83  Cl  UNL A   1      31.098  26.790  22.424  1.00  0.00    -0.080 Cl
ATOM     84  C   UNL A   1      32.133  27.598  26.187  1.00  0.00     0.042 A 
ATOM     85  Cl  UNL A   1      31.481  28.481  27.510  1.00  0.00    -0.084 Cl
ENDBRANCH  77  78
ENDBRANCH  76  77
ENDBRANCH  74  76
ENDBRANCH  71  74
ENDBRANCH  66  69
ENDBRANCH  64  65
ENDBRANCH   1  64
TORSDOF 15
ENDMDL
MODEL 2
REMARK VINA RESULT:     -11.2      1.431      2.308
REMARK SMILES O=C(NCCCCNC(=O)[C@@H]1CSCN1C(=O)COc1ccc(Cl)cc1Cl)c1ccc(-c2c3nc(c(-c4c(F)cccc4F)c4ccc([nH]4)c(-c4c(F)cccc4F)c4nc(c(-c5c(F)cccc5F)c5ccc2[nH]5)C=C4)C=C3)cc1
REMARK SMILES IDX 6 1 5 2 4 3 3 4 1 5 2 6 28 8 29 9 81 10 30 11 80 12 31 13
REMARK SMILES IDX 32 14 33 15 74 16 34 17 79 18 73 19 75 20 35 21 78 22 72 23
REMARK SMILES IDX 71 24 36 26 62 27 45 28 61 29 46 30 49 31 60 32 76 33 47 34
REMARK SMILES IDX 48 35 59 37 77 38 50 39 37 40 38 41 43 42 39 43 40 44 42 45
REMARK SMILES IDX 44 46 41 47 63 48 64 49 69 50 65 51 66 52 68 53 70 54 67 55
REMARK SMILES IDX 51 56 52 57 57 58 53 59 54 60 56 61 58 62 55 63 7 64 8 65
REMARK SMILES IDX 9 66 10 68 11 69 12 70 15 71 13 72 14 73 16 74 17 75 18 76
REMARK SMILES IDX 19 77 20 78 21 79 26 80 22 81 25 82 27 83 23 84 24 85
REMARK H PARENT 3 7 75 25 49 36 8 67
REMARK Flexibility Score: inf
ROOT
ATOM      1  C   UNL A   1      38.740  22.572  26.215  1.00  0.00     0.023 C 
ENDROOT
BRANCH   1   2
ATOM      2  C   UNL A   1      38.907  21.258  25.447  1.00  0.00     0.023 C 
BRANCH   2   3
ATOM      3  C   UNL A   1      39.208  20.039  26.310  1.00  0.00     0.116 C 
BRANCH   3   4
ATOM      4  N   UNL A   1      40.383  19.306  25.866  1.00  0.00    -0.352 N 
ATOM      5  O   UNL A   1      42.549  19.004  25.315  1.00  0.00    -0.269 OA
ATOM      6  C   UNL A   1      41.698  19.705  25.852  1.00  0.00     0.251 C 
ATOM      7  H   UNL A   1      40.213  18.397  25.529  1.00  0.00     0.163 HD
BRANCH   6   8
ATOM      8  C   UNL A   1      42.078  20.999  26.459  1.00  0.00     0.039 A 
ATOM      9  C   UNL A   1      42.058  21.169  27.844  1.00  0.00     0.014 A 
ATOM     10  C   UNL A   1      42.453  22.057  25.625  1.00  0.00     0.014 A 
ATOM     11  C   UNL A   1      42.265  22.431  28.386  1.00  0.00     0.010 A 
ATOM     12  C   UNL A   1      42.743  23.306  26.180  1.00  0.00     0.010 A 
ATOM     13  C   UNL A   1      42.616  23.513  27.561  1.00  0.00    -0.014 A 
BRANCH  13  14
ATOM     14  C   UNL A   1      42.886  24.835  28.179  1.00  0.00     0.031 A 
ATOM     15  C   UNL A   1      44.281  25.252  28.551  1.00  0.00     0.074 A 
ATOM     16  C   UNL A   1      41.856  25.683  28.364  1.00  0.00     0.049 A 
ATOM     17  N   UNL A   1      44.695  26.390  29.052  1.00  0.00    -0.248 NA
ATOM     18  C   UNL A   1      45.352  24.265  28.343  1.00  0.00     0.031 C 
ATOM     19  C   UNL A   1      40.456  25.386  28.051  1.00  0.00     0.029 A 
ATOM     20  N   UNL A   1      41.827  26.971  28.829  1.00  0.00    -0.354 N 
ATOM     21  C   UNL A   1      46.065  26.251  29.237  1.00  0.00     0.074 A 
ATOM     22  C   UNL A   1      46.410  24.908  28.817  1.00  0.00     0.031 C 
ATOM     23  C   UNL A   1      39.714  26.480  28.279  1.00  0.00     0.029 A 
ATOM     24  C   UNL A   1      40.573  27.533  28.806  1.00  0.00     0.049 A 
ATOM     25  H   UNL A   1      42.626  27.449  29.150  1.00  0.00     0.167 HD
ATOM     26  C   UNL A   1      46.951  27.160  29.708  1.00  0.00     0.037 A 
ATOM     27  C   UNL A   1      40.158  28.758  29.174  1.00  0.00     0.037 A 
ATOM     28  C   UNL A   1      46.607  28.502  30.104  1.00  0.00     0.049 A 
ATOM     29  C   UNL A   1      41.160  29.740  29.705  1.00  0.00     0.074 A 
ATOM     30  C   UNL A   1      47.441  29.511  30.552  1.00  0.00     0.029 A 
ATOM     31  N   UNL A   1      45.320  29.020  30.103  1.00  0.00    -0.354 N 
ATOM     32  N   UNL A   1      42.457  29.604  29.841  1.00  0.00    -0.248 NA
ATOM     33  C   UNL A   1      40.639  31.043  30.139  1.00  0.00     0.031 C 
ATOM     34  C   UNL A   1      46.654  30.627  30.862  1.00  0.00     0.029 A 
ATOM     35  C   UNL A   1      45.335  30.327  30.565  1.00  0.00     0.049 A 
ATOM     36  H   UNL A   1      44.515  28.532  29.818  1.00  0.00     0.167 HD
ATOM     37  C   UNL A   1      42.911  30.808  30.360  1.00  0.00     0.074 A 
ATOM     38  C   UNL A   1      41.752  31.668  30.496  1.00  0.00     0.031 C 
ATOM     39  C   UNL A   1      44.173  31.168  30.697  1.00  0.00     0.037 A 
BRANCH  26  40
ATOM     40  C   UNL A   1      48.385  26.730  29.837  1.00  0.00     0.057 A 
ATOM     41  C   UNL A   1      48.856  26.048  30.966  1.00  0.00     0.134 A 
ATOM     42  C   UNL A   1      49.296  26.967  28.799  1.00  0.00     0.134 A 
ATOM     43  F   UNL A   1      48.039  25.800  32.001  1.00  0.00    -0.206 F 
ATOM     44  C   UNL A   1      50.187  25.638  31.068  1.00  0.00     0.040 A 
ATOM     45  C   UNL A   1      50.623  26.542  28.880  1.00  0.00     0.040 A 
ATOM     46  F   UNL A   1      48.908  27.608  27.687  1.00  0.00    -0.206 F 
ATOM     47  C   UNL A   1      51.073  25.878  30.019  1.00  0.00     0.006 A 
ENDBRANCH  26  40
BRANCH  27  48
ATOM     48  C   UNL A   1      38.727  29.122  29.039  1.00  0.00     0.057 A 
ATOM     49  C   UNL A   1      37.858  29.043  30.132  1.00  0.00     0.134 A 
ATOM     50  C   UNL A   1      38.199  29.571  27.823  1.00  0.00     0.134 A 
ATOM     51  F   UNL A   1      38.303  28.604  31.319  1.00  0.00    -0.206 F 
ATOM     52  C   UNL A   1      36.510  29.388  30.019  1.00  0.00     0.040 A 
ATOM     53  C   UNL A   1      36.861  29.945  27.702  1.00  0.00     0.040 A 
ATOM     54  F   UNL A   1      38.984  29.676  26.741  1.00  0.00    -0.206 F 
ATOM     55  C   UNL A   1      36.011  29.848  28.802  1.00  0.00     0.006 A 
ENDBRANCH  27  48
BRANCH  39  56
ATOM     56  C   UNL A   1      44.362  32.560  31.219  1.00  0.00     0.057 A 
ATOM     57  C   UNL A   1      44.317  32.847  32.590  1.00  0.00     0.134 A 
ATOM     58  C   UNL A   1      44.605  33.625  30.341  1.00  0.00     0.134 A 
ATOM     59  F   UNL A   1      44.071  31.873  33.480  1.00  0.00    -0.206 F 
ATOM     60  C   UNL A   1      44.479  34.148  33.068  1.00  0.00     0.040 A 
ATOM     61  C   UNL A   1      44.793  34.926  30.809  1.00  0.00     0.040 A 
ATOM     62  F   UNL A   1      44.666  33.416  29.019  1.00  0.00    -0.206 F 
ATOM     63  C   UNL A   1      44.723  35.190  32.175  1.00  0.00     0.006 A 
ENDBRANCH  39  56
ENDBRANCH  13  14
ENDBRANCH   6   8
ENDBRANCH   3   4
ENDBRANCH   2   3
ENDBRANCH   1   2
BRANCH   1  64
ATOM     64  C   UNL A   1      37.595  23.457  25.723  1.00  0.00     0.116 C 
BRANCH  64  65
ATOM     65  N   UNL A   1      37.402  23.316  24.293  1.00  0.00    -0.354 N 
ATOM     66  C   UNL A   1      36.244  23.146  23.590  1.00  0.00     0.243 C 
ATOM     67  H   UNL A   1      38.224  23.347  23.752  1.00  0.00     0.163 HD
ATOM     68  O   UNL A   1      36.345  22.878  22.390  1.00  0.00    -0.273 OA
BRANCH  66  69
ATOM     69  C   UNL A   1      34.885  23.239  24.316  1.00  0.00     0.185 C 
ATOM     70  C   UNL A   1      34.476  21.855  24.812  1.00  0.00     0.106 C 
ATOM     71  N   UNL A   1      33.868  23.765  23.402  1.00  0.00    -0.318 N 
ATOM     72  S   UNL A   1      32.939  21.408  23.966  1.00  0.00    -0.138 SA
ATOM     73  C   UNL A   1      33.047  22.757  22.776  1.00  0.00     0.190 C 
BRANCH  71  74
ATOM     74  C   UNL A   1      33.858  25.109  23.095  1.00  0.00     0.261 C 
ATOM     75  O   UNL A   1      34.001  25.503  21.934  1.00  0.00    -0.271 OA
BRANCH  74  76
ATOM     76  C   UNL A   1      33.656  26.117  24.236  1.00  0.00     0.329 C 
BRANCH  76  77
ATOM     77  O   UNL A   1      33.864  27.488  23.917  1.00  0.00    -0.482 OA
BRANCH  77  78
ATOM     78  C   UNL A   1      32.732  28.248  23.775  1.00  0.00     0.138 A 
ATOM     79  C   UNL A   1      31.921  28.191  22.639  1.00  0.00     0.049 A 
ATOM     80  C   UNL A   1      32.319  29.033  24.863  1.00  0.00     0.084 A 
ATOM     81  C   UNL A   1      30.722  28.907  22.586  1.00  0.00     0.024 A 
ATOM     82  C   UNL A   1      31.127  29.761  24.807  1.00  0.00     0.045 A 
ATOM     83  Cl  UNL A   1      33.274  29.141  26.299  1.00  0.00    -0.080 Cl
ATOM     84  C   UNL A   1      30.331  29.687  23.668  1.00  0.00     0.042 A 
ATOM     85  Cl  UNL A   1      28.849  30.556  23.599  1.00  0.00    -0.084 Cl
ENDBRANCH  77  78
ENDBRANCH  76  77
ENDBRANCH  74  76
ENDBRANCH  71  74
ENDBRANCH  66  69
ENDBRANCH  64  65
ENDBRANCH   1  64
TORSDOF 15
ENDMDL
MODEL 3
REMARK VINA RESULT:     -11.1      4.451      9.115
REMARK SMILES O=C(NCCCCNC(=O)[C@@H]1CSCN1C(=O)COc1ccc(Cl)cc1Cl)c1ccc(-c2c3nc(c(-c4c(F)cccc4F)c4ccc([nH]4)c(-c4c(F)cccc4F)c4nc(c(-c5c(F)cccc5F)c5ccc2[nH]5)C=C4)C=C3)cc1
REMARK SMILES IDX 6 1 5 2 4 3 3 4 1 5 2 6 28 8 29 9 81 10 30 11 80 12 31 13
REMARK SMILES IDX 32 14 33 15 74 16 34 17 79 18 73 19 75 20 35 21 78 22 72 23
REMARK SMILES IDX 71 24 36 26 62 27 45 28 61 29 46 30 49 31 60 32 76 33 47 34
REMARK SMILES IDX 48 35 59 37 77 38 50 39 37 40 38 41 43 42 39 43 40 44 42 45
REMARK SMILES IDX 44 46 41 47 63 48 64 49 69 50 65 51 66 52 68 53 70 54 67 55
REMARK SMILES IDX 51 56 52 57 57 58 53 59 54 60 56 61 58 62 55 63 7 64 8 65
REMARK SMILES IDX 9 66 10 68 11 69 12 70 15 71 13 72 14 73 16 74 17 75 18 76
REMARK SMILES IDX 19 77 20 78 21 79 26 80 22 81 25 82 27 83 23 84 24 85
REMARK H PARENT 3 7 75 25 49 36 8 67
REMARK Flexibility Score: inf
ROOT
ATOM      1  C   UNL A   1      31.722  30.154  26.822  1.00  0.00     0.023 C 
ENDROOT
BRANCH   1   2
ATOM      2  C   UNL A   1      31.504  31.667  26.734  1.00  0.00     0.023 C 
BRANCH   2   3
ATOM      3  C   UNL A   1      32.760  32.511  26.912  1.00  0.00     0.116 C 
BRANCH   3   4
ATOM      4  N   UNL A   1      32.480  33.837  27.440  1.00  0.00    -0.352 N 
ATOM      5  O   UNL A   1      32.633  35.568  28.878  1.00  0.00    -0.269 OA
ATOM      6  C   UNL A   1      33.088  34.501  28.479  1.00  0.00     0.251 C 
ATOM      7  H   UNL A   1      31.756  34.328  26.990  1.00  0.00     0.163 HD
BRANCH   6   8
ATOM      8  C   UNL A   1      34.273  33.909  29.134  1.00  0.00     0.039 A 
ATOM      9  C   UNL A   1      35.560  34.330  28.794  1.00  0.00     0.014 A 
ATOM     10  C   UNL A   1      34.091  32.912  30.098  1.00  0.00     0.014 A 
ATOM     11  C   UNL A   1      36.663  33.654  29.302  1.00  0.00     0.010 A 
ATOM     12  C   UNL A   1      35.204  32.292  30.672  1.00  0.00     0.010 A 
ATOM     13  C   UNL A   1      36.498  32.632  30.252  1.00  0.00    -0.014 A 
BRANCH  13  14
ATOM     14  C   UNL A   1      37.700  31.971  30.818  1.00  0.00     0.031 A 
ATOM     15  C   UNL A   1      38.173  32.273  32.211  1.00  0.00     0.074 A 
ATOM     16  C   UNL A   1      38.343  31.052  30.070  1.00  0.00     0.049 A 
ATOM     17  N   UNL A   1      39.174  31.747  32.874  1.00  0.00    -0.248 NA
ATOM     18  C   UNL A   1      37.438  33.304  32.959  1.00  0.00     0.031 C 
ATOM     19  C   UNL A   1      37.982  30.682  28.700  1.00  0.00     0.029 A 
ATOM     20  N   UNL A   1      39.410  30.245  30.363  1.00  0.00    -0.354 N 
ATOM     21  C   UNL A   1      39.201  32.393  34.103  1.00  0.00     0.074 A 
ATOM     22  C   UNL A   1      38.131  33.369  34.087  1.00  0.00     0.031 C 
ATOM     23  C   UNL A   1      38.776  29.681  28.292  1.00  0.00     0.029 A 
ATOM     24  C   UNL A   1      39.735  29.379  29.347  1.00  0.00     0.049 A 
ATOM     25  H   UNL A   1      39.897  30.281  31.218  1.00  0.00     0.167 HD
ATOM     26  C   UNL A   1      40.036  32.186  35.149  1.00  0.00     0.037 A 
ATOM     27  C   UNL A   1      40.703  28.449  29.270  1.00  0.00     0.037 A 
ATOM     28  C   UNL A   1      41.086  31.200  35.169  1.00  0.00     0.049 A 
ATOM     29  C   UNL A   1      41.623  28.252  30.438  1.00  0.00     0.074 A 
ATOM     30  C   UNL A   1      41.956  30.885  36.198  1.00  0.00     0.029 A 
ATOM     31  N   UNL A   1      41.410  30.370  34.105  1.00  0.00    -0.354 N 
ATOM     32  N   UNL A   1      41.613  28.847  31.606  1.00  0.00    -0.248 NA
ATOM     33  C   UNL A   1      42.692  27.259  30.274  1.00  0.00     0.031 C 
ATOM     34  C   UNL A   1      42.834  29.893  35.744  1.00  0.00     0.029 A 
ATOM     35  C   UNL A   1      42.482  29.559  34.446  1.00  0.00     0.049 A 
ATOM     36  H   UNL A   1      40.947  30.358  33.237  1.00  0.00     0.167 HD
ATOM     37  C   UNL A   1      42.661  28.290  32.324  1.00  0.00     0.074 A 
ATOM     38  C   UNL A   1      43.274  27.296  31.465  1.00  0.00     0.031 C 
ATOM     39  C   UNL A   1      43.082  28.577  33.580  1.00  0.00     0.037 A 
BRANCH  26  40
ATOM     40  C   UNL A   1      39.862  33.058  36.360  1.00  0.00     0.057 A 
ATOM     41  C   UNL A   1      40.572  34.254  36.522  1.00  0.00     0.134 A 
ATOM     42  C   UNL A   1      38.940  32.714  37.358  1.00  0.00     0.134 A 
ATOM     43  F   UNL A   1      41.478  34.637  35.610  1.00  0.00    -0.206 F 
ATOM     44  C   UNL A   1      40.388  35.066  37.644  1.00  0.00     0.040 A 
ATOM     45  C   UNL A   1      38.732  33.528  38.473  1.00  0.00     0.040 A 
ATOM     46  F   UNL A   1      38.222  31.585  37.262  1.00  0.00    -0.206 F 
ATOM     47  C   UNL A   1      39.460  34.706  38.620  1.00  0.00     0.006 A 
ENDBRANCH  26  40
BRANCH  27  48
ATOM     48  C   UNL A   1      40.839  27.629  28.042  1.00  0.00     0.057 A 
ATOM     49  C   UNL A   1      41.608  28.072  26.960  1.00  0.00     0.134 A 
ATOM     50  C   UNL A   1      40.220  26.379  27.926  1.00  0.00     0.134 A 
ATOM     51  F   UNL A   1      42.213  29.268  27.007  1.00  0.00    -0.206 F 
ATOM     52  C   UNL A   1      41.748  27.306  25.802  1.00  0.00     0.040 A 
ATOM     53  C   UNL A   1      40.372  25.591  26.785  1.00  0.00     0.040 A 
ATOM     54  F   UNL A   1      39.476  25.896  28.932  1.00  0.00    -0.206 F 
ATOM     55  C   UNL A   1      41.135  26.057  25.717  1.00  0.00     0.006 A 
ENDBRANCH  27  48
BRANCH  39  56
ATOM     56  C   UNL A   1      44.242  27.785  34.102  1.00  0.00     0.057 A 
ATOM     57  C   UNL A   1      45.559  28.251  33.999  1.00  0.00     0.134 A 
ATOM     58  C   UNL A   1      44.038  26.548  34.728  1.00  0.00     0.134 A 
ATOM     59  F   UNL A   1      45.821  29.420  33.395  1.00  0.00    -0.206 F 
ATOM     60  C   UNL A   1      46.636  27.501  34.474  1.00  0.00     0.040 A 
ATOM     61  C   UNL A   1      45.104  25.801  35.229  1.00  0.00     0.040 A 
ATOM     62  F   UNL A   1      42.800  26.051  34.864  1.00  0.00    -0.206 F 
ATOM     63  C   UNL A   1      46.408  26.275  35.096  1.00  0.00     0.006 A 
ENDBRANCH  39  56
ENDBRANCH  13  14
ENDBRANCH   6   8
ENDBRANCH   3   4
ENDBRANCH   2   3
ENDBRANCH   1   2
BRANCH   1  64
ATOM     64  C   UNL A   1      32.230  29.507  25.534  1.00  0.00     0.116 C 
BRANCH  64  65
ATOM     65  N   UNL A   1      33.269  28.535  25.810  1.00  0.00    -0.354 N 
ATOM     66  C   UNL A   1      33.235  27.175  25.691  1.00  0.00     0.243 C 
ATOM     67  H   UNL A   1      34.121  28.910  26.132  1.00  0.00     0.163 HD
ATOM     68  O   UNL A   1      34.190  26.543  26.149  1.00  0.00    -0.273 OA
BRANCH  66  69
ATOM     69  C   UNL A   1      32.009  26.492  25.049  1.00  0.00     0.185 C 
ATOM     70  C   UNL A   1      31.200  25.778  26.129  1.00  0.00     0.106 C 
ATOM     71  N   UNL A   1      32.449  25.531  24.035  1.00  0.00    -0.318 N 
ATOM     72  S   UNL A   1      31.220  24.010  25.741  1.00  0.00    -0.138 SA
ATOM     73  C   UNL A   1      32.509  24.163  24.491  1.00  0.00     0.190 C 
BRANCH  71  74
ATOM     74  C   UNL A   1      32.900  25.987  22.815  1.00  0.00     0.261 C 
ATOM     75  O   UNL A   1      33.799  25.403  22.204  1.00  0.00    -0.271 OA
BRANCH  74  76
ATOM     76  C   UNL A   1      32.251  27.247  22.221  1.00  0.00     0.329 C 
BRANCH  76  77
ATOM     77  O   UNL A   1      30.854  27.180  21.962  1.00  0.00    -0.482 OA
BRANCH  77  78
ATOM     78  C   UNL A   1      30.118  28.265  22.366  1.00  0.00     0.138 A 
ATOM     79  C   UNL A   1      30.393  29.565  21.937  1.00  0.00     0.049 A 
ATOM     80  C   UNL A   1      28.980  28.038  23.155  1.00  0.00     0.084 A 
ATOM     81  C   UNL A   1      29.552  30.623  22.293  1.00  0.00     0.024 A 
ATOM     82  C   UNL A   1      28.144  29.096  23.523  1.00  0.00     0.045 A 
ATOM     83  Cl  UNL A   1      28.581  26.452  23.711  1.00  0.00    -0.080 Cl
ATOM     84  C   UNL A   1      28.433  30.385  23.083  1.00  0.00     0.042 A 
ATOM     85  Cl  UNL A   1      27.396  31.689  23.506  1.00  0.00    -0.084 Cl
ENDBRANCH  77  78
ENDBRANCH  76  77
ENDBRANCH  74  76
ENDBRANCH  71  74
ENDBRANCH  66  69
ENDBRANCH  64  65
ENDBRANCH   1  64
TORSDOF 15
ENDMDL
