MODEL 1
REMARK VINA RESULT:     -10.3      0.000      0.000
REMARK SMILES CCCOCCO[C@H]1CC[C@@]([NH3+])(C(=O)NCCCCNC(=O)c2ccc(-c3c4nc(c(-c5c(F)cccc5F)c5ccc([nH]5)c(-c5c(F)cccc5F)c5nc(c(-c6c(F)cccc6F)c6ccc3[nH]6)C=C5)C=C4)cc2)C1
REMARK SMILES IDX 13 1 14 2 15 3 11 5 8 6 9 7 77 8 10 9 7 10 6 11 5 12 4 13
REMARK SMILES IDX 3 14 2 15 1 16 12 17 16 21 17 22 18 23 19 24 20 25 21 26
REMARK SMILES IDX 22 28 23 29 24 30 76 31 25 32 75 33 26 34 27 35 28 36 69 37
REMARK SMILES IDX 29 38 74 39 68 40 70 41 30 42 73 43 67 44 66 45 31 47 57 48
REMARK SMILES IDX 40 49 56 50 41 51 44 52 55 53 71 54 42 55 43 56 54 58 72 59
REMARK SMILES IDX 45 60 32 61 33 62 38 63 34 64 35 65 37 66 39 67 36 68 58 69
REMARK SMILES IDX 59 70 64 71 60 72 61 73 63 74 65 75 62 76 46 77 47 78 52 79
REMARK SMILES IDX 48 80 49 81 51 82 53 83 50 84
REMARK H PARENT 15 4 12 18 12 19 12 20 20 27 70 46 44 57
REMARK Flexibility Score: inf
ROOT
ATOM      1  C   UNL A   1      33.075  28.818  23.519  1.00  0.00     0.281 C 
ATOM      2  O   UNL A   1      33.897  29.321  22.742  1.00  0.00    -0.268 OA
ATOM      3  N   UNL A   1      32.837  29.476  24.683  1.00  0.00    -0.351 N 
ATOM      4  H   UNL A   1      33.601  29.975  25.053  1.00  0.00     0.163 HD
ENDROOT
BRANCH   1   5
ATOM      5  C   UNL A   1      32.324  27.449  23.109  1.00  0.00     0.176 C 
ATOM      6  C   UNL A   1      31.323  25.077  25.175  1.00  0.00     0.125 C 
ATOM      7  C   UNL A   1      29.712  26.169  24.623  1.00  0.00     0.039 C 
ATOM      8  C   UNL A   1      32.954  25.966  24.338  1.00  0.00     0.111 C 
ATOM      9  C   UNL A   1      30.324  27.534  23.278  1.00  0.00     0.082 C 
BRANCH   6  10
ATOM     10  O   UNL A   1      31.098  24.689  26.516  1.00  0.00    -0.376 OA
BRANCH  10  11
ATOM     11  C   UNL A   1      31.011  23.323  26.848  1.00  0.00     0.189 C 
BRANCH  11  12
ATOM     12  C   UNL A   1      31.984  22.457  26.079  1.00  0.00     0.188 C 
BRANCH  12  13
ATOM     13  O   UNL A   1      31.446  21.280  25.486  1.00  0.00    -0.379 OA
BRANCH  13  14
ATOM     14  C   UNL A   1      32.223  20.550  24.536  1.00  0.00     0.160 C 
BRANCH  14  15
ATOM     15  C   UNL A   1      33.050  19.176  25.061  1.00  0.00     0.025 C 
ATOM     16  C   UNL A   1      34.580  17.815  24.338  1.00  0.00     0.006 C 
ENDBRANCH  14  15
ENDBRANCH  13  14
ENDBRANCH  12  13
ENDBRANCH  11  12
ENDBRANCH  10  11
ENDBRANCH   6  10
BRANCH   5  17
ATOM     17  N   UNL A   1      32.838  27.265  21.705  1.00  0.00    -0.345 N 
ATOM     18  H   UNL A   1      33.845  27.428  21.688  1.00  0.00     0.345 HD
ATOM     19  H   UNL A   1      32.375  27.928  21.083  1.00  0.00     0.345 HD
ATOM     20  H   UNL A   1      32.643  26.314  21.393  1.00  0.00     0.345 HD
ENDBRANCH   5  17
ENDBRANCH   1   5
BRANCH   3  21
ATOM     21  C   UNL A   1      31.617  29.544  25.454  1.00  0.00     0.116 C 
BRANCH  21  22
ATOM     22  C   UNL A   1      31.750  30.275  26.796  1.00  0.00     0.023 C 
BRANCH  22  23
ATOM     23  C   UNL A   1      31.573  31.791  26.787  1.00  0.00     0.023 C 
BRANCH  23  24
ATOM     24  C   UNL A   1      32.820  32.611  27.068  1.00  0.00     0.116 C 
BRANCH  24  25
ATOM     25  N   UNL A   1      32.535  33.931  27.601  1.00  0.00    -0.352 N 
ATOM     26  C   UNL A   1      33.170  34.619  28.602  1.00  0.00     0.251 C 
ATOM     27  H   UNL A   1      31.776  34.400  27.184  1.00  0.00     0.163 HD
ATOM     28  O   UNL A   1      32.741  35.708  28.971  1.00  0.00    -0.269 OA
BRANCH  26  29
ATOM     29  C   UNL A   1      34.343  34.021  29.270  1.00  0.00     0.039 A 
ATOM     30  C   UNL A   1      34.126  33.031  30.231  1.00  0.00     0.014 A 
ATOM     31  C   UNL A   1      35.644  34.403  28.931  1.00  0.00     0.014 A 
ATOM     32  C   UNL A   1      35.215  32.377  30.804  1.00  0.00     0.010 A 
ATOM     33  C   UNL A   1      36.725  33.693  29.439  1.00  0.00     0.010 A 
ATOM     34  C   UNL A   1      36.522  32.675  30.383  1.00  0.00    -0.014 A 
BRANCH  34  35
ATOM     35  C   UNL A   1      37.687  31.936  30.927  1.00  0.00     0.031 A 
ATOM     36  C   UNL A   1      38.213  32.263  32.296  1.00  0.00     0.074 A 
ATOM     37  C   UNL A   1      38.301  31.010  30.168  1.00  0.00     0.049 A 
ATOM     38  N   UNL A   1      39.245  31.765  32.927  1.00  0.00    -0.248 NA
ATOM     39  C   UNL A   1      37.499  33.310  33.046  1.00  0.00     0.031 C 
ATOM     40  C   UNL A   1      37.913  30.636  28.806  1.00  0.00     0.029 A 
ATOM     41  N   UNL A   1      39.389  30.215  30.431  1.00  0.00    -0.354 N 
ATOM     42  C   UNL A   1      39.312  32.443  34.137  1.00  0.00     0.074 A 
ATOM     43  C   UNL A   1      38.254  33.431  34.127  1.00  0.00     0.031 C 
ATOM     44  C   UNL A   1      38.730  29.664  28.367  1.00  0.00     0.029 A 
ATOM     45  C   UNL A   1      39.722  29.376  29.397  1.00  0.00     0.049 A 
ATOM     46  H   UNL A   1      39.884  30.246  31.282  1.00  0.00     0.167 HD
ATOM     47  C   UNL A   1      40.160  32.245  35.172  1.00  0.00     0.037 A 
ATOM     48  C   UNL A   1      40.718  28.476  29.292  1.00  0.00     0.037 A 
ATOM     49  C   UNL A   1      41.199  31.249  35.184  1.00  0.00     0.049 A 
ATOM     50  C   UNL A   1      41.660  28.289  30.448  1.00  0.00     0.074 A 
ATOM     51  C   UNL A   1      42.075  30.929  36.205  1.00  0.00     0.029 A 
ATOM     52  N   UNL A   1      41.503  30.414  34.119  1.00  0.00    -0.354 N 
ATOM     53  N   UNL A   1      41.667  28.887  31.615  1.00  0.00    -0.248 NA
ATOM     54  C   UNL A   1      42.731  27.297  30.275  1.00  0.00     0.031 C 
ATOM     55  C   UNL A   1      42.942  29.934  35.741  1.00  0.00     0.029 A 
ATOM     56  C   UNL A   1      42.571  29.595  34.449  1.00  0.00     0.049 A 
ATOM     57  H   UNL A   1      41.030  30.404  33.255  1.00  0.00     0.167 HD
ATOM     58  C   UNL A   1      42.719  28.322  32.326  1.00  0.00     0.074 A 
ATOM     59  C   UNL A   1      43.319  27.326  31.462  1.00  0.00     0.031 C 
ATOM     60  C   UNL A   1      43.149  28.603  33.580  1.00  0.00     0.037 A 
BRANCH  47  61
ATOM     61  C   UNL A   1      39.996  33.128  36.376  1.00  0.00     0.057 A 
ATOM     62  C   UNL A   1      39.108  32.808  37.413  1.00  0.00     0.134 A 
ATOM     63  C   UNL A   1      40.746  34.302  36.510  1.00  0.00     0.134 A 
ATOM     64  F   UNL A   1      38.350  31.703  37.342  1.00  0.00    -0.206 F 
ATOM     65  C   UNL A   1      38.949  33.640  38.522  1.00  0.00     0.040 A 
ATOM     66  C   UNL A   1      40.617  35.127  37.629  1.00  0.00     0.040 A 
ATOM     67  F   UNL A   1      41.619  34.666  35.559  1.00  0.00    -0.206 F 
ATOM     68  C   UNL A   1      39.710  34.801  38.635  1.00  0.00     0.006 A 
ENDBRANCH  47  61
BRANCH  48  69
ATOM     69  C   UNL A   1      40.862  27.663  28.057  1.00  0.00     0.057 A 
ATOM     70  C   UNL A   1      40.244  26.413  27.943  1.00  0.00     0.134 A 
ATOM     71  C   UNL A   1      41.624  28.107  26.970  1.00  0.00     0.134 A 
ATOM     72  F   UNL A   1      39.514  25.926  28.959  1.00  0.00    -0.206 F 
ATOM     73  C   UNL A   1      40.394  25.623  26.802  1.00  0.00     0.040 A 
ATOM     74  C   UNL A   1      41.763  27.339  25.813  1.00  0.00     0.040 A 
ATOM     75  F   UNL A   1      42.237  29.300  27.013  1.00  0.00    -0.206 F 
ATOM     76  C   UNL A   1      41.154  26.088  25.731  1.00  0.00     0.006 A 
ENDBRANCH  48  69
BRANCH  60  77
ATOM     77  C   UNL A   1      44.298  27.793  34.108  1.00  0.00     0.057 A 
ATOM     78  C   UNL A   1      44.105  26.563  34.749  1.00  0.00     0.134 A 
ATOM     79  C   UNL A   1      45.616  28.235  33.939  1.00  0.00     0.134 A 
ATOM     80  F   UNL A   1      42.866  26.089  34.955  1.00  0.00    -0.206 F 
ATOM     81  C   UNL A   1      45.182  25.812  35.225  1.00  0.00     0.040 A 
ATOM     82  C   UNL A   1      46.702  27.480  34.385  1.00  0.00     0.040 A 
ATOM     83  F   UNL A   1      45.871  29.400  33.325  1.00  0.00    -0.206 F 
ATOM     84  C   UNL A   1      46.485  26.267  35.035  1.00  0.00     0.006 A 
ENDBRANCH  60  77
ENDBRANCH  34  35
ENDBRANCH  26  29
ENDBRANCH  24  25
ENDBRANCH  23  24
ENDBRANCH  22  23
ENDBRANCH  21  22
ENDBRANCH   3  21
TORSDOF 18
ENDMDL
MODEL 2
REMARK VINA RESULT:     -10.3      4.928     10.268
REMARK SMILES CCCOCCO[C@H]1CC[C@@]([NH3+])(C(=O)NCCCCNC(=O)c2ccc(-c3c4nc(c(-c5c(F)cccc5F)c5ccc([nH]5)c(-c5c(F)cccc5F)c5nc(c(-c6c(F)cccc6F)c6ccc3[nH]6)C=C5)C=C4)cc2)C1
REMARK SMILES IDX 13 1 14 2 15 3 11 5 8 6 9 7 77 8 10 9 7 10 6 11 5 12 4 13
REMARK SMILES IDX 3 14 2 15 1 16 12 17 16 21 17 22 18 23 19 24 20 25 21 26
REMARK SMILES IDX 22 28 23 29 24 30 76 31 25 32 75 33 26 34 27 35 28 36 69 37
REMARK SMILES IDX 29 38 74 39 68 40 70 41 30 42 73 43 67 44 66 45 31 47 57 48
REMARK SMILES IDX 40 49 56 50 41 51 44 52 55 53 71 54 42 55 43 56 54 58 72 59
REMARK SMILES IDX 45 60 32 61 33 62 38 63 34 64 35 65 37 66 39 67 36 68 58 69
REMARK SMILES IDX 59 70 64 71 60 72 61 73 63 74 65 75 62 76 46 77 47 78 52 79
REMARK SMILES IDX 48 80 49 81 51 82 53 83 50 84
REMARK H PARENT 15 4 12 18 12 19 12 20 20 27 70 46 44 57
REMARK Flexibility Score: inf
ROOT
ATOM      1  C   UNL A   1      34.119  21.958  26.830  1.00  0.00     0.281 C 
ATOM      2  O   UNL A   1      33.862  21.656  28.002  1.00  0.00    -0.268 OA
ATOM      3  N   UNL A   1      35.427  21.968  26.462  1.00  0.00    -0.351 N 
ATOM      4  H   UNL A   1      36.065  22.213  27.171  1.00  0.00     0.163 HD
ENDROOT
BRANCH   1   5
ATOM      5  C   UNL A   1      32.914  22.296  25.810  1.00  0.00     0.176 C 
ATOM      6  C   UNL A   1      33.006  24.472  23.330  1.00  0.00     0.125 C 
ATOM      7  C   UNL A   1      33.188  22.612  22.557  1.00  0.00     0.039 C 
ATOM      8  C   UNL A   1      32.975  24.270  25.357  1.00  0.00     0.111 C 
ATOM      9  C   UNL A   1      33.014  21.297  24.069  1.00  0.00     0.082 C 
BRANCH   6  10
ATOM     10  O   UNL A   1      33.801  25.317  22.521  1.00  0.00    -0.376 OA
BRANCH  10  11
ATOM     11  C   UNL A   1      33.302  26.566  22.105  1.00  0.00     0.189 C 
BRANCH  11  12
ATOM     12  C   UNL A   1      33.750  27.713  22.982  1.00  0.00     0.188 C 
BRANCH  12  13
ATOM     13  O   UNL A   1      33.002  27.923  24.175  1.00  0.00    -0.379 OA
BRANCH  13  14
ATOM     14  C   UNL A   1      33.658  27.848  25.442  1.00  0.00     0.160 C 
BRANCH  14  15
ATOM     15  C   UNL A   1      33.155  28.890  26.669  1.00  0.00     0.025 C 
ATOM     16  C   UNL A   1      32.149  30.803  26.877  1.00  0.00     0.006 C 
ENDBRANCH  14  15
ENDBRANCH  13  14
ENDBRANCH  12  13
ENDBRANCH  11  12
ENDBRANCH  10  11
ENDBRANCH   6  10
BRANCH   5  17
ATOM     17  N   UNL A   1      31.725  21.958  26.671  1.00  0.00    -0.345 N 
ATOM     18  H   UNL A   1      31.441  20.994  26.496  1.00  0.00     0.345 HD
ATOM     19  H   UNL A   1      30.952  22.586  26.447  1.00  0.00     0.345 HD
ATOM     20  H   UNL A   1      31.975  22.065  27.654  1.00  0.00     0.345 HD
ENDBRANCH   5  17
ENDBRANCH   1   5
BRANCH   3  21
ATOM     21  C   UNL A   1      36.011  21.666  25.176  1.00  0.00     0.116 C 
BRANCH  21  22
ATOM     22  C   UNL A   1      36.443  20.205  24.998  1.00  0.00     0.023 C 
BRANCH  22  23
ATOM     23  C   UNL A   1      37.902  19.948  24.631  1.00  0.00     0.023 C 
BRANCH  23  24
ATOM     24  C   UNL A   1      38.913  20.127  25.749  1.00  0.00     0.116 C 
BRANCH  24  25
ATOM     25  N   UNL A   1      39.945  19.105  25.764  1.00  0.00    -0.352 N 
ATOM     26  C   UNL A   1      41.284  19.226  26.031  1.00  0.00     0.251 C 
ATOM     27  H   UNL A   1      39.638  18.193  25.552  1.00  0.00     0.163 HD
ATOM     28  O   UNL A   1      42.024  18.253  25.927  1.00  0.00    -0.269 OA
BRANCH  26  29
ATOM     29  C   UNL A   1      41.840  20.544  26.396  1.00  0.00     0.039 A 
ATOM     30  C   UNL A   1      42.167  21.433  25.369  1.00  0.00     0.014 A 
ATOM     31  C   UNL A   1      42.006  20.917  27.732  1.00  0.00     0.014 A 
ATOM     32  C   UNL A   1      42.598  22.720  25.684  1.00  0.00     0.010 A 
ATOM     33  C   UNL A   1      42.353  22.226  28.044  1.00  0.00     0.010 A 
ATOM     34  C   UNL A   1      42.656  23.139  27.024  1.00  0.00    -0.014 A 
BRANCH  34  35
ATOM     35  C   UNL A   1      43.040  24.529  27.373  1.00  0.00     0.031 A 
ATOM     36  C   UNL A   1      44.480  24.952  27.305  1.00  0.00     0.074 A 
ATOM     37  C   UNL A   1      42.099  25.392  27.801  1.00  0.00     0.049 A 
ATOM     38  N   UNL A   1      45.020  26.103  27.615  1.00  0.00    -0.248 NA
ATOM     39  C   UNL A   1      45.447  23.936  26.856  1.00  0.00     0.031 C 
ATOM     40  C   UNL A   1      40.675  25.086  27.953  1.00  0.00     0.029 A 
ATOM     41  N   UNL A   1      42.200  26.703  28.194  1.00  0.00    -0.354 N 
ATOM     42  C   UNL A   1      46.385  25.946  27.409  1.00  0.00     0.074 A 
ATOM     43  C   UNL A   1      46.598  24.572  27.008  1.00  0.00     0.031 C 
ATOM     44  C   UNL A   1      40.032  26.188  28.375  1.00  0.00     0.029 A 
ATOM     45  C   UNL A   1      41.001  27.262  28.563  1.00  0.00     0.049 A 
ATOM     46  H   UNL A   1      43.053  27.195  28.209  1.00  0.00     0.167 HD
ATOM     47  C   UNL A   1      47.368  26.869  27.520  1.00  0.00     0.037 A 
ATOM     48  C   UNL A   1      40.718  28.502  29.005  1.00  0.00     0.037 A 
ATOM     49  C   UNL A   1      47.148  28.239  27.902  1.00  0.00     0.049 A 
ATOM     50  C   UNL A   1      41.831  29.503  29.139  1.00  0.00     0.074 A 
ATOM     51  C   UNL A   1      48.069  29.269  27.989  1.00  0.00     0.029 A 
ATOM     52  N   UNL A   1      45.919  28.770  28.264  1.00  0.00    -0.354 N 
ATOM     53  N   UNL A   1      43.107  29.363  28.872  1.00  0.00    -0.248 NA
ATOM     54  C   UNL A   1      41.463  30.838  29.631  1.00  0.00     0.031 C 
ATOM     55  C   UNL A   1      47.405  30.410  28.451  1.00  0.00     0.029 A 
ATOM     56  C   UNL A   1      46.061  30.106  28.600  1.00  0.00     0.049 A 
ATOM     57  H   UNL A   1      45.070  28.270  28.280  1.00  0.00     0.167 HD
ATOM     58  C   UNL A   1      43.689  30.598  29.133  1.00  0.00     0.074 A 
ATOM     59  C   UNL A   1      42.622  31.477  29.566  1.00  0.00     0.031 C 
ATOM     60  C   UNL A   1      44.987  30.969  29.022  1.00  0.00     0.037 A 
BRANCH  47  61
ATOM     61  C   UNL A   1      48.771  26.421  27.224  1.00  0.00     0.057 A 
ATOM     62  C   UNL A   1      49.299  26.449  25.926  1.00  0.00     0.134 A 
ATOM     63  C   UNL A   1      49.610  25.973  28.251  1.00  0.00     0.134 A 
ATOM     64  F   UNL A   1      48.544  26.856  24.894  1.00  0.00    -0.206 F 
ATOM     65  C   UNL A   1      50.597  26.016  25.655  1.00  0.00     0.040 A 
ATOM     66  C   UNL A   1      50.921  25.565  27.997  1.00  0.00     0.040 A 
ATOM     67  F   UNL A   1      49.172  25.925  29.518  1.00  0.00    -0.206 F 
ATOM     68  C   UNL A   1      51.415  25.578  26.695  1.00  0.00     0.006 A 
ENDBRANCH  47  61
BRANCH  48  69
ATOM     69  C   UNL A   1      39.317  28.876  29.329  1.00  0.00     0.057 A 
ATOM     70  C   UNL A   1      38.790  28.653  30.606  1.00  0.00     0.134 A 
ATOM     71  C   UNL A   1      38.472  29.453  28.374  1.00  0.00     0.134 A 
ATOM     72  F   UNL A   1      39.547  28.087  31.559  1.00  0.00    -0.206 F 
ATOM     73  C   UNL A   1      37.467  28.970  30.917  1.00  0.00     0.040 A 
ATOM     74  C   UNL A   1      37.155  29.799  28.678  1.00  0.00     0.040 A 
ATOM     75  F   UNL A   1      38.919  29.699  27.134  1.00  0.00    -0.206 F 
ATOM     76  C   UNL A   1      36.646  29.549  29.952  1.00  0.00     0.006 A 
ENDBRANCH  48  69
BRANCH  60  77
ATOM     77  C   UNL A   1      45.320  32.399  29.335  1.00  0.00     0.057 A 
ATOM     78  C   UNL A   1      45.242  33.408  28.367  1.00  0.00     0.134 A 
ATOM     79  C   UNL A   1      45.686  32.776  30.634  1.00  0.00     0.134 A 
ATOM     80  F   UNL A   1      44.910  33.112  27.100  1.00  0.00    -0.206 F 
ATOM     81  C   UNL A   1      45.542  34.737  28.673  1.00  0.00     0.040 A 
ATOM     82  C   UNL A   1      45.960  34.105  30.958  1.00  0.00     0.040 A 
ATOM     83  F   UNL A   1      45.770  31.860  31.610  1.00  0.00    -0.206 F 
ATOM     84  C   UNL A   1      45.894  35.089  29.975  1.00  0.00     0.006 A 
ENDBRANCH  60  77
ENDBRANCH  34  35
ENDBRANCH  26  29
ENDBRANCH  24  25
ENDBRANCH  23  24
ENDBRANCH  22  23
ENDBRANCH  21  22
ENDBRANCH   3  21
TORSDOF 18
ENDMDL
MODEL 3
REMARK VINA RESULT:     -10.2      1.136      6.445
REMARK SMILES CCCOCCO[C@H]1CC[C@@]([NH3+])(C(=O)NCCCCNC(=O)c2ccc(-c3c4nc(c(-c5c(F)cccc5F)c5ccc([nH]5)c(-c5c(F)cccc5F)c5nc(c(-c6c(F)cccc6F)c6ccc3[nH]6)C=C5)C=C4)cc2)C1
REMARK SMILES IDX 13 1 14 2 15 3 11 5 8 6 9 7 77 8 10 9 7 10 6 11 5 12 4 13
REMARK SMILES IDX 3 14 2 15 1 16 12 17 16 21 17 22 18 23 19 24 20 25 21 26
REMARK SMILES IDX 22 28 23 29 24 30 76 31 25 32 75 33 26 34 27 35 28 36 69 37
REMARK SMILES IDX 29 38 74 39 68 40 70 41 30 42 73 43 67 44 66 45 31 47 57 48
REMARK SMILES IDX 40 49 56 50 41 51 44 52 55 53 71 54 42 55 43 56 54 58 72 59
REMARK SMILES IDX 45 60 32 61 33 62 38 63 34 64 35 65 37 66 39 67 36 68 58 69
REMARK SMILES IDX 59 70 64 71 60 72 61 73 63 74 65 75 62 76 46 77 47 78 52 79
REMARK SMILES IDX 48 80 49 81 51 82 53 83 50 84
REMARK H PARENT 15 4 12 18 12 19 12 20 20 27 70 46 44 57
REMARK Flexibility Score: inf
ROOT
ATOM      1  C   UNL A   1      33.371  28.672  23.605  1.00  0.00     0.281 C 
ATOM      2  O   UNL A   1      34.331  28.984  22.889  1.00  0.00    -0.268 OA
ATOM      3  N   UNL A   1      33.057  29.513  24.624  1.00  0.00    -0.351 N 
ATOM      4  H   UNL A   1      33.815  29.997  25.025  1.00  0.00     0.163 HD
ENDROOT
BRANCH   1   5
ATOM      5  C   UNL A   1      32.542  27.324  23.286  1.00  0.00     0.176 C 
ATOM      6  C   UNL A   1      31.695  24.991  25.461  1.00  0.00     0.125 C 
ATOM      7  C   UNL A   1      30.067  26.128  25.074  1.00  0.00     0.039 C 
ATOM      8  C   UNL A   1      33.254  25.828  24.452  1.00  0.00     0.111 C 
ATOM      9  C   UNL A   1      30.574  27.468  23.663  1.00  0.00     0.082 C 
BRANCH   6  10
ATOM     10  O   UNL A   1      31.601  24.614  26.822  1.00  0.00    -0.376 OA
BRANCH  10  11
ATOM     11  C   UNL A   1      31.789  23.270  27.194  1.00  0.00     0.189 C 
BRANCH  11  12
ATOM     12  C   UNL A   1      33.236  22.833  27.149  1.00  0.00     0.188 C 
BRANCH  12  13
ATOM     13  O   UNL A   1      33.576  21.884  26.144  1.00  0.00    -0.379 OA
BRANCH  13  14
ATOM     14  C   UNL A   1      32.539  21.217  25.423  1.00  0.00     0.160 C 
BRANCH  14  15
ATOM     15  C   UNL A   1      32.456  21.434  23.752  1.00  0.00     0.025 C 
ATOM     16  C   UNL A   1      32.922  22.960  22.278  1.00  0.00     0.006 C 
ENDBRANCH  14  15
ENDBRANCH  13  14
ENDBRANCH  12  13
ENDBRANCH  11  12
ENDBRANCH  10  11
ENDBRANCH   6  10
BRANCH   5  17
ATOM     17  N   UNL A   1      32.901  27.120  21.837  1.00  0.00    -0.345 N 
ATOM     18  H   UNL A   1      32.526  26.226  21.517  1.00  0.00     0.345 HD
ATOM     19  H   UNL A   1      33.915  27.120  21.733  1.00  0.00     0.345 HD
ATOM     20  H   UNL A   1      32.502  27.874  21.278  1.00  0.00     0.345 HD
ENDBRANCH   5  17
ENDBRANCH   1   5
BRANCH   3  21
ATOM     21  C   UNL A   1      31.763  29.796  25.201  1.00  0.00     0.116 C 
BRANCH  21  22
ATOM     22  C   UNL A   1      31.812  30.400  26.610  1.00  0.00     0.023 C 
BRANCH  22  23
ATOM     23  C   UNL A   1      31.592  31.905  26.733  1.00  0.00     0.023 C 
BRANCH  23  24
ATOM     24  C   UNL A   1      32.770  32.713  27.249  1.00  0.00     0.116 C 
BRANCH  24  25
ATOM     25  N   UNL A   1      32.421  34.074  27.616  1.00  0.00    -0.352 N 
ATOM     26  C   UNL A   1      33.008  34.903  28.537  1.00  0.00     0.251 C 
ATOM     27  H   UNL A   1      31.652  34.457  27.135  1.00  0.00     0.163 HD
ATOM     28  O   UNL A   1      32.528  36.008  28.766  1.00  0.00    -0.269 OA
BRANCH  26  29
ATOM     29  C   UNL A   1      34.192  34.438  29.288  1.00  0.00     0.039 A 
ATOM     30  C   UNL A   1      33.995  33.865  30.547  1.00  0.00     0.014 A 
ATOM     31  C   UNL A   1      35.477  34.534  28.748  1.00  0.00     0.014 A 
ATOM     32  C   UNL A   1      35.081  33.326  31.234  1.00  0.00     0.010 A 
ATOM     33  C   UNL A   1      36.543  33.921  29.396  1.00  0.00     0.010 A 
ATOM     34  C   UNL A   1      36.356  33.315  30.647  1.00  0.00    -0.014 A 
BRANCH  34  35
ATOM     35  C   UNL A   1      37.507  32.678  31.333  1.00  0.00     0.031 A 
ATOM     36  C   UNL A   1      38.195  31.497  30.709  1.00  0.00     0.074 A 
ATOM     37  C   UNL A   1      37.896  33.130  32.540  1.00  0.00     0.049 A 
ATOM     38  N   UNL A   1      39.184  30.776  31.172  1.00  0.00    -0.248 NA
ATOM     39  C   UNL A   1      37.686  31.050  29.402  1.00  0.00     0.031 C 
ATOM     40  C   UNL A   1      37.278  34.239  33.270  1.00  0.00     0.029 A 
ATOM     41  N   UNL A   1      38.902  32.707  33.372  1.00  0.00    -0.354 N 
ATOM     42  C   UNL A   1      39.406  29.787  30.222  1.00  0.00     0.074 A 
ATOM     43  C   UNL A   1      38.410  29.962  29.187  1.00  0.00     0.031 C 
ATOM     44  C   UNL A   1      37.939  34.429  34.424  1.00  0.00     0.029 A 
ATOM     45  C   UNL A   1      38.997  33.431  34.535  1.00  0.00     0.049 A 
ATOM     46  H   UNL A   1      39.499  31.954  33.154  1.00  0.00     0.167 HD
ATOM     47  C   UNL A   1      40.367  28.834  30.201  1.00  0.00     0.037 A 
ATOM     48  C   UNL A   1      39.843  33.301  35.575  1.00  0.00     0.037 A 
ATOM     49  C   UNL A   1      41.366  28.676  31.225  1.00  0.00     0.049 A 
ATOM     50  C   UNL A   1      40.889  32.223  35.537  1.00  0.00     0.074 A 
ATOM     51  C   UNL A   1      42.419  27.779  31.271  1.00  0.00     0.029 A 
ATOM     52  N   UNL A   1      41.433  29.431  32.386  1.00  0.00    -0.354 N 
ATOM     53  N   UNL A   1      41.134  31.339  34.599  1.00  0.00    -0.248 NA
ATOM     54  C   UNL A   1      41.781  32.126  36.701  1.00  0.00     0.031 C 
ATOM     55  C   UNL A   1      43.094  27.959  32.483  1.00  0.00     0.029 A 
ATOM     56  C   UNL A   1      42.495  29.004  33.168  1.00  0.00     0.049 A 
ATOM     57  H   UNL A   1      40.817  30.163  32.621  1.00  0.00     0.167 HD
ATOM     58  C   UNL A   1      42.226  30.604  35.044  1.00  0.00     0.074 A 
ATOM     59  C   UNL A   1      42.602  31.154  36.330  1.00  0.00     0.031 C 
ATOM     60  C   UNL A   1      42.860  29.569  34.442  1.00  0.00     0.037 A 
BRANCH  47  61
ATOM     61  C   UNL A   1      40.379  27.892  29.032  1.00  0.00     0.057 A 
ATOM     62  C   UNL A   1      41.135  28.150  27.880  1.00  0.00     0.134 A 
ATOM     63  C   UNL A   1      39.640  26.703  29.065  1.00  0.00     0.134 A 
ATOM     64  F   UNL A   1      41.856  29.278  27.779  1.00  0.00    -0.206 F 
ATOM     65  C   UNL A   1      41.129  27.279  26.791  1.00  0.00     0.040 A 
ATOM     66  C   UNL A   1      39.650  25.808  27.993  1.00  0.00     0.040 A 
ATOM     67  F   UNL A   1      38.899  26.389  30.138  1.00  0.00    -0.206 F 
ATOM     68  C   UNL A   1      40.389  26.099  26.848  1.00  0.00     0.006 A 
ENDBRANCH  47  61
BRANCH  48  69
ATOM     69  C   UNL A   1      39.755  34.233  36.728  1.00  0.00     0.057 A 
ATOM     70  C   UNL A   1      39.021  33.895  37.871  1.00  0.00     0.134 A 
ATOM     71  C   UNL A   1      40.389  35.481  36.714  1.00  0.00     0.134 A 
ATOM     72  F   UNL A   1      38.376  32.720  37.936  1.00  0.00    -0.206 F 
ATOM     73  C   UNL A   1      38.902  34.772  38.950  1.00  0.00     0.040 A 
ATOM     74  C   UNL A   1      40.300  36.357  37.797  1.00  0.00     0.040 A 
ATOM     75  F   UNL A   1      41.114  35.861  35.652  1.00  0.00    -0.206 F 
ATOM     76  C   UNL A   1      39.547  36.007  38.916  1.00  0.00     0.006 A 
ENDBRANCH  48  69
BRANCH  60  77
ATOM     77  C   UNL A   1      44.051  28.990  35.149  1.00  0.00     0.057 A 
ATOM     78  C   UNL A   1      43.926  27.972  36.102  1.00  0.00     0.134 A 
ATOM     79  C   UNL A   1      45.344  29.433  34.841  1.00  0.00     0.134 A 
ATOM     80  F   UNL A   1      42.714  27.513  36.452  1.00  0.00    -0.206 F 
ATOM     81  C   UNL A   1      45.042  27.433  36.744  1.00  0.00     0.040 A 
ATOM     82  C   UNL A   1      46.470  28.882  35.455  1.00  0.00     0.040 A 
ATOM     83  F   UNL A   1      45.535  30.399  33.930  1.00  0.00    -0.206 F 
ATOM     84  C   UNL A   1      46.320  27.883  36.414  1.00  0.00     0.006 A 
ENDBRANCH  60  77
ENDBRANCH  34  35
ENDBRANCH  26  29
ENDBRANCH  24  25
ENDBRANCH  23  24
ENDBRANCH  22  23
ENDBRANCH  21  22
ENDBRANCH   3  21
TORSDOF 18
ENDMDL
