MODEL 1
REMARK VINA RESULT:     -12.2      0.000      0.000
REMARK SMILES NC(=O)CC[C@H](C(=O)NCCCCNC(=O)c1ccc(-c2c3nc(c(-c4c(F)cccc4F)c4ccc([nH]4)c(-c4c(F)cccc4F)c4nc(c(-c5c(F)cccc5F)c5ccc2[nH]5)C=C4)C=C3)cc1)N1C(=O)/C(=C/c2ccc(O)c(O)c2)SC1=S
REMARK SMILES IDX 11 1 10 2 9 3 7 4 8 5 6 7 5 8 4 9 2 10 1 11 3 14 71 15 72 16
REMARK SMILES IDX 85 17 73 18 74 19 84 20 86 21 75 22 76 23 77 24 83 25 78 26
REMARK SMILES IDX 81 27 79 28 82 29 80 31 12 33 13 34 14 35 15 36 16 38 17 39
REMARK SMILES IDX 18 40 70 41 19 42 69 43 20 44 21 45 22 46 63 47 23 48 68 49
REMARK SMILES IDX 62 50 64 51 24 52 67 53 61 54 60 55 25 57 51 58 34 59 50 60
REMARK SMILES IDX 35 61 38 62 49 63 65 64 36 65 37 66 48 68 66 69 39 70 26 71
REMARK SMILES IDX 27 72 32 73 28 74 29 75 31 76 33 77 30 78 52 79 53 80 58 81
REMARK SMILES IDX 54 82 55 83 57 84 59 85 56 86 40 87 41 88 46 89 42 90 43 91
REMARK SMILES IDX 45 92 47 93 44 94
REMARK H PARENT 9 6 1 12 1 13 82 30 80 32 14 37 64 56 38 67
REMARK Flexibility Score: inf
ROOT
ATOM      1  C   UNL A   1      36.727  20.060  25.027  1.00  0.00     0.023 C 
ENDROOT
BRANCH   1   2
ATOM      2  C   UNL A   1      36.434  21.472  25.525  1.00  0.00     0.116 C 
BRANCH   2   3
ATOM      3  N   UNL A   1      35.530  21.466  26.656  1.00  0.00    -0.354 N 
ATOM      4  C   UNL A   1      34.201  21.776  26.733  1.00  0.00     0.243 C 
ATOM      5  O   UNL A   1      33.643  21.518  27.802  1.00  0.00    -0.273 OA
ATOM      6  H   UNL A   1      35.940  21.195  27.509  1.00  0.00     0.163 HD
BRANCH   4   7
ATOM      7  C   UNL A   1      33.424  22.267  25.483  1.00  0.00     0.181 C 
BRANCH   7   8
ATOM      8  C   UNL A   1      32.342  21.274  25.000  1.00  0.00     0.045 C 
BRANCH   8   9
ATOM      9  C   UNL A   1      32.923  19.970  24.445  1.00  0.00     0.102 C 
BRANCH   9  10
ATOM     10  C   UNL A   1      32.518  18.754  25.242  1.00  0.00     0.217 C 
ATOM     11  N   UNL A   1      32.898  18.752  26.551  1.00  0.00    -0.370 N 
ATOM     12  H   UNL A   1      32.666  17.990  27.129  1.00  0.00     0.159 HD
ATOM     13  H   UNL A   1      33.403  19.514  26.917  1.00  0.00     0.159 HD
ATOM     14  O   UNL A   1      31.894  17.815  24.763  1.00  0.00    -0.275 OA
ENDBRANCH   9  10
ENDBRANCH   8   9
ENDBRANCH   7   8
BRANCH   7  15
ATOM     15  N   UNL A   1      32.856  23.620  25.684  1.00  0.00    -0.280 N 
ATOM     16  C   UNL A   1      33.683  24.723  25.544  1.00  0.00     0.266 C 
ATOM     17  C   UNL A   1      31.584  23.881  26.150  1.00  0.00     0.149 C 
ATOM     18  O   UNL A   1      34.869  24.701  25.245  1.00  0.00    -0.268 OA
ATOM     19  C   UNL A   1      32.936  25.979  25.840  1.00  0.00     0.081 C 
ATOM     20  S   UNL A   1      31.283  25.608  26.112  1.00  0.00    -0.054 SA
ATOM     21  S   UNL A   1      30.435  22.810  26.716  1.00  0.00    -0.052 S 
ATOM     22  C   UNL A   1      33.542  27.176  25.865  1.00  0.00     0.029 C 
BRANCH  22  23
ATOM     23  C   UNL A   1      32.931  28.502  26.071  1.00  0.00    -0.020 A 
ATOM     24  C   UNL A   1      33.365  29.262  27.173  1.00  0.00     0.012 A 
ATOM     25  C   UNL A   1      31.932  29.030  25.239  1.00  0.00     0.058 A 
ATOM     26  C   UNL A   1      32.864  30.547  27.401  1.00  0.00     0.051 A 
ATOM     27  C   UNL A   1      31.461  30.322  25.455  1.00  0.00     0.157 A 
ATOM     28  C   UNL A   1      31.929  31.074  26.527  1.00  0.00     0.157 A 
BRANCH  27  29
ATOM     29  O   UNL A   1      30.541  30.903  24.625  1.00  0.00    -0.504 OA
ATOM     30  H   UNL A   1      30.611  31.812  24.412  1.00  0.00     0.293 HD
ENDBRANCH  27  29
BRANCH  28  31
ATOM     31  O   UNL A   1      31.472  32.344  26.720  1.00  0.00    -0.504 OA
ATOM     32  H   UNL A   1      30.684  32.489  27.206  1.00  0.00     0.293 HD
ENDBRANCH  28  31
ENDBRANCH  22  23
ENDBRANCH   7  15
ENDBRANCH   4   7
ENDBRANCH   2   3
ENDBRANCH   1   2
BRANCH   1  33
ATOM     33  C   UNL A   1      38.197  19.811  24.682  1.00  0.00     0.023 C 
BRANCH  33  34
ATOM     34  C   UNL A   1      39.181  20.036  25.826  1.00  0.00     0.116 C 
BRANCH  34  35
ATOM     35  N   UNL A   1      40.219  19.021  25.908  1.00  0.00    -0.352 N 
ATOM     36  C   UNL A   1      41.550  19.183  26.213  1.00  0.00     0.251 C 
ATOM     37  H   UNL A   1      39.932  18.098  25.722  1.00  0.00     0.163 HD
ATOM     38  O   UNL A   1      42.324  18.234  26.143  1.00  0.00    -0.269 OA
BRANCH  36  39
ATOM     39  C   UNL A   1      42.049  20.523  26.588  1.00  0.00     0.039 A 
ATOM     40  C   UNL A   1      42.537  21.365  25.586  1.00  0.00     0.014 A 
ATOM     41  C   UNL A   1      41.998  20.956  27.915  1.00  0.00     0.014 A 
ATOM     42  C   UNL A   1      42.908  22.673  25.905  1.00  0.00     0.010 A 
ATOM     43  C   UNL A   1      42.303  22.279  28.218  1.00  0.00     0.010 A 
ATOM     44  C   UNL A   1      42.758  23.152  27.217  1.00  0.00    -0.014 A 
BRANCH  44  45
ATOM     45  C   UNL A   1      43.070  24.561  27.567  1.00  0.00     0.031 A 
ATOM     46  C   UNL A   1      44.502  25.010  27.665  1.00  0.00     0.074 A 
ATOM     47  C   UNL A   1      42.072  25.412  27.875  1.00  0.00     0.049 A 
ATOM     48  N   UNL A   1      44.982  26.163  28.056  1.00  0.00    -0.248 NA
ATOM     49  C   UNL A   1      45.531  24.021  27.304  1.00  0.00     0.031 C 
ATOM     50  C   UNL A   1      40.644  25.086  27.863  1.00  0.00     0.029 A 
ATOM     51  N   UNL A   1      42.108  26.725  28.272  1.00  0.00    -0.354 N 
ATOM     52  C   UNL A   1      46.364  26.031  28.007  1.00  0.00     0.074 A 
ATOM     53  C   UNL A   1      46.646  24.674  27.595  1.00  0.00     0.031 C 
ATOM     54  C   UNL A   1      39.942  26.173  28.219  1.00  0.00     0.029 A 
ATOM     55  C   UNL A   1      40.868  27.261  28.519  1.00  0.00     0.049 A 
ATOM     56  H   UNL A   1      42.945  27.234  28.371  1.00  0.00     0.167 HD
ATOM     57  C   UNL A   1      47.311  26.965  28.262  1.00  0.00     0.037 A 
ATOM     58  C   UNL A   1      40.517  28.489  28.950  1.00  0.00     0.037 A 
ATOM     59  C   UNL A   1      47.028  28.324  28.635  1.00  0.00     0.049 A 
ATOM     60  C   UNL A   1      41.590  29.508  29.218  1.00  0.00     0.074 A 
ATOM     61  C   UNL A   1      47.918  29.362  28.852  1.00  0.00     0.029 A 
ATOM     62  N   UNL A   1      45.757  28.838  28.842  1.00  0.00    -0.354 N 
ATOM     63  N   UNL A   1      42.891  29.388  29.107  1.00  0.00    -0.248 NA
ATOM     64  C   UNL A   1      41.146  30.836  29.667  1.00  0.00     0.031 C 
ATOM     65  C   UNL A   1      47.188  30.494  29.226  1.00  0.00     0.029 A 
ATOM     66  C   UNL A   1      45.840  30.173  29.198  1.00  0.00     0.049 A 
ATOM     67  H   UNL A   1      44.919  28.329  28.749  1.00  0.00     0.167 HD
ATOM     68  C   UNL A   1      43.416  30.630  29.437  1.00  0.00     0.074 A 
ATOM     69  C   UNL A   1      42.294  31.491  29.745  1.00  0.00     0.031 C 
ATOM     70  C   UNL A   1      44.712  31.022  29.481  1.00  0.00     0.037 A 
BRANCH  57  71
ATOM     71  C   UNL A   1      48.747  26.548  28.136  1.00  0.00     0.057 A 
ATOM     72  C   UNL A   1      49.462  26.031  29.225  1.00  0.00     0.134 A 
ATOM     73  C   UNL A   1      49.408  26.622  26.904  1.00  0.00     0.134 A 
ATOM     74  F   UNL A   1      48.889  25.946  30.435  1.00  0.00    -0.206 F 
ATOM     75  C   UNL A   1      50.790  25.623  29.097  1.00  0.00     0.040 A 
ATOM     76  C   UNL A   1      50.729  26.192  26.758  1.00  0.00     0.040 A 
ATOM     77  F   UNL A   1      48.779  27.101  25.820  1.00  0.00    -0.206 F 
ATOM     78  C   UNL A   1      51.425  25.696  27.858  1.00  0.00     0.006 A 
ENDBRANCH  57  71
BRANCH  58  79
ATOM     79  C   UNL A   1      39.086  28.836  29.134  1.00  0.00     0.057 A 
ATOM     80  C   UNL A   1      38.339  29.393  28.089  1.00  0.00     0.134 A 
ATOM     81  C   UNL A   1      38.437  28.646  30.360  1.00  0.00     0.134 A 
ATOM     82  F   UNL A   1      38.911  29.617  26.896  1.00  0.00    -0.206 F 
ATOM     83  C   UNL A   1      37.007  29.772  28.262  1.00  0.00     0.040 A 
ATOM     84  C   UNL A   1      37.099  28.998  30.540  1.00  0.00     0.040 A 
ATOM     85  F   UNL A   1      39.095  28.111  31.399  1.00  0.00    -0.206 F 
ATOM     86  C   UNL A   1      36.382  29.571  29.491  1.00  0.00     0.006 A 
ENDBRANCH  58  79
BRANCH  70  87
ATOM     87  C   UNL A   1      44.987  32.456  29.826  1.00  0.00     0.057 A 
ATOM     88  C   UNL A   1      45.049  33.455  28.847  1.00  0.00     0.134 A 
ATOM     89  C   UNL A   1      45.146  32.845  31.162  1.00  0.00     0.134 A 
ATOM     90  F   UNL A   1      44.919  33.144  27.549  1.00  0.00    -0.206 F 
ATOM     91  C   UNL A   1      45.280  34.789  29.183  1.00  0.00     0.040 A 
ATOM     92  C   UNL A   1      45.351  34.181  31.512  1.00  0.00     0.040 A 
ATOM     93  F   UNL A   1      45.088  31.938  32.148  1.00  0.00    -0.206 F 
ATOM     94  C   UNL A   1      45.423  35.157  30.520  1.00  0.00     0.006 A 
ENDBRANCH  70  87
ENDBRANCH  44  45
ENDBRANCH  36  39
ENDBRANCH  34  35
ENDBRANCH  33  34
ENDBRANCH   1  33
TORSDOF 18
ENDMDL
MODEL 2
REMARK VINA RESULT:     -12.1      0.592      5.979
REMARK SMILES NC(=O)CC[C@H](C(=O)NCCCCNC(=O)c1ccc(-c2c3nc(c(-c4c(F)cccc4F)c4ccc([nH]4)c(-c4c(F)cccc4F)c4nc(c(-c5c(F)cccc5F)c5ccc2[nH]5)C=C4)C=C3)cc1)N1C(=O)/C(=C/c2ccc(O)c(O)c2)SC1=S
REMARK SMILES IDX 11 1 10 2 9 3 7 4 8 5 6 7 5 8 4 9 2 10 1 11 3 14 71 15 72 16
REMARK SMILES IDX 85 17 73 18 74 19 84 20 86 21 75 22 76 23 77 24 83 25 78 26
REMARK SMILES IDX 81 27 79 28 82 29 80 31 12 33 13 34 14 35 15 36 16 38 17 39
REMARK SMILES IDX 18 40 70 41 19 42 69 43 20 44 21 45 22 46 63 47 23 48 68 49
REMARK SMILES IDX 62 50 64 51 24 52 67 53 61 54 60 55 25 57 51 58 34 59 50 60
REMARK SMILES IDX 35 61 38 62 49 63 65 64 36 65 37 66 48 68 66 69 39 70 26 71
REMARK SMILES IDX 27 72 32 73 28 74 29 75 31 76 33 77 30 78 52 79 53 80 58 81
REMARK SMILES IDX 54 82 55 83 57 84 59 85 56 86 40 87 41 88 46 89 42 90 43 91
REMARK SMILES IDX 45 92 47 93 44 94
REMARK H PARENT 9 6 1 12 1 13 82 30 80 32 14 37 64 56 38 67
REMARK Flexibility Score: inf
ROOT
ATOM      1  C   UNL A   1      37.059  21.220  24.443  1.00  0.00     0.023 C 
ENDROOT
BRANCH   1   2
ATOM      2  C   UNL A   1      36.825  22.343  25.448  1.00  0.00     0.116 C 
BRANCH   2   3
ATOM      3  N   UNL A   1      35.957  21.925  26.528  1.00  0.00    -0.354 N 
ATOM      4  C   UNL A   1      34.593  21.883  26.608  1.00  0.00     0.243 C 
ATOM      5  O   UNL A   1      34.122  21.319  27.598  1.00  0.00    -0.273 OA
ATOM      6  H   UNL A   1      36.426  21.621  27.339  1.00  0.00     0.163 HD
BRANCH   4   7
ATOM      7  C   UNL A   1      33.711  22.374  25.429  1.00  0.00     0.181 C 
BRANCH   7   8
ATOM      8  C   UNL A   1      32.592  21.382  25.042  1.00  0.00     0.045 C 
BRANCH   8   9
ATOM      9  C   UNL A   1      33.122  20.061  24.476  1.00  0.00     0.102 C 
BRANCH   9  10
ATOM     10  C   UNL A   1      32.634  18.851  25.236  1.00  0.00     0.217 C 
ATOM     11  N   UNL A   1      32.953  18.818  26.560  1.00  0.00    -0.370 N 
ATOM     12  H   UNL A   1      32.666  18.059  27.117  1.00  0.00     0.159 HD
ATOM     13  H   UNL A   1      33.470  19.554  26.960  1.00  0.00     0.159 HD
ATOM     14  O   UNL A   1      31.997  17.944  24.716  1.00  0.00    -0.275 OA
ENDBRANCH   9  10
ENDBRANCH   8   9
ENDBRANCH   7   8
BRANCH   7  15
ATOM     15  N   UNL A   1      33.165  23.727  25.677  1.00  0.00    -0.280 N 
ATOM     16  C   UNL A   1      33.983  24.829  25.486  1.00  0.00     0.266 C 
ATOM     17  C   UNL A   1      31.929  23.990  26.234  1.00  0.00     0.149 C 
ATOM     18  O   UNL A   1      35.145  24.804  25.104  1.00  0.00    -0.268 OA
ATOM     19  C   UNL A   1      33.264  26.085  25.841  1.00  0.00     0.081 C 
ATOM     20  S   UNL A   1      31.633  25.718  26.226  1.00  0.00    -0.054 SA
ATOM     21  S   UNL A   1      30.819  22.920  26.873  1.00  0.00    -0.052 S 
ATOM     22  C   UNL A   1      33.875  27.279  25.830  1.00  0.00     0.029 C 
BRANCH  22  23
ATOM     23  C   UNL A   1      33.286  28.607  26.087  1.00  0.00    -0.020 A 
ATOM     24  C   UNL A   1      32.159  28.984  25.333  1.00  0.00     0.012 A 
ATOM     25  C   UNL A   1      33.803  29.513  27.026  1.00  0.00     0.058 A 
ATOM     26  C   UNL A   1      31.522  30.207  25.556  1.00  0.00     0.051 A 
ATOM     27  C   UNL A   1      33.145  30.716  27.264  1.00  0.00     0.157 A 
ATOM     28  C   UNL A   1      32.010  31.055  26.535  1.00  0.00     0.157 A 
BRANCH  27  29
ATOM     29  O   UNL A   1      33.572  31.595  28.220  1.00  0.00    -0.504 OA
ATOM     30  H   UNL A   1      34.223  31.333  28.841  1.00  0.00     0.293 HD
ENDBRANCH  27  29
BRANCH  28  31
ATOM     31  O   UNL A   1      31.364  32.230  26.787  1.00  0.00    -0.504 OA
ATOM     32  H   UNL A   1      31.123  32.793  26.079  1.00  0.00     0.293 HD
ENDBRANCH  28  31
ENDBRANCH  22  23
ENDBRANCH   7  15
ENDBRANCH   4   7
ENDBRANCH   2   3
ENDBRANCH   1   2
BRANCH   1  33
ATOM     33  C   UNL A   1      37.800  20.010  25.016  1.00  0.00     0.023 C 
BRANCH  33  34
ATOM     34  C   UNL A   1      39.096  20.332  25.755  1.00  0.00     0.116 C 
BRANCH  34  35
ATOM     35  N   UNL A   1      40.040  19.225  25.780  1.00  0.00    -0.352 N 
ATOM     36  C   UNL A   1      41.384  19.256  26.072  1.00  0.00     0.251 C 
ATOM     37  H   UNL A   1      39.669  18.340  25.561  1.00  0.00     0.163 HD
ATOM     38  O   UNL A   1      42.069  18.246  25.953  1.00  0.00    -0.269 OA
BRANCH  36  39
ATOM     39  C   UNL A   1      42.004  20.529  26.494  1.00  0.00     0.039 A 
ATOM     40  C   UNL A   1      42.507  21.390  25.516  1.00  0.00     0.014 A 
ATOM     41  C   UNL A   1      42.053  20.885  27.844  1.00  0.00     0.014 A 
ATOM     42  C   UNL A   1      42.995  22.645  25.887  1.00  0.00     0.010 A 
ATOM     43  C   UNL A   1      42.475  22.161  28.203  1.00  0.00     0.010 A 
ATOM     44  C   UNL A   1      42.948  23.055  27.230  1.00  0.00    -0.014 A 
BRANCH  44  45
ATOM     45  C   UNL A   1      43.387  24.413  27.641  1.00  0.00     0.031 A 
ATOM     46  C   UNL A   1      42.364  25.455  28.000  1.00  0.00     0.074 A 
ATOM     47  C   UNL A   1      44.696  24.730  27.614  1.00  0.00     0.049 A 
ATOM     48  N   UNL A   1      42.539  26.722  28.282  1.00  0.00    -0.248 NA
ATOM     49  C   UNL A   1      40.957  25.024  28.012  1.00  0.00     0.031 C 
ATOM     50  C   UNL A   1      45.782  23.822  27.240  1.00  0.00     0.029 A 
ATOM     51  N   UNL A   1      45.334  25.912  27.895  1.00  0.00    -0.354 N 
ATOM     52  C   UNL A   1      41.266  27.240  28.485  1.00  0.00     0.074 A 
ATOM     53  C   UNL A   1      40.328  26.165  28.248  1.00  0.00     0.031 C 
ATOM     54  C   UNL A   1      46.952  24.475  27.331  1.00  0.00     0.029 A 
ATOM     55  C   UNL A   1      46.697  25.855  27.733  1.00  0.00     0.049 A 
ATOM     56  H   UNL A   1      44.860  26.725  28.184  1.00  0.00     0.167 HD
ATOM     57  C   UNL A   1      40.914  28.493  28.857  1.00  0.00     0.037 A 
ATOM     58  C   UNL A   1      47.635  26.811  27.881  1.00  0.00     0.037 A 
ATOM     59  C   UNL A   1      41.850  29.550  29.128  1.00  0.00     0.049 A 
ATOM     60  C   UNL A   1      47.215  28.193  28.303  1.00  0.00     0.074 A 
ATOM     61  C   UNL A   1      41.594  30.836  29.573  1.00  0.00     0.029 A 
ATOM     62  N   UNL A   1      43.226  29.443  28.986  1.00  0.00    -0.354 N 
ATOM     63  N   UNL A   1      46.013  28.652  28.553  1.00  0.00    -0.248 NA
ATOM     64  C   UNL A   1      48.285  29.189  28.467  1.00  0.00     0.031 C 
ATOM     65  C   UNL A   1      42.812  31.518  29.665  1.00  0.00     0.029 A 
ATOM     66  C   UNL A   1      43.829  30.643  29.319  1.00  0.00     0.049 A 
ATOM     67  H   UNL A   1      43.702  28.633  28.691  1.00  0.00     0.167 HD
ATOM     68  C   UNL A   1      46.185  29.975  28.937  1.00  0.00     0.074 A 
ATOM     69  C   UNL A   1      47.607  30.243  28.895  1.00  0.00     0.031 C 
ATOM     70  C   UNL A   1      45.248  30.887  29.293  1.00  0.00     0.037 A 
BRANCH  57  71
ATOM     71  C   UNL A   1      39.450  28.788  29.001  1.00  0.00     0.057 A 
ATOM     72  C   UNL A   1      38.783  28.630  30.224  1.00  0.00     0.134 A 
ATOM     73  C   UNL A   1      38.709  29.278  27.919  1.00  0.00     0.134 A 
ATOM     74  F   UNL A   1      39.434  28.153  31.295  1.00  0.00    -0.206 F 
ATOM     75  C   UNL A   1      37.427  28.928  30.358  1.00  0.00     0.040 A 
ATOM     76  C   UNL A   1      37.357  29.604  28.048  1.00  0.00     0.040 A 
ATOM     77  F   UNL A   1      39.288  29.458  26.722  1.00  0.00    -0.206 F 
ATOM     78  C   UNL A   1      36.712  29.424  29.270  1.00  0.00     0.006 A 
ENDBRANCH  57  71
BRANCH  58  79
ATOM     79  C   UNL A   1      49.067  26.496  27.654  1.00  0.00     0.057 A 
ATOM     80  C   UNL A   1      49.642  26.632  26.385  1.00  0.00     0.134 A 
ATOM     81  C   UNL A   1      49.889  26.029  28.687  1.00  0.00     0.134 A 
ATOM     82  F   UNL A   1      48.901  27.057  25.351  1.00  0.00    -0.206 F 
ATOM     83  C   UNL A   1      50.975  26.292  26.144  1.00  0.00     0.040 A 
ATOM     84  C   UNL A   1      51.229  25.708  28.467  1.00  0.00     0.040 A 
ATOM     85  F   UNL A   1      49.400  25.883  29.927  1.00  0.00    -0.206 F 
ATOM     86  C   UNL A   1      51.773  25.832  27.189  1.00  0.00     0.006 A 
ENDBRANCH  58  79
BRANCH  70  87
ATOM     87  C   UNL A   1      45.731  32.243  29.713  1.00  0.00     0.057 A 
ATOM     88  C   UNL A   1      45.822  33.310  28.810  1.00  0.00     0.134 A 
ATOM     89  C   UNL A   1      46.065  32.494  31.050  1.00  0.00     0.134 A 
ATOM     90  F   UNL A   1      45.529  33.130  27.514  1.00  0.00    -0.206 F 
ATOM     91  C   UNL A   1      46.247  34.574  29.219  1.00  0.00     0.040 A 
ATOM     92  C   UNL A   1      46.467  33.761  31.475  1.00  0.00     0.040 A 
ATOM     93  F   UNL A   1      45.990  31.518  31.966  1.00  0.00    -0.206 F 
ATOM     94  C   UNL A   1      46.564  34.805  30.557  1.00  0.00     0.006 A 
ENDBRANCH  70  87
ENDBRANCH  44  45
ENDBRANCH  36  39
ENDBRANCH  34  35
ENDBRANCH  33  34
ENDBRANCH   1  33
TORSDOF 18
ENDMDL
MODEL 3
REMARK VINA RESULT:     -11.9      4.351     10.136
REMARK SMILES NC(=O)CC[C@H](C(=O)NCCCCNC(=O)c1ccc(-c2c3nc(c(-c4c(F)cccc4F)c4ccc([nH]4)c(-c4c(F)cccc4F)c4nc(c(-c5c(F)cccc5F)c5ccc2[nH]5)C=C4)C=C3)cc1)N1C(=O)/C(=C/c2ccc(O)c(O)c2)SC1=S
REMARK SMILES IDX 11 1 10 2 9 3 7 4 8 5 6 7 5 8 4 9 2 10 1 11 3 14 71 15 72 16
REMARK SMILES IDX 85 17 73 18 74 19 84 20 86 21 75 22 76 23 77 24 83 25 78 26
REMARK SMILES IDX 81 27 79 28 82 29 80 31 12 33 13 34 14 35 15 36 16 38 17 39
REMARK SMILES IDX 18 40 70 41 19 42 69 43 20 44 21 45 22 46 63 47 23 48 68 49
REMARK SMILES IDX 62 50 64 51 24 52 67 53 61 54 60 55 25 57 51 58 34 59 50 60
REMARK SMILES IDX 35 61 38 62 49 63 65 64 36 65 37 66 48 68 66 69 39 70 26 71
REMARK SMILES IDX 27 72 32 73 28 74 29 75 31 76 33 77 30 78 52 79 53 80 58 81
REMARK SMILES IDX 54 82 55 83 57 84 59 85 56 86 40 87 41 88 46 89 42 90 43 91
REMARK SMILES IDX 45 92 47 93 44 94
REMARK H PARENT 9 6 1 12 1 13 82 30 80 32 14 37 64 56 38 67
REMARK Flexibility Score: inf
ROOT
ATOM      1  C   UNL A   1      31.470  30.876  25.757  1.00  0.00     0.023 C 
ENDROOT
BRANCH   1   2
ATOM      2  C   UNL A   1      32.694  29.974  25.876  1.00  0.00     0.116 C 
BRANCH   2   3
ATOM      3  N   UNL A   1      33.269  29.673  24.582  1.00  0.00    -0.354 N 
ATOM      4  C   UNL A   1      32.868  28.796  23.612  1.00  0.00     0.243 C 
ATOM      5  O   UNL A   1      33.457  28.873  22.532  1.00  0.00    -0.273 OA
ATOM      6  H   UNL A   1      34.082  30.184  24.364  1.00  0.00     0.163 HD
BRANCH   4   7
ATOM      7  C   UNL A   1      31.630  27.884  23.826  1.00  0.00     0.181 C 
BRANCH   7   8
ATOM      8  C   UNL A   1      30.706  27.800  22.590  1.00  0.00     0.045 C 
BRANCH   8   9
ATOM      9  C   UNL A   1      29.381  28.546  22.773  1.00  0.00     0.102 C 
BRANCH   9  10
ATOM     10  C   UNL A   1      29.191  29.670  21.784  1.00  0.00     0.217 C 
ATOM     11  N   UNL A   1      30.318  30.361  21.453  1.00  0.00    -0.370 N 
ATOM     12  H   UNL A   1      30.267  31.107  20.812  1.00  0.00     0.159 HD
ATOM     13  H   UNL A   1      31.182  30.114  21.854  1.00  0.00     0.159 HD
ATOM     14  O   UNL A   1      28.105  29.964  21.303  1.00  0.00    -0.275 OA
ENDBRANCH   9  10
ENDBRANCH   8   9
ENDBRANCH   7   8
BRANCH   7  15
ATOM     15  N   UNL A   1      32.016  26.536  24.299  1.00  0.00    -0.280 N 
ATOM     16  C   UNL A   1      32.378  25.575  23.368  1.00  0.00     0.266 C 
ATOM     17  C   UNL A   1      31.908  26.095  25.602  1.00  0.00     0.149 C 
ATOM     18  O   UNL A   1      32.431  25.731  22.156  1.00  0.00    -0.268 OA
ATOM     19  C   UNL A   1      32.676  24.278  24.040  1.00  0.00     0.081 C 
ATOM     20  S   UNL A   1      32.596  24.488  25.742  1.00  0.00    -0.054 SA
ATOM     21  S   UNL A   1      31.224  26.865  26.916  1.00  0.00    -0.052 S 
ATOM     22  C   UNL A   1      32.957  23.166  23.345  1.00  0.00     0.029 C 
BRANCH  22  23
ATOM     23  C   UNL A   1      33.337  21.839  23.863  1.00  0.00    -0.020 A 
ATOM     24  C   UNL A   1      32.374  20.815  23.820  1.00  0.00     0.012 A 
ATOM     25  C   UNL A   1      34.599  21.556  24.410  1.00  0.00     0.058 A 
ATOM     26  C   UNL A   1      32.681  19.521  24.249  1.00  0.00     0.051 A 
ATOM     27  C   UNL A   1      34.906  20.258  24.807  1.00  0.00     0.157 A 
ATOM     28  C   UNL A   1      33.953  19.249  24.722  1.00  0.00     0.157 A 
BRANCH  27  29
ATOM     29  O   UNL A   1      36.146  19.923  25.277  1.00  0.00    -0.504 OA
ATOM     30  H   UNL A   1      36.299  19.067  25.627  1.00  0.00     0.293 HD
ENDBRANCH  27  29
BRANCH  28  31
ATOM     31  O   UNL A   1      34.270  17.978  25.099  1.00  0.00    -0.504 OA
ATOM     32  H   UNL A   1      34.395  17.314  24.450  1.00  0.00     0.293 HD
ENDBRANCH  28  31
ENDBRANCH  22  23
ENDBRANCH   7  15
ENDBRANCH   4   7
ENDBRANCH   2   3
ENDBRANCH   1   2
BRANCH   1  33
ATOM     33  C   UNL A   1      31.349  31.917  26.872  1.00  0.00     0.023 C 
BRANCH  33  34
ATOM     34  C   UNL A   1      32.604  32.746  27.126  1.00  0.00     0.116 C 
BRANCH  34  35
ATOM     35  N   UNL A   1      32.324  34.110  27.545  1.00  0.00    -0.352 N 
ATOM     36  C   UNL A   1      32.986  34.869  28.482  1.00  0.00     0.251 C 
ATOM     37  H   UNL A   1      31.563  34.548  27.099  1.00  0.00     0.163 HD
ATOM     38  O   UNL A   1      32.564  35.977  28.796  1.00  0.00    -0.269 OA
BRANCH  36  39
ATOM     39  C   UNL A   1      34.191  34.320  29.137  1.00  0.00     0.039 A 
ATOM     40  C   UNL A   1      34.040  33.565  30.302  1.00  0.00     0.014 A 
ATOM     41  C   UNL A   1      35.458  34.519  28.582  1.00  0.00     0.014 A 
ATOM     42  C   UNL A   1      35.155  32.946  30.873  1.00  0.00     0.010 A 
ATOM     43  C   UNL A   1      36.554  33.846  29.112  1.00  0.00     0.010 A 
ATOM     44  C   UNL A   1      36.415  33.051  30.260  1.00  0.00    -0.014 A 
BRANCH  44  45
ATOM     45  C   UNL A   1      37.600  32.339  30.800  1.00  0.00     0.031 A 
ATOM     46  C   UNL A   1      38.301  32.869  32.020  1.00  0.00     0.074 A 
ATOM     47  C   UNL A   1      38.092  31.267  30.149  1.00  0.00     0.049 A 
ATOM     48  N   UNL A   1      39.408  32.454  32.584  1.00  0.00    -0.248 NA
ATOM     49  C   UNL A   1      37.694  34.039  32.676  1.00  0.00     0.031 C 
ATOM     50  C   UNL A   1      37.530  30.683  28.930  1.00  0.00     0.029 A 
ATOM     51  N   UNL A   1      39.187  30.485  30.417  1.00  0.00    -0.354 N 
ATOM     52  C   UNL A   1      39.639  33.322  33.643  1.00  0.00     0.074 A 
ATOM     53  C   UNL A   1      38.585  34.313  33.617  1.00  0.00     0.031 C 
ATOM     54  C   UNL A   1      38.274  29.626  28.566  1.00  0.00     0.029 A 
ATOM     55  C   UNL A   1      39.385  29.480  29.502  1.00  0.00     0.049 A 
ATOM     56  H   UNL A   1      39.777  30.631  31.192  1.00  0.00     0.167 HD
ATOM     57  C   UNL A   1      40.627  33.283  34.568  1.00  0.00     0.037 A 
ATOM     58  C   UNL A   1      40.357  28.551  29.421  1.00  0.00     0.037 A 
ATOM     59  C   UNL A   1      41.652  32.275  34.615  1.00  0.00     0.049 A 
ATOM     60  C   UNL A   1      41.439  28.526  30.466  1.00  0.00     0.074 A 
ATOM     61  C   UNL A   1      42.659  32.113  35.550  1.00  0.00     0.029 A 
ATOM     62  N   UNL A   1      41.797  31.253  33.689  1.00  0.00    -0.354 N 
ATOM     63  N   UNL A   1      41.609  29.315  31.500  1.00  0.00    -0.248 NA
ATOM     64  C   UNL A   1      42.462  27.478  30.336  1.00  0.00     0.031 C 
ATOM     65  C   UNL A   1      43.437  31.014  35.170  1.00  0.00     0.029 A 
ATOM     66  C   UNL A   1      42.887  30.466  34.023  1.00  0.00     0.049 A 
ATOM     67  H   UNL A   1      41.213  31.109  32.910  1.00  0.00     0.167 HD
ATOM     68  C   UNL A   1      42.733  28.838  32.160  1.00  0.00     0.074 A 
ATOM     69  C   UNL A   1      43.200  27.688  31.416  1.00  0.00     0.031 C 
ATOM     70  C   UNL A   1      43.325  29.312  33.283  1.00  0.00     0.037 A 
BRANCH  57  71
ATOM     71  C   UNL A   1      40.642  34.359  35.613  1.00  0.00     0.057 A 
ATOM     72  C   UNL A   1      41.314  35.573  35.411  1.00  0.00     0.134 A 
ATOM     73  C   UNL A   1      39.942  34.200  36.815  1.00  0.00     0.134 A 
ATOM     74  F   UNL A   1      42.014  35.783  34.286  1.00  0.00    -0.206 F 
ATOM     75  C   UNL A   1      41.306  36.580  36.377  1.00  0.00     0.040 A 
ATOM     76  C   UNL A   1      39.905  35.211  37.777  1.00  0.00     0.040 A 
ATOM     77  F   UNL A   1      39.273  33.065  37.068  1.00  0.00    -0.206 F 
ATOM     78  C   UNL A   1      40.593  36.403  37.561  1.00  0.00     0.006 A 
ENDBRANCH  57  71
BRANCH  58  79
ATOM     79  C   UNL A   1      40.347  27.549  28.326  1.00  0.00     0.057 A 
ATOM     80  C   UNL A   1      39.699  26.318  28.481  1.00  0.00     0.134 A 
ATOM     81  C   UNL A   1      41.001  27.785  27.111  1.00  0.00     0.134 A 
ATOM     82  F   UNL A   1      39.071  26.027  29.630  1.00  0.00    -0.206 F 
ATOM     83  C   UNL A   1      39.723  25.346  27.479  1.00  0.00     0.040 A 
ATOM     84  C   UNL A   1      41.013  26.832  26.091  1.00  0.00     0.040 A 
ATOM     85  F   UNL A   1      41.635  28.947  26.897  1.00  0.00    -0.206 F 
ATOM     86  C   UNL A   1      40.379  25.605  26.277  1.00  0.00     0.006 A 
ENDBRANCH  58  79
BRANCH  70  87
ATOM     87  C   UNL A   1      44.513  28.559  33.805  1.00  0.00     0.057 A 
ATOM     88  C   UNL A   1      45.824  28.925  33.477  1.00  0.00     0.134 A 
ATOM     89  C   UNL A   1      44.340  27.482  34.685  1.00  0.00     0.134 A 
ATOM     90  F   UNL A   1      46.056  29.938  32.630  1.00  0.00    -0.206 F 
ATOM     91  C   UNL A   1      46.922  28.233  33.991  1.00  0.00     0.040 A 
ATOM     92  C   UNL A   1      45.431  26.800  35.224  1.00  0.00     0.040 A 
ATOM     93  F   UNL A   1      43.110  27.088  35.046  1.00  0.00    -0.206 F 
ATOM     94  C   UNL A   1      46.727  27.172  34.874  1.00  0.00     0.006 A 
ENDBRANCH  70  87
ENDBRANCH  44  45
ENDBRANCH  36  39
ENDBRANCH  34  35
ENDBRANCH  33  34
ENDBRANCH   1  33
TORSDOF 18
ENDMDL
