MODEL 1
REMARK VINA RESULT:     -12.5      0.000      0.000
REMARK SMILES O=C(NCCCCNC(=O)[C@@H]1[C@H](C(=O)Nc2cccc(Cl)c2F)[C@@H]2C=C[C@H]1C2)c1ccc(-c2c3nc(c(-c4c(F)cccc4F)c4ccc([nH]4)c(-c4c(F)cccc4F)c4nc(c(-c5c(F)cccc5F)c5ccc2[nH]5)C=C4)C=C3)cc1
REMARK SMILES IDX 5 1 4 2 3 3 1 4 2 5 29 7 30 8 82 9 31 10 81 11 32 12 33 13
REMARK SMILES IDX 34 14 75 15 35 16 80 17 74 18 76 19 36 20 79 21 73 22 72 23
REMARK SMILES IDX 37 25 63 26 46 27 62 28 47 29 50 30 61 31 77 32 48 33 49 34
REMARK SMILES IDX 60 36 78 37 51 38 38 39 39 40 44 41 40 42 41 43 43 44 45 45
REMARK SMILES IDX 42 46 64 47 65 48 70 49 66 50 67 51 69 52 71 53 68 54 52 55
REMARK SMILES IDX 53 56 58 57 54 58 55 59 57 60 59 61 56 62 6 63 7 64 8 65
REMARK SMILES IDX 9 66 10 68 11 69 12 70 27 71 24 72 26 73 28 74 25 75 13 76
REMARK SMILES IDX 14 77 15 78 16 80 17 81 22 82 18 83 20 84 23 85 19 86 21 87
REMARK H PARENT 3 6 76 24 50 35 8 67 15 79
REMARK Flexibility Score: inf
ROOT
ATOM      1  C   UNL A   1      31.007  31.744  26.226  1.00  0.00     0.023 C 
ENDROOT
BRANCH   1   2
ATOM      2  C   UNL A   1      32.315  32.163  26.882  1.00  0.00     0.116 C 
BRANCH   2   3
ATOM      3  N   UNL A   1      32.295  33.564  27.276  1.00  0.00    -0.352 N 
ATOM      4  O   UNL A   1      32.762  35.349  28.576  1.00  0.00    -0.269 OA
ATOM      5  C   UNL A   1      33.072  34.222  28.199  1.00  0.00     0.251 C 
ATOM      6  H   UNL A   1      31.627  34.122  26.815  1.00  0.00     0.163 HD
BRANCH   5   7
ATOM      7  C   UNL A   1      34.275  33.563  28.749  1.00  0.00     0.039 A 
ATOM      8  C   UNL A   1      34.167  32.342  29.417  1.00  0.00     0.014 A 
ATOM      9  C   UNL A   1      35.526  34.164  28.585  1.00  0.00     0.014 A 
ATOM     10  C   UNL A   1      35.277  31.805  30.057  1.00  0.00     0.010 A 
ATOM     11  C   UNL A   1      36.661  33.568  29.144  1.00  0.00     0.010 A 
ATOM     12  C   UNL A   1      36.542  32.402  29.915  1.00  0.00    -0.014 A 
BRANCH  12  13
ATOM     13  C   UNL A   1      37.721  31.748  30.538  1.00  0.00     0.031 A 
ATOM     14  C   UNL A   1      38.119  32.039  31.958  1.00  0.00     0.074 A 
ATOM     15  C   UNL A   1      38.414  30.848  29.814  1.00  0.00     0.049 A 
ATOM     16  N   UNL A   1      39.093  31.520  32.663  1.00  0.00    -0.248 NA
ATOM     17  C   UNL A   1      37.331  33.050  32.679  1.00  0.00     0.031 C 
ATOM     18  C   UNL A   1      38.130  30.489  28.422  1.00  0.00     0.029 A 
ATOM     19  N   UNL A   1      39.480  30.053  30.150  1.00  0.00    -0.354 N 
ATOM     20  C   UNL A   1      39.049  32.153  33.899  1.00  0.00     0.074 A 
ATOM     21  C   UNL A   1      37.970  33.116  33.839  1.00  0.00     0.031 C 
ATOM     22  C   UNL A   1      38.956  29.504  28.043  1.00  0.00     0.029 A 
ATOM     23  C   UNL A   1      39.873  29.209  29.139  1.00  0.00     0.049 A 
ATOM     24  H   UNL A   1      39.920  30.083  31.029  1.00  0.00     0.167 HD
ATOM     25  C   UNL A   1      39.833  31.943  34.986  1.00  0.00     0.037 A 
ATOM     26  C   UNL A   1      40.867  28.304  29.092  1.00  0.00     0.037 A 
ATOM     27  C   UNL A   1      40.897  30.972  35.043  1.00  0.00     0.049 A 
ATOM     28  C   UNL A   1      41.737  28.116  30.300  1.00  0.00     0.074 A 
ATOM     29  C   UNL A   1      41.717  30.653  36.112  1.00  0.00     0.029 A 
ATOM     30  N   UNL A   1      41.293  30.167  33.984  1.00  0.00    -0.354 N 
ATOM     31  N   UNL A   1      41.656  28.690  31.475  1.00  0.00    -0.248 NA
ATOM     32  C   UNL A   1      42.839  27.155  30.172  1.00  0.00     0.031 C 
ATOM     33  C   UNL A   1      42.644  29.695  35.684  1.00  0.00     0.029 A 
ATOM     34  C   UNL A   1      42.365  29.374  34.366  1.00  0.00     0.049 A 
ATOM     35  H   UNL A   1      40.874  30.159  33.093  1.00  0.00     0.167 HD
ATOM     36  C   UNL A   1      42.680  28.143  32.235  1.00  0.00     0.074 A 
ATOM     37  C   UNL A   1      43.355  27.179  31.392  1.00  0.00     0.031 C 
ATOM     38  C   UNL A   1      43.028  28.416  33.517  1.00  0.00     0.037 A 
BRANCH  25  39
ATOM     39  C   UNL A   1      39.589  32.800  36.196  1.00  0.00     0.057 A 
ATOM     40  C   UNL A   1      40.262  34.011  36.402  1.00  0.00     0.134 A 
ATOM     41  C   UNL A   1      38.638  32.423  37.154  1.00  0.00     0.134 A 
ATOM     42  F   UNL A   1      41.192  34.429  35.530  1.00  0.00    -0.206 F 
ATOM     43  C   UNL A   1      40.019  34.801  37.529  1.00  0.00     0.040 A 
ATOM     44  C   UNL A   1      38.367  33.217  38.270  1.00  0.00     0.040 A 
ATOM     45  F   UNL A   1      37.948  31.280  37.016  1.00  0.00    -0.206 F 
ATOM     46  C   UNL A   1      39.064  34.408  38.464  1.00  0.00     0.006 A 
ENDBRANCH  25  39
BRANCH  26  47
ATOM     47  C   UNL A   1      41.085  27.507  27.859  1.00  0.00     0.057 A 
ATOM     48  C   UNL A   1      41.882  27.992  26.817  1.00  0.00     0.134 A 
ATOM     49  C   UNL A   1      40.508  26.242  27.696  1.00  0.00     0.134 A 
ATOM     50  F   UNL A   1      42.448  29.205  26.908  1.00  0.00    -0.206 F 
ATOM     51  C   UNL A   1      42.085  27.256  25.649  1.00  0.00     0.040 A 
ATOM     52  C   UNL A   1      40.727  25.482  26.546  1.00  0.00     0.040 A 
ATOM     53  F   UNL A   1      39.741  25.716  28.662  1.00  0.00    -0.206 F 
ATOM     54  C   UNL A   1      41.511  25.993  25.515  1.00  0.00     0.006 A 
ENDBRANCH  26  47
BRANCH  38  55
ATOM     55  C   UNL A   1      44.170  27.628  34.092  1.00  0.00     0.057 A 
ATOM     56  C   UNL A   1      45.492  28.088  34.036  1.00  0.00     0.134 A 
ATOM     57  C   UNL A   1      43.939  26.398  34.721  1.00  0.00     0.134 A 
ATOM     58  F   UNL A   1      45.783  29.251  33.434  1.00  0.00    -0.206 F 
ATOM     59  C   UNL A   1      46.547  27.338  34.557  1.00  0.00     0.040 A 
ATOM     60  C   UNL A   1      44.981  25.652  35.271  1.00  0.00     0.040 A 
ATOM     61  F   UNL A   1      42.695  25.903  34.814  1.00  0.00    -0.206 F 
ATOM     62  C   UNL A   1      46.292  26.118  35.182  1.00  0.00     0.006 A 
ENDBRANCH  38  55
ENDBRANCH  12  13
ENDBRANCH   5   7
ENDBRANCH   2   3
ENDBRANCH   1   2
BRANCH   1  63
ATOM     63  C   UNL A   1      31.120  30.522  25.307  1.00  0.00     0.023 C 
BRANCH  63  64
ATOM     64  C   UNL A   1      32.187  29.502  25.710  1.00  0.00     0.116 C 
BRANCH  64  65
ATOM     65  N   UNL A   1      31.596  28.410  26.441  1.00  0.00    -0.356 N 
ATOM     66  C   UNL A   1      31.714  27.072  26.313  1.00  0.00     0.224 C 
ATOM     67  H   UNL A   1      30.995  28.692  27.168  1.00  0.00     0.163 HD
ATOM     68  O   UNL A   1      30.864  26.404  26.909  1.00  0.00    -0.275 OA
BRANCH  66  69
ATOM     69  C   UNL A   1      32.710  26.433  25.377  1.00  0.00     0.098 C 
ATOM     70  C   UNL A   1      32.070  25.504  24.309  1.00  0.00     0.099 C 
ATOM     71  C   UNL A   1      33.982  25.634  25.774  1.00  0.00     0.025 C 
ATOM     72  C   UNL A   1      33.181  24.457  24.031  1.00  0.00     0.025 C 
ATOM     73  C   UNL A   1      33.741  24.212  26.231  1.00  0.00    -0.027 C 
ATOM     74  C   UNL A   1      34.454  25.265  24.347  1.00  0.00     0.017 C 
ATOM     75  C   UNL A   1      33.293  23.505  25.182  1.00  0.00    -0.027 C 
BRANCH  70  76
ATOM     76  C   UNL A   1      30.630  24.972  24.420  1.00  0.00     0.228 C 
ATOM     77  O   UNL A   1      30.496  23.861  24.971  1.00  0.00    -0.274 OA
ATOM     78  N   UNL A   1      29.445  25.584  24.156  1.00  0.00    -0.323 N 
ATOM     79  H   UNL A   1      28.686  24.997  24.379  1.00  0.00     0.170 HD
BRANCH  78  80
ATOM     80  C   UNL A   1      29.000  26.821  23.655  1.00  0.00     0.078 A 
ATOM     81  C   UNL A   1      27.635  27.092  23.837  1.00  0.00     0.029 A 
ATOM     82  C   UNL A   1      29.743  27.753  22.929  1.00  0.00     0.165 A 
ATOM     83  C   UNL A   1      27.078  28.314  23.442  1.00  0.00     0.004 A 
ATOM     84  C   UNL A   1      29.195  28.980  22.539  1.00  0.00     0.078 A 
ATOM     85  F   UNL A   1      30.971  27.472  22.500  1.00  0.00    -0.203 F 
ATOM     86  C   UNL A   1      27.866  29.275  22.815  1.00  0.00     0.024 A 
ATOM     87  Cl  UNL A   1      30.167  30.148  21.719  1.00  0.00    -0.081 Cl
ENDBRANCH  78  80
ENDBRANCH  70  76
ENDBRANCH  66  69
ENDBRANCH  64  65
ENDBRANCH  63  64
ENDBRANCH   1  63
TORSDOF 13
ENDMDL
MODEL 2
REMARK VINA RESULT:     -12.4      1.280      2.029
REMARK SMILES O=C(NCCCCNC(=O)[C@@H]1[C@H](C(=O)Nc2cccc(Cl)c2F)[C@@H]2C=C[C@H]1C2)c1ccc(-c2c3nc(c(-c4c(F)cccc4F)c4ccc([nH]4)c(-c4c(F)cccc4F)c4nc(c(-c5c(F)cccc5F)c5ccc2[nH]5)C=C4)C=C3)cc1
REMARK SMILES IDX 5 1 4 2 3 3 1 4 2 5 29 7 30 8 82 9 31 10 81 11 32 12 33 13
REMARK SMILES IDX 34 14 75 15 35 16 80 17 74 18 76 19 36 20 79 21 73 22 72 23
REMARK SMILES IDX 37 25 63 26 46 27 62 28 47 29 50 30 61 31 77 32 48 33 49 34
REMARK SMILES IDX 60 36 78 37 51 38 38 39 39 40 44 41 40 42 41 43 43 44 45 45
REMARK SMILES IDX 42 46 64 47 65 48 70 49 66 50 67 51 69 52 71 53 68 54 52 55
REMARK SMILES IDX 53 56 58 57 54 58 55 59 57 60 59 61 56 62 6 63 7 64 8 65
REMARK SMILES IDX 9 66 10 68 11 69 12 70 27 71 24 72 26 73 28 74 25 75 13 76
REMARK SMILES IDX 14 77 15 78 16 80 17 81 22 82 18 83 20 84 23 85 19 86 21 87
REMARK H PARENT 3 6 76 24 50 35 8 67 15 79
REMARK Flexibility Score: inf
ROOT
ATOM      1  C   UNL A   1      31.354  32.048  26.484  1.00  0.00     0.023 C 
ENDROOT
BRANCH   1   2
ATOM      2  C   UNL A   1      32.623  32.528  27.174  1.00  0.00     0.116 C 
BRANCH   2   3
ATOM      3  N   UNL A   1      32.506  33.911  27.615  1.00  0.00    -0.352 N 
ATOM      4  O   UNL A   1      32.789  35.662  29.009  1.00  0.00    -0.269 OA
ATOM      5  C   UNL A   1      33.180  34.566  28.617  1.00  0.00     0.251 C 
ATOM      6  H   UNL A   1      31.848  34.455  27.125  1.00  0.00     0.163 HD
BRANCH   5   7
ATOM      7  C   UNL A   1      34.369  33.942  29.234  1.00  0.00     0.039 A 
ATOM      8  C   UNL A   1      35.651  34.308  28.821  1.00  0.00     0.014 A 
ATOM      9  C   UNL A   1      34.203  32.992  30.245  1.00  0.00     0.014 A 
ATOM     10  C   UNL A   1      36.755  33.614  29.300  1.00  0.00     0.010 A 
ATOM     11  C   UNL A   1      35.324  32.365  30.800  1.00  0.00     0.010 A 
ATOM     12  C   UNL A   1      36.608  32.645  30.307  1.00  0.00    -0.014 A 
BRANCH  12  13
ATOM     13  C   UNL A   1      37.820  31.989  30.859  1.00  0.00     0.031 A 
ATOM     14  C   UNL A   1      38.342  32.332  32.227  1.00  0.00     0.074 A 
ATOM     15  C   UNL A   1      38.432  31.042  30.121  1.00  0.00     0.049 A 
ATOM     16  N   UNL A   1      39.361  31.819  32.872  1.00  0.00    -0.248 NA
ATOM     17  C   UNL A   1      37.639  33.392  32.965  1.00  0.00     0.031 C 
ATOM     18  C   UNL A   1      38.024  30.631  28.775  1.00  0.00     0.029 A 
ATOM     19  N   UNL A   1      39.504  30.236  30.403  1.00  0.00    -0.354 N 
ATOM     20  C   UNL A   1      39.434  32.505  34.078  1.00  0.00     0.074 A 
ATOM     21  C   UNL A   1      38.375  33.491  34.063  1.00  0.00     0.031 C 
ATOM     22  C   UNL A   1      38.795  29.610  28.374  1.00  0.00     0.029 A 
ATOM     23  C   UNL A   1      39.793  29.340  29.402  1.00  0.00     0.049 A 
ATOM     24  H   UNL A   1      40.018  30.293  31.241  1.00  0.00     0.167 HD
ATOM     25  C   UNL A   1      40.302  32.323  35.104  1.00  0.00     0.037 A 
ATOM     26  C   UNL A   1      40.761  28.410  29.314  1.00  0.00     0.037 A 
ATOM     27  C   UNL A   1      41.345  31.328  35.117  1.00  0.00     0.049 A 
ATOM     28  C   UNL A   1      41.724  28.251  30.453  1.00  0.00     0.074 A 
ATOM     29  C   UNL A   1      42.245  31.035  36.127  1.00  0.00     0.029 A 
ATOM     30  N   UNL A   1      41.634  30.469  34.066  1.00  0.00    -0.354 N 
ATOM     31  N   UNL A   1      41.754  28.877  31.604  1.00  0.00    -0.248 NA
ATOM     32  C   UNL A   1      42.791  27.259  30.277  1.00  0.00     0.031 C 
ATOM     33  C   UNL A   1      43.113  30.038  35.667  1.00  0.00     0.029 A 
ATOM     34  C   UNL A   1      42.717  29.667  34.393  1.00  0.00     0.049 A 
ATOM     35  H   UNL A   1      41.142  30.434  33.213  1.00  0.00     0.167 HD
ATOM     36  C   UNL A   1      42.827  28.338  32.301  1.00  0.00     0.074 A 
ATOM     37  C   UNL A   1      43.408  27.322  31.448  1.00  0.00     0.031 C 
ATOM     38  C   UNL A   1      43.286  28.657  33.535  1.00  0.00     0.037 A 
BRANCH  25  39
ATOM     39  C   UNL A   1      40.178  33.237  36.290  1.00  0.00     0.057 A 
ATOM     40  C   UNL A   1      40.947  34.400  36.421  1.00  0.00     0.134 A 
ATOM     41  C   UNL A   1      39.248  32.965  37.303  1.00  0.00     0.134 A 
ATOM     42  F   UNL A   1      41.863  34.717  35.493  1.00  0.00    -0.206 F 
ATOM     43  C   UNL A   1      40.816  35.245  37.526  1.00  0.00     0.040 A 
ATOM     44  C   UNL A   1      39.088  33.815  38.399  1.00  0.00     0.040 A 
ATOM     45  F   UNL A   1      38.470  31.873  37.239  1.00  0.00    -0.206 F 
ATOM     46  C   UNL A   1      39.879  34.956  38.517  1.00  0.00     0.006 A 
ENDBRANCH  25  39
BRANCH  26  47
ATOM     47  C   UNL A   1      40.858  27.555  28.104  1.00  0.00     0.057 A 
ATOM     48  C   UNL A   1      40.208  26.318  28.041  1.00  0.00     0.134 A 
ATOM     49  C   UNL A   1      41.594  27.956  26.984  1.00  0.00     0.134 A 
ATOM     50  F   UNL A   1      39.500  25.871  29.089  1.00  0.00    -0.206 F 
ATOM     51  C   UNL A   1      40.301  25.501  26.913  1.00  0.00     0.040 A 
ATOM     52  C   UNL A   1      41.671  27.163  25.838  1.00  0.00     0.040 A 
ATOM     53  F   UNL A   1      42.233  29.135  26.978  1.00  0.00    -0.206 F 
ATOM     54  C   UNL A   1      41.029  25.928  25.804  1.00  0.00     0.006 A 
ENDBRANCH  26  47
BRANCH  38  55
ATOM     55  C   UNL A   1      44.455  27.867  34.050  1.00  0.00     0.057 A 
ATOM     56  C   UNL A   1      44.292  26.634  34.694  1.00  0.00     0.134 A 
ATOM     57  C   UNL A   1      45.762  28.344  33.886  1.00  0.00     0.134 A 
ATOM     58  F   UNL A   1      43.066  26.128  34.897  1.00  0.00    -0.206 F 
ATOM     59  C   UNL A   1      45.385  25.919  35.186  1.00  0.00     0.040 A 
ATOM     60  C   UNL A   1      46.865  27.625  34.347  1.00  0.00     0.040 A 
ATOM     61  F   UNL A   1      45.988  29.515  33.272  1.00  0.00    -0.206 F 
ATOM     62  C   UNL A   1      46.677  26.411  35.008  1.00  0.00     0.006 A 
ENDBRANCH  38  55
ENDBRANCH  12  13
ENDBRANCH   5   7
ENDBRANCH   2   3
ENDBRANCH   1   2
BRANCH   1  63
ATOM     63  C   UNL A   1      31.401  30.590  26.012  1.00  0.00     0.023 C 
BRANCH  63  64
ATOM     64  C   UNL A   1      32.803  29.989  25.896  1.00  0.00     0.116 C 
BRANCH  64  65
ATOM     65  N   UNL A   1      33.143  29.754  24.516  1.00  0.00    -0.356 N 
ATOM     66  C   UNL A   1      33.653  28.676  23.885  1.00  0.00     0.224 C 
ATOM     67  H   UNL A   1      32.973  30.522  23.924  1.00  0.00     0.163 HD
ATOM     68  O   UNL A   1      34.093  28.883  22.749  1.00  0.00    -0.275 OA
BRANCH  66  69
ATOM     69  C   UNL A   1      33.828  27.344  24.571  1.00  0.00     0.098 C 
ATOM     70  C   UNL A   1      33.691  26.120  23.624  1.00  0.00     0.099 C 
ATOM     71  C   UNL A   1      33.087  26.847  25.843  1.00  0.00     0.025 C 
ATOM     72  C   UNL A   1      33.153  25.002  24.556  1.00  0.00     0.025 C 
ATOM     73  C   UNL A   1      31.669  26.368  25.624  1.00  0.00    -0.027 C 
ATOM     74  C   UNL A   1      33.720  25.437  25.921  1.00  0.00     0.017 C 
ATOM     75  C   UNL A   1      31.713  25.251  24.883  1.00  0.00    -0.027 C 
BRANCH  70  76
ATOM     76  C   UNL A   1      33.060  26.215  22.223  1.00  0.00     0.228 C 
ATOM     77  O   UNL A   1      33.666  25.625  21.307  1.00  0.00    -0.274 OA
ATOM     78  N   UNL A   1      31.855  26.711  21.834  1.00  0.00    -0.323 N 
ATOM     79  H   UNL A   1      31.713  26.580  20.869  1.00  0.00     0.170 HD
BRANCH  78  80
ATOM     80  C   UNL A   1      30.753  27.356  22.426  1.00  0.00     0.078 A 
ATOM     81  C   UNL A   1      29.771  26.509  22.960  1.00  0.00     0.029 A 
ATOM     82  C   UNL A   1      30.498  28.728  22.457  1.00  0.00     0.165 A 
ATOM     83  C   UNL A   1      28.656  27.023  23.632  1.00  0.00     0.004 A 
ATOM     84  C   UNL A   1      29.390  29.249  23.135  1.00  0.00     0.078 A 
ATOM     85  F   UNL A   1      31.246  29.585  21.766  1.00  0.00    -0.203 F 
ATOM     86  C   UNL A   1      28.477  28.399  23.746  1.00  0.00     0.024 A 
ATOM     87  Cl  UNL A   1      29.150  30.956  23.230  1.00  0.00    -0.081 Cl
ENDBRANCH  78  80
ENDBRANCH  70  76
ENDBRANCH  66  69
ENDBRANCH  64  65
ENDBRANCH  63  64
ENDBRANCH   1  63
TORSDOF 13
ENDMDL
MODEL 3
REMARK VINA RESULT:     -12.4      4.744      9.270
REMARK SMILES O=C(NCCCCNC(=O)[C@@H]1[C@H](C(=O)Nc2cccc(Cl)c2F)[C@@H]2C=C[C@H]1C2)c1ccc(-c2c3nc(c(-c4c(F)cccc4F)c4ccc([nH]4)c(-c4c(F)cccc4F)c4nc(c(-c5c(F)cccc5F)c5ccc2[nH]5)C=C4)C=C3)cc1
REMARK SMILES IDX 5 1 4 2 3 3 1 4 2 5 29 7 30 8 82 9 31 10 81 11 32 12 33 13
REMARK SMILES IDX 34 14 75 15 35 16 80 17 74 18 76 19 36 20 79 21 73 22 72 23
REMARK SMILES IDX 37 25 63 26 46 27 62 28 47 29 50 30 61 31 77 32 48 33 49 34
REMARK SMILES IDX 60 36 78 37 51 38 38 39 39 40 44 41 40 42 41 43 43 44 45 45
REMARK SMILES IDX 42 46 64 47 65 48 70 49 66 50 67 51 69 52 71 53 68 54 52 55
REMARK SMILES IDX 53 56 58 57 54 58 55 59 57 60 59 61 56 62 6 63 7 64 8 65
REMARK SMILES IDX 9 66 10 68 11 69 12 70 27 71 24 72 26 73 28 74 25 75 13 76
REMARK SMILES IDX 14 77 15 78 16 80 17 81 22 82 18 83 20 84 23 85 19 86 21 87
REMARK H PARENT 3 6 76 24 50 35 8 67 15 79
REMARK Flexibility Score: inf
ROOT
ATOM      1  C   UNL A   1      37.743  19.857  24.600  1.00  0.00     0.023 C 
ENDROOT
BRANCH   1   2
ATOM      2  C   UNL A   1      38.717  20.206  25.716  1.00  0.00     0.116 C 
BRANCH   2   3
ATOM      3  N   UNL A   1      39.838  19.279  25.763  1.00  0.00    -0.352 N 
ATOM      4  O   UNL A   1      42.010  18.668  25.789  1.00  0.00    -0.269 OA
ATOM      5  C   UNL A   1      41.164  19.526  26.024  1.00  0.00     0.251 C 
ATOM      6  H   UNL A   1      39.614  18.337  25.579  1.00  0.00     0.163 HD
BRANCH   5   7
ATOM      7  C   UNL A   1      41.572  20.835  26.576  1.00  0.00     0.039 A 
ATOM      8  C   UNL A   1      41.528  21.064  27.952  1.00  0.00     0.014 A 
ATOM      9  C   UNL A   1      42.018  21.839  25.713  1.00  0.00     0.014 A 
ATOM     10  C   UNL A   1      41.772  22.339  28.448  1.00  0.00     0.010 A 
ATOM     11  C   UNL A   1      42.362  23.094  26.226  1.00  0.00     0.010 A 
ATOM     12  C   UNL A   1      42.208  23.366  27.594  1.00  0.00    -0.014 A 
BRANCH  12  13
ATOM     13  C   UNL A   1      42.548  24.690  28.174  1.00  0.00     0.031 A 
ATOM     14  C   UNL A   1      43.964  25.053  28.523  1.00  0.00     0.074 A 
ATOM     15  C   UNL A   1      41.559  25.588  28.350  1.00  0.00     0.049 A 
ATOM     16  N   UNL A   1      44.434  26.181  28.994  1.00  0.00    -0.248 NA
ATOM     17  C   UNL A   1      44.988  24.015  28.327  1.00  0.00     0.031 C 
ATOM     18  C   UNL A   1      40.143  25.348  28.058  1.00  0.00     0.029 A 
ATOM     19  N   UNL A   1      41.591  26.887  28.788  1.00  0.00    -0.354 N 
ATOM     20  C   UNL A   1      45.798  25.984  29.172  1.00  0.00     0.074 A 
ATOM     21  C   UNL A   1      46.077  24.618  28.784  1.00  0.00     0.031 C 
ATOM     22  C   UNL A   1      39.453  26.479  28.265  1.00  0.00     0.029 A 
ATOM     23  C   UNL A   1      40.362  27.502  28.769  1.00  0.00     0.049 A 
ATOM     24  H   UNL A   1      42.415  27.336  29.087  1.00  0.00     0.167 HD
ATOM     25  C   UNL A   1      46.731  26.865  29.611  1.00  0.00     0.037 A 
ATOM     26  C   UNL A   1      40.002  28.747  29.127  1.00  0.00     0.037 A 
ATOM     27  C   UNL A   1      46.447  28.229  29.980  1.00  0.00     0.049 A 
ATOM     28  C   UNL A   1      41.052  29.690  29.637  1.00  0.00     0.074 A 
ATOM     29  C   UNL A   1      47.330  29.212  30.393  1.00  0.00     0.029 A 
ATOM     30  N   UNL A   1      45.182  28.801  29.990  1.00  0.00    -0.354 N 
ATOM     31  N   UNL A   1      42.344  29.503  29.758  1.00  0.00    -0.248 NA
ATOM     32  C   UNL A   1      40.591  31.017  30.064  1.00  0.00     0.031 C 
ATOM     33  C   UNL A   1      46.594  30.361  30.705  1.00  0.00     0.029 A 
ATOM     34  C   UNL A   1      45.259  30.114  30.430  1.00  0.00     0.049 A 
ATOM     35  H   UNL A   1      44.353  28.343  29.723  1.00  0.00     0.167 HD
ATOM     36  C   UNL A   1      42.854  30.696  30.251  1.00  0.00     0.074 A 
ATOM     37  C   UNL A   1      41.734  31.603  30.389  1.00  0.00     0.031 C 
ATOM     38  C   UNL A   1      44.136  31.008  30.561  1.00  0.00     0.037 A 
BRANCH  25  39
ATOM     39  C   UNL A   1      48.145  26.374  29.741  1.00  0.00     0.057 A 
ATOM     40  C   UNL A   1      49.077  26.497  28.703  1.00  0.00     0.134 A 
ATOM     41  C   UNL A   1      48.590  25.798  30.939  1.00  0.00     0.134 A 
ATOM     42  F   UNL A   1      48.717  27.030  27.526  1.00  0.00    -0.206 F 
ATOM     43  C   UNL A   1      50.391  26.043  28.841  1.00  0.00     0.040 A 
ATOM     44  C   UNL A   1      49.908  25.365  31.099  1.00  0.00     0.040 A 
ATOM     45  F   UNL A   1      47.754  25.657  31.979  1.00  0.00    -0.206 F 
ATOM     46  C   UNL A   1      50.811  25.480  30.045  1.00  0.00     0.006 A 
ENDBRANCH  25  39
BRANCH  26  47
ATOM     47  C   UNL A   1      38.584  29.171  29.008  1.00  0.00     0.057 A 
ATOM     48  C   UNL A   1      38.068  29.630  27.792  1.00  0.00     0.134 A 
ATOM     49  C   UNL A   1      37.713  29.121  30.102  1.00  0.00     0.134 A 
ATOM     50  F   UNL A   1      38.858  29.716  26.711  1.00  0.00    -0.206 F 
ATOM     51  C   UNL A   1      36.740  30.041  27.671  1.00  0.00     0.040 A 
ATOM     52  C   UNL A   1      36.375  29.500  29.989  1.00  0.00     0.040 A 
ATOM     53  F   UNL A   1      38.144  28.682  31.294  1.00  0.00    -0.206 F 
ATOM     54  C   UNL A   1      35.887  29.969  28.771  1.00  0.00     0.006 A 
ENDBRANCH  26  47
BRANCH  38  55
ATOM     55  C   UNL A   1      44.395  32.407  31.044  1.00  0.00     0.057 A 
ATOM     56  C   UNL A   1      44.383  32.737  32.405  1.00  0.00     0.134 A 
ATOM     57  C   UNL A   1      44.672  33.433  30.132  1.00  0.00     0.134 A 
ATOM     58  F   UNL A   1      44.109  31.804  33.330  1.00  0.00    -0.206 F 
ATOM     59  C   UNL A   1      44.606  34.044  32.840  1.00  0.00     0.040 A 
ATOM     60  C   UNL A   1      44.925  34.738  30.556  1.00  0.00     0.040 A 
ATOM     61  F   UNL A   1      44.705  33.183  28.814  1.00  0.00    -0.206 F 
ATOM     62  C   UNL A   1      44.883  35.048  31.914  1.00  0.00     0.006 A 
ENDBRANCH  38  55
ENDBRANCH  12  13
ENDBRANCH   5   7
ENDBRANCH   2   3
ENDBRANCH   1   2
BRANCH   1  63
ATOM     63  C   UNL A   1      36.265  19.943  24.995  1.00  0.00     0.023 C 
BRANCH  63  64
ATOM     64  C   UNL A   1      35.759  21.351  25.318  1.00  0.00     0.116 C 
BRANCH  64  65
ATOM     65  N   UNL A   1      35.731  22.166  24.130  1.00  0.00    -0.356 N 
ATOM     66  C   UNL A   1      35.020  23.267  23.810  1.00  0.00     0.224 C 
ATOM     67  H   UNL A   1      36.343  21.863  23.420  1.00  0.00     0.163 HD
ATOM     68  O   UNL A   1      35.015  23.568  22.612  1.00  0.00    -0.275 OA
BRANCH  66  69
ATOM     69  C   UNL A   1      34.154  23.991  24.811  1.00  0.00     0.098 C 
ATOM     70  C   UNL A   1      32.634  23.931  24.495  1.00  0.00     0.099 C 
ATOM     71  C   UNL A   1      34.320  25.456  25.300  1.00  0.00     0.025 C 
ATOM     72  C   UNL A   1      32.088  25.251  25.102  1.00  0.00     0.025 C 
ATOM     73  C   UNL A   1      33.827  26.520  24.344  1.00  0.00    -0.027 C 
ATOM     74  C   UNL A   1      33.093  25.507  26.241  1.00  0.00     0.017 C 
ATOM     75  C   UNL A   1      32.493  26.415  24.253  1.00  0.00    -0.027 C 
BRANCH  70  76
ATOM     76  C   UNL A   1      32.083  23.523  23.117  1.00  0.00     0.228 C 
ATOM     77  O   UNL A   1      31.861  24.454  22.318  1.00  0.00    -0.274 OA
ATOM     78  N   UNL A   1      31.940  22.293  22.558  1.00  0.00    -0.323 N 
ATOM     79  H   UNL A   1      31.607  22.360  21.633  1.00  0.00     0.170 HD
BRANCH  78  80
ATOM     80  C   UNL A   1      32.137  20.949  22.929  1.00  0.00     0.078 A 
ATOM     81  C   UNL A   1      32.057  20.015  21.886  1.00  0.00     0.029 A 
ATOM     82  C   UNL A   1      32.311  20.449  24.220  1.00  0.00     0.165 A 
ATOM     83  C   UNL A   1      32.296  18.654  22.109  1.00  0.00     0.004 A 
ATOM     84  C   UNL A   1      32.559  19.091  24.450  1.00  0.00     0.078 A 
ATOM     85  F   UNL A   1      32.156  21.228  25.288  1.00  0.00    -0.203 F 
ATOM     86  C   UNL A   1      32.576  18.192  23.392  1.00  0.00     0.024 A 
ATOM     87  Cl  UNL A   1      32.859  18.518  26.051  1.00  0.00    -0.081 Cl
ENDBRANCH  78  80
ENDBRANCH  70  76
ENDBRANCH  66  69
ENDBRANCH  64  65
ENDBRANCH  63  64
ENDBRANCH   1  63
TORSDOF 13
ENDMDL
