MODEL 1
REMARK VINA RESULT:     -13.5      0.000      0.000
REMARK SMILES Cc1ccccc1[C@@H]1[NH2+][C@@H](C(=O)NCCCCNC(=O)c2ccc(-c3c4nc(c(-c5c(F)cccc5F)c5ccc([nH]5)c(-c5c(F)cccc5F)c5nc(c(-c6c(F)cccc6F)c6ccc3[nH]6)C=C5)C=C4)cc2)CC2=c3ccccc3=N[C@H]21
REMARK SMILES IDX 16 1 15 2 14 3 13 4 11 5 12 6 10 8 8 9 9 10 84 11 76 14
REMARK SMILES IDX 83 15 75 16 77 17 82 18 78 19 81 20 79 21 80 22 7 23 1 24
REMARK SMILES IDX 2 25 3 26 4 27 6 28 5 29 17 30 18 31 19 32 20 34 21 35 22 36
REMARK SMILES IDX 74 37 23 38 73 39 24 40 25 41 26 42 67 43 27 44 72 45 66 46
REMARK SMILES IDX 68 47 28 48 71 49 65 50 64 51 29 53 55 54 38 55 54 56 39 57
REMARK SMILES IDX 42 58 53 59 69 60 40 61 41 62 52 64 70 65 43 66 30 67 31 68
REMARK SMILES IDX 36 69 32 70 33 71 35 72 37 73 34 74 56 75 57 76 62 77 58 78
REMARK SMILES IDX 59 79 61 80 63 81 60 82 44 83 45 84 50 85 46 86 47 87 49 88
REMARK SMILES IDX 51 89 48 90
REMARK H PARENT 13 7 9 12 9 13 18 33 68 52 42 63
REMARK Flexibility Score: inf
ROOT
ATOM      1  C   UNL A   1      34.318  32.104  28.516  1.00  0.00     0.023 C 
ENDROOT
BRANCH   1   2
ATOM      2  C   UNL A   1      35.361  31.359  27.687  1.00  0.00     0.023 C 
BRANCH   2   3
ATOM      3  C   UNL A   1      35.185  29.833  27.623  1.00  0.00     0.116 C 
BRANCH   3   4
ATOM      4  N   UNL A   1      33.849  29.299  27.864  1.00  0.00    -0.351 N 
ATOM      5  C   UNL A   1      32.991  28.601  27.054  1.00  0.00     0.278 C 
ATOM      6  O   UNL A   1      32.215  27.818  27.619  1.00  0.00    -0.268 OA
ATOM      7  H   UNL A   1      33.503  29.469  28.769  1.00  0.00     0.163 HD
BRANCH   5   8
ATOM      8  C   UNL A   1      32.846  28.907  25.538  1.00  0.00     0.277 C 
ATOM      9  C   UNL A   1      30.971  27.913  24.069  1.00  0.00     0.243 C 
ATOM     10  N   UNL A   1      31.408  28.847  25.139  1.00  0.00    -0.327 N 
ATOM     11  C   UNL A   1      32.055  27.264  23.153  1.00  0.00     0.196 C 
ATOM     12  H   UNL A   1      30.881  28.603  25.977  1.00  0.00     0.347 HD
ATOM     13  H   UNL A   1      31.242  29.766  24.730  1.00  0.00     0.347 HD
ATOM     14  C   UNL A   1      33.276  27.023  23.967  1.00  0.00    -0.024 C 
ATOM     15  N   UNL A   1      31.675  25.903  22.655  1.00  0.00    -0.270 NA
ATOM     16  C   UNL A   1      33.849  28.207  24.620  1.00  0.00     0.109 C 
ATOM     17  C   UNL A   1      33.607  25.743  24.024  1.00  0.00     0.002 A 
ATOM     18  C   UNL A   1      32.599  25.132  23.146  1.00  0.00     0.066 A 
ATOM     19  C   UNL A   1      34.592  24.980  24.713  1.00  0.00     0.010 A 
ATOM     20  C   UNL A   1      32.755  23.681  22.906  1.00  0.00     0.028 A 
ATOM     21  C   UNL A   1      34.638  23.657  24.492  1.00  0.00     0.001 A 
ATOM     22  C   UNL A   1      33.734  23.017  23.548  1.00  0.00     0.002 A 
BRANCH   9  23
ATOM     23  C   UNL A   1      29.905  28.585  23.187  1.00  0.00     0.015 A 
ATOM     24  C   UNL A   1      27.991  26.993  23.875  1.00  0.00     0.045 C 
ATOM     25  C   UNL A   1      28.549  28.174  23.128  1.00  0.00    -0.042 A 
ATOM     26  C   UNL A   1      27.628  28.943  22.390  1.00  0.00     0.004 A 
ATOM     27  C   UNL A   1      28.028  30.077  21.688  1.00  0.00     0.000 A 
ATOM     28  C   UNL A   1      30.289  29.728  22.452  1.00  0.00     0.010 A 
ATOM     29  C   UNL A   1      29.361  30.462  21.709  1.00  0.00     0.001 A 
ENDBRANCH   9  23
ENDBRANCH   5   8
ENDBRANCH   3   4
ENDBRANCH   2   3
ENDBRANCH   1   2
BRANCH   1  30
ATOM     30  C   UNL A   1      34.875  33.275  29.317  1.00  0.00     0.116 C 
BRANCH  30  31
ATOM     31  N   UNL A   1      33.955  33.879  30.278  1.00  0.00    -0.352 N 
ATOM     32  C   UNL A   1      34.137  34.036  31.646  1.00  0.00     0.251 C 
ATOM     33  H   UNL A   1      33.105  34.215  29.911  1.00  0.00     0.163 HD
ATOM     34  O   UNL A   1      33.287  34.575  32.336  1.00  0.00    -0.269 OA
BRANCH  32  35
ATOM     35  C   UNL A   1      35.452  33.660  32.229  1.00  0.00     0.039 A 
ATOM     36  C   UNL A   1      36.513  34.553  32.068  1.00  0.00     0.014 A 
ATOM     37  C   UNL A   1      35.686  32.355  32.657  1.00  0.00     0.014 A 
ATOM     38  C   UNL A   1      37.816  34.058  32.056  1.00  0.00     0.010 A 
ATOM     39  C   UNL A   1      36.969  31.844  32.557  1.00  0.00     0.010 A 
ATOM     40  C   UNL A   1      38.022  32.680  32.177  1.00  0.00    -0.014 A 
BRANCH  40  41
ATOM     41  C   UNL A   1      39.272  32.049  31.759  1.00  0.00     0.031 A 
ATOM     42  C   UNL A   1      39.279  30.909  30.824  1.00  0.00     0.074 A 
ATOM     43  C   UNL A   1      40.455  32.460  32.272  1.00  0.00     0.049 A 
ATOM     44  N   UNL A   1      40.078  29.899  30.935  1.00  0.00    -0.248 NA
ATOM     45  C   UNL A   1      38.368  30.815  29.692  1.00  0.00     0.031 C 
ATOM     46  C   UNL A   1      41.789  32.026  31.866  1.00  0.00     0.029 A 
ATOM     47  N   UNL A   1      40.670  33.208  33.431  1.00  0.00    -0.354 N 
ATOM     48  C   UNL A   1      39.982  29.171  29.773  1.00  0.00     0.074 A 
ATOM     49  C   UNL A   1      38.856  29.742  29.063  1.00  0.00     0.031 C 
ATOM     50  C   UNL A   1      42.645  32.260  32.871  1.00  0.00     0.029 A 
ATOM     51  C   UNL A   1      41.882  32.764  33.997  1.00  0.00     0.049 A 
ATOM     52  H   UNL A   1      40.084  33.914  33.788  1.00  0.00     0.167 HD
ATOM     53  C   UNL A   1      40.944  28.259  29.447  1.00  0.00     0.037 A 
ATOM     54  C   UNL A   1      41.945  32.297  35.277  1.00  0.00     0.037 A 
ATOM     55  C   UNL A   1      42.018  28.213  30.435  1.00  0.00     0.049 A 
ATOM     56  C   UNL A   1      42.396  30.859  35.386  1.00  0.00     0.074 A 
ATOM     57  C   UNL A   1      43.270  28.805  30.467  1.00  0.00     0.029 A 
ATOM     58  N   UNL A   1      41.778  27.735  31.719  1.00  0.00    -0.354 N 
ATOM     59  N   UNL A   1      42.510  30.054  34.367  1.00  0.00    -0.248 NA
ATOM     60  C   UNL A   1      42.680  30.193  36.656  1.00  0.00     0.031 C 
ATOM     61  C   UNL A   1      43.775  28.708  31.784  1.00  0.00     0.029 A 
ATOM     62  C   UNL A   1      42.830  28.060  32.557  1.00  0.00     0.049 A 
ATOM     63  H   UNL A   1      40.975  27.236  31.992  1.00  0.00     0.167 HD
ATOM     64  C   UNL A   1      42.772  28.785  34.818  1.00  0.00     0.074 A 
ATOM     65  C   UNL A   1      42.921  28.933  36.253  1.00  0.00     0.031 C 
ATOM     66  C   UNL A   1      42.804  27.715  33.970  1.00  0.00     0.037 A 
BRANCH  53  67
ATOM     67  C   UNL A   1      41.045  27.668  28.061  1.00  0.00     0.057 A 
ATOM     68  C   UNL A   1      40.461  26.428  27.740  1.00  0.00     0.134 A 
ATOM     69  C   UNL A   1      41.763  28.265  27.011  1.00  0.00     0.134 A 
ATOM     70  F   UNL A   1      39.645  25.788  28.586  1.00  0.00    -0.206 F 
ATOM     71  C   UNL A   1      40.692  25.771  26.526  1.00  0.00     0.040 A 
ATOM     72  C   UNL A   1      42.046  27.599  25.810  1.00  0.00     0.040 A 
ATOM     73  F   UNL A   1      42.201  29.529  27.105  1.00  0.00    -0.206 F 
ATOM     74  C   UNL A   1      41.526  26.335  25.572  1.00  0.00     0.006 A 
ENDBRANCH  53  67
BRANCH  54  75
ATOM     75  C   UNL A   1      40.959  32.945  36.178  1.00  0.00     0.057 A 
ATOM     76  C   UNL A   1      41.280  34.198  36.733  1.00  0.00     0.134 A 
ATOM     77  C   UNL A   1      39.615  32.567  36.185  1.00  0.00     0.134 A 
ATOM     78  F   UNL A   1      42.554  34.621  36.756  1.00  0.00    -0.206 F 
ATOM     79  C   UNL A   1      40.293  35.090  37.155  1.00  0.00     0.040 A 
ATOM     80  C   UNL A   1      38.620  33.447  36.620  1.00  0.00     0.040 A 
ATOM     81  F   UNL A   1      39.233  31.395  35.660  1.00  0.00    -0.206 F 
ATOM     82  C   UNL A   1      38.953  34.727  37.063  1.00  0.00     0.006 A 
ENDBRANCH  54  75
BRANCH  66  83
ATOM     83  C   UNL A   1      42.907  26.271  34.383  1.00  0.00     0.057 A 
ATOM     84  C   UNL A   1      41.932  25.592  35.127  1.00  0.00     0.134 A 
ATOM     85  C   UNL A   1      43.975  25.471  33.920  1.00  0.00     0.134 A 
ATOM     86  F   UNL A   1      40.808  26.201  35.529  1.00  0.00    -0.206 F 
ATOM     87  C   UNL A   1      42.045  24.232  35.449  1.00  0.00     0.040 A 
ATOM     88  C   UNL A   1      44.074  24.104  34.194  1.00  0.00     0.040 A 
ATOM     89  F   UNL A   1      44.960  25.983  33.168  1.00  0.00    -0.206 F 
ATOM     90  C   UNL A   1      43.114  23.481  34.977  1.00  0.00     0.006 A 
ENDBRANCH  66  83
ENDBRANCH  40  41
ENDBRANCH  32  35
ENDBRANCH  30  31
ENDBRANCH   1  30
TORSDOF 12
ENDMDL
MODEL 2
REMARK VINA RESULT:     -13.5      2.528      5.291
REMARK SMILES Cc1ccccc1[C@@H]1[NH2+][C@@H](C(=O)NCCCCNC(=O)c2ccc(-c3c4nc(c(-c5c(F)cccc5F)c5ccc([nH]5)c(-c5c(F)cccc5F)c5nc(c(-c6c(F)cccc6F)c6ccc3[nH]6)C=C5)C=C4)cc2)CC2=c3ccccc3=N[C@H]21
REMARK SMILES IDX 16 1 15 2 14 3 13 4 11 5 12 6 10 8 8 9 9 10 84 11 76 14
REMARK SMILES IDX 83 15 75 16 77 17 82 18 78 19 81 20 79 21 80 22 7 23 1 24
REMARK SMILES IDX 2 25 3 26 4 27 6 28 5 29 17 30 18 31 19 32 20 34 21 35 22 36
REMARK SMILES IDX 74 37 23 38 73 39 24 40 25 41 26 42 67 43 27 44 72 45 66 46
REMARK SMILES IDX 68 47 28 48 71 49 65 50 64 51 29 53 55 54 38 55 54 56 39 57
REMARK SMILES IDX 42 58 53 59 69 60 40 61 41 62 52 64 70 65 43 66 30 67 31 68
REMARK SMILES IDX 36 69 32 70 33 71 35 72 37 73 34 74 56 75 57 76 62 77 58 78
REMARK SMILES IDX 59 79 61 80 63 81 60 82 44 83 45 84 50 85 46 86 47 87 49 88
REMARK SMILES IDX 51 89 48 90
REMARK H PARENT 13 7 9 12 9 13 18 33 68 52 42 63
REMARK Flexibility Score: inf
ROOT
ATOM      1  C   UNL A   1      32.215  28.234  27.385  1.00  0.00     0.023 C 
ENDROOT
BRANCH   1   2
ATOM      2  C   UNL A   1      31.526  27.283  26.410  1.00  0.00     0.023 C 
BRANCH   2   3
ATOM      3  C   UNL A   1      31.877  25.797  26.580  1.00  0.00     0.116 C 
BRANCH   3   4
ATOM      4  N   UNL A   1      30.786  24.876  26.876  1.00  0.00    -0.351 N 
ATOM      5  C   UNL A   1      30.707  23.509  26.804  1.00  0.00     0.278 C 
ATOM      6  O   UNL A   1      29.927  22.960  27.593  1.00  0.00    -0.268 OA
ATOM      7  H   UNL A   1      29.959  25.313  27.181  1.00  0.00     0.163 HD
BRANCH   5   8
ATOM      8  C   UNL A   1      31.394  22.695  25.673  1.00  0.00     0.277 C 
ATOM      9  C   UNL A   1      33.870  23.005  25.011  1.00  0.00     0.243 C 
ATOM     10  N   UNL A   1      32.846  22.523  25.975  1.00  0.00    -0.327 N 
ATOM     11  C   UNL A   1      33.420  23.370  23.563  1.00  0.00     0.196 C 
ATOM     12  H   UNL A   1      33.021  23.004  26.857  1.00  0.00     0.347 HD
ATOM     13  H   UNL A   1      32.969  21.510  25.960  1.00  0.00     0.347 HD
ATOM     14  C   UNL A   1      32.053  23.953  23.626  1.00  0.00    -0.024 C 
ATOM     15  N   UNL A   1      34.248  24.451  22.938  1.00  0.00    -0.270 NA
ATOM     16  C   UNL A   1      31.028  23.101  24.245  1.00  0.00     0.109 C 
ATOM     17  C   UNL A   1      32.005  25.193  23.169  1.00  0.00     0.002 A 
ATOM     18  C   UNL A   1      33.389  25.401  22.718  1.00  0.00     0.066 A 
ATOM     19  C   UNL A   1      31.008  26.208  23.090  1.00  0.00     0.010 A 
ATOM     20  C   UNL A   1      33.654  26.690  22.042  1.00  0.00     0.028 A 
ATOM     21  C   UNL A   1      31.337  27.375  22.516  1.00  0.00     0.001 A 
ATOM     22  C   UNL A   1      32.661  27.595  21.954  1.00  0.00     0.002 A 
BRANCH   9  23
ATOM     23  C   UNL A   1      35.036  22.005  24.939  1.00  0.00     0.015 A 
ATOM     24  C   UNL A   1      36.882  23.765  25.350  1.00  0.00     0.045 C 
ATOM     25  C   UNL A   1      36.398  22.359  25.120  1.00  0.00    -0.042 A 
ATOM     26  C   UNL A   1      37.372  21.343  25.167  1.00  0.00     0.004 A 
ATOM     27  C   UNL A   1      37.032  20.003  25.001  1.00  0.00     0.000 A 
ATOM     28  C   UNL A   1      34.720  20.642  24.756  1.00  0.00     0.010 A 
ATOM     29  C   UNL A   1      35.707  19.653  24.783  1.00  0.00     0.001 A 
ENDBRANCH   9  23
ENDBRANCH   5   8
ENDBRANCH   3   4
ENDBRANCH   2   3
ENDBRANCH   1   2
BRANCH   1  30
ATOM     30  C   UNL A   1      33.141  29.248  26.723  1.00  0.00     0.116 C 
BRANCH  30  31
ATOM     31  N   UNL A   1      33.315  30.508  27.439  1.00  0.00    -0.352 N 
ATOM     32  C   UNL A   1      34.400  30.904  28.213  1.00  0.00     0.251 C 
ATOM     33  H   UNL A   1      32.576  31.155  27.365  1.00  0.00     0.163 HD
ATOM     34  O   UNL A   1      34.423  31.999  28.750  1.00  0.00    -0.269 OA
BRANCH  32  35
ATOM     35  C   UNL A   1      35.592  30.018  28.257  1.00  0.00     0.039 A 
ATOM     36  C   UNL A   1      35.863  29.352  29.454  1.00  0.00     0.014 A 
ATOM     37  C   UNL A   1      36.553  30.078  27.250  1.00  0.00     0.014 A 
ATOM     38  C   UNL A   1      37.179  29.004  29.751  1.00  0.00     0.010 A 
ATOM     39  C   UNL A   1      37.873  29.816  27.576  1.00  0.00     0.010 A 
ATOM     40  C   UNL A   1      38.195  29.355  28.856  1.00  0.00    -0.014 A 
BRANCH  40  41
ATOM     41  C   UNL A   1      39.596  29.414  29.265  1.00  0.00     0.031 A 
ATOM     42  C   UNL A   1      40.487  28.248  29.117  1.00  0.00     0.074 A 
ATOM     43  C   UNL A   1      40.096  30.527  29.849  1.00  0.00     0.049 A 
ATOM     44  N   UNL A   1      41.380  27.916  29.991  1.00  0.00    -0.248 NA
ATOM     45  C   UNL A   1      40.426  27.352  27.970  1.00  0.00     0.031 C 
ATOM     46  C   UNL A   1      41.490  30.791  30.193  1.00  0.00     0.029 A 
ATOM     47  N   UNL A   1      39.387  31.569  30.449  1.00  0.00    -0.354 N 
ATOM     48  C   UNL A   1      42.176  26.953  29.417  1.00  0.00     0.074 A 
ATOM     49  C   UNL A   1      41.500  26.588  28.189  1.00  0.00     0.031 C 
ATOM     50  C   UNL A   1      41.531  31.730  31.149  1.00  0.00     0.029 A 
ATOM     51  C   UNL A   1      40.164  32.039  31.526  1.00  0.00     0.049 A 
ATOM     52  H   UNL A   1      38.506  31.912  30.172  1.00  0.00     0.167 HD
ATOM     53  C   UNL A   1      43.399  26.661  29.948  1.00  0.00     0.037 A 
ATOM     54  C   UNL A   1      39.677  32.075  32.800  1.00  0.00     0.037 A 
ATOM     55  C   UNL A   1      43.709  27.493  31.107  1.00  0.00     0.049 A 
ATOM     56  C   UNL A   1      40.445  31.216  33.777  1.00  0.00     0.074 A 
ATOM     57  C   UNL A   1      44.463  28.648  31.241  1.00  0.00     0.029 A 
ATOM     58  N   UNL A   1      42.989  27.356  32.289  1.00  0.00    -0.354 N 
ATOM     59  N   UNL A   1      41.351  30.348  33.426  1.00  0.00    -0.248 NA
ATOM     60  C   UNL A   1      40.199  31.211  35.218  1.00  0.00     0.031 C 
ATOM     61  C   UNL A   1      44.173  29.225  32.498  1.00  0.00     0.029 A 
ATOM     62  C   UNL A   1      43.241  28.425  33.131  1.00  0.00     0.049 A 
ATOM     63  H   UNL A   1      42.387  26.606  32.497  1.00  0.00     0.167 HD
ATOM     64  C   UNL A   1      41.732  29.620  34.523  1.00  0.00     0.074 A 
ATOM     65  C   UNL A   1      41.022  30.231  35.630  1.00  0.00     0.031 C 
ATOM     66  C   UNL A   1      42.571  28.547  34.417  1.00  0.00     0.037 A 
BRANCH  53  67
ATOM     67  C   UNL A   1      44.423  25.849  29.192  1.00  0.00     0.057 A 
ATOM     68  C   UNL A   1      45.327  26.448  28.294  1.00  0.00     0.134 A 
ATOM     69  C   UNL A   1      44.524  24.450  29.276  1.00  0.00     0.134 A 
ATOM     70  F   UNL A   1      45.444  27.777  28.187  1.00  0.00    -0.206 F 
ATOM     71  C   UNL A   1      46.158  25.708  27.445  1.00  0.00     0.040 A 
ATOM     72  C   UNL A   1      45.313  23.692  28.398  1.00  0.00     0.040 A 
ATOM     73  F   UNL A   1      43.873  23.766  30.228  1.00  0.00    -0.206 F 
ATOM     74  C   UNL A   1      46.120  24.323  27.462  1.00  0.00     0.006 A 
ENDBRANCH  53  67
BRANCH  54  75
ATOM     75  C   UNL A   1      38.212  32.312  32.851  1.00  0.00     0.057 A 
ATOM     76  C   UNL A   1      37.737  33.619  32.636  1.00  0.00     0.134 A 
ATOM     77  C   UNL A   1      37.296  31.267  32.713  1.00  0.00     0.134 A 
ATOM     78  F   UNL A   1      38.567  34.669  32.752  1.00  0.00    -0.206 F 
ATOM     79  C   UNL A   1      36.442  33.865  32.178  1.00  0.00     0.040 A 
ATOM     80  C   UNL A   1      35.992  31.504  32.269  1.00  0.00     0.040 A 
ATOM     81  F   UNL A   1      37.680  29.995  32.887  1.00  0.00    -0.206 F 
ATOM     82  C   UNL A   1      35.576  32.799  31.957  1.00  0.00     0.006 A 
ENDBRANCH  54  75
BRANCH  66  83
ATOM     83  C   UNL A   1      42.908  27.583  35.523  1.00  0.00     0.057 A 
ATOM     84  C   UNL A   1      43.899  27.806  36.490  1.00  0.00     0.134 A 
ATOM     85  C   UNL A   1      42.132  26.418  35.715  1.00  0.00     0.134 A 
ATOM     86  F   UNL A   1      44.630  28.929  36.496  1.00  0.00    -0.206 F 
ATOM     87  C   UNL A   1      44.148  26.902  37.532  1.00  0.00     0.040 A 
ATOM     88  C   UNL A   1      42.339  25.535  36.778  1.00  0.00     0.040 A 
ATOM     89  F   UNL A   1      41.129  26.100  34.885  1.00  0.00    -0.206 F 
ATOM     90  C   UNL A   1      43.363  25.767  37.684  1.00  0.00     0.006 A 
ENDBRANCH  66  83
ENDBRANCH  40  41
ENDBRANCH  32  35
ENDBRANCH  30  31
ENDBRANCH   1  30
TORSDOF 12
ENDMDL
MODEL 3
REMARK VINA RESULT:     -13.4      4.794     10.063
REMARK SMILES Cc1ccccc1[C@@H]1[NH2+][C@@H](C(=O)NCCCCNC(=O)c2ccc(-c3c4nc(c(-c5c(F)cccc5F)c5ccc([nH]5)c(-c5c(F)cccc5F)c5nc(c(-c6c(F)cccc6F)c6ccc3[nH]6)C=C5)C=C4)cc2)CC2=c3ccccc3=N[C@H]21
REMARK SMILES IDX 16 1 15 2 14 3 13 4 11 5 12 6 10 8 8 9 9 10 84 11 76 14
REMARK SMILES IDX 83 15 75 16 77 17 82 18 78 19 81 20 79 21 80 22 7 23 1 24
REMARK SMILES IDX 2 25 3 26 4 27 6 28 5 29 17 30 18 31 19 32 20 34 21 35 22 36
REMARK SMILES IDX 74 37 23 38 73 39 24 40 25 41 26 42 67 43 27 44 72 45 66 46
REMARK SMILES IDX 68 47 28 48 71 49 65 50 64 51 29 53 55 54 38 55 54 56 39 57
REMARK SMILES IDX 42 58 53 59 69 60 40 61 41 62 52 64 70 65 43 66 30 67 31 68
REMARK SMILES IDX 36 69 32 70 33 71 35 72 37 73 34 74 56 75 57 76 62 77 58 78
REMARK SMILES IDX 59 79 61 80 63 81 60 82 44 83 45 84 50 85 46 86 47 87 49 88
REMARK SMILES IDX 51 89 48 90
REMARK H PARENT 13 7 9 12 9 13 18 33 68 52 42 63
REMARK Flexibility Score: inf
ROOT
ATOM      1  C   UNL A   1      41.192  22.354  26.122  1.00  0.00     0.023 C 
ENDROOT
BRANCH   1   2
ATOM      2  C   UNL A   1      39.824  22.087  26.744  1.00  0.00     0.023 C 
BRANCH   2   3
ATOM      3  C   UNL A   1      38.708  21.725  25.751  1.00  0.00     0.116 C 
BRANCH   3   4
ATOM      4  N   UNL A   1      37.862  22.809  25.264  1.00  0.00    -0.351 N 
ATOM      5  C   UNL A   1      36.628  23.248  25.668  1.00  0.00     0.278 C 
ATOM      6  O   UNL A   1      36.386  24.450  25.494  1.00  0.00    -0.268 OA
ATOM      7  H   UNL A   1      38.244  23.314  24.511  1.00  0.00     0.163 HD
BRANCH   5   8
ATOM      8  C   UNL A   1      35.510  22.274  26.132  1.00  0.00     0.277 C 
ATOM      9  C   UNL A   1      33.594  21.482  24.595  1.00  0.00     0.243 C 
ATOM     10  N   UNL A   1      35.030  21.456  24.979  1.00  0.00    -0.327 N 
ATOM     11  C   UNL A   1      32.562  22.086  25.597  1.00  0.00     0.196 C 
ATOM     12  H   UNL A   1      35.559  21.762  24.163  1.00  0.00     0.347 HD
ATOM     13  H   UNL A   1      35.169  20.498  25.298  1.00  0.00     0.347 HD
ATOM     14  C   UNL A   1      33.210  23.212  26.320  1.00  0.00    -0.024 C 
ATOM     15  N   UNL A   1      31.380  22.716  24.926  1.00  0.00    -0.270 NA
ATOM     16  C   UNL A   1      34.442  22.876  27.047  1.00  0.00     0.109 C 
ATOM     17  C   UNL A   1      32.593  24.366  26.125  1.00  0.00     0.002 A 
ATOM     18  C   UNL A   1      31.449  23.959  25.298  1.00  0.00     0.066 A 
ATOM     19  C   UNL A   1      32.837  25.721  26.490  1.00  0.00     0.010 A 
ATOM     20  C   UNL A   1      30.477  25.029  24.980  1.00  0.00     0.028 A 
ATOM     21  C   UNL A   1      31.942  26.648  26.118  1.00  0.00     0.001 A 
ATOM     22  C   UNL A   1      30.734  26.284  25.392  1.00  0.00     0.002 A 
BRANCH   9  23
ATOM     23  C   UNL A   1      33.134  20.073  24.186  1.00  0.00     0.015 A 
ATOM     24  C   UNL A   1      31.950  20.830  22.018  1.00  0.00     0.045 C 
ATOM     25  C   UNL A   1      32.410  19.786  23.001  1.00  0.00    -0.042 A 
ATOM     26  C   UNL A   1      32.156  18.444  22.656  1.00  0.00     0.004 A 
ATOM     27  C   UNL A   1      32.567  17.395  23.475  1.00  0.00     0.000 A 
ATOM     28  C   UNL A   1      33.524  18.993  25.007  1.00  0.00     0.010 A 
ATOM     29  C   UNL A   1      33.241  17.670  24.657  1.00  0.00     0.001 A 
ENDBRANCH   9  23
ENDBRANCH   5   8
ENDBRANCH   3   4
ENDBRANCH   2   3
ENDBRANCH   1   2
BRANCH   1  30
ATOM     30  C   UNL A   1      42.271  21.357  26.529  1.00  0.00     0.116 C 
BRANCH  30  31
ATOM     31  N   UNL A   1      43.051  20.787  25.435  1.00  0.00    -0.352 N 
ATOM     32  C   UNL A   1      44.141  21.350  24.783  1.00  0.00     0.251 C 
ATOM     33  H   UNL A   1      42.771  19.895  25.122  1.00  0.00     0.163 HD
ATOM     34  O   UNL A   1      44.715  20.754  23.886  1.00  0.00    -0.269 OA
BRANCH  32  35
ATOM     35  C   UNL A   1      44.680  22.636  25.298  1.00  0.00     0.039 A 
ATOM     36  C   UNL A   1      45.424  22.602  26.480  1.00  0.00     0.014 A 
ATOM     37  C   UNL A   1      44.222  23.848  24.788  1.00  0.00     0.014 A 
ATOM     38  C   UNL A   1      45.455  23.735  27.290  1.00  0.00     0.010 A 
ATOM     39  C   UNL A   1      44.175  24.947  25.628  1.00  0.00     0.010 A 
ATOM     40  C   UNL A   1      44.721  24.864  26.912  1.00  0.00    -0.014 A 
BRANCH  40  41
ATOM     41  C   UNL A   1      44.360  25.905  27.872  1.00  0.00     0.031 A 
ATOM     42  C   UNL A   1      42.984  26.429  27.950  1.00  0.00     0.074 A 
ATOM     43  C   UNL A   1      45.299  26.457  28.674  1.00  0.00     0.049 A 
ATOM     44  N   UNL A   1      42.705  27.676  28.150  1.00  0.00    -0.248 NA
ATOM     45  C   UNL A   1      41.809  25.583  27.793  1.00  0.00     0.031 C 
ATOM     46  C   UNL A   1      45.080  27.404  29.763  1.00  0.00     0.029 A 
ATOM     47  N   UNL A   1      46.686  26.428  28.511  1.00  0.00    -0.354 N 
ATOM     48  C   UNL A   1      41.359  27.757  28.414  1.00  0.00     0.074 A 
ATOM     49  C   UNL A   1      40.835  26.440  28.111  1.00  0.00     0.031 C 
ATOM     50  C   UNL A   1      46.220  28.071  29.993  1.00  0.00     0.029 A 
ATOM     51  C   UNL A   1      47.190  27.649  29.000  1.00  0.00     0.049 A 
ATOM     52  H   UNL A   1      47.213  25.692  28.126  1.00  0.00     0.167 HD
ATOM     53  C   UNL A   1      40.835  28.872  29.001  1.00  0.00     0.037 A 
ATOM     54  C   UNL A   1      47.943  28.477  28.220  1.00  0.00     0.037 A 
ATOM     55  C   UNL A   1      41.860  29.865  29.309  1.00  0.00     0.049 A 
ATOM     56  C   UNL A   1      47.331  29.839  27.997  1.00  0.00     0.074 A 
ATOM     57  C   UNL A   1      42.544  30.157  30.479  1.00  0.00     0.029 A 
ATOM     58  N   UNL A   1      42.532  30.528  28.288  1.00  0.00    -0.354 N 
ATOM     59  N   UNL A   1      46.107  30.148  28.322  1.00  0.00    -0.248 NA
ATOM     60  C   UNL A   1      48.021  30.937  27.321  1.00  0.00     0.031 C 
ATOM     61  C   UNL A   1      43.650  30.976  30.156  1.00  0.00     0.029 A 
ATOM     62  C   UNL A   1      43.643  31.182  28.788  1.00  0.00     0.049 A 
ATOM     63  H   UNL A   1      42.255  30.531  27.343  1.00  0.00     0.167 HD
ATOM     64  C   UNL A   1      45.809  31.396  27.836  1.00  0.00     0.074 A 
ATOM     65  C   UNL A   1      47.054  31.870  27.264  1.00  0.00     0.031 C 
ATOM     66  C   UNL A   1      44.548  31.913  27.914  1.00  0.00     0.037 A 
BRANCH  53  67
ATOM     67  C   UNL A   1      39.442  28.887  29.584  1.00  0.00     0.057 A 
ATOM     68  C   UNL A   1      38.323  29.263  28.817  1.00  0.00     0.134 A 
ATOM     69  C   UNL A   1      39.157  28.589  30.927  1.00  0.00     0.134 A 
ATOM     70  F   UNL A   1      38.403  29.460  27.496  1.00  0.00    -0.206 F 
ATOM     71  C   UNL A   1      37.054  29.464  29.372  1.00  0.00     0.040 A 
ATOM     72  C   UNL A   1      37.905  28.834  31.509  1.00  0.00     0.040 A 
ATOM     73  F   UNL A   1      40.080  28.027  31.721  1.00  0.00    -0.206 F 
ATOM     74  C   UNL A   1      36.851  29.295  30.733  1.00  0.00     0.006 A 
ENDBRANCH  53  67
BRANCH  54  75
ATOM     75  C   UNL A   1      48.761  27.743  27.222  1.00  0.00     0.057 A 
ATOM     76  C   UNL A   1      50.005  27.222  27.626  1.00  0.00     0.134 A 
ATOM     77  C   UNL A   1      48.198  27.223  26.055  1.00  0.00     0.134 A 
ATOM     78  F   UNL A   1      50.599  27.678  28.740  1.00  0.00    -0.206 F 
ATOM     79  C   UNL A   1      50.597  26.141  26.971  1.00  0.00     0.040 A 
ATOM     80  C   UNL A   1      48.792  26.150  25.382  1.00  0.00     0.040 A 
ATOM     81  F   UNL A   1      47.009  27.659  25.617  1.00  0.00    -0.206 F 
ATOM     82  C   UNL A   1      49.969  25.578  25.865  1.00  0.00     0.006 A 
ENDBRANCH  54  75
BRANCH  66  83
ATOM     83  C   UNL A   1      44.079  33.187  27.262  1.00  0.00     0.057 A 
ATOM     84  C   UNL A   1      43.885  33.340  25.881  1.00  0.00     0.134 A 
ATOM     85  C   UNL A   1      43.685  34.290  28.051  1.00  0.00     0.134 A 
ATOM     86  F   UNL A   1      44.107  32.332  25.027  1.00  0.00    -0.206 F 
ATOM     87  C   UNL A   1      43.401  34.530  25.319  1.00  0.00     0.040 A 
ATOM     88  C   UNL A   1      43.155  35.463  27.505  1.00  0.00     0.040 A 
ATOM     89  F   UNL A   1      43.783  34.266  29.387  1.00  0.00    -0.206 F 
ATOM     90  C   UNL A   1      43.027  35.593  26.130  1.00  0.00     0.006 A 
ENDBRANCH  66  83
ENDBRANCH  40  41
ENDBRANCH  32  35
ENDBRANCH  30  31
ENDBRANCH   1  30
TORSDOF 12
ENDMDL
