MODEL 1
REMARK VINA RESULT:     -13.1      0.000      0.000
REMARK SMILES Cc1ccc(S(=O)(=O)n2cc(C(=O)C(=O)NCC(=O)NCC(=O)NCCCCNC(=O)c3ccc(-c4c5nc(c(-c6c(F)cccc6F)c6ccc([nH]6)c(-c6c(F)cccc6F)c6nc(c(-c7c(F)cccc7F)c7ccc4[nH]7)C=C6)C=C5)cc3)c3ccccc32)cc1
REMARK SMILES IDX 22 1 23 2 24 3 21 5 20 6 18 7 19 8 17 10 16 11 14 12 15 13
REMARK SMILES IDX 12 15 13 16 11 17 9 18 10 19 91 20 86 21 90 22 87 23 89 24
REMARK SMILES IDX 88 25 6 26 7 27 8 28 5 29 1 30 2 31 3 32 93 33 4 34 92 35
REMARK SMILES IDX 25 36 26 37 27 38 28 39 29 40 30 41 31 43 32 44 33 45 85 46
REMARK SMILES IDX 34 47 84 48 35 49 36 50 37 51 78 52 38 53 83 54 77 55 79 56
REMARK SMILES IDX 39 57 82 58 76 59 75 60 40 62 66 63 49 64 65 65 50 66 53 67
REMARK SMILES IDX 64 68 80 69 51 70 52 71 63 73 81 74 54 75 41 76 42 77 47 78
REMARK SMILES IDX 43 79 44 80 46 81 48 82 45 83 67 84 68 85 73 86 69 87 70 88
REMARK SMILES IDX 72 89 74 90 71 91 55 92 56 93 61 94 57 95 58 96 60 97 62 98
REMARK SMILES IDX 59 99
REMARK H PARENT 24 4 20 9 16 14 29 42 79 61 53 72
REMARK Flexibility Score: inf
ROOT
ATOM      1  C   UNL A   1      37.014  23.313  24.544  1.00  0.00     0.239 C 
ATOM      2  O   UNL A   1      36.980  22.977  23.357  1.00  0.00    -0.273 OA
ATOM      3  N   UNL A   1      38.197  23.153  25.209  1.00  0.00    -0.355 N 
ATOM      4  H   UNL A   1      38.871  22.604  24.746  1.00  0.00     0.163 HD
ENDROOT
BRANCH   1   5
ATOM      5  C   UNL A   1      35.819  24.043  25.185  1.00  0.00     0.216 C 
BRANCH   5   6
ATOM      6  N   UNL A   1      35.233  23.352  26.321  1.00  0.00    -0.346 N 
ATOM      7  C   UNL A   1      34.783  22.075  26.466  1.00  0.00     0.239 C 
ATOM      8  O   UNL A   1      34.262  21.781  27.545  1.00  0.00    -0.273 OA
ATOM      9  H   UNL A   1      35.146  23.905  27.131  1.00  0.00     0.164 HD
BRANCH   7  10
ATOM     10  C   UNL A   1      34.942  21.015  25.361  1.00  0.00     0.216 C 
BRANCH  10  11
ATOM     11  N   UNL A   1      34.014  19.888  25.448  1.00  0.00    -0.340 N 
ATOM     12  C   UNL A   1      32.812  19.637  24.815  1.00  0.00     0.292 C 
ATOM     13  O   UNL A   1      32.111  18.723  25.234  1.00  0.00    -0.265 OA
ATOM     14  H   UNL A   1      34.297  19.179  26.070  1.00  0.00     0.164 HD
BRANCH  12  15
ATOM     15  C   UNL A   1      32.359  20.505  23.621  1.00  0.00     0.252 C 
ATOM     16  O   UNL A   1      32.145  19.928  22.558  1.00  0.00    -0.283 OA
BRANCH  15  17
ATOM     17  C   UNL A   1      32.182  21.961  23.696  1.00  0.00     0.054 A 
ATOM     18  N   UNL A   1      32.246  24.163  23.327  1.00  0.00    -0.240 N 
ATOM     19  C   UNL A   1      32.646  22.942  22.837  1.00  0.00     0.117 A 
ATOM     20  C   UNL A   1      31.518  24.024  24.491  1.00  0.00     0.065 A 
ATOM     21  C   UNL A   1      31.470  22.647  24.745  1.00  0.00     0.012 A 
ATOM     22  C   UNL A   1      30.928  24.957  25.364  1.00  0.00     0.028 A 
ATOM     23  C   UNL A   1      30.799  22.202  25.908  1.00  0.00     0.011 A 
ATOM     24  C   UNL A   1      30.299  24.482  26.518  1.00  0.00     0.002 A 
ATOM     25  C   UNL A   1      30.230  23.122  26.788  1.00  0.00     0.001 A 
BRANCH  18  26
ATOM     26  S   UNL A   1      32.688  25.659  22.636  1.00  0.00     0.268 S 
ATOM     27  O   UNL A   1      31.565  26.038  21.805  1.00  0.00    -0.201 OA
ATOM     28  O   UNL A   1      34.020  25.460  22.088  1.00  0.00    -0.201 OA
BRANCH  26  29
ATOM     29  C   UNL A   1      32.821  26.849  23.946  1.00  0.00     0.088 A 
ATOM     30  C   UNL A   1      32.759  29.680  27.187  1.00  0.00     0.044 C 
ATOM     31  C   UNL A   1      32.798  28.702  26.049  1.00  0.00    -0.051 A 
ATOM     32  C   UNL A   1      31.865  28.803  25.010  1.00  0.00     0.005 A 
ATOM     33  C   UNL A   1      33.758  27.685  26.008  1.00  0.00     0.005 A 
ATOM     34  C   UNL A   1      31.872  27.877  23.964  1.00  0.00     0.022 A 
ATOM     35  C   UNL A   1      33.783  26.767  24.955  1.00  0.00     0.022 A 
ENDBRANCH  26  29
ENDBRANCH  18  26
ENDBRANCH  15  17
ENDBRANCH  12  15
ENDBRANCH  10  11
ENDBRANCH   7  10
ENDBRANCH   5   6
ENDBRANCH   1   5
BRANCH   3  36
ATOM     36  C   UNL A   1      38.602  23.676  26.496  1.00  0.00     0.116 C 
BRANCH  36  37
ATOM     37  C   UNL A   1      39.723  22.885  27.170  1.00  0.00     0.023 C 
BRANCH  37  38
ATOM     38  C   UNL A   1      40.547  22.030  26.213  1.00  0.00     0.023 C 
BRANCH  38  39
ATOM     39  C   UNL A   1      42.050  22.182  26.380  1.00  0.00     0.116 C 
BRANCH  39  40
ATOM     40  N   UNL A   1      42.875  21.446  25.430  1.00  0.00    -0.352 N 
ATOM     41  C   UNL A   1      44.085  21.806  24.852  1.00  0.00     0.251 C 
ATOM     42  H   UNL A   1      42.524  20.567  25.160  1.00  0.00     0.163 HD
ATOM     43  O   UNL A   1      44.595  21.068  24.013  1.00  0.00    -0.269 OA
BRANCH  41  44
ATOM     44  C   UNL A   1      44.857  22.967  25.374  1.00  0.00     0.039 A 
ATOM     45  C   UNL A   1      45.423  22.831  26.649  1.00  0.00     0.014 A 
ATOM     46  C   UNL A   1      44.696  24.230  24.824  1.00  0.00     0.014 A 
ATOM     47  C   UNL A   1      45.458  23.933  27.491  1.00  0.00     0.010 A 
ATOM     48  C   UNL A   1      44.562  25.285  25.685  1.00  0.00     0.010 A 
ATOM     49  C   UNL A   1      44.876  25.107  27.031  1.00  0.00    -0.014 A 
BRANCH  49  50
ATOM     50  C   UNL A   1      44.600  26.262  27.852  1.00  0.00     0.031 A 
ATOM     51  C   UNL A   1      43.206  26.718  27.881  1.00  0.00     0.074 A 
ATOM     52  C   UNL A   1      45.587  26.738  28.640  1.00  0.00     0.049 A 
ATOM     53  N   UNL A   1      42.834  27.931  28.067  1.00  0.00    -0.248 NA
ATOM     54  C   UNL A   1      42.089  25.812  27.615  1.00  0.00     0.031 C 
ATOM     55  C   UNL A   1      45.507  27.720  29.713  1.00  0.00     0.029 A 
ATOM     56  N   UNL A   1      46.966  26.523  28.478  1.00  0.00    -0.354 N 
ATOM     57  C   UNL A   1      41.472  27.907  28.287  1.00  0.00     0.074 A 
ATOM     58  C   UNL A   1      41.042  26.604  27.850  1.00  0.00     0.031 C 
ATOM     59  C   UNL A   1      46.723  28.277  29.873  1.00  0.00     0.029 A 
ATOM     60  C   UNL A   1      47.582  27.746  28.825  1.00  0.00     0.049 A 
ATOM     61  H   UNL A   1      47.410  25.694  28.184  1.00  0.00     0.167 HD
ATOM     62  C   UNL A   1      40.915  28.935  28.989  1.00  0.00     0.037 A 
ATOM     63  C   UNL A   1      48.220  28.487  27.872  1.00  0.00     0.037 A 
ATOM     64  C   UNL A   1      41.961  29.903  29.326  1.00  0.00     0.049 A 
ATOM     65  C   UNL A   1      47.518  29.805  27.643  1.00  0.00     0.074 A 
ATOM     66  C   UNL A   1      42.760  30.026  30.452  1.00  0.00     0.029 A 
ATOM     67  N   UNL A   1      42.593  30.611  28.310  1.00  0.00    -0.354 N 
ATOM     68  N   UNL A   1      46.248  30.001  27.877  1.00  0.00    -0.248 NA
ATOM     69  C   UNL A   1      48.201  31.014  27.193  1.00  0.00     0.031 C 
ATOM     70  C   UNL A   1      43.927  30.743  30.077  1.00  0.00     0.029 A 
ATOM     71  C   UNL A   1      43.824  31.075  28.736  1.00  0.00     0.049 A 
ATOM     72  H   UNL A   1      42.216  30.760  27.413  1.00  0.00     0.167 HD
ATOM     73  C   UNL A   1      45.942  31.316  27.649  1.00  0.00     0.074 A 
ATOM     74  C   UNL A   1      47.198  31.908  27.225  1.00  0.00     0.031 C 
ATOM     75  C   UNL A   1      44.689  31.828  27.838  1.00  0.00     0.037 A 
BRANCH  62  76
ATOM     76  C   UNL A   1      39.553  28.922  29.650  1.00  0.00     0.057 A 
ATOM     77  C   UNL A   1      38.413  29.324  28.921  1.00  0.00     0.134 A 
ATOM     78  C   UNL A   1      39.279  28.568  30.984  1.00  0.00     0.134 A 
ATOM     79  F   UNL A   1      38.479  29.618  27.615  1.00  0.00    -0.206 F 
ATOM     80  C   UNL A   1      37.137  29.442  29.488  1.00  0.00     0.040 A 
ATOM     81  C   UNL A   1      38.013  28.713  31.574  1.00  0.00     0.040 A 
ATOM     82  F   UNL A   1      40.197  28.008  31.776  1.00  0.00    -0.206 F 
ATOM     83  C   UNL A   1      36.935  29.159  30.828  1.00  0.00     0.006 A 
ENDBRANCH  62  76
BRANCH  63  84
ATOM     84  C   UNL A   1      48.860  27.628  26.830  1.00  0.00     0.057 A 
ATOM     85  C   UNL A   1      48.193  27.494  25.595  1.00  0.00     0.134 A 
ATOM     86  C   UNL A   1      50.231  27.358  26.838  1.00  0.00     0.134 A 
ATOM     87  F   UNL A   1      46.867  27.704  25.516  1.00  0.00    -0.206 F 
ATOM     88  C   UNL A   1      48.884  27.289  24.397  1.00  0.00     0.040 A 
ATOM     89  C   UNL A   1      50.927  27.120  25.645  1.00  0.00     0.040 A 
ATOM     90  F   UNL A   1      50.941  27.444  27.972  1.00  0.00    -0.206 F 
ATOM     91  C   UNL A   1      50.266  27.152  24.416  1.00  0.00     0.006 A 
ENDBRANCH  63  84
BRANCH  75  92
ATOM     92  C   UNL A   1      44.202  33.143  27.283  1.00  0.00     0.057 A 
ATOM     93  C   UNL A   1      43.995  33.385  25.917  1.00  0.00     0.134 A 
ATOM     94  C   UNL A   1      43.774  34.181  28.142  1.00  0.00     0.134 A 
ATOM     95  F   UNL A   1      44.207  32.440  24.992  1.00  0.00    -0.206 F 
ATOM     96  C   UNL A   1      43.501  34.603  25.435  1.00  0.00     0.040 A 
ATOM     97  C   UNL A   1      43.208  35.370  27.676  1.00  0.00     0.040 A 
ATOM     98  F   UNL A   1      43.857  34.080  29.477  1.00  0.00    -0.206 F 
ATOM     99  C   UNL A   1      43.097  35.596  26.314  1.00  0.00     0.006 A 
ENDBRANCH  75  92
ENDBRANCH  49  50
ENDBRANCH  41  44
ENDBRANCH  39  40
ENDBRANCH  38  39
ENDBRANCH  37  38
ENDBRANCH  36  37
ENDBRANCH   3  36
TORSDOF 18
ENDMDL
MODEL 2
REMARK VINA RESULT:     -12.6      1.097      1.656
REMARK SMILES Cc1ccc(S(=O)(=O)n2cc(C(=O)C(=O)NCC(=O)NCC(=O)NCCCCNC(=O)c3ccc(-c4c5nc(c(-c6c(F)cccc6F)c6ccc([nH]6)c(-c6c(F)cccc6F)c6nc(c(-c7c(F)cccc7F)c7ccc4[nH]7)C=C6)C=C5)cc3)c3ccccc32)cc1
REMARK SMILES IDX 22 1 23 2 24 3 21 5 20 6 18 7 19 8 17 10 16 11 14 12 15 13
REMARK SMILES IDX 12 15 13 16 11 17 9 18 10 19 91 20 86 21 90 22 87 23 89 24
REMARK SMILES IDX 88 25 6 26 7 27 8 28 5 29 1 30 2 31 3 32 93 33 4 34 92 35
REMARK SMILES IDX 25 36 26 37 27 38 28 39 29 40 30 41 31 43 32 44 33 45 85 46
REMARK SMILES IDX 34 47 84 48 35 49 36 50 37 51 78 52 38 53 83 54 77 55 79 56
REMARK SMILES IDX 39 57 82 58 76 59 75 60 40 62 66 63 49 64 65 65 50 66 53 67
REMARK SMILES IDX 64 68 80 69 51 70 52 71 63 73 81 74 54 75 41 76 42 77 47 78
REMARK SMILES IDX 43 79 44 80 46 81 48 82 45 83 67 84 68 85 73 86 69 87 70 88
REMARK SMILES IDX 72 89 74 90 71 91 55 92 56 93 61 94 57 95 58 96 60 97 62 98
REMARK SMILES IDX 59 99
REMARK H PARENT 24 4 20 9 16 14 29 42 79 61 53 72
REMARK Flexibility Score: inf
ROOT
ATOM      1  C   UNL A   1      37.718  22.632  25.306  1.00  0.00     0.239 C 
ATOM      2  O   UNL A   1      37.475  22.062  24.239  1.00  0.00    -0.273 OA
ATOM      3  N   UNL A   1      38.980  22.499  25.816  1.00  0.00    -0.355 N 
ATOM      4  H   UNL A   1      39.535  21.804  25.395  1.00  0.00     0.163 HD
ENDROOT
BRANCH   1   5
ATOM      5  C   UNL A   1      36.690  23.590  25.935  1.00  0.00     0.216 C 
BRANCH   5   6
ATOM      6  N   UNL A   1      35.781  22.961  26.878  1.00  0.00    -0.346 N 
ATOM      7  C   UNL A   1      34.926  21.910  26.743  1.00  0.00     0.239 C 
ATOM      8  O   UNL A   1      34.214  21.634  27.713  1.00  0.00    -0.273 OA
ATOM      9  H   UNL A   1      35.784  23.366  27.775  1.00  0.00     0.164 HD
BRANCH   7  10
ATOM     10  C   UNL A   1      34.860  21.060  25.461  1.00  0.00     0.216 C 
BRANCH  10  11
ATOM     11  N   UNL A   1      33.934  19.930  25.515  1.00  0.00    -0.340 N 
ATOM     12  C   UNL A   1      32.716  19.711  24.900  1.00  0.00     0.292 C 
ATOM     13  O   UNL A   1      32.025  18.777  25.291  1.00  0.00    -0.265 OA
ATOM     14  H   UNL A   1      34.231  19.191  26.094  1.00  0.00     0.164 HD
BRANCH  12  15
ATOM     15  C   UNL A   1      32.234  20.638  23.762  1.00  0.00     0.252 C 
ATOM     16  O   UNL A   1      32.086  20.131  22.654  1.00  0.00    -0.283 OA
BRANCH  15  17
ATOM     17  C   UNL A   1      31.957  22.068  23.942  1.00  0.00     0.054 A 
ATOM     18  N   UNL A   1      31.270  24.053  24.703  1.00  0.00    -0.240 N 
ATOM     19  C   UNL A   1      31.304  22.706  24.982  1.00  0.00     0.117 A 
ATOM     20  C   UNL A   1      31.892  24.333  23.504  1.00  0.00     0.065 A 
ATOM     21  C   UNL A   1      32.327  23.099  23.005  1.00  0.00     0.012 A 
ATOM     22  C   UNL A   1      32.088  25.530  22.789  1.00  0.00     0.028 A 
ATOM     23  C   UNL A   1      32.988  23.076  21.754  1.00  0.00     0.011 A 
ATOM     24  C   UNL A   1      32.719  25.464  21.544  1.00  0.00     0.002 A 
ATOM     25  C   UNL A   1      33.168  24.255  21.032  1.00  0.00     0.001 A 
BRANCH  18  26
ATOM     26  S   UNL A   1      30.466  25.206  25.669  1.00  0.00     0.268 S 
ATOM     27  O   UNL A   1      29.989  24.470  26.820  1.00  0.00    -0.201 OA
ATOM     28  O   UNL A   1      29.561  25.907  24.772  1.00  0.00    -0.201 OA
BRANCH  26  29
ATOM     29  C   UNL A   1      31.671  26.380  26.236  1.00  0.00     0.088 A 
ATOM     30  C   UNL A   1      34.744  29.217  27.249  1.00  0.00     0.044 C 
ATOM     31  C   UNL A   1      33.670  28.223  26.916  1.00  0.00    -0.051 A 
ATOM     32  C   UNL A   1      34.006  27.013  26.297  1.00  0.00     0.005 A 
ATOM     33  C   UNL A   1      32.329  28.486  27.218  1.00  0.00     0.005 A 
ATOM     34  C   UNL A   1      33.011  26.096  25.953  1.00  0.00     0.022 A 
ATOM     35  C   UNL A   1      31.330  27.564  26.894  1.00  0.00     0.022 A 
ENDBRANCH  26  29
ENDBRANCH  18  26
ENDBRANCH  15  17
ENDBRANCH  12  15
ENDBRANCH  10  11
ENDBRANCH   7  10
ENDBRANCH   5   6
ENDBRANCH   1   5
BRANCH   3  36
ATOM     36  C   UNL A   1      39.616  23.235  26.887  1.00  0.00     0.116 C 
BRANCH  36  37
ATOM     37  C   UNL A   1      40.633  22.422  27.689  1.00  0.00     0.023 C 
BRANCH  37  38
ATOM     38  C   UNL A   1      41.318  21.319  26.891  1.00  0.00     0.023 C 
BRANCH  38  39
ATOM     39  C   UNL A   1      42.819  21.505  26.732  1.00  0.00     0.116 C 
BRANCH  39  40
ATOM     40  N   UNL A   1      43.345  21.327  25.385  1.00  0.00    -0.352 N 
ATOM     41  C   UNL A   1      44.265  22.101  24.691  1.00  0.00     0.251 C 
ATOM     42  H   UNL A   1      42.998  20.546  24.897  1.00  0.00     0.163 HD
ATOM     43  O   UNL A   1      44.532  21.820  23.525  1.00  0.00    -0.269 OA
BRANCH  41  44
ATOM     44  C   UNL A   1      45.067  23.138  25.397  1.00  0.00     0.039 A 
ATOM     45  C   UNL A   1      45.378  22.894  26.741  1.00  0.00     0.014 A 
ATOM     46  C   UNL A   1      45.160  24.427  24.892  1.00  0.00     0.014 A 
ATOM     47  C   UNL A   1      45.395  23.958  27.632  1.00  0.00     0.010 A 
ATOM     48  C   UNL A   1      45.005  25.465  25.770  1.00  0.00     0.010 A 
ATOM     49  C   UNL A   1      45.051  25.210  27.139  1.00  0.00    -0.014 A 
BRANCH  49  50
ATOM     50  C   UNL A   1      44.776  26.366  27.958  1.00  0.00     0.031 A 
ATOM     51  C   UNL A   1      43.372  26.784  28.038  1.00  0.00     0.074 A 
ATOM     52  C   UNL A   1      45.779  26.878  28.702  1.00  0.00     0.049 A 
ATOM     53  N   UNL A   1      42.974  27.988  28.226  1.00  0.00    -0.248 NA
ATOM     54  C   UNL A   1      42.271  25.845  27.826  1.00  0.00     0.031 C 
ATOM     55  C   UNL A   1      45.715  27.870  29.766  1.00  0.00     0.029 A 
ATOM     56  N   UNL A   1      47.157  26.698  28.486  1.00  0.00    -0.354 N 
ATOM     57  C   UNL A   1      41.623  27.930  28.500  1.00  0.00     0.074 A 
ATOM     58  C   UNL A   1      41.213  26.611  28.094  1.00  0.00     0.031 C 
ATOM     59  C   UNL A   1      46.920  28.462  29.872  1.00  0.00     0.029 A 
ATOM     60  C   UNL A   1      47.752  27.942  28.796  1.00  0.00     0.049 A 
ATOM     61  H   UNL A   1      47.612  25.879  28.184  1.00  0.00     0.167 HD
ATOM     62  C   UNL A   1      41.067  28.950  29.212  1.00  0.00     0.037 A 
ATOM     63  C   UNL A   1      48.331  28.689  27.810  1.00  0.00     0.037 A 
ATOM     64  C   UNL A   1      42.097  29.950  29.497  1.00  0.00     0.049 A 
ATOM     65  C   UNL A   1      47.584  29.984  27.596  1.00  0.00     0.074 A 
ATOM     66  C   UNL A   1      42.936  30.109  30.590  1.00  0.00     0.029 A 
ATOM     67  N   UNL A   1      42.669  30.663  28.449  1.00  0.00    -0.354 N 
ATOM     68  N   UNL A   1      46.319  30.149  27.878  1.00  0.00    -0.248 NA
ATOM     69  C   UNL A   1      48.216  31.206  27.106  1.00  0.00     0.031 C 
ATOM     70  C   UNL A   1      44.067  30.853  30.161  1.00  0.00     0.029 A 
ATOM     71  C   UNL A   1      43.903  31.166  28.821  1.00  0.00     0.049 A 
ATOM     72  H   UNL A   1      42.253  30.792  27.567  1.00  0.00     0.167 HD
ATOM     73  C   UNL A   1      45.968  31.452  27.648  1.00  0.00     0.074 A 
ATOM     74  C   UNL A   1      47.190  32.073  27.169  1.00  0.00     0.031 C 
ATOM     75  C   UNL A   1      44.710  31.932  27.882  1.00  0.00     0.037 A 
BRANCH  62  76
ATOM     76  C   UNL A   1      39.732  28.908  29.927  1.00  0.00     0.057 A 
ATOM     77  C   UNL A   1      38.556  29.288  29.245  1.00  0.00     0.134 A 
ATOM     78  C   UNL A   1      39.519  28.547  31.270  1.00  0.00     0.134 A 
ATOM     79  F   UNL A   1      38.564  29.584  27.939  1.00  0.00    -0.206 F 
ATOM     80  C   UNL A   1      37.302  29.378  29.863  1.00  0.00     0.040 A 
ATOM     81  C   UNL A   1      38.275  28.664  31.911  1.00  0.00     0.040 A 
ATOM     82  F   UNL A   1      40.479  28.005  32.024  1.00  0.00    -0.206 F 
ATOM     83  C   UNL A   1      37.159  29.089  31.210  1.00  0.00     0.006 A 
ENDBRANCH  62  76
BRANCH  63  84
ATOM     84  C   UNL A   1      48.953  27.836  26.753  1.00  0.00     0.057 A 
ATOM     85  C   UNL A   1      48.276  27.725  25.521  1.00  0.00     0.134 A 
ATOM     86  C   UNL A   1      50.320  27.548  26.748  1.00  0.00     0.134 A 
ATOM     87  F   UNL A   1      46.952  27.952  25.454  1.00  0.00    -0.206 F 
ATOM     88  C   UNL A   1      48.955  27.527  24.315  1.00  0.00     0.040 A 
ATOM     89  C   UNL A   1      51.005  27.318  25.546  1.00  0.00     0.040 A 
ATOM     90  F   UNL A   1      51.040  27.612  27.877  1.00  0.00    -0.206 F 
ATOM     91  C   UNL A   1      50.336  27.373  24.323  1.00  0.00     0.006 A 
ENDBRANCH  63  84
BRANCH  75  92
ATOM     92  C   UNL A   1      44.165  33.226  27.332  1.00  0.00     0.057 A 
ATOM     93  C   UNL A   1      43.912  33.452  25.971  1.00  0.00     0.134 A 
ATOM     94  C   UNL A   1      43.729  34.257  28.197  1.00  0.00     0.134 A 
ATOM     95  F   UNL A   1      44.127  32.507  25.047  1.00  0.00    -0.206 F 
ATOM     96  C   UNL A   1      43.365  34.650  25.496  1.00  0.00     0.040 A 
ATOM     97  C   UNL A   1      43.112  35.423  27.740  1.00  0.00     0.040 A 
ATOM     98  F   UNL A   1      43.853  34.168  29.530  1.00  0.00    -0.206 F 
ATOM     99  C   UNL A   1      42.955  35.636  26.381  1.00  0.00     0.006 A 
ENDBRANCH  75  92
ENDBRANCH  49  50
ENDBRANCH  41  44
ENDBRANCH  39  40
ENDBRANCH  38  39
ENDBRANCH  37  38
ENDBRANCH  36  37
ENDBRANCH   3  36
TORSDOF 18
ENDMDL
MODEL 3
REMARK VINA RESULT:     -12.6      4.103      9.412
REMARK SMILES Cc1ccc(S(=O)(=O)n2cc(C(=O)C(=O)NCC(=O)NCC(=O)NCCCCNC(=O)c3ccc(-c4c5nc(c(-c6c(F)cccc6F)c6ccc([nH]6)c(-c6c(F)cccc6F)c6nc(c(-c7c(F)cccc7F)c7ccc4[nH]7)C=C6)C=C5)cc3)c3ccccc32)cc1
REMARK SMILES IDX 22 1 23 2 24 3 21 5 20 6 18 7 19 8 17 10 16 11 14 12 15 13
REMARK SMILES IDX 12 15 13 16 11 17 9 18 10 19 91 20 86 21 90 22 87 23 89 24
REMARK SMILES IDX 88 25 6 26 7 27 8 28 5 29 1 30 2 31 3 32 93 33 4 34 92 35
REMARK SMILES IDX 25 36 26 37 27 38 28 39 29 40 30 41 31 43 32 44 33 45 85 46
REMARK SMILES IDX 34 47 84 48 35 49 36 50 37 51 78 52 38 53 83 54 77 55 79 56
REMARK SMILES IDX 39 57 82 58 76 59 75 60 40 62 66 63 49 64 65 65 50 66 53 67
REMARK SMILES IDX 64 68 80 69 51 70 52 71 63 73 81 74 54 75 41 76 42 77 47 78
REMARK SMILES IDX 43 79 44 80 46 81 48 82 45 83 67 84 68 85 73 86 69 87 70 88
REMARK SMILES IDX 72 89 74 90 71 91 55 92 56 93 61 94 57 95 58 96 60 97 62 98
REMARK SMILES IDX 59 99
REMARK H PARENT 24 4 20 9 16 14 29 42 79 61 53 72
REMARK Flexibility Score: inf
ROOT
ATOM      1  C   UNL A   1      31.827  28.540  27.224  1.00  0.00     0.239 C 
ATOM      2  O   UNL A   1      31.026  28.106  28.056  1.00  0.00    -0.273 OA
ATOM      3  N   UNL A   1      32.675  29.533  27.626  1.00  0.00    -0.355 N 
ATOM      4  H   UNL A   1      32.451  29.958  28.486  1.00  0.00     0.163 HD
ENDROOT
BRANCH   1   5
ATOM      5  C   UNL A   1      31.972  27.861  25.849  1.00  0.00     0.216 C 
BRANCH   5   6
ATOM      6  N   UNL A   1      31.157  28.450  24.800  1.00  0.00    -0.346 N 
ATOM      7  C   UNL A   1      30.558  27.900  23.708  1.00  0.00     0.239 C 
ATOM      8  O   UNL A   1      29.975  28.669  22.939  1.00  0.00    -0.273 OA
ATOM      9  H   UNL A   1      31.011  29.418  24.895  1.00  0.00     0.164 HD
BRANCH   7  10
ATOM     10  C   UNL A   1      30.559  26.384  23.442  1.00  0.00     0.216 C 
BRANCH  10  11
ATOM     11  N   UNL A   1      31.382  25.954  22.313  1.00  0.00    -0.340 N 
ATOM     12  C   UNL A   1      32.750  25.843  22.164  1.00  0.00     0.292 C 
ATOM     13  O   UNL A   1      33.204  25.678  21.037  1.00  0.00    -0.265 OA
ATOM     14  H   UNL A   1      30.868  25.697  21.513  1.00  0.00     0.164 HD
BRANCH  12  15
ATOM     15  C   UNL A   1      33.683  25.946  23.391  1.00  0.00     0.252 C 
ATOM     16  O   UNL A   1      33.965  27.074  23.786  1.00  0.00    -0.283 OA
BRANCH  15  17
ATOM     17  C   UNL A   1      34.241  24.779  24.086  1.00  0.00     0.054 A 
ATOM     18  N   UNL A   1      35.489  23.036  24.715  1.00  0.00    -0.240 N 
ATOM     19  C   UNL A   1      35.381  24.051  23.793  1.00  0.00     0.117 A 
ATOM     20  C   UNL A   1      34.452  23.071  25.624  1.00  0.00     0.065 A 
ATOM     21  C   UNL A   1      33.652  24.156  25.246  1.00  0.00     0.012 A 
ATOM     22  C   UNL A   1      34.112  22.248  26.715  1.00  0.00     0.028 A 
ATOM     23  C   UNL A   1      32.482  24.422  25.995  1.00  0.00     0.011 A 
ATOM     24  C   UNL A   1      32.934  22.525  27.415  1.00  0.00     0.002 A 
ATOM     25  C   UNL A   1      32.129  23.600  27.065  1.00  0.00     0.001 A 
BRANCH  18  26
ATOM     26  S   UNL A   1      36.694  21.829  24.668  1.00  0.00     0.268 S 
ATOM     27  O   UNL A   1      37.205  21.858  23.315  1.00  0.00    -0.201 OA
ATOM     28  O   UNL A   1      36.080  20.640  25.236  1.00  0.00    -0.201 OA
BRANCH  26  29
ATOM     29  C   UNL A   1      38.007  22.325  25.755  1.00  0.00     0.088 A 
ATOM     30  C   UNL A   1      41.441  23.410  28.111  1.00  0.00     0.044 C 
ATOM     31  C   UNL A   1      40.232  23.030  27.307  1.00  0.00    -0.051 A 
ATOM     32  C   UNL A   1      40.147  21.756  26.732  1.00  0.00     0.005 A 
ATOM     33  C   UNL A   1      39.179  23.933  27.122  1.00  0.00     0.005 A 
ATOM     34  C   UNL A   1      39.042  21.405  25.955  1.00  0.00     0.022 A 
ATOM     35  C   UNL A   1      38.061  23.581  26.361  1.00  0.00     0.022 A 
ENDBRANCH  26  29
ENDBRANCH  18  26
ENDBRANCH  15  17
ENDBRANCH  12  15
ENDBRANCH  10  11
ENDBRANCH   7  10
ENDBRANCH   5   6
ENDBRANCH   1   5
BRANCH   3  36
ATOM     36  C   UNL A   1      33.856  30.050  26.969  1.00  0.00     0.116 C 
BRANCH  36  37
ATOM     37  C   UNL A   1      35.171  29.488  27.510  1.00  0.00     0.023 C 
BRANCH  37  38
ATOM     38  C   UNL A   1      35.653  30.155  28.794  1.00  0.00     0.023 C 
BRANCH  38  39
ATOM     39  C   UNL A   1      35.812  31.664  28.691  1.00  0.00     0.116 C 
BRANCH  39  40
ATOM     40  N   UNL A   1      34.805  32.459  29.382  1.00  0.00    -0.352 N 
ATOM     41  C   UNL A   1      34.820  32.967  30.674  1.00  0.00     0.251 C 
ATOM     42  H   UNL A   1      33.999  32.666  28.857  1.00  0.00     0.163 HD
ATOM     43  O   UNL A   1      33.834  33.564  31.099  1.00  0.00    -0.269 OA
BRANCH  41  44
ATOM     44  C   UNL A   1      36.077  32.967  31.472  1.00  0.00     0.039 A 
ATOM     45  C   UNL A   1      37.068  33.884  31.097  1.00  0.00     0.014 A 
ATOM     46  C   UNL A   1      36.410  31.880  32.268  1.00  0.00     0.014 A 
ATOM     47  C   UNL A   1      38.401  33.508  31.186  1.00  0.00     0.010 A 
ATOM     48  C   UNL A   1      37.699  31.422  32.208  1.00  0.00     0.010 A 
ATOM     49  C   UNL A   1      38.672  32.211  31.600  1.00  0.00    -0.014 A 
BRANCH  49  50
ATOM     50  C   UNL A   1      39.967  31.576  31.513  1.00  0.00     0.031 A 
ATOM     51  C   UNL A   1      40.097  30.506  30.519  1.00  0.00     0.074 A 
ATOM     52  C   UNL A   1      40.987  32.102  32.224  1.00  0.00     0.049 A 
ATOM     53  N   UNL A   1      40.894  29.507  30.617  1.00  0.00    -0.248 NA
ATOM     54  C   UNL A   1      39.248  30.447  29.329  1.00  0.00     0.031 C 
ATOM     55  C   UNL A   1      42.410  31.806  32.137  1.00  0.00     0.029 A 
ATOM     56  N   UNL A   1      40.881  32.932  33.353  1.00  0.00    -0.354 N 
ATOM     57  C   UNL A   1      40.913  28.883  29.386  1.00  0.00     0.074 A 
ATOM     58  C   UNL A   1      39.775  29.408  28.679  1.00  0.00     0.031 C 
ATOM     59  C   UNL A   1      42.986  32.127  33.311  1.00  0.00     0.029 A 
ATOM     60  C   UNL A   1      41.921  32.527  34.219  1.00  0.00     0.049 A 
ATOM     61  H   UNL A   1      40.221  33.647  33.508  1.00  0.00     0.167 HD
ATOM     62  C   UNL A   1      42.008  28.138  29.060  1.00  0.00     0.037 A 
ATOM     63  C   UNL A   1      41.627  31.925  35.409  1.00  0.00     0.037 A 
ATOM     64  C   UNL A   1      42.942  28.145  30.187  1.00  0.00     0.049 A 
ATOM     65  C   UNL A   1      42.107  30.493  35.432  1.00  0.00     0.074 A 
ATOM     66  C   UNL A   1      44.020  28.969  30.472  1.00  0.00     0.029 A 
ATOM     67  N   UNL A   1      42.578  27.538  31.384  1.00  0.00    -0.354 N 
ATOM     68  N   UNL A   1      42.273  29.766  34.360  1.00  0.00    -0.248 NA
ATOM     69  C   UNL A   1      42.494  29.793  36.653  1.00  0.00     0.031 C 
ATOM     70  C   UNL A   1      44.243  28.918  31.874  1.00  0.00     0.029 A 
ATOM     71  C   UNL A   1      43.321  28.048  32.432  1.00  0.00     0.049 A 
ATOM     72  H   UNL A   1      41.887  26.842  31.471  1.00  0.00     0.167 HD
ATOM     73  C   UNL A   1      42.794  28.550  34.712  1.00  0.00     0.074 A 
ATOM     74  C   UNL A   1      42.916  28.617  36.157  1.00  0.00     0.031 C 
ATOM     75  C   UNL A   1      43.103  27.584  33.795  1.00  0.00     0.037 A 
BRANCH  62  76
ATOM     76  C   UNL A   1      42.395  27.695  27.664  1.00  0.00     0.057 A 
ATOM     77  C   UNL A   1      41.532  26.856  26.927  1.00  0.00     0.134 A 
ATOM     78  C   UNL A   1      43.590  28.012  26.993  1.00  0.00     0.134 A 
ATOM     79  F   UNL A   1      40.317  26.521  27.382  1.00  0.00    -0.206 F 
ATOM     80  C   UNL A   1      41.863  26.317  25.677  1.00  0.00     0.040 A 
ATOM     81  C   UNL A   1      43.950  27.453  25.755  1.00  0.00     0.040 A 
ATOM     82  F   UNL A   1      44.451  28.921  27.459  1.00  0.00    -0.206 F 
ATOM     83  C   UNL A   1      43.088  26.595  25.094  1.00  0.00     0.006 A 
ENDBRANCH  62  76
BRANCH  63  84
ATOM     84  C   UNL A   1      40.359  32.448  36.002  1.00  0.00     0.057 A 
ATOM     85  C   UNL A   1      40.375  33.756  36.530  1.00  0.00     0.134 A 
ATOM     86  C   UNL A   1      39.111  31.927  35.652  1.00  0.00     0.134 A 
ATOM     87  F   UNL A   1      41.535  34.312  36.923  1.00  0.00    -0.206 F 
ATOM     88  C   UNL A   1      39.240  34.571  36.530  1.00  0.00     0.040 A 
ATOM     89  C   UNL A   1      37.960  32.727  35.678  1.00  0.00     0.040 A 
ATOM     90  F   UNL A   1      39.000  30.685  35.158  1.00  0.00    -0.206 F 
ATOM     91  C   UNL A   1      38.035  34.069  36.053  1.00  0.00     0.006 A 
ENDBRANCH  63  84
BRANCH  75  92
ATOM     92  C   UNL A   1      43.338  26.130  34.122  1.00  0.00     0.057 A 
ATOM     93  C   UNL A   1      42.396  25.312  34.763  1.00  0.00     0.134 A 
ATOM     94  C   UNL A   1      44.490  25.456  33.654  1.00  0.00     0.134 A 
ATOM     95  F   UNL A   1      41.191  25.772  35.124  1.00  0.00    -0.206 F 
ATOM     96  C   UNL A   1      42.626  23.954  35.013  1.00  0.00     0.040 A 
ATOM     97  C   UNL A   1      44.694  24.087  33.830  1.00  0.00     0.040 A 
ATOM     98  F   UNL A   1      45.459  26.090  32.976  1.00  0.00    -0.206 F 
ATOM     99  C   UNL A   1      43.772  23.335  34.540  1.00  0.00     0.006 A 
ENDBRANCH  75  92
ENDBRANCH  49  50
ENDBRANCH  41  44
ENDBRANCH  39  40
ENDBRANCH  38  39
ENDBRANCH  37  38
ENDBRANCH  36  37
ENDBRANCH   3  36
TORSDOF 18
ENDMDL
