MODEL 1
REMARK VINA RESULT:     -11.9      0.000      0.000
REMARK SMILES O=C(NCCCCNC(=O)[C@H](CCc1ccccn1)c1ccccc1Br)c1ccc(-c2c3nc(c(-c4c(F)cccc4F)c4ccc([nH]4)c(-c4c(F)cccc4F)c4nc(c(-c5c(F)cccc5F)c5ccc2[nH]5)C=C4)C=C3)cc1
REMARK SMILES IDX 6 1 5 2 4 3 3 4 1 5 2 6 27 8 28 9 80 10 29 11 79 12 30 13
REMARK SMILES IDX 31 14 32 15 73 16 33 17 78 18 72 19 74 20 34 21 77 22 71 23
REMARK SMILES IDX 70 24 35 26 61 27 44 28 60 29 45 30 48 31 59 32 75 33 46 34
REMARK SMILES IDX 47 35 58 37 76 38 49 39 36 40 37 41 42 42 38 43 39 44 41 45
REMARK SMILES IDX 43 46 40 47 62 48 63 49 68 50 64 51 65 52 67 53 69 54 66 55
REMARK SMILES IDX 50 56 51 57 56 58 52 59 53 60 55 61 57 62 54 63 7 64 8 65
REMARK SMILES IDX 9 66 10 68 11 69 20 70 21 71 25 72 22 73 24 74 26 75 23 76
REMARK SMILES IDX 12 77 13 78 14 79 15 80 19 81 16 82 18 83 17 84
REMARK H PARENT 3 7 74 25 48 36 8 67
REMARK Flexibility Score: inf
ROOT
ATOM      1  C   UNL A   1      37.119  21.123  24.431  1.00  0.00     0.023 C 
ENDROOT
BRANCH   1   2
ATOM      2  C   UNL A   1      37.850  19.897  24.982  1.00  0.00     0.023 C 
BRANCH   2   3
ATOM      3  C   UNL A   1      39.006  20.210  25.920  1.00  0.00     0.116 C 
BRANCH   3   4
ATOM      4  N   UNL A   1      40.079  19.229  25.858  1.00  0.00    -0.352 N 
ATOM      5  O   UNL A   1      42.224  18.510  25.892  1.00  0.00    -0.269 OA
ATOM      6  C   UNL A   1      41.421  19.417  26.089  1.00  0.00     0.251 C 
ATOM      7  H   UNL A   1      39.809  18.313  25.621  1.00  0.00     0.163 HD
BRANCH   6   8
ATOM      8  C   UNL A   1      41.890  20.740  26.548  1.00  0.00     0.039 A 
ATOM      9  C   UNL A   1      41.947  21.029  27.913  1.00  0.00     0.014 A 
ATOM     10  C   UNL A   1      42.246  21.708  25.605  1.00  0.00     0.014 A 
ATOM     11  C   UNL A   1      42.218  22.324  28.328  1.00  0.00     0.010 A 
ATOM     12  C   UNL A   1      42.606  22.989  26.030  1.00  0.00     0.010 A 
ATOM     13  C   UNL A   1      42.568  23.315  27.394  1.00  0.00    -0.014 A 
BRANCH  13  14
ATOM     14  C   UNL A   1      42.961  24.654  27.894  1.00  0.00     0.031 A 
ATOM     15  C   UNL A   1      44.401  25.072  27.978  1.00  0.00     0.074 A 
ATOM     16  C   UNL A   1      41.981  25.519  28.220  1.00  0.00     0.049 A 
ATOM     17  N   UNL A   1      44.899  26.230  28.335  1.00  0.00    -0.248 NA
ATOM     18  C   UNL A   1      45.415  24.068  27.621  1.00  0.00     0.031 C 
ATOM     19  C   UNL A   1      40.547  25.212  28.195  1.00  0.00     0.029 A 
ATOM     20  N   UNL A   1      42.031  26.834  28.598  1.00  0.00    -0.354 N 
ATOM     21  C   UNL A   1      46.279  26.092  28.259  1.00  0.00     0.074 A 
ATOM     22  C   UNL A   1      46.543  24.731  27.843  1.00  0.00     0.031 C 
ATOM     23  C   UNL A   1      39.854  26.322  28.482  1.00  0.00     0.029 A 
ATOM     24  C   UNL A   1      40.792  27.400  28.773  1.00  0.00     0.049 A 
ATOM     25  H   UNL A   1      42.873  27.326  28.732  1.00  0.00     0.167 HD
ATOM     26  C   UNL A   1      47.233  27.023  28.506  1.00  0.00     0.037 A 
ATOM     27  C   UNL A   1      40.444  28.647  29.136  1.00  0.00     0.037 A 
ATOM     28  C   UNL A   1      46.961  28.380  28.908  1.00  0.00     0.049 A 
ATOM     29  C   UNL A   1      41.525  29.652  29.402  1.00  0.00     0.074 A 
ATOM     30  C   UNL A   1      47.861  29.399  29.169  1.00  0.00     0.029 A 
ATOM     31  N   UNL A   1      45.694  28.909  29.102  1.00  0.00    -0.354 N 
ATOM     32  N   UNL A   1      42.824  29.509  29.310  1.00  0.00    -0.248 NA
ATOM     33  C   UNL A   1      41.091  30.988  29.828  1.00  0.00     0.031 C 
ATOM     34  C   UNL A   1      47.139  30.535  29.553  1.00  0.00     0.029 A 
ATOM     35  C   UNL A   1      45.788  30.235  29.493  1.00  0.00     0.049 A 
ATOM     36  H   UNL A   1      44.851  28.413  28.981  1.00  0.00     0.167 HD
ATOM     37  C   UNL A   1      43.365  30.735  29.665  1.00  0.00     0.074 A 
ATOM     38  C   UNL A   1      42.250  31.620  29.938  1.00  0.00     0.031 C 
ATOM     39  C   UNL A   1      44.667  31.094  29.770  1.00  0.00     0.037 A 
BRANCH  26  40
ATOM     40  C   UNL A   1      48.669  26.609  28.357  1.00  0.00     0.057 A 
ATOM     41  C   UNL A   1      49.398  26.082  29.430  1.00  0.00     0.134 A 
ATOM     42  C   UNL A   1      49.305  26.670  27.110  1.00  0.00     0.134 A 
ATOM     43  F   UNL A   1      48.850  26.006  30.652  1.00  0.00    -0.206 F 
ATOM     44  C   UNL A   1      50.713  25.638  29.270  1.00  0.00     0.040 A 
ATOM     45  C   UNL A   1      50.611  26.211  26.934  1.00  0.00     0.040 A 
ATOM     46  F   UNL A   1      48.660  27.157  26.039  1.00  0.00    -0.206 F 
ATOM     47  C   UNL A   1      51.320  25.694  28.017  1.00  0.00     0.006 A 
ENDBRANCH  26  40
BRANCH  27  48
ATOM     48  C   UNL A   1      39.012  29.003  29.281  1.00  0.00     0.057 A 
ATOM     49  C   UNL A   1      38.281  29.523  28.208  1.00  0.00     0.134 A 
ATOM     50  C   UNL A   1      38.340  28.825  30.496  1.00  0.00     0.134 A 
ATOM     51  F   UNL A   1      38.873  29.730  27.023  1.00  0.00    -0.206 F 
ATOM     52  C   UNL A   1      36.935  29.869  28.343  1.00  0.00     0.040 A 
ATOM     53  C   UNL A   1      36.989  29.139  30.637  1.00  0.00     0.040 A 
ATOM     54  F   UNL A   1      38.985  28.321  31.559  1.00  0.00    -0.206 F 
ATOM     55  C   UNL A   1      36.284  29.671  29.560  1.00  0.00     0.006 A 
ENDBRANCH  27  48
BRANCH  39  56
ATOM     56  C   UNL A   1      44.941  32.506  30.192  1.00  0.00     0.057 A 
ATOM     57  C   UNL A   1      45.034  33.545  29.258  1.00  0.00     0.134 A 
ATOM     58  C   UNL A   1      45.113  32.829  31.543  1.00  0.00     0.134 A 
ATOM     59  F   UNL A   1      44.896  33.295  27.947  1.00  0.00    -0.206 F 
ATOM     60  C   UNL A   1      45.323  34.853  29.650  1.00  0.00     0.040 A 
ATOM     61  C   UNL A   1      45.379  34.137  31.950  1.00  0.00     0.040 A 
ATOM     62  F   UNL A   1      45.030  31.879  32.487  1.00  0.00    -0.206 F 
ATOM     63  C   UNL A   1      45.492  35.151  31.001  1.00  0.00     0.006 A 
ENDBRANCH  39  56
ENDBRANCH  13  14
ENDBRANCH   6   8
ENDBRANCH   3   4
ENDBRANCH   2   3
ENDBRANCH   1   2
BRANCH   1  64
ATOM     64  C   UNL A   1      36.416  21.973  25.489  1.00  0.00     0.116 C 
BRANCH  64  65
ATOM     65  N   UNL A   1      35.544  21.160  26.309  1.00  0.00    -0.356 N 
ATOM     66  C   UNL A   1      34.259  21.463  26.657  1.00  0.00     0.227 C 
ATOM     67  H   UNL A   1      35.911  20.311  26.648  1.00  0.00     0.163 HD
ATOM     68  O   UNL A   1      34.016  21.393  27.864  1.00  0.00    -0.274 OA
BRANCH  66  69
ATOM     69  C   UNL A   1      33.256  22.026  25.632  1.00  0.00     0.110 C 
BRANCH  69  70
ATOM     70  C   UNL A   1      33.063  23.546  25.625  1.00  0.00    -0.021 A 
ATOM     71  C   UNL A   1      34.104  24.378  25.172  1.00  0.00     0.006 A 
ATOM     72  C   UNL A   1      31.897  24.176  26.114  1.00  0.00     0.021 A 
ATOM     73  C   UNL A   1      33.991  25.772  25.195  1.00  0.00     0.000 A 
ATOM     74  C   UNL A   1      31.803  25.573  26.170  1.00  0.00     0.016 A 
ATOM     75  Br  UNL A   1      30.400  23.220  26.803  1.00  0.00    -0.051 Br
ATOM     76  C   UNL A   1      32.845  26.369  25.705  1.00  0.00     0.001 A 
ENDBRANCH  69  70
BRANCH  69  77
ATOM     77  C   UNL A   1      33.426  21.422  24.208  1.00  0.00     0.025 C 
BRANCH  77  78
ATOM     78  C   UNL A   1      32.426  20.360  23.694  1.00  0.00     0.057 C 
BRANCH  78  79
ATOM     79  C   UNL A   1      32.691  18.922  24.064  1.00  0.00     0.040 A 
ATOM     80  C   UNL A   1      33.232  18.032  23.139  1.00  0.00     0.024 A 
ATOM     81  N   UNL A   1      32.325  18.519  25.296  1.00  0.00    -0.261 NA
ATOM     82  C   UNL A   1      33.482  16.717  23.531  1.00  0.00     0.003 A 
ATOM     83  C   UNL A   1      32.609  17.253  25.669  1.00  0.00     0.111 A 
ATOM     84  C   UNL A   1      33.187  16.321  24.829  1.00  0.00     0.020 A 
ENDBRANCH  78  79
ENDBRANCH  77  78
ENDBRANCH  69  77
ENDBRANCH  66  69
ENDBRANCH  64  65
ENDBRANCH   1  64
TORSDOF 15
ENDMDL
MODEL 2
REMARK VINA RESULT:     -11.9      1.263      1.728
REMARK SMILES O=C(NCCCCNC(=O)[C@H](CCc1ccccn1)c1ccccc1Br)c1ccc(-c2c3nc(c(-c4c(F)cccc4F)c4ccc([nH]4)c(-c4c(F)cccc4F)c4nc(c(-c5c(F)cccc5F)c5ccc2[nH]5)C=C4)C=C3)cc1
REMARK SMILES IDX 6 1 5 2 4 3 3 4 1 5 2 6 27 8 28 9 80 10 29 11 79 12 30 13
REMARK SMILES IDX 31 14 32 15 73 16 33 17 78 18 72 19 74 20 34 21 77 22 71 23
REMARK SMILES IDX 70 24 35 26 61 27 44 28 60 29 45 30 48 31 59 32 75 33 46 34
REMARK SMILES IDX 47 35 58 37 76 38 49 39 36 40 37 41 42 42 38 43 39 44 41 45
REMARK SMILES IDX 43 46 40 47 62 48 63 49 68 50 64 51 65 52 67 53 69 54 66 55
REMARK SMILES IDX 50 56 51 57 56 58 52 59 53 60 55 61 57 62 54 63 7 64 8 65
REMARK SMILES IDX 9 66 10 68 11 69 20 70 21 71 25 72 22 73 24 74 26 75 23 76
REMARK SMILES IDX 12 77 13 78 14 79 15 80 19 81 16 82 18 83 17 84
REMARK H PARENT 3 7 74 25 48 36 8 67
REMARK Flexibility Score: inf
ROOT
ATOM      1  C   UNL A   1      36.554  20.571  25.089  1.00  0.00     0.023 C 
ENDROOT
BRANCH   1   2
ATOM      2  C   UNL A   1      37.785  19.689  24.874  1.00  0.00     0.023 C 
BRANCH   2   3
ATOM      3  C   UNL A   1      38.983  20.041  25.743  1.00  0.00     0.116 C 
BRANCH   3   4
ATOM      4  N   UNL A   1      40.011  19.012  25.750  1.00  0.00    -0.352 N 
ATOM      5  O   UNL A   1      42.122  18.202  25.848  1.00  0.00    -0.269 OA
ATOM      6  C   UNL A   1      41.358  19.154  25.983  1.00  0.00     0.251 C 
ATOM      7  H   UNL A   1      39.703  18.096  25.562  1.00  0.00     0.163 HD
BRANCH   6   8
ATOM      8  C   UNL A   1      41.882  20.479  26.372  1.00  0.00     0.039 A 
ATOM      9  C   UNL A   1      42.000  20.818  27.720  1.00  0.00     0.014 A 
ATOM     10  C   UNL A   1      42.228  21.398  25.377  1.00  0.00     0.014 A 
ATOM     11  C   UNL A   1      42.324  22.121  28.073  1.00  0.00     0.010 A 
ATOM     12  C   UNL A   1      42.640  22.684  25.737  1.00  0.00     0.010 A 
ATOM     13  C   UNL A   1      42.665  23.063  27.087  1.00  0.00    -0.014 A 
BRANCH  13  14
ATOM     14  C   UNL A   1      43.115  24.409  27.519  1.00  0.00     0.031 A 
ATOM     15  C   UNL A   1      44.558  24.817  27.446  1.00  0.00     0.074 A 
ATOM     16  C   UNL A   1      42.178  25.287  27.925  1.00  0.00     0.049 A 
ATOM     17  N   UNL A   1      45.097  25.978  27.728  1.00  0.00    -0.248 NA
ATOM     18  C   UNL A   1      45.525  23.799  27.007  1.00  0.00     0.031 C 
ATOM     19  C   UNL A   1      40.747  24.991  28.053  1.00  0.00     0.029 A 
ATOM     20  N   UNL A   1      42.274  26.609  28.271  1.00  0.00    -0.354 N 
ATOM     21  C   UNL A   1      46.460  25.828  27.514  1.00  0.00     0.074 A 
ATOM     22  C   UNL A   1      46.673  24.457  27.101  1.00  0.00     0.031 C 
ATOM     23  C   UNL A   1      40.094  26.111  28.388  1.00  0.00     0.029 A 
ATOM     24  C   UNL A   1      41.062  27.187  28.560  1.00  0.00     0.049 A 
ATOM     25  H   UNL A   1      43.128  27.097  28.309  1.00  0.00     0.167 HD
ATOM     26  C   UNL A   1      47.440  26.755  27.644  1.00  0.00     0.037 A 
ATOM     27  C   UNL A   1      40.761  28.444  28.932  1.00  0.00     0.037 A 
ATOM     28  C   UNL A   1      47.219  28.122  28.045  1.00  0.00     0.049 A 
ATOM     29  C   UNL A   1      41.869  29.445  29.067  1.00  0.00     0.074 A 
ATOM     30  C   UNL A   1      48.146  29.139  28.193  1.00  0.00     0.029 A 
ATOM     31  N   UNL A   1      45.981  28.664  28.357  1.00  0.00    -0.354 N 
ATOM     32  N   UNL A   1      43.151  29.290  28.845  1.00  0.00    -0.248 NA
ATOM     33  C   UNL A   1      41.489  30.792  29.508  1.00  0.00     0.031 C 
ATOM     34  C   UNL A   1      47.474  30.287  28.626  1.00  0.00     0.029 A 
ATOM     35  C   UNL A   1      46.123  29.997  28.710  1.00  0.00     0.049 A 
ATOM     36  H   UNL A   1      45.127  28.173  28.332  1.00  0.00     0.167 HD
ATOM     37  C   UNL A   1      43.732  30.518  29.119  1.00  0.00     0.074 A 
ATOM     38  C   UNL A   1      42.657  31.417  29.487  1.00  0.00     0.031 C 
ATOM     39  C   UNL A   1      45.041  30.870  29.083  1.00  0.00     0.037 A 
BRANCH  26  40
ATOM     40  C   UNL A   1      48.851  26.328  27.357  1.00  0.00     0.057 A 
ATOM     41  C   UNL A   1      49.401  26.423  26.073  1.00  0.00     0.134 A 
ATOM     42  C   UNL A   1      49.689  25.885  28.390  1.00  0.00     0.134 A 
ATOM     43  F   UNL A   1      48.649  26.829  25.040  1.00  0.00    -0.206 F 
ATOM     44  C   UNL A   1      50.734  26.085  25.824  1.00  0.00     0.040 A 
ATOM     45  C   UNL A   1      51.027  25.564  28.157  1.00  0.00     0.040 A 
ATOM     46  F   UNL A   1      49.225  25.779  29.644  1.00  0.00    -0.206 F 
ATOM     47  C   UNL A   1      51.553  25.662  26.871  1.00  0.00     0.006 A 
ENDBRANCH  26  40
BRANCH  27  48
ATOM     48  C   UNL A   1      39.353  28.813  29.215  1.00  0.00     0.057 A 
ATOM     49  C   UNL A   1      38.526  29.342  28.219  1.00  0.00     0.134 A 
ATOM     50  C   UNL A   1      38.800  28.641  30.490  1.00  0.00     0.134 A 
ATOM     51  F   UNL A   1      39.003  29.545  26.982  1.00  0.00    -0.206 F 
ATOM     52  C   UNL A   1      37.203  29.701  28.484  1.00  0.00     0.040 A 
ATOM     53  C   UNL A   1      37.473  28.968  30.762  1.00  0.00     0.040 A 
ATOM     54  F   UNL A   1      39.540  28.129  31.485  1.00  0.00    -0.206 F 
ATOM     55  C   UNL A   1      36.672  29.508  29.758  1.00  0.00     0.006 A 
ENDBRANCH  27  48
BRANCH  39  56
ATOM     56  C   UNL A   1      45.364  32.287  29.448  1.00  0.00     0.057 A 
ATOM     57  C   UNL A   1      45.370  33.307  28.488  1.00  0.00     0.134 A 
ATOM     58  C   UNL A   1      45.674  32.634  30.768  1.00  0.00     0.134 A 
ATOM     59  F   UNL A   1      45.099  33.033  27.203  1.00  0.00    -0.206 F 
ATOM     60  C   UNL A   1      45.705  34.620  28.823  1.00  0.00     0.040 A 
ATOM     61  C   UNL A   1      45.987  33.948  31.119  1.00  0.00     0.040 A 
ATOM     62  F   UNL A   1      45.680  31.704  31.734  1.00  0.00    -0.206 F 
ATOM     63  C   UNL A   1      46.010  34.943  30.144  1.00  0.00     0.006 A 
ENDBRANCH  39  56
ENDBRANCH  13  14
ENDBRANCH   6   8
ENDBRANCH   3   4
ENDBRANCH   2   3
ENDBRANCH   1   2
BRANCH   1  64
ATOM     64  C   UNL A   1      36.865  21.998  25.543  1.00  0.00     0.116 C 
BRANCH  64  65
ATOM     65  N   UNL A   1      36.943  22.895  24.410  1.00  0.00    -0.356 N 
ATOM     66  C   UNL A   1      35.988  23.054  23.448  1.00  0.00     0.227 C 
ATOM     67  H   UNL A   1      37.760  23.439  24.324  1.00  0.00     0.163 HD
ATOM     68  O   UNL A   1      36.394  22.956  22.288  1.00  0.00    -0.274 OA
BRANCH  66  69
ATOM     69  C   UNL A   1      34.493  23.161  23.804  1.00  0.00     0.110 C 
BRANCH  69  70
ATOM     70  C   UNL A   1      34.010  24.515  24.335  1.00  0.00    -0.021 A 
ATOM     71  C   UNL A   1      34.038  25.644  23.495  1.00  0.00     0.006 A 
ATOM     72  C   UNL A   1      33.585  24.711  25.669  1.00  0.00     0.021 A 
ATOM     73  C   UNL A   1      33.655  26.908  23.954  1.00  0.00     0.000 A 
ATOM     74  C   UNL A   1      33.238  25.986  26.134  1.00  0.00     0.016 A 
ATOM     75  Br  UNL A   1      33.516  23.314  26.962  1.00  0.00    -0.051 Br
ATOM     76  C   UNL A   1      33.266  27.082  25.276  1.00  0.00     0.001 A 
ENDBRANCH  69  70
BRANCH  69  77
ATOM     77  C   UNL A   1      33.556  22.559  22.717  1.00  0.00     0.025 C 
BRANCH  77  78
ATOM     78  C   UNL A   1      32.267  21.814  23.134  1.00  0.00     0.057 C 
BRANCH  78  79
ATOM     79  C   UNL A   1      32.417  20.400  23.637  1.00  0.00     0.040 A 
ATOM     80  C   UNL A   1      32.795  20.143  24.953  1.00  0.00     0.024 A 
ATOM     81  N   UNL A   1      32.234  19.401  22.752  1.00  0.00    -0.261 NA
ATOM     82  C   UNL A   1      32.899  18.821  25.383  1.00  0.00     0.003 A 
ATOM     83  C   UNL A   1      32.302  18.128  23.195  1.00  0.00     0.111 A 
ATOM     84  C   UNL A   1      32.625  17.788  24.494  1.00  0.00     0.020 A 
ENDBRANCH  78  79
ENDBRANCH  77  78
ENDBRANCH  69  77
ENDBRANCH  66  69
ENDBRANCH  64  65
ENDBRANCH   1  64
TORSDOF 15
ENDMDL
MODEL 3
REMARK VINA RESULT:     -11.8      5.177      9.959
REMARK SMILES O=C(NCCCCNC(=O)[C@H](CCc1ccccn1)c1ccccc1Br)c1ccc(-c2c3nc(c(-c4c(F)cccc4F)c4ccc([nH]4)c(-c4c(F)cccc4F)c4nc(c(-c5c(F)cccc5F)c5ccc2[nH]5)C=C4)C=C3)cc1
REMARK SMILES IDX 6 1 5 2 4 3 3 4 1 5 2 6 27 8 28 9 80 10 29 11 79 12 30 13
REMARK SMILES IDX 31 14 32 15 73 16 33 17 78 18 72 19 74 20 34 21 77 22 71 23
REMARK SMILES IDX 70 24 35 26 61 27 44 28 60 29 45 30 48 31 59 32 75 33 46 34
REMARK SMILES IDX 47 35 58 37 76 38 49 39 36 40 37 41 42 42 38 43 39 44 41 45
REMARK SMILES IDX 43 46 40 47 62 48 63 49 68 50 64 51 65 52 67 53 69 54 66 55
REMARK SMILES IDX 50 56 51 57 56 58 52 59 53 60 55 61 57 62 54 63 7 64 8 65
REMARK SMILES IDX 9 66 10 68 11 69 20 70 21 71 25 72 22 73 24 74 26 75 23 76
REMARK SMILES IDX 12 77 13 78 14 79 15 80 19 81 16 82 18 83 17 84
REMARK H PARENT 3 7 74 25 48 36 8 67
REMARK Flexibility Score: inf
ROOT
ATOM      1  C   UNL A   1      31.367  30.558  25.613  1.00  0.00     0.023 C 
ENDROOT
BRANCH   1   2
ATOM      2  C   UNL A   1      31.189  31.793  26.499  1.00  0.00     0.023 C 
BRANCH   2   3
ATOM      3  C   UNL A   1      32.483  32.493  26.888  1.00  0.00     0.116 C 
BRANCH   3   4
ATOM      4  N   UNL A   1      32.274  33.821  27.443  1.00  0.00    -0.352 N 
ATOM      5  O   UNL A   1      32.645  35.551  28.853  1.00  0.00    -0.269 OA
ATOM      6  C   UNL A   1      33.010  34.467  28.408  1.00  0.00     0.251 C 
ATOM      7  H   UNL A   1      31.507  34.321  27.082  1.00  0.00     0.163 HD
BRANCH   6   8
ATOM      8  C   UNL A   1      34.234  33.824  28.925  1.00  0.00     0.039 A 
ATOM      9  C   UNL A   1      34.141  32.726  29.782  1.00  0.00     0.014 A 
ATOM     10  C   UNL A   1      35.483  34.345  28.576  1.00  0.00     0.014 A 
ATOM     11  C   UNL A   1      35.284  32.241  30.402  1.00  0.00     0.010 A 
ATOM     12  C   UNL A   1      36.642  33.797  29.133  1.00  0.00     0.010 A 
ATOM     13  C   UNL A   1      36.548  32.758  30.071  1.00  0.00    -0.014 A 
BRANCH  13  14
ATOM     14  C   UNL A   1      37.750  32.131  30.673  1.00  0.00     0.031 A 
ATOM     15  C   UNL A   1      38.224  32.498  32.050  1.00  0.00     0.074 A 
ATOM     16  C   UNL A   1      38.378  31.168  29.971  1.00  0.00     0.049 A 
ATOM     17  N   UNL A   1      39.220  31.993  32.736  1.00  0.00    -0.248 NA
ATOM     18  C   UNL A   1      37.496  33.569  32.749  1.00  0.00     0.031 C 
ATOM     19  C   UNL A   1      38.015  30.745  28.615  1.00  0.00     0.029 A 
ATOM     20  N   UNL A   1      39.424  30.350  30.303  1.00  0.00    -0.354 N 
ATOM     21  C   UNL A   1      39.247  32.689  33.937  1.00  0.00     0.074 A 
ATOM     22  C   UNL A   1      38.183  33.670  33.880  1.00  0.00     0.031 C 
ATOM     23  C   UNL A   1      38.782  29.707  28.257  1.00  0.00     0.029 A 
ATOM     24  C   UNL A   1      39.732  29.432  29.329  1.00  0.00     0.049 A 
ATOM     25  H   UNL A   1      39.909  30.412  31.158  1.00  0.00     0.167 HD
ATOM     26  C   UNL A   1      40.081  32.516  34.991  1.00  0.00     0.037 A 
ATOM     27  C   UNL A   1      40.679  28.479  29.294  1.00  0.00     0.037 A 
ATOM     28  C   UNL A   1      41.130  31.530  35.045  1.00  0.00     0.049 A 
ATOM     29  C   UNL A   1      41.585  28.314  30.477  1.00  0.00     0.074 A 
ATOM     30  C   UNL A   1      42.019  31.270  36.075  1.00  0.00     0.029 A 
ATOM     31  N   UNL A   1      41.430  30.637  34.027  1.00  0.00    -0.354 N 
ATOM     32  N   UNL A   1      41.587  28.970  31.611  1.00  0.00    -0.248 NA
ATOM     33  C   UNL A   1      42.623  27.282  30.373  1.00  0.00     0.031 C 
ATOM     34  C   UNL A   1      42.876  30.242  35.667  1.00  0.00     0.029 A 
ATOM     35  C   UNL A   1      42.498  29.835  34.399  1.00  0.00     0.049 A 
ATOM     36  H   UNL A   1      40.954  30.582  33.167  1.00  0.00     0.167 HD
ATOM     37  C   UNL A   1      42.623  28.432  32.357  1.00  0.00     0.074 A 
ATOM     38  C   UNL A   1      43.204  27.369  31.561  1.00  0.00     0.031 C 
ATOM     39  C   UNL A   1      43.066  28.792  33.587  1.00  0.00     0.037 A 
BRANCH  26  40
ATOM     40  C   UNL A   1      39.902  33.417  36.180  1.00  0.00     0.057 A 
ATOM     41  C   UNL A   1      39.089  33.055  37.261  1.00  0.00     0.134 A 
ATOM     42  C   UNL A   1      40.607  34.624  36.276  1.00  0.00     0.134 A 
ATOM     43  F   UNL A   1      38.379  31.918  37.228  1.00  0.00    -0.206 F 
ATOM     44  C   UNL A   1      38.977  33.867  38.393  1.00  0.00     0.040 A 
ATOM     45  C   UNL A   1      40.519  35.433  37.409  1.00  0.00     0.040 A 
ATOM     46  F   UNL A   1      41.409  35.025  35.277  1.00  0.00    -0.206 F 
ATOM     47  C   UNL A   1      39.701  35.056  38.472  1.00  0.00     0.006 A 
ENDBRANCH  26  40
BRANCH  27  48
ATOM     48  C   UNL A   1      40.822  27.623  28.092  1.00  0.00     0.057 A 
ATOM     49  C   UNL A   1      40.170  26.388  27.997  1.00  0.00     0.134 A 
ATOM     50  C   UNL A   1      41.611  28.022  27.006  1.00  0.00     0.134 A 
ATOM     51  F   UNL A   1      39.413  25.945  29.011  1.00  0.00    -0.206 F 
ATOM     52  C   UNL A   1      40.311  25.574  26.872  1.00  0.00     0.040 A 
ATOM     53  C   UNL A   1      41.738  27.233  25.864  1.00  0.00     0.040 A 
ATOM     54  F   UNL A   1      42.253  29.200  27.033  1.00  0.00    -0.206 F 
ATOM     55  C   UNL A   1      41.092  26.000  25.798  1.00  0.00     0.006 A 
ENDBRANCH  27  48
BRANCH  39  56
ATOM     56  C   UNL A   1      44.229  28.019  34.133  1.00  0.00     0.057 A 
ATOM     57  C   UNL A   1      45.548  28.443  33.934  1.00  0.00     0.134 A 
ATOM     58  C   UNL A   1      44.027  26.840  34.861  1.00  0.00     0.134 A 
ATOM     59  F   UNL A   1      45.806  29.555  33.228  1.00  0.00    -0.206 F 
ATOM     60  C   UNL A   1      46.630  27.703  34.413  1.00  0.00     0.040 A 
ATOM     61  C   UNL A   1      45.100  26.105  35.366  1.00  0.00     0.040 A 
ATOM     62  F   UNL A   1      42.786  26.384  35.090  1.00  0.00    -0.206 F 
ATOM     63  C   UNL A   1      46.406  26.533  35.135  1.00  0.00     0.006 A 
ENDBRANCH  39  56
ENDBRANCH  13  14
ENDBRANCH   6   8
ENDBRANCH   3   4
ENDBRANCH   2   3
ENDBRANCH   1   2
BRANCH   1  64
ATOM     64  C   UNL A   1      32.720  29.860  25.761  1.00  0.00     0.116 C 
BRANCH  64  65
ATOM     65  N   UNL A   1      32.663  28.835  26.781  1.00  0.00    -0.356 N 
ATOM     66  C   UNL A   1      31.891  27.710  26.744  1.00  0.00     0.227 C 
ATOM     67  H   UNL A   1      33.232  28.961  27.575  1.00  0.00     0.163 HD
ATOM     68  O   UNL A   1      31.199  27.519  27.746  1.00  0.00    -0.274 OA
BRANCH  66  69
ATOM     69  C   UNL A   1      31.765  26.858  25.466  1.00  0.00     0.110 C 
BRANCH  69  70
ATOM     70  C   UNL A   1      32.800  25.744  25.280  1.00  0.00    -0.021 A 
ATOM     71  C   UNL A   1      33.069  24.858  26.341  1.00  0.00     0.006 A 
ATOM     72  C   UNL A   1      33.561  25.589  24.100  1.00  0.00     0.021 A 
ATOM     73  C   UNL A   1      34.041  23.859  26.233  1.00  0.00     0.000 A 
ATOM     74  C   UNL A   1      34.560  24.610  24.010  1.00  0.00     0.016 A 
ATOM     75  Br  UNL A   1      33.368  26.714  22.574  1.00  0.00    -0.051 Br
ATOM     76  C   UNL A   1      34.795  23.742  25.072  1.00  0.00     0.001 A 
ENDBRANCH  69  70
BRANCH  69  77
ATOM     77  C   UNL A   1      30.308  26.398  25.173  1.00  0.00     0.025 C 
BRANCH  77  78
ATOM     78  C   UNL A   1      29.768  26.416  23.725  1.00  0.00     0.057 C 
BRANCH  78  79
ATOM     79  C   UNL A   1      29.236  27.726  23.200  1.00  0.00     0.040 A 
ATOM     80  C   UNL A   1      30.084  28.660  22.610  1.00  0.00     0.024 A 
ATOM     81  N   UNL A   1      27.926  27.984  23.381  1.00  0.00    -0.261 NA
ATOM     82  C   UNL A   1      29.546  29.848  22.117  1.00  0.00     0.003 A 
ATOM     83  C   UNL A   1      27.417  29.122  22.865  1.00  0.00     0.111 A 
ATOM     84  C   UNL A   1      28.180  30.078  22.224  1.00  0.00     0.020 A 
ENDBRANCH  78  79
ENDBRANCH  77  78
ENDBRANCH  69  77
ENDBRANCH  66  69
ENDBRANCH  64  65
ENDBRANCH   1  64
TORSDOF 15
ENDMDL
