MODEL 1
REMARK VINA RESULT:     -12.4      0.000      0.000
REMARK SMILES CCOc1ccccc1-c1cc(C(=O)NCCCCNC(=O)c2ccc(-c3c4nc(c(-c5c(F)cccc5F)c5ccc([nH]5)c(-c5c(F)cccc5F)c5nc(c(-c6c(F)cccc6F)c6ccc3[nH]6)C=C5)C=C4)cc2)c2cc(C)cc(C)c2n1
REMARK SMILES IDX 17 1 16 2 15 3 13 4 14 5 12 7 10 8 11 9 85 10 84 11 77 12
REMARK SMILES IDX 82 13 78 14 81 15 83 16 79 17 80 18 9 19 4 20 5 21 6 22 8 23
REMARK SMILES IDX 7 24 3 25 2 26 1 27 18 28 19 29 20 30 21 31 22 33 23 34
REMARK SMILES IDX 24 35 76 36 25 37 75 38 26 39 27 40 28 41 69 42 29 43 74 44
REMARK SMILES IDX 68 45 70 46 30 47 73 48 67 49 66 50 31 52 57 53 40 54 56 55
REMARK SMILES IDX 41 56 44 57 55 58 71 59 42 60 43 61 54 63 72 64 45 65 32 66
REMARK SMILES IDX 33 67 38 68 34 69 35 70 37 71 39 72 36 73 58 74 59 75 64 76
REMARK SMILES IDX 60 77 61 78 63 79 65 80 62 81 46 82 47 83 52 84 48 85 49 86
REMARK SMILES IDX 51 87 53 88 50 89
REMARK H PARENT 15 6 20 32 70 51 44 62
REMARK Flexibility Score: inf
ROOT
ATOM      1  C   UNL A   1      39.115  22.740  26.422  1.00  0.00     0.023 C 
ENDROOT
BRANCH   1   2
ATOM      2  C   UNL A   1      37.942  23.620  25.986  1.00  0.00     0.116 C 
BRANCH   2   3
ATOM      3  N   UNL A   1      37.546  23.355  24.614  1.00  0.00    -0.352 N 
ATOM      4  C   UNL A   1      36.455  22.861  23.943  1.00  0.00     0.252 C 
ATOM      5  O   UNL A   1      36.546  22.972  22.716  1.00  0.00    -0.269 OA
ATOM      6  H   UNL A   1      38.263  23.601  23.986  1.00  0.00     0.163 HD
BRANCH   4   7
ATOM      7  C   UNL A   1      35.206  22.271  24.529  1.00  0.00     0.051 A 
ATOM      8  C   UNL A   1      33.828  20.507  25.291  1.00  0.00     0.075 A 
ATOM      9  C   UNL A   1      35.074  20.929  24.886  1.00  0.00     0.043 A 
ATOM     10  N   UNL A   1      33.077  21.383  25.970  1.00  0.00    -0.247 NA
ATOM     11  C   UNL A   1      32.952  22.559  25.369  1.00  0.00     0.075 A 
ATOM     12  C   UNL A   1      33.991  23.039  24.545  1.00  0.00     0.014 A 
ATOM     13  C   UNL A   1      31.689  23.151  25.379  1.00  0.00    -0.024 A 
ATOM     14  C   UNL A   1      33.653  24.067  23.627  1.00  0.00     0.014 A 
ATOM     15  C   UNL A   1      31.371  24.102  24.406  1.00  0.00     0.009 A 
ATOM     16  C   UNL A   1      30.580  22.604  26.241  1.00  0.00     0.047 C 
ATOM     17  C   UNL A   1      32.333  24.519  23.488  1.00  0.00    -0.050 A 
ATOM     18  C   UNL A   1      31.923  25.264  22.250  1.00  0.00     0.044 C 
BRANCH   8  19
ATOM     19  C   UNL A   1      32.932  19.722  24.368  1.00  0.00     0.042 A 
ATOM     20  C   UNL A   1      33.003  18.302  24.310  1.00  0.00     0.128 A 
ATOM     21  C   UNL A   1      32.753  17.620  23.118  1.00  0.00     0.047 A 
ATOM     22  C   UNL A   1      32.311  18.319  22.000  1.00  0.00     0.004 A 
ATOM     23  C   UNL A   1      32.375  20.386  23.263  1.00  0.00     0.014 A 
ATOM     24  C   UNL A   1      32.070  19.689  22.089  1.00  0.00     0.001 A 
BRANCH  20  25
ATOM     25  O   UNL A   1      33.569  17.597  25.344  1.00  0.00    -0.493 OA
BRANCH  25  26
ATOM     26  C   UNL A   1      33.846  16.226  25.059  1.00  0.00     0.226 C 
ATOM     27  C   UNL A   1      35.309  15.895  25.296  1.00  0.00     0.049 C 
ENDBRANCH  25  26
ENDBRANCH  20  25
ENDBRANCH   8  19
ENDBRANCH   4   7
ENDBRANCH   2   3
ENDBRANCH   1   2
BRANCH   1  28
ATOM     28  C   UNL A   1      39.255  21.417  25.671  1.00  0.00     0.023 C 
BRANCH  28  29
ATOM     29  C   UNL A   1      39.615  20.212  26.530  1.00  0.00     0.116 C 
BRANCH  29  30
ATOM     30  N   UNL A   1      40.708  19.416  25.995  1.00  0.00    -0.352 N 
ATOM     31  C   UNL A   1      42.046  19.738  25.904  1.00  0.00     0.251 C 
ATOM     32  H   UNL A   1      40.461  18.528  25.652  1.00  0.00     0.163 HD
ATOM     33  O   UNL A   1      42.830  18.988  25.347  1.00  0.00    -0.269 OA
BRANCH  31  34
ATOM     34  C   UNL A   1      42.508  21.033  26.448  1.00  0.00     0.039 A 
ATOM     35  C   UNL A   1      42.936  22.022  25.560  1.00  0.00     0.014 A 
ATOM     36  C   UNL A   1      42.466  21.285  27.822  1.00  0.00     0.014 A 
ATOM     37  C   UNL A   1      43.242  23.296  26.044  1.00  0.00     0.010 A 
ATOM     38  C   UNL A   1      42.687  22.575  28.290  1.00  0.00     0.010 A 
ATOM     39  C   UNL A   1      43.078  23.593  27.406  1.00  0.00    -0.014 A 
BRANCH  39  40
ATOM     40  C   UNL A   1      43.301  24.964  27.929  1.00  0.00     0.031 A 
ATOM     41  C   UNL A   1      44.679  25.396  28.344  1.00  0.00     0.074 A 
ATOM     42  C   UNL A   1      42.251  25.788  28.111  1.00  0.00     0.049 A 
ATOM     43  N   UNL A   1      45.064  26.519  28.893  1.00  0.00    -0.248 NA
ATOM     44  C   UNL A   1      45.763  24.419  28.149  1.00  0.00     0.031 C 
ATOM     45  C   UNL A   1      40.856  25.460  27.814  1.00  0.00     0.029 A 
ATOM     46  N   UNL A   1      42.194  27.066  28.607  1.00  0.00    -0.354 N 
ATOM     47  C   UNL A   1      46.426  26.376  29.125  1.00  0.00     0.074 A 
ATOM     48  C   UNL A   1      46.787  25.037  28.715  1.00  0.00     0.031 C 
ATOM     49  C   UNL A   1      40.082  26.514  28.120  1.00  0.00     0.029 A 
ATOM     50  C   UNL A   1      40.921  27.578  28.665  1.00  0.00     0.049 A 
ATOM     51  H   UNL A   1      42.990  27.569  28.895  1.00  0.00     0.167 HD
ATOM     52  C   UNL A   1      47.302  27.288  29.612  1.00  0.00     0.037 A 
ATOM     53  C   UNL A   1      40.477  28.767  29.114  1.00  0.00     0.037 A 
ATOM     54  C   UNL A   1      46.941  28.626  29.996  1.00  0.00     0.049 A 
ATOM     55  C   UNL A   1      41.468  29.771  29.633  1.00  0.00     0.074 A 
ATOM     56  C   UNL A   1      47.764  29.652  30.427  1.00  0.00     0.029 A 
ATOM     57  N   UNL A   1      45.646  29.123  30.001  1.00  0.00    -0.354 N 
ATOM     58  N   UNL A   1      42.768  29.657  29.763  1.00  0.00    -0.248 NA
ATOM     59  C   UNL A   1      40.933  31.073  30.057  1.00  0.00     0.031 C 
ATOM     60  C   UNL A   1      46.962  30.755  30.739  1.00  0.00     0.029 A 
ATOM     61  C   UNL A   1      45.644  30.434  30.452  1.00  0.00     0.049 A 
ATOM     62  H   UNL A   1      44.847  28.621  29.724  1.00  0.00     0.167 HD
ATOM     63  C   UNL A   1      43.209  30.875  30.262  1.00  0.00     0.074 A 
ATOM     64  C   UNL A   1      42.040  31.719  30.396  1.00  0.00     0.031 C 
ATOM     65  C   UNL A   1      44.469  31.260  30.582  1.00  0.00     0.037 A 
BRANCH  52  66
ATOM     66  C   UNL A   1      48.734  26.856  29.755  1.00  0.00     0.057 A 
ATOM     67  C   UNL A   1      49.662  27.013  28.716  1.00  0.00     0.134 A 
ATOM     68  C   UNL A   1      49.191  26.279  30.946  1.00  0.00     0.134 A 
ATOM     69  F   UNL A   1      49.287  27.547  27.544  1.00  0.00    -0.206 F 
ATOM     70  C   UNL A   1      50.982  26.575  28.843  1.00  0.00     0.040 A 
ATOM     71  C   UNL A   1      50.517  25.866  31.095  1.00  0.00     0.040 A 
ATOM     72  F   UNL A   1      48.359  26.104  31.984  1.00  0.00    -0.206 F 
ATOM     73  C   UNL A   1      51.413  26.004  30.037  1.00  0.00     0.006 A 
ENDBRANCH  52  66
BRANCH  53  74
ATOM     74  C   UNL A   1      39.026  29.076  29.072  1.00  0.00     0.057 A 
ATOM     75  C   UNL A   1      38.409  29.496  27.888  1.00  0.00     0.134 A 
ATOM     76  C   UNL A   1      38.217  28.942  30.207  1.00  0.00     0.134 A 
ATOM     77  F   UNL A   1      39.133  29.659  26.771  1.00  0.00    -0.206 F 
ATOM     78  C   UNL A   1      37.044  29.786  27.837  1.00  0.00     0.040 A 
ATOM     79  C   UNL A   1      36.847  29.204  30.166  1.00  0.00     0.040 A 
ATOM     80  F   UNL A   1      38.747  28.533  31.370  1.00  0.00    -0.206 F 
ATOM     81  C   UNL A   1      36.258  29.634  28.978  1.00  0.00     0.006 A 
ENDBRANCH  53  74
BRANCH  65  82
ATOM     82  C   UNL A   1      44.653  32.663  31.083  1.00  0.00     0.057 A 
ATOM     83  C   UNL A   1      44.861  33.738  30.209  1.00  0.00     0.134 A 
ATOM     84  C   UNL A   1      44.577  32.947  32.452  1.00  0.00     0.134 A 
ATOM     85  F   UNL A   1      44.957  33.532  28.887  1.00  0.00    -0.206 F 
ATOM     86  C   UNL A   1      45.010  35.043  30.682  1.00  0.00     0.040 A 
ATOM     87  C   UNL A   1      44.697  34.250  32.935  1.00  0.00     0.040 A 
ATOM     88  F   UNL A   1      44.370  31.964  33.341  1.00  0.00    -0.206 F 
ATOM     89  C   UNL A   1      44.920  35.302  32.049  1.00  0.00     0.006 A 
ENDBRANCH  65  82
ENDBRANCH  39  40
ENDBRANCH  31  34
ENDBRANCH  29  30
ENDBRANCH  28  29
ENDBRANCH   1  28
TORSDOF 14
ENDMDL
MODEL 2
REMARK VINA RESULT:     -12.4      2.051      6.915
REMARK SMILES CCOc1ccccc1-c1cc(C(=O)NCCCCNC(=O)c2ccc(-c3c4nc(c(-c5c(F)cccc5F)c5ccc([nH]5)c(-c5c(F)cccc5F)c5nc(c(-c6c(F)cccc6F)c6ccc3[nH]6)C=C5)C=C4)cc2)c2cc(C)cc(C)c2n1
REMARK SMILES IDX 17 1 16 2 15 3 13 4 14 5 12 7 10 8 11 9 85 10 84 11 77 12
REMARK SMILES IDX 82 13 78 14 81 15 83 16 79 17 80 18 9 19 4 20 5 21 6 22 8 23
REMARK SMILES IDX 7 24 3 25 2 26 1 27 18 28 19 29 20 30 21 31 22 33 23 34
REMARK SMILES IDX 24 35 76 36 25 37 75 38 26 39 27 40 28 41 69 42 29 43 74 44
REMARK SMILES IDX 68 45 70 46 30 47 73 48 67 49 66 50 31 52 57 53 40 54 56 55
REMARK SMILES IDX 41 56 44 57 55 58 71 59 42 60 43 61 54 63 72 64 45 65 32 66
REMARK SMILES IDX 33 67 38 68 34 69 35 70 37 71 39 72 36 73 58 74 59 75 64 76
REMARK SMILES IDX 60 77 61 78 63 79 65 80 62 81 46 82 47 83 52 84 48 85 49 86
REMARK SMILES IDX 51 87 53 88 50 89
REMARK H PARENT 15 6 20 32 70 51 44 62
REMARK Flexibility Score: inf
ROOT
ATOM      1  C   UNL A   1      37.075  21.465  24.593  1.00  0.00     0.023 C 
ENDROOT
BRANCH   1   2
ATOM      2  C   UNL A   1      37.190  22.633  25.574  1.00  0.00     0.116 C 
BRANCH   2   3
ATOM      3  N   UNL A   1      36.060  22.689  26.485  1.00  0.00    -0.352 N 
ATOM      4  C   UNL A   1      34.851  23.331  26.575  1.00  0.00     0.252 C 
ATOM      5  O   UNL A   1      34.150  22.922  27.506  1.00  0.00    -0.269 OA
ATOM      6  H   UNL A   1      36.202  22.095  27.259  1.00  0.00     0.163 HD
BRANCH   4   7
ATOM      7  C   UNL A   1      34.308  24.398  25.671  1.00  0.00     0.051 A 
ATOM      8  C   UNL A   1      33.327  26.495  25.184  1.00  0.00     0.075 A 
ATOM      9  C   UNL A   1      33.927  25.667  26.107  1.00  0.00     0.043 A 
ATOM     10  N   UNL A   1      33.744  26.397  23.915  1.00  0.00    -0.247 NA
ATOM     11  C   UNL A   1      33.735  25.158  23.442  1.00  0.00     0.075 A 
ATOM     12  C   UNL A   1      33.944  24.072  24.319  1.00  0.00     0.014 A 
ATOM     13  C   UNL A   1      33.268  24.973  22.142  1.00  0.00    -0.024 A 
ATOM     14  C   UNL A   1      33.529  22.795  23.861  1.00  0.00     0.014 A 
ATOM     15  C   UNL A   1      32.792  23.716  21.757  1.00  0.00     0.009 A 
ATOM     16  C   UNL A   1      33.018  26.146  21.230  1.00  0.00     0.047 C 
ATOM     17  C   UNL A   1      32.864  22.637  22.636  1.00  0.00    -0.050 A 
ATOM     18  C   UNL A   1      32.063  21.394  22.374  1.00  0.00     0.044 C 
BRANCH   8  19
ATOM     19  C   UNL A   1      31.837  26.711  25.184  1.00  0.00     0.042 A 
ATOM     20  C   UNL A   1      30.953  25.726  25.706  1.00  0.00     0.128 A 
ATOM     21  C   UNL A   1      29.679  25.546  25.164  1.00  0.00     0.047 A 
ATOM     22  C   UNL A   1      29.215  26.415  24.182  1.00  0.00     0.004 A 
ATOM     23  C   UNL A   1      31.302  27.643  24.279  1.00  0.00     0.014 A 
ATOM     24  C   UNL A   1      30.003  27.492  23.781  1.00  0.00     0.001 A 
BRANCH  20  25
ATOM     25  O   UNL A   1      31.423  24.766  26.569  1.00  0.00    -0.493 OA
BRANCH  25  26
ATOM     26  C   UNL A   1      30.538  23.667  26.789  1.00  0.00     0.226 C 
ATOM     27  C   UNL A   1      30.977  22.438  26.014  1.00  0.00     0.049 C 
ENDBRANCH  25  26
ENDBRANCH  20  25
ENDBRANCH   8  19
ENDBRANCH   4   7
ENDBRANCH   2   3
ENDBRANCH   1   2
BRANCH   1  28
ATOM     28  C   UNL A   1      37.875  20.217  24.963  1.00  0.00     0.023 C 
BRANCH  28  29
ATOM     29  C   UNL A   1      39.152  20.470  25.753  1.00  0.00     0.116 C 
BRANCH  29  30
ATOM     30  N   UNL A   1      40.051  19.328  25.796  1.00  0.00    -0.352 N 
ATOM     31  C   UNL A   1      41.395  19.299  26.103  1.00  0.00     0.251 C 
ATOM     32  H   UNL A   1      39.647  18.458  25.576  1.00  0.00     0.163 HD
ATOM     33  O   UNL A   1      42.033  18.263  26.011  1.00  0.00    -0.269 OA
BRANCH  31  34
ATOM     34  C   UNL A   1      42.066  20.556  26.499  1.00  0.00     0.039 A 
ATOM     35  C   UNL A   1      42.591  21.381  25.502  1.00  0.00     0.014 A 
ATOM     36  C   UNL A   1      42.123  20.943  27.840  1.00  0.00     0.014 A 
ATOM     37  C   UNL A   1      43.101  22.635  25.844  1.00  0.00     0.010 A 
ATOM     38  C   UNL A   1      42.550  22.224  28.168  1.00  0.00     0.010 A 
ATOM     39  C   UNL A   1      43.044  23.083  27.174  1.00  0.00    -0.014 A 
BRANCH  39  40
ATOM     40  C   UNL A   1      43.488  24.448  27.548  1.00  0.00     0.031 A 
ATOM     41  C   UNL A   1      42.476  25.492  27.926  1.00  0.00     0.074 A 
ATOM     42  C   UNL A   1      44.794  24.772  27.465  1.00  0.00     0.049 A 
ATOM     43  N   UNL A   1      42.656  26.756  28.209  1.00  0.00    -0.248 NA
ATOM     44  C   UNL A   1      41.067  25.065  27.953  1.00  0.00     0.031 C 
ATOM     45  C   UNL A   1      45.865  23.869  27.042  1.00  0.00     0.029 A 
ATOM     46  N   UNL A   1      45.437  25.958  27.715  1.00  0.00    -0.354 N 
ATOM     47  C   UNL A   1      41.387  27.278  28.428  1.00  0.00     0.074 A 
ATOM     48  C   UNL A   1      40.443  26.209  28.185  1.00  0.00     0.031 C 
ATOM     49  C   UNL A   1      47.034  24.527  27.077  1.00  0.00     0.029 A 
ATOM     50  C   UNL A   1      46.791  25.907  27.490  1.00  0.00     0.049 A 
ATOM     51  H   UNL A   1      44.973  26.769  28.026  1.00  0.00     0.167 HD
ATOM     52  C   UNL A   1      41.041  28.527  28.821  1.00  0.00     0.037 A 
ATOM     53  C   UNL A   1      47.731  26.865  27.596  1.00  0.00     0.037 A 
ATOM     54  C   UNL A   1      41.986  29.579  29.085  1.00  0.00     0.049 A 
ATOM     55  C   UNL A   1      47.328  28.240  28.053  1.00  0.00     0.074 A 
ATOM     56  C   UNL A   1      41.745  30.855  29.562  1.00  0.00     0.029 A 
ATOM     57  N   UNL A   1      43.355  29.477  28.885  1.00  0.00    -0.354 N 
ATOM     58  N   UNL A   1      46.134  28.696  28.344  1.00  0.00    -0.248 NA
ATOM     59  C   UNL A   1      48.404  29.229  28.205  1.00  0.00     0.031 C 
ATOM     60  C   UNL A   1      42.964  31.542  29.606  1.00  0.00     0.029 A 
ATOM     61  C   UNL A   1      43.971  30.677  29.206  1.00  0.00     0.049 A 
ATOM     62  H   UNL A   1      43.822  28.672  28.565  1.00  0.00     0.167 HD
ATOM     63  C   UNL A   1      46.316  30.016  28.734  1.00  0.00     0.074 A 
ATOM     64  C   UNL A   1      47.737  30.282  28.657  1.00  0.00     0.031 C 
ATOM     65  C   UNL A   1      45.388  30.926  29.121  1.00  0.00     0.037 A 
BRANCH  52  66
ATOM     66  C   UNL A   1      39.576  28.814  28.986  1.00  0.00     0.057 A 
ATOM     67  C   UNL A   1      38.919  28.636  30.211  1.00  0.00     0.134 A 
ATOM     68  C   UNL A   1      38.812  29.276  27.907  1.00  0.00     0.134 A 
ATOM     69  F   UNL A   1      39.588  28.183  31.282  1.00  0.00    -0.206 F 
ATOM     70  C   UNL A   1      37.549  28.869  30.347  1.00  0.00     0.040 A 
ATOM     71  C   UNL A   1      37.448  29.542  28.039  1.00  0.00     0.040 A 
ATOM     72  F   UNL A   1      39.377  29.475  26.706  1.00  0.00    -0.206 F 
ATOM     73  C   UNL A   1      36.811  29.328  29.260  1.00  0.00     0.006 A 
ENDBRANCH  52  66
BRANCH  53  74
ATOM     74  C   UNL A   1      49.146  26.547  27.283  1.00  0.00     0.057 A 
ATOM     75  C   UNL A   1      49.681  26.794  26.012  1.00  0.00     0.134 A 
ATOM     76  C   UNL A   1      50.004  26.006  28.248  1.00  0.00     0.134 A 
ATOM     77  F   UNL A   1      48.905  27.297  25.041  1.00  0.00    -0.206 F 
ATOM     78  C   UNL A   1      51.012  26.501  25.709  1.00  0.00     0.040 A 
ATOM     79  C   UNL A   1      51.343  25.730  27.966  1.00  0.00     0.040 A 
ATOM     80  F   UNL A   1      49.556  25.755  29.487  1.00  0.00    -0.206 F 
ATOM     81  C   UNL A   1      51.849  25.973  26.690  1.00  0.00     0.006 A 
ENDBRANCH  53  74
BRANCH  65  82
ATOM     82  C   UNL A   1      45.884  32.287  29.516  1.00  0.00     0.057 A 
ATOM     83  C   UNL A   1      46.276  32.578  30.829  1.00  0.00     0.134 A 
ATOM     84  C   UNL A   1      46.010  33.303  28.561  1.00  0.00     0.134 A 
ATOM     85  F   UNL A   1      46.167  31.652  31.793  1.00  0.00    -0.206 F 
ATOM     86  C   UNL A   1      46.757  33.841  31.182  1.00  0.00     0.040 A 
ATOM     87  C   UNL A   1      46.515  34.561  28.896  1.00  0.00     0.040 A 
ATOM     88  F   UNL A   1      45.661  33.087  27.284  1.00  0.00    -0.206 F 
ATOM     89  C   UNL A   1      46.884  34.834  30.212  1.00  0.00     0.006 A 
ENDBRANCH  65  82
ENDBRANCH  39  40
ENDBRANCH  31  34
ENDBRANCH  29  30
ENDBRANCH  28  29
ENDBRANCH   1  28
TORSDOF 14
ENDMDL
MODEL 3
REMARK VINA RESULT:     -12.4      2.008      3.637
REMARK SMILES CCOc1ccccc1-c1cc(C(=O)NCCCCNC(=O)c2ccc(-c3c4nc(c(-c5c(F)cccc5F)c5ccc([nH]5)c(-c5c(F)cccc5F)c5nc(c(-c6c(F)cccc6F)c6ccc3[nH]6)C=C5)C=C4)cc2)c2cc(C)cc(C)c2n1
REMARK SMILES IDX 17 1 16 2 15 3 13 4 14 5 12 7 10 8 11 9 85 10 84 11 77 12
REMARK SMILES IDX 82 13 78 14 81 15 83 16 79 17 80 18 9 19 4 20 5 21 6 22 8 23
REMARK SMILES IDX 7 24 3 25 2 26 1 27 18 28 19 29 20 30 21 31 22 33 23 34
REMARK SMILES IDX 24 35 76 36 25 37 75 38 26 39 27 40 28 41 69 42 29 43 74 44
REMARK SMILES IDX 68 45 70 46 30 47 73 48 67 49 66 50 31 52 57 53 40 54 56 55
REMARK SMILES IDX 41 56 44 57 55 58 71 59 42 60 43 61 54 63 72 64 45 65 32 66
REMARK SMILES IDX 33 67 38 68 34 69 35 70 37 71 39 72 36 73 58 74 59 75 64 76
REMARK SMILES IDX 60 77 61 78 63 79 65 80 62 81 46 82 47 83 52 84 48 85 49 86
REMARK SMILES IDX 51 87 53 88 50 89
REMARK H PARENT 15 6 20 32 70 51 44 62
REMARK Flexibility Score: inf
ROOT
ATOM      1  C   UNL A   1      36.887  21.100  24.626  1.00  0.00     0.023 C 
ENDROOT
BRANCH   1   2
ATOM      2  C   UNL A   1      37.064  22.350  25.489  1.00  0.00     0.116 C 
BRANCH   2   3
ATOM      3  N   UNL A   1      35.993  22.496  26.460  1.00  0.00    -0.352 N 
ATOM      4  C   UNL A   1      34.829  23.210  26.596  1.00  0.00     0.252 C 
ATOM      5  O   UNL A   1      34.160  22.868  27.576  1.00  0.00    -0.269 OA
ATOM      6  H   UNL A   1      36.145  21.917  27.241  1.00  0.00     0.163 HD
BRANCH   4   7
ATOM      7  C   UNL A   1      34.297  24.282  25.691  1.00  0.00     0.051 A 
ATOM      8  C   UNL A   1      33.339  26.388  25.203  1.00  0.00     0.075 A 
ATOM      9  C   UNL A   1      33.930  25.555  26.126  1.00  0.00     0.043 A 
ATOM     10  N   UNL A   1      33.753  26.286  23.934  1.00  0.00    -0.247 NA
ATOM     11  C   UNL A   1      33.731  25.045  23.462  1.00  0.00     0.075 A 
ATOM     12  C   UNL A   1      33.929  23.959  24.340  1.00  0.00     0.014 A 
ATOM     13  C   UNL A   1      33.261  24.864  22.162  1.00  0.00    -0.024 A 
ATOM     14  C   UNL A   1      33.500  22.686  23.884  1.00  0.00     0.014 A 
ATOM     15  C   UNL A   1      32.772  23.612  21.779  1.00  0.00     0.009 A 
ATOM     16  C   UNL A   1      33.022  26.040  21.250  1.00  0.00     0.047 C 
ATOM     17  C   UNL A   1      32.833  22.533  22.659  1.00  0.00    -0.050 A 
ATOM     18  C   UNL A   1      32.018  21.299  22.399  1.00  0.00     0.044 C 
BRANCH   8  19
ATOM     19  C   UNL A   1      31.850  26.621  25.204  1.00  0.00     0.042 A 
ATOM     20  C   UNL A   1      30.958  25.657  25.752  1.00  0.00     0.128 A 
ATOM     21  C   UNL A   1      29.680  25.479  25.219  1.00  0.00     0.047 A 
ATOM     22  C   UNL A   1      29.222  26.329  24.219  1.00  0.00     0.004 A 
ATOM     23  C   UNL A   1      31.321  27.537  24.279  1.00  0.00     0.014 A 
ATOM     24  C   UNL A   1      30.019  27.389  23.790  1.00  0.00     0.001 A 
BRANCH  20  25
ATOM     25  O   UNL A   1      31.421  24.713  26.636  1.00  0.00    -0.493 OA
BRANCH  25  26
ATOM     26  C   UNL A   1      30.532  23.622  26.874  1.00  0.00     0.226 C 
ATOM     27  C   UNL A   1      30.969  22.376  26.127  1.00  0.00     0.049 C 
ENDBRANCH  25  26
ENDBRANCH  20  25
ENDBRANCH   8  19
ENDBRANCH   4   7
ENDBRANCH   2   3
ENDBRANCH   1   2
BRANCH   1  28
ATOM     28  C   UNL A   1      37.779  19.916  24.998  1.00  0.00     0.023 C 
BRANCH  28  29
ATOM     29  C   UNL A   1      39.050  20.267  25.760  1.00  0.00     0.116 C 
BRANCH  29  30
ATOM     30  N   UNL A   1      40.020  19.186  25.814  1.00  0.00    -0.352 N 
ATOM     31  C   UNL A   1      41.371  19.251  26.081  1.00  0.00     0.251 C 
ATOM     32  H   UNL A   1      39.665  18.285  25.634  1.00  0.00     0.163 HD
ATOM     33  O   UNL A   1      42.069  18.254  26.005  1.00  0.00    -0.269 OA
BRANCH  31  34
ATOM     34  C   UNL A   1      41.971  20.560  26.416  1.00  0.00     0.039 A 
ATOM     35  C   UNL A   1      42.377  21.400  25.375  1.00  0.00     0.014 A 
ATOM     36  C   UNL A   1      42.079  20.977  27.744  1.00  0.00     0.014 A 
ATOM     37  C   UNL A   1      42.814  22.693  25.666  1.00  0.00     0.010 A 
ATOM     38  C   UNL A   1      42.432  22.292  28.025  1.00  0.00     0.010 A 
ATOM     39  C   UNL A   1      42.803  23.163  26.990  1.00  0.00    -0.014 A 
BRANCH  39  40
ATOM     40  C   UNL A   1      43.169  24.564  27.314  1.00  0.00     0.031 A 
ATOM     41  C   UNL A   1      44.607  24.996  27.272  1.00  0.00     0.074 A 
ATOM     42  C   UNL A   1      42.218  25.424  27.729  1.00  0.00     0.049 A 
ATOM     43  N   UNL A   1      45.136  26.149  27.593  1.00  0.00    -0.248 NA
ATOM     44  C   UNL A   1      45.588  23.983  26.846  1.00  0.00     0.031 C 
ATOM     45  C   UNL A   1      40.797  25.105  27.881  1.00  0.00     0.029 A 
ATOM     46  N   UNL A   1      42.308  26.736  28.117  1.00  0.00    -0.354 N 
ATOM     47  C   UNL A   1      46.506  25.994  27.427  1.00  0.00     0.074 A 
ATOM     48  C   UNL A   1      46.732  24.620  27.037  1.00  0.00     0.031 C 
ATOM     49  C   UNL A   1      40.146  26.196  28.314  1.00  0.00     0.029 A 
ATOM     50  C   UNL A   1      41.107  27.280  28.504  1.00  0.00     0.049 A 
ATOM     51  H   UNL A   1      43.153  27.242  28.119  1.00  0.00     0.167 HD
ATOM     52  C   UNL A   1      47.485  26.920  27.563  1.00  0.00     0.037 A 
ATOM     53  C   UNL A   1      40.813  28.509  28.968  1.00  0.00     0.037 A 
ATOM     54  C   UNL A   1      47.252  28.291  27.928  1.00  0.00     0.049 A 
ATOM     55  C   UNL A   1      41.912  29.527  29.093  1.00  0.00     0.074 A 
ATOM     56  C   UNL A   1      48.164  29.328  28.017  1.00  0.00     0.029 A 
ATOM     57  N   UNL A   1      46.015  28.816  28.273  1.00  0.00    -0.354 N 
ATOM     58  N   UNL A   1      43.193  29.395  28.846  1.00  0.00    -0.248 NA
ATOM     59  C   UNL A   1      41.524  30.869  29.550  1.00  0.00     0.031 C 
ATOM     60  C   UNL A   1      47.487  30.469  28.462  1.00  0.00     0.029 A 
ATOM     61  C   UNL A   1      46.143  30.156  28.600  1.00  0.00     0.049 A 
ATOM     62  H   UNL A   1      45.170  28.312  28.283  1.00  0.00     0.167 HD
ATOM     63  C   UNL A   1      43.760  30.637  29.096  1.00  0.00     0.074 A 
ATOM     64  C   UNL A   1      42.681  31.514  29.498  1.00  0.00     0.031 C 
ATOM     65  C   UNL A   1      45.058  31.016  29.001  1.00  0.00     0.037 A 
BRANCH  52  66
ATOM     66  C   UNL A   1      48.897  26.468  27.314  1.00  0.00     0.057 A 
ATOM     67  C   UNL A   1      49.464  26.482  26.033  1.00  0.00     0.134 A 
ATOM     68  C   UNL A   1      49.699  26.017  28.369  1.00  0.00     0.134 A 
ATOM     69  F   UNL A   1      48.746  26.891  24.975  1.00  0.00    -0.206 F 
ATOM     70  C   UNL A   1      50.764  26.026  25.803  1.00  0.00     0.040 A 
ATOM     71  C   UNL A   1      51.011  25.588  28.157  1.00  0.00     0.040 A 
ATOM     72  F   UNL A   1      49.223  25.982  29.623  1.00  0.00    -0.206 F 
ATOM     73  C   UNL A   1      51.542  25.581  26.869  1.00  0.00     0.006 A 
ENDBRANCH  52  66
BRANCH  53  74
ATOM     74  C   UNL A   1      39.413  28.846  29.328  1.00  0.00     0.057 A 
ATOM     75  C   UNL A   1      38.927  28.633  30.623  1.00  0.00     0.134 A 
ATOM     76  C   UNL A   1      38.533  29.404  28.393  1.00  0.00     0.134 A 
ATOM     77  F   UNL A   1      39.717  28.086  31.559  1.00  0.00    -0.206 F 
ATOM     78  C   UNL A   1      37.613  28.949  30.972  1.00  0.00     0.040 A 
ATOM     79  C   UNL A   1      37.224  29.748  28.734  1.00  0.00     0.040 A 
ATOM     80  F   UNL A   1      38.942  29.642  27.138  1.00  0.00    -0.206 F 
ATOM     81  C   UNL A   1      36.759  29.515  30.027  1.00  0.00     0.006 A 
ENDBRANCH  53  74
BRANCH  65  82
ATOM     82  C   UNL A   1      45.379  32.449  29.314  1.00  0.00     0.057 A 
ATOM     83  C   UNL A   1      45.786  32.853  30.592  1.00  0.00     0.134 A 
ATOM     84  C   UNL A   1      45.323  33.427  28.313  1.00  0.00     0.134 A 
ATOM     85  F   UNL A   1      45.847  31.968  31.598  1.00  0.00    -0.206 F 
ATOM     86  C   UNL A   1      46.103  34.184  30.868  1.00  0.00     0.040 A 
ATOM     87  C   UNL A   1      45.665  34.755  28.570  1.00  0.00     0.040 A 
ATOM     88  F   UNL A   1      44.951  33.105  27.065  1.00  0.00    -0.206 F 
ATOM     89  C   UNL A   1      46.051  35.138  29.853  1.00  0.00     0.006 A 
ENDBRANCH  65  82
ENDBRANCH  39  40
ENDBRANCH  31  34
ENDBRANCH  29  30
ENDBRANCH  28  29
ENDBRANCH   1  28
TORSDOF 14
ENDMDL
