MODEL 1
REMARK VINA RESULT:     -12.8      0.000      0.000
REMARK SMILES Cc1cccc(-c2cc(C(=O)NCCCCNC(=O)c3ccc(-c4c5nc(c(-c6c(F)cccc6F)c6ccc([nH]6)c(-c6c(F)cccc6F)c6nc(c(-c7c(F)cccc7F)c7ccc4[nH]7)C=C6)C=C5)cc3)ccn2)c1
REMARK SMILES IDX 15 1 14 2 13 3 12 4 10 5 11 6 9 8 7 9 8 10 76 11 75 12 74 13
REMARK SMILES IDX 6 14 1 15 2 16 3 17 77 18 4 19 5 20 16 21 17 22 18 23 19 25
REMARK SMILES IDX 20 26 21 27 73 28 22 29 72 30 23 31 24 32 25 33 66 34 26 35
REMARK SMILES IDX 71 36 65 37 67 38 27 39 70 40 64 41 63 42 28 44 54 45 37 46
REMARK SMILES IDX 53 47 38 48 41 49 52 50 68 51 39 52 40 53 51 55 69 56 42 57
REMARK SMILES IDX 29 58 30 59 35 60 31 61 32 62 34 63 36 64 33 65 55 66 56 67
REMARK SMILES IDX 61 68 57 69 58 70 60 71 62 72 59 73 43 74 44 75 49 76 45 77
REMARK SMILES IDX 46 78 48 79 50 80 47 81
REMARK H PARENT 12 7 17 24 67 43 41 54
REMARK Flexibility Score: inf
ROOT
ATOM      1  C   UNL A   1      32.944  30.819  27.281  1.00  0.00     0.023 C 
ENDROOT
BRANCH   1   2
ATOM      2  C   UNL A   1      32.012  29.601  27.248  1.00  0.00     0.023 C 
BRANCH   2   3
ATOM      3  C   UNL A   1      32.721  28.260  26.991  1.00  0.00     0.116 C 
BRANCH   3   4
ATOM      4  N   UNL A   1      31.799  27.135  26.982  1.00  0.00    -0.352 N 
ATOM      5  C   UNL A   1      30.944  26.601  26.052  1.00  0.00     0.251 C 
ATOM      6  O   UNL A   1      30.340  25.578  26.382  1.00  0.00    -0.269 OA
ATOM      7  H   UNL A   1      31.786  26.647  27.837  1.00  0.00     0.163 HD
BRANCH   5   8
ATOM      8  C   UNL A   1      30.712  27.150  24.686  1.00  0.00     0.043 A 
ATOM      9  C   UNL A   1      29.908  28.765  23.096  1.00  0.00     0.071 A 
ATOM     10  C   UNL A   1      30.025  28.322  24.411  1.00  0.00     0.042 A 
ATOM     11  N   UNL A   1      30.374  28.063  22.043  1.00  0.00    -0.256 NA
ATOM     12  C   UNL A   1      31.010  26.904  22.318  1.00  0.00     0.112 A 
ATOM     13  C   UNL A   1      31.211  26.421  23.601  1.00  0.00     0.034 A 
BRANCH   9  14
ATOM     14  C   UNL A   1      29.316  30.078  22.827  1.00  0.00     0.000 A 
ATOM     15  C   UNL A   1      27.859  31.941  19.824  1.00  0.00     0.044 C 
ATOM     16  C   UNL A   1      28.358  31.646  21.207  1.00  0.00    -0.050 A 
ATOM     17  C   UNL A   1      28.353  32.639  22.191  1.00  0.00     0.003 A 
ATOM     18  C   UNL A   1      28.839  30.374  21.536  1.00  0.00     0.013 A 
ATOM     19  C   UNL A   1      28.805  32.357  23.482  1.00  0.00     0.001 A 
ATOM     20  C   UNL A   1      29.278  31.082  23.800  1.00  0.00     0.010 A 
ENDBRANCH   9  14
ENDBRANCH   5   8
ENDBRANCH   3   4
ENDBRANCH   2   3
ENDBRANCH   1   2
BRANCH   1  21
ATOM     21  C   UNL A   1      34.396  30.470  27.589  1.00  0.00     0.116 C 
BRANCH  21  22
ATOM     22  N   UNL A   1      35.030  31.317  28.592  1.00  0.00    -0.352 N 
ATOM     23  C   UNL A   1      36.169  31.069  29.345  1.00  0.00     0.251 C 
ATOM     24  H   UNL A   1      34.591  32.182  28.759  1.00  0.00     0.163 HD
ATOM     25  O   UNL A   1      36.551  31.877  30.179  1.00  0.00    -0.269 OA
BRANCH  23  26
ATOM     26  C   UNL A   1      36.997  29.880  29.026  1.00  0.00     0.039 A 
ATOM     27  C   UNL A   1      37.186  28.935  30.042  1.00  0.00     0.014 A 
ATOM     28  C   UNL A   1      37.763  29.828  27.863  1.00  0.00     0.014 A 
ATOM     29  C   UNL A   1      38.320  28.130  30.015  1.00  0.00     0.010 A 
ATOM     30  C   UNL A   1      38.934  29.093  27.875  1.00  0.00     0.010 A 
ATOM     31  C   UNL A   1      39.252  28.318  28.995  1.00  0.00    -0.014 A 
BRANCH  31  32
ATOM     32  C   UNL A   1      40.641  27.894  29.123  1.00  0.00     0.031 A 
ATOM     33  C   UNL A   1      41.079  26.566  28.656  1.00  0.00     0.074 A 
ATOM     34  C   UNL A   1      41.542  28.760  29.642  1.00  0.00     0.049 A 
ATOM     35  N   UNL A   1      42.167  25.993  29.045  1.00  0.00    -0.248 NA
ATOM     36  C   UNL A   1      40.277  25.727  27.770  1.00  0.00     0.031 C 
ATOM     37  C   UNL A   1      43.000  28.655  29.622  1.00  0.00     0.029 A 
ATOM     38  N   UNL A   1      41.286  29.819  30.528  1.00  0.00    -0.354 N 
ATOM     39  C   UNL A   1      42.368  24.901  28.237  1.00  0.00     0.074 A 
ATOM     40  C   UNL A   1      41.102  24.690  27.587  1.00  0.00     0.031 C 
ATOM     41  C   UNL A   1      43.499  29.371  30.640  1.00  0.00     0.029 A 
ATOM     42  C   UNL A   1      42.373  29.840  31.428  1.00  0.00     0.049 A 
ATOM     43  H   UNL A   1      40.507  30.422  30.522  1.00  0.00     0.167 HD
ATOM     44  C   UNL A   1      43.634  24.415  28.101  1.00  0.00     0.037 A 
ATOM     45  C   UNL A   1      42.200  29.605  32.761  1.00  0.00     0.037 A 
ATOM     46  C   UNL A   1      44.505  24.923  29.165  1.00  0.00     0.049 A 
ATOM     47  C   UNL A   1      42.985  28.428  33.293  1.00  0.00     0.074 A 
ATOM     48  C   UNL A   1      45.552  25.827  29.200  1.00  0.00     0.029 A 
ATOM     49  N   UNL A   1      44.172  24.658  30.493  1.00  0.00    -0.354 N 
ATOM     50  N   UNL A   1      43.548  27.525  32.538  1.00  0.00    -0.248 NA
ATOM     51  C   UNL A   1      43.161  28.149  34.718  1.00  0.00     0.031 C 
ATOM     52  C   UNL A   1      45.770  26.188  30.559  1.00  0.00     0.029 A 
ATOM     53  C   UNL A   1      44.888  25.468  31.350  1.00  0.00     0.049 A 
ATOM     54  H   UNL A   1      43.515  23.983  30.780  1.00  0.00     0.167 HD
ATOM     55  C   UNL A   1      44.087  26.540  33.325  1.00  0.00     0.074 A 
ATOM     56  C   UNL A   1      43.855  26.997  34.681  1.00  0.00     0.031 C 
ATOM     57  C   UNL A   1      44.649  25.417  32.787  1.00  0.00     0.037 A 
BRANCH  44  58
ATOM     58  C   UNL A   1      44.149  23.658  26.888  1.00  0.00     0.057 A 
ATOM     59  C   UNL A   1      44.898  24.330  25.899  1.00  0.00     0.134 A 
ATOM     60  C   UNL A   1      43.831  22.325  26.548  1.00  0.00     0.134 A 
ATOM     61  F   UNL A   1      45.283  25.605  26.057  1.00  0.00    -0.206 F 
ATOM     62  C   UNL A   1      45.271  23.737  24.680  1.00  0.00     0.040 A 
ATOM     63  C   UNL A   1      44.237  21.708  25.357  1.00  0.00     0.040 A 
ATOM     64  F   UNL A   1      43.056  21.549  27.311  1.00  0.00    -0.206 F 
ATOM     65  C   UNL A   1      44.946  22.418  24.406  1.00  0.00     0.006 A 
ENDBRANCH  44  58
BRANCH  45  66
ATOM     66  C   UNL A   1      40.882  30.057  33.277  1.00  0.00     0.057 A 
ATOM     67  C   UNL A   1      40.678  31.432  33.489  1.00  0.00     0.134 A 
ATOM     68  C   UNL A   1      39.746  29.245  33.223  1.00  0.00     0.134 A 
ATOM     69  F   UNL A   1      41.727  32.266  33.543  1.00  0.00    -0.206 F 
ATOM     70  C   UNL A   1      39.399  31.992  33.540  1.00  0.00     0.040 A 
ATOM     71  C   UNL A   1      38.458  29.795  33.285  1.00  0.00     0.040 A 
ATOM     72  F   UNL A   1      39.856  27.929  32.997  1.00  0.00    -0.206 F 
ATOM     73  C   UNL A   1      38.283  31.173  33.405  1.00  0.00     0.006 A 
ENDBRANCH  45  66
BRANCH  57  74
ATOM     74  C   UNL A   1      45.068  24.190  33.560  1.00  0.00     0.057 A 
ATOM     75  C   UNL A   1      44.276  23.043  33.722  1.00  0.00     0.134 A 
ATOM     76  C   UNL A   1      46.386  24.080  34.059  1.00  0.00     0.134 A 
ATOM     77  F   UNL A   1      43.046  22.960  33.198  1.00  0.00    -0.206 F 
ATOM     78  C   UNL A   1      44.736  21.896  34.386  1.00  0.00     0.040 A 
ATOM     79  C   UNL A   1      46.873  22.922  34.674  1.00  0.00     0.040 A 
ATOM     80  F   UNL A   1      47.265  25.087  33.949  1.00  0.00    -0.206 F 
ATOM     81  C   UNL A   1      46.041  21.827  34.854  1.00  0.00     0.006 A 
ENDBRANCH  57  74
ENDBRANCH  31  32
ENDBRANCH  23  26
ENDBRANCH  21  22
ENDBRANCH   1  21
TORSDOF 12
ENDMDL
MODEL 2
REMARK VINA RESULT:     -12.7      2.430      4.343
REMARK SMILES Cc1cccc(-c2cc(C(=O)NCCCCNC(=O)c3ccc(-c4c5nc(c(-c6c(F)cccc6F)c6ccc([nH]6)c(-c6c(F)cccc6F)c6nc(c(-c7c(F)cccc7F)c7ccc4[nH]7)C=C6)C=C5)cc3)ccn2)c1
REMARK SMILES IDX 15 1 14 2 13 3 12 4 10 5 11 6 9 8 7 9 8 10 76 11 75 12 74 13
REMARK SMILES IDX 6 14 1 15 2 16 3 17 77 18 4 19 5 20 16 21 17 22 18 23 19 25
REMARK SMILES IDX 20 26 21 27 73 28 22 29 72 30 23 31 24 32 25 33 66 34 26 35
REMARK SMILES IDX 71 36 65 37 67 38 27 39 70 40 64 41 63 42 28 44 54 45 37 46
REMARK SMILES IDX 53 47 38 48 41 49 52 50 68 51 39 52 40 53 51 55 69 56 42 57
REMARK SMILES IDX 29 58 30 59 35 60 31 61 32 62 34 63 36 64 33 65 55 66 56 67
REMARK SMILES IDX 61 68 57 69 58 70 60 71 62 72 59 73 43 74 44 75 49 76 45 77
REMARK SMILES IDX 46 78 48 79 50 80 47 81
REMARK H PARENT 12 7 17 24 67 43 41 54
REMARK Flexibility Score: inf
ROOT
ATOM      1  C   UNL A   1      33.858  30.435  27.643  1.00  0.00     0.023 C 
ENDROOT
BRANCH   1   2
ATOM      2  C   UNL A   1      34.326  29.034  27.226  1.00  0.00     0.023 C 
BRANCH   2   3
ATOM      3  C   UNL A   1      33.564  28.436  26.031  1.00  0.00     0.116 C 
BRANCH   3   4
ATOM      4  N   UNL A   1      32.630  27.395  26.431  1.00  0.00    -0.352 N 
ATOM      5  C   UNL A   1      32.485  26.065  26.128  1.00  0.00     0.251 C 
ATOM      6  O   UNL A   1      31.585  25.460  26.717  1.00  0.00    -0.269 OA
ATOM      7  H   UNL A   1      31.946  27.719  27.062  1.00  0.00     0.163 HD
BRANCH   5   8
ATOM      8  C   UNL A   1      33.337  25.307  25.170  1.00  0.00     0.043 A 
ATOM      9  C   UNL A   1      35.235  23.980  24.522  1.00  0.00     0.071 A 
ATOM     10  C   UNL A   1      34.543  24.703  25.490  1.00  0.00     0.042 A 
ATOM     11  N   UNL A   1      34.825  23.895  23.240  1.00  0.00    -0.256 NA
ATOM     12  C   UNL A   1      33.668  24.518  22.928  1.00  0.00     0.112 A 
ATOM     13  C   UNL A   1      32.896  25.213  23.845  1.00  0.00     0.034 A 
BRANCH   9  14
ATOM     14  C   UNL A   1      36.426  23.218  24.905  1.00  0.00     0.000 A 
ATOM     15  C   UNL A   1      37.629  19.595  24.702  1.00  0.00     0.044 C 
ATOM     16  C   UNL A   1      37.572  21.056  25.033  1.00  0.00    -0.050 A 
ATOM     17  C   UNL A   1      38.589  21.655  25.784  1.00  0.00     0.003 A 
ATOM     18  C   UNL A   1      36.500  21.845  24.601  1.00  0.00     0.013 A 
ATOM     19  C   UNL A   1      38.540  23.019  26.078  1.00  0.00     0.001 A 
ATOM     20  C   UNL A   1      37.469  23.798  25.635  1.00  0.00     0.010 A 
ENDBRANCH   9  14
ENDBRANCH   5   8
ENDBRANCH   3   4
ENDBRANCH   2   3
ENDBRANCH   1   2
BRANCH   1  21
ATOM     21  C   UNL A   1      34.974  31.472  27.667  1.00  0.00     0.116 C 
BRANCH  21  22
ATOM     22  N   UNL A   1      35.369  31.916  28.999  1.00  0.00    -0.352 N 
ATOM     23  C   UNL A   1      36.241  31.311  29.893  1.00  0.00     0.251 C 
ATOM     24  H   UNL A   1      34.962  32.758  29.306  1.00  0.00     0.163 HD
ATOM     25  O   UNL A   1      36.438  31.799  30.996  1.00  0.00    -0.269 OA
BRANCH  23  26
ATOM     26  C   UNL A   1      37.040  30.145  29.442  1.00  0.00     0.039 A 
ATOM     27  C   UNL A   1      37.196  29.084  30.341  1.00  0.00     0.014 A 
ATOM     28  C   UNL A   1      37.813  30.208  28.284  1.00  0.00     0.014 A 
ATOM     29  C   UNL A   1      38.309  28.257  30.226  1.00  0.00     0.010 A 
ATOM     30  C   UNL A   1      38.965  29.445  28.216  1.00  0.00     0.010 A 
ATOM     31  C   UNL A   1      39.253  28.536  29.239  1.00  0.00    -0.014 A 
BRANCH  31  32
ATOM     32  C   UNL A   1      40.630  28.064  29.324  1.00  0.00     0.031 A 
ATOM     33  C   UNL A   1      41.006  26.724  28.835  1.00  0.00     0.074 A 
ATOM     34  C   UNL A   1      41.576  28.893  29.822  1.00  0.00     0.049 A 
ATOM     35  N   UNL A   1      42.085  26.111  29.188  1.00  0.00    -0.248 NA
ATOM     36  C   UNL A   1      40.149  25.921  27.967  1.00  0.00     0.031 C 
ATOM     37  C   UNL A   1      43.027  28.737  29.758  1.00  0.00     0.029 A 
ATOM     38  N   UNL A   1      41.383  29.954  30.721  1.00  0.00    -0.354 N 
ATOM     39  C   UNL A   1      42.223  25.018  28.368  1.00  0.00     0.074 A 
ATOM     40  C   UNL A   1      40.932  24.857  27.754  1.00  0.00     0.031 C 
ATOM     41  C   UNL A   1      43.581  29.428  30.766  1.00  0.00     0.029 A 
ATOM     42  C   UNL A   1      42.495  29.929  31.590  1.00  0.00     0.049 A 
ATOM     43  H   UNL A   1      40.626  30.584  30.743  1.00  0.00     0.167 HD
ATOM     44  C   UNL A   1      43.467  24.489  28.191  1.00  0.00     0.037 A 
ATOM     45  C   UNL A   1      42.353  29.691  32.925  1.00  0.00     0.037 A 
ATOM     46  C   UNL A   1      44.386  24.958  29.232  1.00  0.00     0.049 A 
ATOM     47  C   UNL A   1      43.112  28.483  33.427  1.00  0.00     0.074 A 
ATOM     48  C   UNL A   1      45.464  25.825  29.242  1.00  0.00     0.029 A 
ATOM     49  N   UNL A   1      44.083  24.695  30.568  1.00  0.00    -0.354 N 
ATOM     50  N   UNL A   1      43.620  27.567  32.649  1.00  0.00    -0.248 NA
ATOM     51  C   UNL A   1      43.319  28.187  34.843  1.00  0.00     0.031 C 
ATOM     52  C   UNL A   1      45.735  26.167  30.596  1.00  0.00     0.029 A 
ATOM     53  C   UNL A   1      44.852  25.473  31.408  1.00  0.00     0.049 A 
ATOM     54  H   UNL A   1      43.411  24.042  30.869  1.00  0.00     0.167 HD
ATOM     55  C   UNL A   1      44.146  26.558  33.413  1.00  0.00     0.074 A 
ATOM     56  C   UNL A   1      43.971  27.012  34.779  1.00  0.00     0.031 C 
ATOM     57  C   UNL A   1      44.653  25.420  32.852  1.00  0.00     0.037 A 
BRANCH  44  58
ATOM     58  C   UNL A   1      43.919  23.724  26.958  1.00  0.00     0.057 A 
ATOM     59  C   UNL A   1      44.594  24.395  25.916  1.00  0.00     0.134 A 
ATOM     60  C   UNL A   1      43.603  22.382  26.656  1.00  0.00     0.134 A 
ATOM     61  F   UNL A   1      44.966  25.677  26.034  1.00  0.00    -0.206 F 
ATOM     62  C   UNL A   1      44.902  23.791  24.685  1.00  0.00     0.040 A 
ATOM     63  C   UNL A   1      43.947  21.755  25.450  1.00  0.00     0.040 A 
ATOM     64  F   UNL A   1      42.891  21.603  27.475  1.00  0.00    -0.206 F 
ATOM     65  C   UNL A   1      44.583  22.463  24.448  1.00  0.00     0.006 A 
ENDBRANCH  44  58
BRANCH  45  66
ATOM     66  C   UNL A   1      41.068  30.184  33.483  1.00  0.00     0.057 A 
ATOM     67  C   UNL A   1      40.942  31.555  33.771  1.00  0.00     0.134 A 
ATOM     68  C   UNL A   1      39.888  29.440  33.401  1.00  0.00     0.134 A 
ATOM     69  F   UNL A   1      42.036  32.327  33.856  1.00  0.00    -0.206 F 
ATOM     70  C   UNL A   1      39.696  32.180  33.870  1.00  0.00     0.040 A 
ATOM     71  C   UNL A   1      38.634  30.055  33.510  1.00  0.00     0.040 A 
ATOM     72  F   UNL A   1      39.924  28.134  33.103  1.00  0.00    -0.206 F 
ATOM     73  C   UNL A   1      38.536  31.431  33.707  1.00  0.00     0.006 A 
ENDBRANCH  45  66
BRANCH  57  74
ATOM     74  C   UNL A   1      45.051  24.172  33.604  1.00  0.00     0.057 A 
ATOM     75  C   UNL A   1      44.232  23.045  33.764  1.00  0.00     0.134 A 
ATOM     76  C   UNL A   1      46.372  24.022  34.082  1.00  0.00     0.134 A 
ATOM     77  F   UNL A   1      42.992  23.000  33.256  1.00  0.00    -0.206 F 
ATOM     78  C   UNL A   1      44.671  21.878  34.407  1.00  0.00     0.040 A 
ATOM     79  C   UNL A   1      46.837  22.844  34.676  1.00  0.00     0.040 A 
ATOM     80  F   UNL A   1      47.275  25.008  33.972  1.00  0.00    -0.206 F 
ATOM     81  C   UNL A   1      45.981  21.770  34.856  1.00  0.00     0.006 A 
ENDBRANCH  57  74
ENDBRANCH  31  32
ENDBRANCH  23  26
ENDBRANCH  21  22
ENDBRANCH   1  21
TORSDOF 12
ENDMDL
MODEL 3
REMARK VINA RESULT:     -12.5      5.080     10.175
REMARK SMILES Cc1cccc(-c2cc(C(=O)NCCCCNC(=O)c3ccc(-c4c5nc(c(-c6c(F)cccc6F)c6ccc([nH]6)c(-c6c(F)cccc6F)c6nc(c(-c7c(F)cccc7F)c7ccc4[nH]7)C=C6)C=C5)cc3)ccn2)c1
REMARK SMILES IDX 15 1 14 2 13 3 12 4 10 5 11 6 9 8 7 9 8 10 76 11 75 12 74 13
REMARK SMILES IDX 6 14 1 15 2 16 3 17 77 18 4 19 5 20 16 21 17 22 18 23 19 25
REMARK SMILES IDX 20 26 21 27 73 28 22 29 72 30 23 31 24 32 25 33 66 34 26 35
REMARK SMILES IDX 71 36 65 37 67 38 27 39 70 40 64 41 63 42 28 44 54 45 37 46
REMARK SMILES IDX 53 47 38 48 41 49 52 50 68 51 39 52 40 53 51 55 69 56 42 57
REMARK SMILES IDX 29 58 30 59 35 60 31 61 32 62 34 63 36 64 33 65 55 66 56 67
REMARK SMILES IDX 61 68 57 69 58 70 60 71 62 72 59 73 43 74 44 75 49 76 45 77
REMARK SMILES IDX 46 78 48 79 50 80 47 81
REMARK H PARENT 12 7 17 24 67 43 41 54
REMARK Flexibility Score: inf
ROOT
ATOM      1  C   UNL A   1      38.582  21.727  25.404  1.00  0.00     0.023 C 
ENDROOT
BRANCH   1   2
ATOM      2  C   UNL A   1      37.297  22.337  24.829  1.00  0.00     0.023 C 
BRANCH   2   3
ATOM      3  C   UNL A   1      36.574  23.310  25.777  1.00  0.00     0.116 C 
BRANCH   3   4
ATOM      4  N   UNL A   1      35.745  24.269  25.063  1.00  0.00    -0.352 N 
ATOM      5  C   UNL A   1      34.438  24.284  24.644  1.00  0.00     0.251 C 
ATOM      6  O   UNL A   1      34.046  25.320  24.101  1.00  0.00    -0.269 OA
ATOM      7  H   UNL A   1      36.230  25.092  24.827  1.00  0.00     0.163 HD
BRANCH   5   8
ATOM      8  C   UNL A   1      33.471  23.164  24.814  1.00  0.00     0.043 A 
ATOM      9  C   UNL A   1      32.662  20.920  24.508  1.00  0.00     0.071 A 
ATOM     10  C   UNL A   1      33.607  21.908  24.244  1.00  0.00     0.042 A 
ATOM     11  N   UNL A   1      31.556  21.145  25.247  1.00  0.00    -0.256 NA
ATOM     12  C   UNL A   1      31.413  22.382  25.768  1.00  0.00     0.112 A 
ATOM     13  C   UNL A   1      32.333  23.403  25.593  1.00  0.00     0.034 A 
BRANCH   9  14
ATOM     14  C   UNL A   1      32.892  19.555  24.029  1.00  0.00     0.000 A 
ATOM     15  C   UNL A   1      35.164  16.611  24.915  1.00  0.00     0.044 C 
ATOM     16  C   UNL A   1      34.156  17.464  24.204  1.00  0.00    -0.050 A 
ATOM     17  C   UNL A   1      33.525  17.001  23.044  1.00  0.00     0.003 A 
ATOM     18  C   UNL A   1      33.832  18.737  24.685  1.00  0.00     0.013 A 
ATOM     19  C   UNL A   1      32.577  17.792  22.393  1.00  0.00     0.001 A 
ATOM     20  C   UNL A   1      32.256  19.059  22.886  1.00  0.00     0.010 A 
ENDBRANCH   9  14
ENDBRANCH   5   8
ENDBRANCH   3   4
ENDBRANCH   2   3
ENDBRANCH   1   2
BRANCH   1  21
ATOM     21  C   UNL A   1      39.186  22.534  26.547  1.00  0.00     0.116 C 
BRANCH  21  22
ATOM     22  N   UNL A   1      40.615  22.801  26.420  1.00  0.00    -0.352 N 
ATOM     23  C   UNL A   1      41.280  24.017  26.482  1.00  0.00     0.251 C 
ATOM     24  H   UNL A   1      41.184  22.013  26.269  1.00  0.00     0.163 HD
ATOM     25  O   UNL A   1      42.490  24.073  26.318  1.00  0.00    -0.269 OA
BRANCH  23  26
ATOM     26  C   UNL A   1      40.528  25.229  26.892  1.00  0.00     0.039 A 
ATOM     27  C   UNL A   1      40.754  26.404  26.166  1.00  0.00     0.014 A 
ATOM     28  C   UNL A   1      39.829  25.267  28.097  1.00  0.00     0.014 A 
ATOM     29  C   UNL A   1      40.535  27.633  26.780  1.00  0.00     0.010 A 
ATOM     30  C   UNL A   1      39.691  26.482  28.743  1.00  0.00     0.010 A 
ATOM     31  C   UNL A   1      40.132  27.652  28.115  1.00  0.00    -0.014 A 
BRANCH  31  32
ATOM     32  C   UNL A   1      40.330  28.817  28.970  1.00  0.00     0.031 A 
ATOM     33  C   UNL A   1      39.298  29.866  29.078  1.00  0.00     0.074 A 
ATOM     34  C   UNL A   1      41.464  28.905  29.703  1.00  0.00     0.049 A 
ATOM     35  N   UNL A   1      39.533  31.059  29.510  1.00  0.00    -0.248 NA
ATOM     36  C   UNL A   1      37.923  29.683  28.623  1.00  0.00     0.031 C 
ATOM     37  C   UNL A   1      41.751  29.824  30.802  1.00  0.00     0.029 A 
ATOM     38  N   UNL A   1      42.703  28.310  29.418  1.00  0.00    -0.354 N 
ATOM     39  C   UNL A   1      38.320  31.674  29.698  1.00  0.00     0.074 A 
ATOM     40  C   UNL A   1      37.379  30.850  28.986  1.00  0.00     0.031 C 
ATOM     41  C   UNL A   1      43.080  29.967  30.909  1.00  0.00     0.029 A 
ATOM     42  C   UNL A   1      43.680  29.258  29.793  1.00  0.00     0.049 A 
ATOM     43  H   UNL A   1      42.859  27.415  29.035  1.00  0.00     0.167 HD
ATOM     44  C   UNL A   1      38.246  32.715  30.574  1.00  0.00     0.037 A 
ATOM     45  C   UNL A   1      44.523  29.813  28.876  1.00  0.00     0.037 A 
ATOM     46  C   UNL A   1      39.581  33.243  30.870  1.00  0.00     0.049 A 
ATOM     47  C   UNL A   1      44.437  31.320  28.782  1.00  0.00     0.074 A 
ATOM     48  C   UNL A   1      40.402  33.211  31.983  1.00  0.00     0.029 A 
ATOM     49  N   UNL A   1      40.363  33.726  29.821  1.00  0.00    -0.354 N 
ATOM     50  N   UNL A   1      43.466  32.027  29.290  1.00  0.00    -0.248 NA
ATOM     51  C   UNL A   1      45.412  32.144  28.071  1.00  0.00     0.031 C 
ATOM     52  C   UNL A   1      41.714  33.572  31.568  1.00  0.00     0.029 A 
ATOM     53  C   UNL A   1      41.678  33.868  30.214  1.00  0.00     0.049 A 
ATOM     54  H   UNL A   1      40.022  33.936  28.921  1.00  0.00     0.167 HD
ATOM     55  C   UNL A   1      43.627  33.343  28.942  1.00  0.00     0.074 A 
ATOM     56  C   UNL A   1      44.881  33.372  28.214  1.00  0.00     0.031 C 
ATOM     57  C   UNL A   1      42.693  34.290  29.257  1.00  0.00     0.037 A 
BRANCH  44  58
ATOM     58  C   UNL A   1      36.997  33.122  31.338  1.00  0.00     0.057 A 
ATOM     59  C   UNL A   1      36.798  32.674  32.661  1.00  0.00     0.134 A 
ATOM     60  C   UNL A   1      35.890  33.816  30.803  1.00  0.00     0.134 A 
ATOM     61  F   UNL A   1      37.747  31.994  33.320  1.00  0.00    -0.206 F 
ATOM     62  C   UNL A   1      35.602  32.878  33.371  1.00  0.00     0.040 A 
ATOM     63  C   UNL A   1      34.710  34.066  31.518  1.00  0.00     0.040 A 
ATOM     64  F   UNL A   1      35.846  34.245  29.539  1.00  0.00    -0.206 F 
ATOM     65  C   UNL A   1      34.553  33.582  32.802  1.00  0.00     0.006 A 
ENDBRANCH  44  58
BRANCH  45  66
ATOM     66  C   UNL A   1      44.856  28.905  27.748  1.00  0.00     0.057 A 
ATOM     67  C   UNL A   1      45.812  27.894  27.958  1.00  0.00     0.134 A 
ATOM     68  C   UNL A   1      44.031  28.777  26.628  1.00  0.00     0.134 A 
ATOM     69  F   UNL A   1      46.630  27.953  29.020  1.00  0.00    -0.206 F 
ATOM     70  C   UNL A   1      45.874  26.754  27.152  1.00  0.00     0.040 A 
ATOM     71  C   UNL A   1      44.092  27.644  25.807  1.00  0.00     0.040 A 
ATOM     72  F   UNL A   1      43.077  29.685  26.376  1.00  0.00    -0.206 F 
ATOM     73  C   UNL A   1      44.988  26.614  26.089  1.00  0.00     0.006 A 
ENDBRANCH  45  66
BRANCH  57  74
ATOM     74  C   UNL A   1      42.671  35.707  28.736  1.00  0.00     0.057 A 
ATOM     75  C   UNL A   1      43.071  36.832  29.474  1.00  0.00     0.134 A 
ATOM     76  C   UNL A   1      42.366  35.962  27.380  1.00  0.00     0.134 A 
ATOM     77  F   UNL A   1      43.501  36.725  30.738  1.00  0.00    -0.206 F 
ATOM     78  C   UNL A   1      43.105  38.122  28.924  1.00  0.00     0.040 A 
ATOM     79  C   UNL A   1      42.448  37.235  26.807  1.00  0.00     0.040 A 
ATOM     80  F   UNL A   1      41.995  34.977  26.547  1.00  0.00    -0.206 F 
ATOM     81  C   UNL A   1      42.804  38.326  27.584  1.00  0.00     0.006 A 
ENDBRANCH  57  74
ENDBRANCH  31  32
ENDBRANCH  23  26
ENDBRANCH  21  22
ENDBRANCH   1  21
TORSDOF 12
ENDMDL
