MODEL 1
REMARK VINA RESULT:     -12.4      0.000      0.000
REMARK SMILES C[NH2+][C@@]1(C(=O)NCCCCNC(=O)c2ccc(-c3c4nc(c(-c5c(F)cccc5F)c5ccc([nH]5)c(-c5c(F)cccc5F)c5nc(c(-c6c(F)cccc6F)c6ccc3[nH]6)C=C5)C=C4)cc2)CCC[C@@H](Oc2cc(F)cc(F)c2)C1
REMARK SMILES IDX 8 1 7 2 6 3 4 4 5 5 3 7 68 8 81 9 69 10 71 11 70 12 2 13
REMARK SMILES IDX 1 14 72 17 73 18 74 19 80 20 75 21 78 22 76 23 77 24 79 25
REMARK SMILES IDX 9 26 10 27 11 28 12 29 13 31 14 32 15 33 67 34 16 35 66 36
REMARK SMILES IDX 17 37 18 38 19 39 60 40 20 41 65 42 59 43 61 44 21 45 64 46
REMARK SMILES IDX 58 47 57 48 22 50 48 51 31 52 47 53 32 54 35 55 46 56 62 57
REMARK SMILES IDX 33 58 34 59 45 61 63 62 36 63 23 64 24 65 29 66 25 67 26 68
REMARK SMILES IDX 28 69 30 70 27 71 49 72 50 73 55 74 51 75 52 76 54 77 56 78
REMARK SMILES IDX 53 79 37 80 38 81 43 82 39 83 40 84 42 85 44 86 41 87
REMARK H PARENT 6 6 2 15 2 16 11 30 61 49 35 60
REMARK Flexibility Score: inf
ROOT
ATOM      1  C   UNL A   1      32.151  29.799  27.147  1.00  0.00     0.023 C 
ENDROOT
BRANCH   1   2
ATOM      2  C   UNL A   1      31.772  28.786  26.067  1.00  0.00     0.116 C 
BRANCH   2   3
ATOM      3  N   UNL A   1      31.290  27.533  26.599  1.00  0.00    -0.351 N 
ATOM      4  C   UNL A   1      31.024  26.320  26.051  1.00  0.00     0.281 C 
ATOM      5  O   UNL A   1      31.145  25.395  26.871  1.00  0.00    -0.268 OA
ATOM      6  H   UNL A   1      31.119  27.565  27.569  1.00  0.00     0.163 HD
BRANCH   4   7
ATOM      7  C   UNL A   1      30.597  26.018  24.543  1.00  0.00     0.178 C 
ATOM      8  C   UNL A   1      31.781  26.150  23.546  1.00  0.00     0.079 C 
ATOM      9  C   UNL A   1      29.335  26.757  24.048  1.00  0.00     0.124 C 
ATOM     10  C   UNL A   1      31.973  27.476  22.819  1.00  0.00     0.011 C 
ATOM     11  C   UNL A   1      29.591  28.133  23.440  1.00  0.00     0.180 C 
ATOM     12  C   UNL A   1      30.675  28.131  22.359  1.00  0.00     0.046 C 
BRANCH   7  13
ATOM     13  N   UNL A   1      30.280  24.535  24.458  1.00  0.00    -0.336 N 
ATOM     14  C   UNL A   1      31.102  23.731  23.554  1.00  0.00     0.331 C 
ATOM     15  H   UNL A   1      30.380  24.143  25.394  1.00  0.00     0.346 HD
ATOM     16  H   UNL A   1      29.337  24.487  24.070  1.00  0.00     0.346 HD
ENDBRANCH   7  13
BRANCH  11  17
ATOM     17  O   UNL A   1      28.356  28.808  23.141  1.00  0.00    -0.490 OA
BRANCH  17  18
ATOM     18  C   UNL A   1      28.448  30.073  22.650  1.00  0.00     0.125 A 
ATOM     19  C   UNL A   1      28.858  31.091  23.509  1.00  0.00     0.085 A 
ATOM     20  C   UNL A   1      28.021  30.363  21.360  1.00  0.00     0.085 A 
ATOM     21  C   UNL A   1      28.886  32.400  23.042  1.00  0.00     0.129 A 
ATOM     22  C   UNL A   1      28.056  31.681  20.918  1.00  0.00     0.129 A 
ATOM     23  F   UNL A   1      29.292  33.381  23.859  1.00  0.00    -0.207 F 
ATOM     24  C   UNL A   1      28.492  32.708  21.747  1.00  0.00     0.078 A 
ATOM     25  F   UNL A   1      27.649  31.968  19.675  1.00  0.00    -0.207 F 
ENDBRANCH  17  18
ENDBRANCH  11  17
ENDBRANCH   4   7
ENDBRANCH   2   3
ENDBRANCH   1   2
BRANCH   1  26
ATOM     26  C   UNL A   1      31.981  31.264  26.762  1.00  0.00     0.023 C 
BRANCH  26  27
ATOM     27  C   UNL A   1      33.058  32.204  27.284  1.00  0.00     0.116 C 
BRANCH  27  28
ATOM     28  N   UNL A   1      32.610  33.563  27.559  1.00  0.00    -0.352 N 
ATOM     29  C   UNL A   1      33.143  34.442  28.477  1.00  0.00     0.251 C 
ATOM     30  H   UNL A   1      31.846  33.889  27.031  1.00  0.00     0.163 HD
ATOM     31  O   UNL A   1      32.663  35.554  28.656  1.00  0.00    -0.269 OA
BRANCH  29  32
ATOM     32  C   UNL A   1      34.282  33.974  29.289  1.00  0.00     0.039 A 
ATOM     33  C   UNL A   1      34.044  33.083  30.337  1.00  0.00     0.014 A 
ATOM     34  C   UNL A   1      35.584  34.293  28.897  1.00  0.00     0.014 A 
ATOM     35  C   UNL A   1      35.124  32.434  30.936  1.00  0.00     0.010 A 
ATOM     36  C   UNL A   1      36.648  33.583  29.436  1.00  0.00     0.010 A 
ATOM     37  C   UNL A   1      36.427  32.641  30.454  1.00  0.00    -0.014 A 
BRANCH  37  38
ATOM     38  C   UNL A   1      37.581  31.881  30.995  1.00  0.00     0.031 A 
ATOM     39  C   UNL A   1      38.096  32.193  32.371  1.00  0.00     0.074 A 
ATOM     40  C   UNL A   1      38.213  30.978  30.221  1.00  0.00     0.049 A 
ATOM     41  N   UNL A   1      39.145  31.717  32.989  1.00  0.00    -0.248 NA
ATOM     42  C   UNL A   1      37.352  33.206  33.138  1.00  0.00     0.031 C 
ATOM     43  C   UNL A   1      37.850  30.633  28.845  1.00  0.00     0.029 A 
ATOM     44  N   UNL A   1      39.307  30.191  30.480  1.00  0.00    -0.354 N 
ATOM     45  C   UNL A   1      39.201  32.389  34.202  1.00  0.00     0.074 A 
ATOM     46  C   UNL A   1      38.116  33.344  34.211  1.00  0.00     0.031 C 
ATOM     47  C   UNL A   1      38.688  29.684  28.393  1.00  0.00     0.029 A 
ATOM     48  C   UNL A   1      39.664  29.377  29.432  1.00  0.00     0.049 A 
ATOM     49  H   UNL A   1      39.792  30.209  31.338  1.00  0.00     0.167 HD
ATOM     50  C   UNL A   1      40.064  32.207  35.230  1.00  0.00     0.037 A 
ATOM     51  C   UNL A   1      40.664  28.483  29.327  1.00  0.00     0.037 A 
ATOM     52  C   UNL A   1      41.112  31.224  35.238  1.00  0.00     0.049 A 
ATOM     53  C   UNL A   1      41.587  28.273  30.496  1.00  0.00     0.074 A 
ATOM     54  C   UNL A   1      41.993  30.911  36.257  1.00  0.00     0.029 A 
ATOM     55  N   UNL A   1      41.413  30.387  34.175  1.00  0.00    -0.354 N 
ATOM     56  N   UNL A   1      41.588  28.869  31.663  1.00  0.00    -0.248 NA
ATOM     57  C   UNL A   1      42.641  27.262  30.335  1.00  0.00     0.031 C 
ATOM     58  C   UNL A   1      42.846  29.900  35.800  1.00  0.00     0.029 A 
ATOM     59  C   UNL A   1      42.472  29.562  34.509  1.00  0.00     0.049 A 
ATOM     60  H   UNL A   1      40.942  30.380  33.310  1.00  0.00     0.167 HD
ATOM     61  C   UNL A   1      42.623  28.289  32.385  1.00  0.00     0.074 A 
ATOM     62  C   UNL A   1      43.221  27.286  31.528  1.00  0.00     0.031 C 
ATOM     63  C   UNL A   1      43.042  28.561  33.644  1.00  0.00     0.037 A 
BRANCH  50  64
ATOM     64  C   UNL A   1      39.889  33.084  36.434  1.00  0.00     0.057 A 
ATOM     65  C   UNL A   1      40.573  34.300  36.563  1.00  0.00     0.134 A 
ATOM     66  C   UNL A   1      39.025  32.714  37.471  1.00  0.00     0.134 A 
ATOM     67  F   UNL A   1      41.430  34.701  35.612  1.00  0.00    -0.206 F 
ATOM     68  C   UNL A   1      40.426  35.104  37.694  1.00  0.00     0.040 A 
ATOM     69  C   UNL A   1      38.849  33.522  38.595  1.00  0.00     0.040 A 
ATOM     70  F   UNL A   1      38.340  31.563  37.409  1.00  0.00    -0.206 F 
ATOM     71  C   UNL A   1      39.556  34.717  38.712  1.00  0.00     0.006 A 
ENDBRANCH  50  64
BRANCH  51  72
ATOM     72  C   UNL A   1      40.826  27.687  28.084  1.00  0.00     0.057 A 
ATOM     73  C   UNL A   1      40.182  26.453  27.935  1.00  0.00     0.134 A 
ATOM     74  C   UNL A   1      41.629  28.129  27.027  1.00  0.00     0.134 A 
ATOM     75  F   UNL A   1      39.415  25.970  28.923  1.00  0.00    -0.206 F 
ATOM     76  C   UNL A   1      40.345  25.678  26.787  1.00  0.00     0.040 A 
ATOM     77  C   UNL A   1      41.783  27.373  25.863  1.00  0.00     0.040 A 
ATOM     78  F   UNL A   1      42.265  29.307  27.106  1.00  0.00    -0.206 F 
ATOM     79  C   UNL A   1      41.146  26.140  25.745  1.00  0.00     0.006 A 
ENDBRANCH  51  72
BRANCH  63  80
ATOM     80  C   UNL A   1      44.176  27.742  34.181  1.00  0.00     0.057 A 
ATOM     81  C   UNL A   1      45.503  28.180  34.103  1.00  0.00     0.134 A 
ATOM     82  C   UNL A   1      43.930  26.523  34.824  1.00  0.00     0.134 A 
ATOM     83  F   UNL A   1      45.803  29.334  33.487  1.00  0.00    -0.206 F 
ATOM     84  C   UNL A   1      46.549  27.426  34.633  1.00  0.00     0.040 A 
ATOM     85  C   UNL A   1      44.966  25.770  35.377  1.00  0.00     0.040 A 
ATOM     86  F   UNL A   1      42.679  26.052  34.938  1.00  0.00    -0.206 F 
ATOM     87  C   UNL A   1      46.282  26.219  35.279  1.00  0.00     0.006 A 
ENDBRANCH  63  80
ENDBRANCH  37  38
ENDBRANCH  29  32
ENDBRANCH  27  28
ENDBRANCH  26  27
ENDBRANCH   1  26
TORSDOF 14
ENDMDL
MODEL 2
REMARK VINA RESULT:     -12.3      1.456      1.945
REMARK SMILES C[NH2+][C@@]1(C(=O)NCCCCNC(=O)c2ccc(-c3c4nc(c(-c5c(F)cccc5F)c5ccc([nH]5)c(-c5c(F)cccc5F)c5nc(c(-c6c(F)cccc6F)c6ccc3[nH]6)C=C5)C=C4)cc2)CCC[C@@H](Oc2cc(F)cc(F)c2)C1
REMARK SMILES IDX 8 1 7 2 6 3 4 4 5 5 3 7 68 8 81 9 69 10 71 11 70 12 2 13
REMARK SMILES IDX 1 14 72 17 73 18 74 19 80 20 75 21 78 22 76 23 77 24 79 25
REMARK SMILES IDX 9 26 10 27 11 28 12 29 13 31 14 32 15 33 67 34 16 35 66 36
REMARK SMILES IDX 17 37 18 38 19 39 60 40 20 41 65 42 59 43 61 44 21 45 64 46
REMARK SMILES IDX 58 47 57 48 22 50 48 51 31 52 47 53 32 54 35 55 46 56 62 57
REMARK SMILES IDX 33 58 34 59 45 61 63 62 36 63 23 64 24 65 29 66 25 67 26 68
REMARK SMILES IDX 28 69 30 70 27 71 49 72 50 73 55 74 51 75 52 76 54 77 56 78
REMARK SMILES IDX 53 79 37 80 38 81 43 82 39 83 40 84 42 85 44 86 41 87
REMARK H PARENT 6 6 2 15 2 16 11 30 61 49 35 60
REMARK Flexibility Score: inf
ROOT
ATOM      1  C   UNL A   1      32.579  29.625  26.843  1.00  0.00     0.023 C 
ENDROOT
BRANCH   1   2
ATOM      2  C   UNL A   1      31.822  28.701  25.887  1.00  0.00     0.116 C 
BRANCH   2   3
ATOM      3  N   UNL A   1      31.366  27.481  26.510  1.00  0.00    -0.351 N 
ATOM      4  C   UNL A   1      31.087  26.237  26.045  1.00  0.00     0.281 C 
ATOM      5  O   UNL A   1      31.242  25.363  26.915  1.00  0.00    -0.268 OA
ATOM      6  H   UNL A   1      31.229  27.571  27.482  1.00  0.00     0.163 HD
BRANCH   4   7
ATOM      7  C   UNL A   1      30.609  25.843  24.574  1.00  0.00     0.178 C 
ATOM      8  C   UNL A   1      31.760  25.902  23.534  1.00  0.00     0.079 C 
ATOM      9  C   UNL A   1      29.337  26.561  24.074  1.00  0.00     0.124 C 
ATOM     10  C   UNL A   1      31.937  27.178  22.718  1.00  0.00     0.011 C 
ATOM     11  C   UNL A   1      29.581  27.893  23.372  1.00  0.00     0.180 C 
ATOM     12  C   UNL A   1      30.629  27.813  22.259  1.00  0.00     0.046 C 
BRANCH   7  13
ATOM     13  N   UNL A   1      30.280  24.361  24.594  1.00  0.00    -0.336 N 
ATOM     14  C   UNL A   1      31.023  23.503  23.672  1.00  0.00     0.331 C 
ATOM     15  H   UNL A   1      30.453  24.018  25.539  1.00  0.00     0.346 HD
ATOM     16  H   UNL A   1      29.309  24.300  24.285  1.00  0.00     0.346 HD
ENDBRANCH   7  13
BRANCH  11  17
ATOM     17  O   UNL A   1      28.341  28.559  23.071  1.00  0.00    -0.490 OA
BRANCH  17  18
ATOM     18  C   UNL A   1      28.423  29.839  22.621  1.00  0.00     0.125 A 
ATOM     19  C   UNL A   1      28.896  30.820  23.492  1.00  0.00     0.085 A 
ATOM     20  C   UNL A   1      27.927  30.183  21.369  1.00  0.00     0.085 A 
ATOM     21  C   UNL A   1      28.915  32.145  23.072  1.00  0.00     0.129 A 
ATOM     22  C   UNL A   1      27.955  31.515  20.975  1.00  0.00     0.129 A 
ATOM     23  F   UNL A   1      29.381  33.090  23.899  1.00  0.00    -0.207 F 
ATOM     24  C   UNL A   1      28.452  32.505  21.814  1.00  0.00     0.078 A 
ATOM     25  F   UNL A   1      27.482  31.853  19.769  1.00  0.00    -0.207 F 
ENDBRANCH  17  18
ENDBRANCH  11  17
ENDBRANCH   4   7
ENDBRANCH   2   3
ENDBRANCH   1   2
BRANCH   1  26
ATOM     26  C   UNL A   1      32.090  31.068  26.884  1.00  0.00     0.023 C 
BRANCH  26  27
ATOM     27  C   UNL A   1      33.142  32.102  27.260  1.00  0.00     0.116 C 
BRANCH  27  28
ATOM     28  N   UNL A   1      32.620  33.420  27.597  1.00  0.00    -0.352 N 
ATOM     29  C   UNL A   1      33.197  34.351  28.432  1.00  0.00     0.251 C 
ATOM     30  H   UNL A   1      31.764  33.672  27.181  1.00  0.00     0.163 HD
ATOM     31  O   UNL A   1      32.651  35.419  28.678  1.00  0.00    -0.269 OA
BRANCH  29  32
ATOM     32  C   UNL A   1      34.476  33.993  29.075  1.00  0.00     0.039 A 
ATOM     33  C   UNL A   1      34.453  33.231  30.244  1.00  0.00     0.014 A 
ATOM     34  C   UNL A   1      35.678  34.274  28.423  1.00  0.00     0.014 A 
ATOM     35  C   UNL A   1      35.641  32.667  30.712  1.00  0.00     0.010 A 
ATOM     36  C   UNL A   1      36.840  33.643  28.842  1.00  0.00     0.010 A 
ATOM     37  C   UNL A   1      36.831  32.827  29.984  1.00  0.00    -0.014 A 
BRANCH  37  38
ATOM     38  C   UNL A   1      38.084  32.147  30.394  1.00  0.00     0.031 A 
ATOM     39  C   UNL A   1      38.983  32.795  31.408  1.00  0.00     0.074 A 
ATOM     40  C   UNL A   1      38.453  30.999  29.794  1.00  0.00     0.049 A 
ATOM     41  N   UNL A   1      40.162  32.417  31.830  1.00  0.00    -0.248 NA
ATOM     42  C   UNL A   1      38.507  34.056  31.999  1.00  0.00     0.031 C 
ATOM     43  C   UNL A   1      37.700  30.304  28.748  1.00  0.00     0.029 A 
ATOM     44  N   UNL A   1      39.566  30.216  29.973  1.00  0.00    -0.354 N 
ATOM     45  C   UNL A   1      40.578  33.405  32.711  1.00  0.00     0.074 A 
ATOM     46  C   UNL A   1      39.553  34.425  32.723  1.00  0.00     0.031 C 
ATOM     47  C   UNL A   1      38.358  29.186  28.399  1.00  0.00     0.029 A 
ATOM     48  C   UNL A   1      39.592  29.100  29.172  1.00  0.00     0.049 A 
ATOM     49  H   UNL A   1      40.281  30.435  30.615  1.00  0.00     0.167 HD
ATOM     50  C   UNL A   1      41.701  33.446  33.466  1.00  0.00     0.037 A 
ATOM     51  C   UNL A   1      40.508  28.119  29.077  1.00  0.00     0.037 A 
ATOM     52  C   UNL A   1      42.695  32.409  33.488  1.00  0.00     0.049 A 
ATOM     53  C   UNL A   1      41.730  28.168  29.952  1.00  0.00     0.074 A 
ATOM     54  C   UNL A   1      43.832  32.320  34.270  1.00  0.00     0.029 A 
ATOM     55  N   UNL A   1      42.663  31.272  32.696  1.00  0.00    -0.354 N 
ATOM     56  N   UNL A   1      42.079  29.076  30.830  1.00  0.00    -0.248 NA
ATOM     57  C   UNL A   1      42.680  27.054  29.828  1.00  0.00     0.031 C 
ATOM     58  C   UNL A   1      44.504  31.140  33.932  1.00  0.00     0.029 A 
ATOM     59  C   UNL A   1      43.765  30.479  32.964  1.00  0.00     0.049 A 
ATOM     60  H   UNL A   1      41.960  31.060  32.040  1.00  0.00     0.167 HD
ATOM     61  C   UNL A   1      43.273  28.632  31.382  1.00  0.00     0.074 A 
ATOM     62  C   UNL A   1      43.583  27.367  30.747  1.00  0.00     0.031 C 
ATOM     63  C   UNL A   1      44.046  29.217  32.329  1.00  0.00     0.037 A 
BRANCH  50  64
ATOM     64  C   UNL A   1      41.896  34.650  34.339  1.00  0.00     0.057 A 
ATOM     65  C   UNL A   1      42.495  35.820  33.855  1.00  0.00     0.134 A 
ATOM     66  C   UNL A   1      41.475  34.642  35.674  1.00  0.00     0.134 A 
ATOM     67  F   UNL A   1      42.937  35.884  32.590  1.00  0.00    -0.206 F 
ATOM     68  C   UNL A   1      42.695  36.931  34.676  1.00  0.00     0.040 A 
ATOM     69  C   UNL A   1      41.646  35.756  36.497  1.00  0.00     0.040 A 
ATOM     70  F   UNL A   1      40.894  33.554  36.199  1.00  0.00    -0.206 F 
ATOM     71  C   UNL A   1      42.264  36.902  36.000  1.00  0.00     0.006 A 
ENDBRANCH  50  64
BRANCH  51  72
ATOM     72  C   UNL A   1      40.291  26.982  28.147  1.00  0.00     0.057 A 
ATOM     73  C   UNL A   1      40.862  26.982  26.869  1.00  0.00     0.134 A 
ATOM     74  C   UNL A   1      39.507  25.879  28.504  1.00  0.00     0.134 A 
ATOM     75  F   UNL A   1      41.608  28.021  26.464  1.00  0.00    -0.206 F 
ATOM     76  C   UNL A   1      40.646  25.936  25.971  1.00  0.00     0.040 A 
ATOM     77  C   UNL A   1      39.300  24.815  27.624  1.00  0.00     0.040 A 
ATOM     78  F   UNL A   1      38.940  25.816  29.718  1.00  0.00    -0.206 F 
ATOM     79  C   UNL A   1      39.865  24.846  26.350  1.00  0.00     0.006 A 
ENDBRANCH  51  72
BRANCH  63  80
ATOM     80  C   UNL A   1      45.278  28.481  32.759  1.00  0.00     0.057 A 
ATOM     81  C   UNL A   1      46.521  28.714  32.160  1.00  0.00     0.134 A 
ATOM     82  C   UNL A   1      45.227  27.564  33.816  1.00  0.00     0.134 A 
ATOM     83  F   UNL A   1      46.632  29.571  31.134  1.00  0.00    -0.206 F 
ATOM     84  C   UNL A   1      47.669  28.047  32.587  1.00  0.00     0.040 A 
ATOM     85  C   UNL A   1      46.372  26.908  34.266  1.00  0.00     0.040 A 
ATOM     86  F   UNL A   1      44.066  27.303  34.436  1.00  0.00    -0.206 F 
ATOM     87  C   UNL A   1      47.598  27.145  33.648  1.00  0.00     0.006 A 
ENDBRANCH  63  80
ENDBRANCH  37  38
ENDBRANCH  29  32
ENDBRANCH  27  28
ENDBRANCH  26  27
ENDBRANCH   1  26
TORSDOF 14
ENDMDL
MODEL 3
REMARK VINA RESULT:     -12.2      1.099      6.374
REMARK SMILES C[NH2+][C@@]1(C(=O)NCCCCNC(=O)c2ccc(-c3c4nc(c(-c5c(F)cccc5F)c5ccc([nH]5)c(-c5c(F)cccc5F)c5nc(c(-c6c(F)cccc6F)c6ccc3[nH]6)C=C5)C=C4)cc2)CCC[C@@H](Oc2cc(F)cc(F)c2)C1
REMARK SMILES IDX 8 1 7 2 6 3 4 4 5 5 3 7 68 8 81 9 69 10 71 11 70 12 2 13
REMARK SMILES IDX 1 14 72 17 73 18 74 19 80 20 75 21 78 22 76 23 77 24 79 25
REMARK SMILES IDX 9 26 10 27 11 28 12 29 13 31 14 32 15 33 67 34 16 35 66 36
REMARK SMILES IDX 17 37 18 38 19 39 60 40 20 41 65 42 59 43 61 44 21 45 64 46
REMARK SMILES IDX 58 47 57 48 22 50 48 51 31 52 47 53 32 54 35 55 46 56 62 57
REMARK SMILES IDX 33 58 34 59 45 61 63 62 36 63 23 64 24 65 29 66 25 67 26 68
REMARK SMILES IDX 28 69 30 70 27 71 49 72 50 73 55 74 51 75 52 76 54 77 56 78
REMARK SMILES IDX 53 79 37 80 38 81 43 82 39 83 40 84 42 85 44 86 41 87
REMARK H PARENT 6 6 2 15 2 16 11 30 61 49 35 60
REMARK Flexibility Score: inf
ROOT
ATOM      1  C   UNL A   1      31.444  30.310  25.809  1.00  0.00     0.023 C 
ENDROOT
BRANCH   1   2
ATOM      2  C   UNL A   1      32.245  29.250  26.568  1.00  0.00     0.116 C 
BRANCH   2   3
ATOM      3  N   UNL A   1      31.544  27.996  26.712  1.00  0.00    -0.351 N 
ATOM      4  C   UNL A   1      31.673  26.776  26.132  1.00  0.00     0.281 C 
ATOM      5  O   UNL A   1      31.272  25.859  26.868  1.00  0.00    -0.268 OA
ATOM      6  H   UNL A   1      30.817  28.034  27.375  1.00  0.00     0.163 HD
BRANCH   4   7
ATOM      7  C   UNL A   1      32.257  26.457  24.681  1.00  0.00     0.178 C 
ATOM      8  C   UNL A   1      33.731  26.915  24.513  1.00  0.00     0.079 C 
ATOM      9  C   UNL A   1      31.372  26.900  23.495  1.00  0.00     0.124 C 
ATOM     10  C   UNL A   1      33.999  28.285  23.897  1.00  0.00     0.011 C 
ATOM     11  C   UNL A   1      31.612  28.325  23.008  1.00  0.00     0.180 C 
ATOM     12  C   UNL A   1      33.084  28.635  22.728  1.00  0.00     0.046 C 
BRANCH   7  13
ATOM     13  N   UNL A   1      32.385  24.947  24.574  1.00  0.00    -0.336 N 
ATOM     14  C   UNL A   1      31.388  24.252  23.761  1.00  0.00     0.331 C 
ATOM     15  H   UNL A   1      33.302  24.742  24.177  1.00  0.00     0.346 HD
ATOM     16  H   UNL A   1      32.240  24.601  25.523  1.00  0.00     0.346 HD
ENDBRANCH   7  13
BRANCH  11  17
ATOM     17  O   UNL A   1      30.651  28.702  22.006  1.00  0.00    -0.490 OA
BRANCH  17  18
ATOM     18  C   UNL A   1      29.502  29.286  22.442  1.00  0.00     0.125 A 
ATOM     19  C   UNL A   1      29.505  30.658  22.685  1.00  0.00     0.085 A 
ATOM     20  C   UNL A   1      28.392  28.512  22.759  1.00  0.00     0.085 A 
ATOM     21  C   UNL A   1      28.361  31.256  23.202  1.00  0.00     0.129 A 
ATOM     22  C   UNL A   1      27.262  29.134  23.278  1.00  0.00     0.129 A 
ATOM     23  F   UNL A   1      28.353  32.577  23.424  1.00  0.00    -0.207 F 
ATOM     24  C   UNL A   1      27.232  30.505  23.497  1.00  0.00     0.078 A 
ATOM     25  F   UNL A   1      26.189  28.395  23.584  1.00  0.00    -0.207 F 
ENDBRANCH  17  18
ENDBRANCH  11  17
ENDBRANCH   4   7
ENDBRANCH   2   3
ENDBRANCH   1   2
BRANCH   1  26
ATOM     26  C   UNL A   1      31.204  31.614  26.561  1.00  0.00     0.023 C 
BRANCH  26  27
ATOM     27  C   UNL A   1      32.380  32.580  26.581  1.00  0.00     0.116 C 
BRANCH  27  28
ATOM     28  N   UNL A   1      32.157  33.807  27.335  1.00  0.00    -0.352 N 
ATOM     29  C   UNL A   1      32.970  34.338  28.312  1.00  0.00     0.251 C 
ATOM     30  H   UNL A   1      31.339  34.311  27.121  1.00  0.00     0.163 HD
ATOM     31  O   UNL A   1      32.667  35.362  28.913  1.00  0.00    -0.269 OA
BRANCH  29  32
ATOM     32  C   UNL A   1      34.197  33.597  28.659  1.00  0.00     0.039 A 
ATOM     33  C   UNL A   1      35.424  34.260  28.606  1.00  0.00     0.014 A 
ATOM     34  C   UNL A   1      34.097  32.309  29.190  1.00  0.00     0.014 A 
ATOM     35  C   UNL A   1      36.546  33.660  29.178  1.00  0.00     0.010 A 
ATOM     36  C   UNL A   1      35.195  31.753  29.831  1.00  0.00     0.010 A 
ATOM     37  C   UNL A   1      36.427  32.427  29.839  1.00  0.00    -0.014 A 
BRANCH  37  38
ATOM     38  C   UNL A   1      37.576  31.818  30.553  1.00  0.00     0.031 A 
ATOM     39  C   UNL A   1      38.412  30.778  29.864  1.00  0.00     0.074 A 
ATOM     40  C   UNL A   1      37.813  32.136  31.840  1.00  0.00     0.049 A 
ATOM     41  N   UNL A   1      39.394  30.058  30.339  1.00  0.00    -0.248 NA
ATOM     42  C   UNL A   1      38.071  30.482  28.463  1.00  0.00     0.031 C 
ATOM     43  C   UNL A   1      37.033  33.083  32.641  1.00  0.00     0.029 A 
ATOM     44  N   UNL A   1      38.775  31.686  32.709  1.00  0.00    -0.354 N 
ATOM     45  C   UNL A   1      39.769  29.208  29.308  1.00  0.00     0.074 A 
ATOM     46  C   UNL A   1      38.874  29.462  28.200  1.00  0.00     0.031 C 
ATOM     47  C   UNL A   1      37.565  33.163  33.872  1.00  0.00     0.029 A 
ATOM     48  C   UNL A   1      38.702  32.253  33.958  1.00  0.00     0.049 A 
ATOM     49  H   UNL A   1      39.455  31.018  32.459  1.00  0.00     0.167 HD
ATOM     50  C   UNL A   1      40.786  28.315  29.275  1.00  0.00     0.037 A 
ATOM     51  C   UNL A   1      39.469  32.060  35.047  1.00  0.00     0.037 A 
ATOM     52  C   UNL A   1      41.703  28.098  30.360  1.00  0.00     0.049 A 
ATOM     53  C   UNL A   1      40.615  31.089  34.975  1.00  0.00     0.074 A 
ATOM     54  C   UNL A   1      42.809  27.270  30.402  1.00  0.00     0.029 A 
ATOM     55  N   UNL A   1      41.623  28.725  31.594  1.00  0.00    -0.354 N 
ATOM     56  N   UNL A   1      41.000  30.340  33.970  1.00  0.00    -0.248 NA
ATOM     57  C   UNL A   1      41.438  30.943  36.183  1.00  0.00     0.031 C 
ATOM     58  C   UNL A   1      43.385  27.375  31.673  1.00  0.00     0.029 A 
ATOM     59  C   UNL A   1      42.656  28.296  32.409  1.00  0.00     0.049 A 
ATOM     60  H   UNL A   1      40.934  29.379  31.852  1.00  0.00     0.167 HD
ATOM     61  C   UNL A   1      42.122  29.654  34.415  1.00  0.00     0.074 A 
ATOM     62  C   UNL A   1      42.363  30.085  35.777  1.00  0.00     0.031 C 
ATOM     63  C   UNL A   1      42.885  28.748  33.757  1.00  0.00     0.037 A 
BRANCH  50  64
ATOM     64  C   UNL A   1      40.961  27.522  28.014  1.00  0.00     0.057 A 
ATOM     65  C   UNL A   1      40.330  26.286  27.830  1.00  0.00     0.134 A 
ATOM     66  C   UNL A   1      41.762  28.002  26.972  1.00  0.00     0.134 A 
ATOM     67  F   UNL A   1      39.563  25.762  28.799  1.00  0.00    -0.206 F 
ATOM     68  C   UNL A   1      40.512  25.539  26.664  1.00  0.00     0.040 A 
ATOM     69  C   UNL A   1      41.931  27.278  25.791  1.00  0.00     0.040 A 
ATOM     70  F   UNL A   1      42.394  29.180  27.084  1.00  0.00    -0.206 F 
ATOM     71  C   UNL A   1      41.310  26.039  25.638  1.00  0.00     0.006 A 
ENDBRANCH  50  64
BRANCH  51  72
ATOM     72  C   UNL A   1      39.209  32.830  36.290  1.00  0.00     0.057 A 
ATOM     73  C   UNL A   1      39.770  34.098  36.478  1.00  0.00     0.134 A 
ATOM     74  C   UNL A   1      38.407  32.319  37.316  1.00  0.00     0.134 A 
ATOM     75  F   UNL A   1      40.562  34.631  35.536  1.00  0.00    -0.206 F 
ATOM     76  C   UNL A   1      39.560  34.824  37.651  1.00  0.00     0.040 A 
ATOM     77  C   UNL A   1      38.170  33.043  38.486  1.00  0.00     0.040 A 
ATOM     78  F   UNL A   1      37.834  31.113  37.191  1.00  0.00    -0.206 F 
ATOM     79  C   UNL A   1      38.754  34.297  38.658  1.00  0.00     0.006 A 
ENDBRANCH  51  72
BRANCH  63  80
ATOM     80  C   UNL A   1      44.069  28.190  34.487  1.00  0.00     0.057 A 
ATOM     81  C   UNL A   1      45.312  28.833  34.472  1.00  0.00     0.134 A 
ATOM     82  C   UNL A   1      43.948  27.023  35.250  1.00  0.00     0.134 A 
ATOM     83  F   UNL A   1      45.493  29.948  33.749  1.00  0.00    -0.206 F 
ATOM     84  C   UNL A   1      46.400  28.323  35.180  1.00  0.00     0.040 A 
ATOM     85  C   UNL A   1      45.022  26.517  35.980  1.00  0.00     0.040 A 
ATOM     86  F   UNL A   1      42.779  26.366  35.310  1.00  0.00    -0.206 F 
ATOM     87  C   UNL A   1      46.256  27.165  35.942  1.00  0.00     0.006 A 
ENDBRANCH  63  80
ENDBRANCH  37  38
ENDBRANCH  29  32
ENDBRANCH  27  28
ENDBRANCH  26  27
ENDBRANCH   1  26
TORSDOF 14
ENDMDL
