MODEL 1
REMARK VINA RESULT:     -13.1      0.000      0.000
REMARK SMILES CC[NH2+][C@@]1(C(=O)NCCCCNC(=O)c2ccc(-c3c4nc(c(-c5c(F)cccc5F)c5ccc([nH]5)c(-c5c(F)cccc5F)c5nc(c(-c6c(F)cccc6F)c6ccc3[nH]6)C=C5)C=C4)cc2)CC[C@H]([NH+]2CCS(=O)(=O)CC2)C1
REMARK SMILES IDX 9 1 8 2 7 3 5 4 6 5 4 7 69 8 80 9 70 10 71 11 3 12 2 15 1 16
REMARK SMILES IDX 72 17 73 18 79 19 74 21 78 22 75 23 76 24 77 25 10 26 11 27
REMARK SMILES IDX 12 28 13 29 14 31 15 32 16 33 68 34 17 35 67 36 18 37 19 38
REMARK SMILES IDX 20 39 61 40 21 41 66 42 60 43 62 44 22 45 65 46 59 47 58 48
REMARK SMILES IDX 23 50 49 51 32 52 48 53 33 54 36 55 47 56 63 57 34 58 35 59
REMARK SMILES IDX 46 61 64 62 37 63 24 64 25 65 30 66 26 67 27 68 29 69 31 70
REMARK SMILES IDX 28 71 50 72 51 73 56 74 52 75 53 76 55 77 57 78 54 79 38 80
REMARK SMILES IDX 39 81 44 82 40 83 41 84 43 85 45 86 42 87
REMARK H PARENT 7 6 3 13 3 14 72 20 12 30 62 49 36 60
REMARK Flexibility Score: inf
ROOT
ATOM      1  C   UNL A   1      31.953  29.882  26.905  1.00  0.00     0.023 C 
ENDROOT
BRANCH   1   2
ATOM      2  C   UNL A   1      33.330  28.321  26.685  1.00  0.00     0.116 C 
BRANCH   2   3
ATOM      3  N   UNL A   1      33.710  27.457  25.524  1.00  0.00    -0.351 N 
ATOM      4  C   UNL A   1      33.056  26.599  24.703  1.00  0.00     0.281 C 
ATOM      5  O   UNL A   1      33.814  26.037  23.903  1.00  0.00    -0.268 OA
ATOM      6  H   UNL A   1      34.668  27.528  25.302  1.00  0.00     0.163 HD
BRANCH   4   7
ATOM      7  C   UNL A   1      31.497  26.386  24.697  1.00  0.00     0.181 C 
ATOM      8  C   UNL A   1      31.092  25.868  26.094  1.00  0.00     0.085 C 
ATOM      9  C   UNL A   1      30.888  25.330  23.753  1.00  0.00     0.144 C 
ATOM     10  C   UNL A   1      30.680  24.399  25.913  1.00  0.00     0.072 C 
ATOM     11  C   UNL A   1      31.051  23.972  24.454  1.00  0.00     0.191 C 
BRANCH   7  12
ATOM     12  N   UNL A   1      30.816  27.706  24.504  1.00  0.00    -0.334 N 
ATOM     13  H   UNL A   1      29.809  27.552  24.571  1.00  0.00     0.347 HD
ATOM     14  H   UNL A   1      31.183  28.322  25.229  1.00  0.00     0.347 HD
BRANCH  12  15
ATOM     15  C   UNL A   1      31.089  28.374  23.226  1.00  0.00     0.257 C 
ATOM     16  C   UNL A   1      29.782  28.748  22.545  1.00  0.00     0.071 C 
ENDBRANCH  12  15
ENDBRANCH   7  12
BRANCH  11  17
ATOM     17  N   UNL A   1      32.315  23.195  24.171  1.00  0.00    -0.331 N 
ATOM     18  C   UNL A   1      32.095  21.994  22.810  1.00  0.00     0.278 C 
ATOM     19  C   UNL A   1      33.309  22.728  25.632  1.00  0.00     0.278 C 
ATOM     20  H   UNL A   1      32.991  23.848  23.775  1.00  0.00     0.348 HD
ATOM     21  C   UNL A   1      32.264  20.080  22.933  1.00  0.00     0.198 C 
ATOM     22  C   UNL A   1      33.840  20.927  26.166  1.00  0.00     0.198 C 
ATOM     23  S   UNL A   1      33.234  19.236  24.803  1.00  0.00     0.161 S 
ATOM     24  O   UNL A   1      32.209  18.495  25.540  1.00  0.00    -0.228 OA
ATOM     25  O   UNL A   1      34.358  18.434  24.420  1.00  0.00    -0.228 OA
ENDBRANCH  11  17
ENDBRANCH   4   7
ENDBRANCH   2   3
ENDBRANCH   1   2
BRANCH   1  26
ATOM     26  C   UNL A   1      31.765  31.569  26.812  1.00  0.00     0.023 C 
BRANCH  26  27
ATOM     27  C   UNL A   1      32.898  32.519  27.233  1.00  0.00     0.116 C 
BRANCH  27  28
ATOM     28  N   UNL A   1      32.411  33.818  27.672  1.00  0.00    -0.352 N 
ATOM     29  C   UNL A   1      33.043  34.734  28.482  1.00  0.00     0.251 C 
ATOM     30  H   UNL A   1      31.517  34.075  27.349  1.00  0.00     0.163 HD
ATOM     31  O   UNL A   1      32.518  35.814  28.732  1.00  0.00    -0.269 OA
BRANCH  29  32
ATOM     32  C   UNL A   1      34.290  34.339  29.159  1.00  0.00     0.039 A 
ATOM     33  C   UNL A   1      34.170  33.548  30.301  1.00  0.00     0.014 A 
ATOM     34  C   UNL A   1      35.548  34.666  28.647  1.00  0.00     0.014 A 
ATOM     35  C   UNL A   1      35.313  33.017  30.885  1.00  0.00     0.010 A 
ATOM     36  C   UNL A   1      36.685  34.078  29.185  1.00  0.00     0.010 A 
ATOM     37  C   UNL A   1      36.570  33.243  30.302  1.00  0.00    -0.014 A 
BRANCH  37  38
ATOM     38  C   UNL A   1      37.766  32.581  30.858  1.00  0.00     0.031 A 
ATOM     39  C   UNL A   1      38.359  33.066  32.144  1.00  0.00     0.074 A 
ATOM     40  C   UNL A   1      38.305  31.554  30.174  1.00  0.00     0.049 A 
ATOM     41  N   UNL A   1      39.367  32.580  32.820  1.00  0.00    -0.248 NA
ATOM     42  C   UNL A   1      37.758  34.270  32.738  1.00  0.00     0.031 C 
ATOM     43  C   UNL A   1      37.827  31.063  28.878  1.00  0.00     0.029 A 
ATOM     44  N   UNL A   1      39.358  30.731  30.472  1.00  0.00    -0.354 N 
ATOM     45  C   UNL A   1      39.519  33.418  33.915  1.00  0.00     0.074 A 
ATOM     46  C   UNL A   1      38.544  34.478  33.782  1.00  0.00     0.031 C 
ATOM     47  C   UNL A   1      38.557  29.997  28.514  1.00  0.00     0.029 A 
ATOM     48  C   UNL A   1      39.570  29.750  29.534  1.00  0.00     0.049 A 
ATOM     49  H   UNL A   1      39.911  30.833  31.280  1.00  0.00     0.167 HD
ATOM     50  C   UNL A   1      40.382  33.294  34.950  1.00  0.00     0.037 A 
ATOM     51  C   UNL A   1      40.477  28.757  29.513  1.00  0.00     0.037 A 
ATOM     52  C   UNL A   1      41.335  32.222  35.057  1.00  0.00     0.049 A 
ATOM     53  C   UNL A   1      41.411  28.627  30.684  1.00  0.00     0.074 A 
ATOM     54  C   UNL A   1      42.230  31.957  36.077  1.00  0.00     0.029 A 
ATOM     55  N   UNL A   1      41.518  31.237  34.095  1.00  0.00    -0.354 N 
ATOM     56  N   UNL A   1      41.493  29.376  31.759  1.00  0.00    -0.248 NA
ATOM     57  C   UNL A   1      42.367  27.515  30.649  1.00  0.00     0.031 C 
ATOM     58  C   UNL A   1      42.988  30.840  35.707  1.00  0.00     0.029 A 
ATOM     59  C   UNL A   1      42.528  30.375  34.485  1.00  0.00     0.049 A 
ATOM     60  H   UNL A   1      41.004  31.162  33.258  1.00  0.00     0.167 HD
ATOM     61  C   UNL A   1      42.495  28.816  32.539  1.00  0.00     0.074 A 
ATOM     62  C   UNL A   1      42.974  27.651  31.819  1.00  0.00     0.031 C 
ATOM     63  C   UNL A   1      42.980  29.225  33.737  1.00  0.00     0.037 A 
BRANCH  50  64
ATOM     64  C   UNL A   1      40.332  34.346  36.021  1.00  0.00     0.057 A 
ATOM     65  C   UNL A   1      39.516  34.216  37.154  1.00  0.00     0.134 A 
ATOM     66  C   UNL A   1      41.102  35.511  35.916  1.00  0.00     0.134 A 
ATOM     67  F   UNL A   1      38.741  33.132  37.314  1.00  0.00    -0.206 F 
ATOM     68  C   UNL A   1      39.437  35.221  38.121  1.00  0.00     0.040 A 
ATOM     69  C   UNL A   1      41.054  36.510  36.892  1.00  0.00     0.040 A 
ATOM     70  F   UNL A   1      41.908  35.703  34.862  1.00  0.00    -0.206 F 
ATOM     71  C   UNL A   1      40.212  36.372  37.993  1.00  0.00     0.006 A 
ENDBRANCH  50  64
BRANCH  51  72
ATOM     72  C   UNL A   1      40.511  27.803  28.374  1.00  0.00     0.057 A 
ATOM     73  C   UNL A   1      41.245  28.077  27.215  1.00  0.00     0.134 A 
ATOM     74  C   UNL A   1      39.830  26.580  28.427  1.00  0.00     0.134 A 
ATOM     75  F   UNL A   1      41.912  29.234  27.097  1.00  0.00    -0.206 F 
ATOM     76  C   UNL A   1      41.288  27.181  26.144  1.00  0.00     0.040 A 
ATOM     77  C   UNL A   1      39.885  25.663  27.375  1.00  0.00     0.040 A 
ATOM     78  F   UNL A   1      39.119  26.247  29.514  1.00  0.00    -0.206 F 
ATOM     79  C   UNL A   1      40.611  25.966  26.226  1.00  0.00     0.006 A 
ENDBRANCH  51  72
BRANCH  63  80
ATOM     80  C   UNL A   1      44.068  28.394  34.345  1.00  0.00     0.057 A 
ATOM     81  C   UNL A   1      45.422  28.687  34.142  1.00  0.00     0.134 A 
ATOM     82  C   UNL A   1      43.755  27.314  35.181  1.00  0.00     0.134 A 
ATOM     83  F   UNL A   1      45.786  29.700  33.341  1.00  0.00    -0.206 F 
ATOM     84  C   UNL A   1      46.428  27.921  34.731  1.00  0.00     0.040 A 
ATOM     85  C   UNL A   1      44.752  26.560  35.799  1.00  0.00     0.040 A 
ATOM     86  F   UNL A   1      42.476  26.989  35.423  1.00  0.00    -0.206 F 
ATOM     87  C   UNL A   1      46.093  26.858  35.569  1.00  0.00     0.006 A 
ENDBRANCH  63  80
ENDBRANCH  37  38
ENDBRANCH  29  32
ENDBRANCH  27  28
ENDBRANCH  26  27
ENDBRANCH   1  26
TORSDOF 14
ENDMDL
MODEL 2
REMARK VINA RESULT:     -13.0      5.149     10.321
REMARK SMILES CC[NH2+][C@@]1(C(=O)NCCCCNC(=O)c2ccc(-c3c4nc(c(-c5c(F)cccc5F)c5ccc([nH]5)c(-c5c(F)cccc5F)c5nc(c(-c6c(F)cccc6F)c6ccc3[nH]6)C=C5)C=C4)cc2)CC[C@H]([NH+]2CCS(=O)(=O)CC2)C1
REMARK SMILES IDX 9 1 8 2 7 3 5 4 6 5 4 7 69 8 80 9 70 10 71 11 3 12 2 15 1 16
REMARK SMILES IDX 72 17 73 18 79 19 74 21 78 22 75 23 76 24 77 25 10 26 11 27
REMARK SMILES IDX 12 28 13 29 14 31 15 32 16 33 68 34 17 35 67 36 18 37 19 38
REMARK SMILES IDX 20 39 61 40 21 41 66 42 60 43 62 44 22 45 65 46 59 47 58 48
REMARK SMILES IDX 23 50 49 51 32 52 48 53 33 54 36 55 47 56 63 57 34 58 35 59
REMARK SMILES IDX 46 61 64 62 37 63 24 64 25 65 30 66 26 67 27 68 29 69 31 70
REMARK SMILES IDX 28 71 50 72 51 73 56 74 52 75 53 76 55 77 57 78 54 79 38 80
REMARK SMILES IDX 39 81 44 82 40 83 41 84 43 85 45 86 42 87
REMARK H PARENT 7 6 3 13 3 14 72 20 12 30 62 49 36 60
REMARK Flexibility Score: inf
ROOT
ATOM      1  C   UNL A   1      37.193  21.545  24.575  1.00  0.00     0.023 C 
ENDROOT
BRANCH   1   2
ATOM      2  C   UNL A   1      36.424  23.398  25.173  1.00  0.00     0.116 C 
BRANCH   2   3
ATOM      3  N   UNL A   1      35.135  23.805  25.816  1.00  0.00    -0.351 N 
ATOM      4  C   UNL A   1      33.824  23.739  25.478  1.00  0.00     0.281 C 
ATOM      5  O   UNL A   1      33.091  24.281  26.314  1.00  0.00    -0.268 OA
ATOM      6  H   UNL A   1      35.273  24.221  26.698  1.00  0.00     0.163 HD
BRANCH   4   7
ATOM      7  C   UNL A   1      33.268  22.993  24.210  1.00  0.00     0.181 C 
ATOM      8  C   UNL A   1      33.957  23.604  22.970  1.00  0.00     0.085 C 
ATOM      9  C   UNL A   1      31.770  23.118  23.863  1.00  0.00     0.144 C 
ATOM     10  C   UNL A   1      32.880  24.402  22.220  1.00  0.00     0.072 C 
ATOM     11  C   UNL A   1      31.604  24.456  23.124  1.00  0.00     0.191 C 
BRANCH   7  12
ATOM     12  N   UNL A   1      33.666  21.550  24.266  1.00  0.00    -0.334 N 
ATOM     13  H   UNL A   1      33.288  21.087  23.439  1.00  0.00     0.347 HD
ATOM     14  H   UNL A   1      34.685  21.540  24.310  1.00  0.00     0.347 HD
BRANCH  12  15
ATOM     15  C   UNL A   1      33.202  20.816  25.450  1.00  0.00     0.257 C 
ATOM     16  C   UNL A   1      32.862  19.382  25.072  1.00  0.00     0.071 C 
ENDBRANCH  12  15
ENDBRANCH   7  12
BRANCH  11  17
ATOM     17  N   UNL A   1      31.300  25.674  23.962  1.00  0.00    -0.331 N 
ATOM     18  C   UNL A   1      29.509  26.039  24.022  1.00  0.00     0.278 C 
ATOM     19  C   UNL A   1      32.494  27.051  23.834  1.00  0.00     0.278 C 
ATOM     20  H   UNL A   1      31.503  25.435  24.933  1.00  0.00     0.348 HD
ATOM     21  C   UNL A   1      28.642  27.634  23.378  1.00  0.00     0.198 C 
ATOM     22  C   UNL A   1      32.115  28.893  23.309  1.00  0.00     0.198 C 
ATOM     23  S   UNL A   1      29.962  29.412  22.884  1.00  0.00     0.161 S 
ATOM     24  O   UNL A   1      29.896  29.629  21.438  1.00  0.00    -0.228 OA
ATOM     25  O   UNL A   1      29.527  30.540  23.654  1.00  0.00    -0.228 OA
ENDBRANCH  11  17
ENDBRANCH   4   7
ENDBRANCH   2   3
ENDBRANCH   1   2
BRANCH   1  26
ATOM     26  C   UNL A   1      38.038  20.172  25.114  1.00  0.00     0.023 C 
BRANCH  26  27
ATOM     27  C   UNL A   1      39.289  20.305  25.998  1.00  0.00     0.116 C 
BRANCH  27  28
ATOM     28  N   UNL A   1      40.247  19.231  25.785  1.00  0.00    -0.352 N 
ATOM     29  C   UNL A   1      41.589  19.216  26.089  1.00  0.00     0.251 C 
ATOM     30  H   UNL A   1      39.891  18.412  25.371  1.00  0.00     0.163 HD
ATOM     31  O   UNL A   1      42.265  18.213  25.887  1.00  0.00    -0.269 OA
BRANCH  29  32
ATOM     32  C   UNL A   1      42.230  20.468  26.525  1.00  0.00     0.039 A 
ATOM     33  C   UNL A   1      42.720  21.312  25.528  1.00  0.00     0.014 A 
ATOM     34  C   UNL A   1      42.282  20.847  27.868  1.00  0.00     0.014 A 
ATOM     35  C   UNL A   1      43.188  22.573  25.873  1.00  0.00     0.010 A 
ATOM     36  C   UNL A   1      42.683  22.133  28.207  1.00  0.00     0.010 A 
ATOM     37  C   UNL A   1      43.130  23.005  27.208  1.00  0.00    -0.014 A 
BRANCH  37  38
ATOM     38  C   UNL A   1      43.519  24.387  27.551  1.00  0.00     0.031 A 
ATOM     39  C   UNL A   1      44.947  24.814  27.419  1.00  0.00     0.074 A 
ATOM     40  C   UNL A   1      42.567  25.230  27.992  1.00  0.00     0.049 A 
ATOM     41  N   UNL A   1      45.473  25.995  27.612  1.00  0.00    -0.248 NA
ATOM     42  C   UNL A   1      45.918  23.774  27.043  1.00  0.00     0.031 C 
ATOM     43  C   UNL A   1      41.162  24.870  28.213  1.00  0.00     0.029 A 
ATOM     44  N   UNL A   1      42.625  26.557  28.322  1.00  0.00    -0.354 N 
ATOM     45  C   UNL A   1      46.833  25.838  27.383  1.00  0.00     0.074 A 
ATOM     46  C   UNL A   1      47.062  24.439  27.099  1.00  0.00     0.031 C 
ATOM     47  C   UNL A   1      40.485  25.962  28.600  1.00  0.00     0.029 A 
ATOM     48  C   UNL A   1      41.410  27.087  28.682  1.00  0.00     0.049 A 
ATOM     49  H   UNL A   1      43.458  27.081  28.303  1.00  0.00     0.167 HD
ATOM     50  C   UNL A   1      47.797  26.789  27.388  1.00  0.00     0.037 A 
ATOM     51  C   UNL A   1      41.086  28.346  29.027  1.00  0.00     0.037 A 
ATOM     52  C   UNL A   1      47.535  28.176  27.667  1.00  0.00     0.049 A 
ATOM     53  C   UNL A   1      42.169  29.387  29.004  1.00  0.00     0.074 A 
ATOM     54  C   UNL A   1      48.414  29.242  27.655  1.00  0.00     0.029 A 
ATOM     55  N   UNL A   1      46.291  28.683  28.018  1.00  0.00    -0.354 N 
ATOM     56  N   UNL A   1      43.439  29.248  28.704  1.00  0.00    -0.248 NA
ATOM     57  C   UNL A   1      41.779  30.758  29.353  1.00  0.00     0.031 C 
ATOM     58  C   UNL A   1      47.711  30.386  28.048  1.00  0.00     0.029 A 
ATOM     59  C   UNL A   1      46.382  30.044  28.250  1.00  0.00     0.049 A 
ATOM     60  H   UNL A   1      45.465  28.152  28.091  1.00  0.00     0.167 HD
ATOM     61  C   UNL A   1      43.998  30.514  28.809  1.00  0.00     0.074 A 
ATOM     62  C   UNL A   1      42.919  31.411  29.179  1.00  0.00     0.031 C 
ATOM     63  C   UNL A   1      45.283  30.904  28.620  1.00  0.00     0.037 A 
BRANCH  50  64
ATOM     64  C   UNL A   1      49.203  26.348  27.096  1.00  0.00     0.057 A 
ATOM     65  C   UNL A   1      50.082  25.946  28.113  1.00  0.00     0.134 A 
ATOM     66  C   UNL A   1      49.691  26.331  25.784  1.00  0.00     0.134 A 
ATOM     67  F   UNL A   1      49.687  25.951  29.396  1.00  0.00    -0.206 F 
ATOM     68  C   UNL A   1      51.404  25.585  27.840  1.00  0.00     0.040 A 
ATOM     69  C   UNL A   1      51.002  25.943  25.495  1.00  0.00     0.040 A 
ATOM     70  F   UNL A   1      48.906  26.698  24.760  1.00  0.00    -0.206 F 
ATOM     71  C   UNL A   1      51.865  25.579  26.525  1.00  0.00     0.006 A 
ENDBRANCH  50  64
BRANCH  51  72
ATOM     72  C   UNL A   1      39.682  28.683  29.380  1.00  0.00     0.057 A 
ATOM     73  C   UNL A   1      38.782  29.157  28.419  1.00  0.00     0.134 A 
ATOM     74  C   UNL A   1      39.198  28.515  30.683  1.00  0.00     0.134 A 
ATOM     75  F   UNL A   1      39.184  29.349  27.154  1.00  0.00    -0.206 F 
ATOM     76  C   UNL A   1      37.459  29.469  28.743  1.00  0.00     0.040 A 
ATOM     77  C   UNL A   1      37.871  28.797  31.016  1.00  0.00     0.040 A 
ATOM     78  F   UNL A   1      40.003  28.051  31.651  1.00  0.00    -0.206 F 
ATOM     79  C   UNL A   1      36.999  29.282  30.044  1.00  0.00     0.006 A 
ENDBRANCH  51  72
BRANCH  63  80
ATOM     80  C   UNL A   1      45.579  32.363  28.795  1.00  0.00     0.057 A 
ATOM     81  C   UNL A   1      45.455  33.272  27.738  1.00  0.00     0.134 A 
ATOM     82  C   UNL A   1      45.948  32.867  30.048  1.00  0.00     0.134 A 
ATOM     83  F   UNL A   1      45.119  32.848  26.511  1.00  0.00    -0.206 F 
ATOM     84  C   UNL A   1      45.711  34.632  27.916  1.00  0.00     0.040 A 
ATOM     85  C   UNL A   1      46.176  34.229  30.246  1.00  0.00     0.040 A 
ATOM     86  F   UNL A   1      46.073  32.048  31.103  1.00  0.00    -0.206 F 
ATOM     87  C   UNL A   1      46.064  35.115  29.176  1.00  0.00     0.006 A 
ENDBRANCH  63  80
ENDBRANCH  37  38
ENDBRANCH  29  32
ENDBRANCH  27  28
ENDBRANCH  26  27
ENDBRANCH   1  26
TORSDOF 14
ENDMDL
MODEL 3
REMARK VINA RESULT:     -13.0      5.054     10.266
REMARK SMILES CC[NH2+][C@@]1(C(=O)NCCCCNC(=O)c2ccc(-c3c4nc(c(-c5c(F)cccc5F)c5ccc([nH]5)c(-c5c(F)cccc5F)c5nc(c(-c6c(F)cccc6F)c6ccc3[nH]6)C=C5)C=C4)cc2)CC[C@H]([NH+]2CCS(=O)(=O)CC2)C1
REMARK SMILES IDX 9 1 8 2 7 3 5 4 6 5 4 7 69 8 80 9 70 10 71 11 3 12 2 15 1 16
REMARK SMILES IDX 72 17 73 18 79 19 74 21 78 22 75 23 76 24 77 25 10 26 11 27
REMARK SMILES IDX 12 28 13 29 14 31 15 32 16 33 68 34 17 35 67 36 18 37 19 38
REMARK SMILES IDX 20 39 61 40 21 41 66 42 60 43 62 44 22 45 65 46 59 47 58 48
REMARK SMILES IDX 23 50 49 51 32 52 48 53 33 54 36 55 47 56 63 57 34 58 35 59
REMARK SMILES IDX 46 61 64 62 37 63 24 64 25 65 30 66 26 67 27 68 29 69 31 70
REMARK SMILES IDX 28 71 50 72 51 73 56 74 52 75 53 76 55 77 57 78 54 79 38 80
REMARK SMILES IDX 39 81 44 82 40 83 41 84 43 85 45 86 42 87
REMARK H PARENT 7 6 3 13 3 14 72 20 12 30 62 49 36 60
REMARK Flexibility Score: inf
ROOT
ATOM      1  C   UNL A   1      37.187  22.008  24.439  1.00  0.00     0.023 C 
ENDROOT
BRANCH   1   2
ATOM      2  C   UNL A   1      36.187  23.753  25.022  1.00  0.00     0.116 C 
BRANCH   2   3
ATOM      3  N   UNL A   1      34.896  23.994  25.740  1.00  0.00    -0.351 N 
ATOM      4  C   UNL A   1      33.583  23.823  25.449  1.00  0.00     0.281 C 
ATOM      5  O   UNL A   1      32.841  24.240  26.347  1.00  0.00    -0.268 OA
ATOM      6  H   UNL A   1      35.034  24.367  26.641  1.00  0.00     0.163 HD
BRANCH   4   7
ATOM      7  C   UNL A   1      33.043  23.105  24.158  1.00  0.00     0.181 C 
ATOM      8  C   UNL A   1      33.707  23.780  22.937  1.00  0.00     0.085 C 
ATOM      9  C   UNL A   1      31.541  23.197  23.821  1.00  0.00     0.144 C 
ATOM     10  C   UNL A   1      32.603  24.571  22.220  1.00  0.00     0.072 C 
ATOM     11  C   UNL A   1      31.331  24.555  23.131  1.00  0.00     0.191 C 
BRANCH   7  12
ATOM     12  N   UNL A   1      33.484  21.674  24.162  1.00  0.00    -0.334 N 
ATOM     13  H   UNL A   1      33.816  21.445  23.224  1.00  0.00     0.347 HD
ATOM     14  H   UNL A   1      34.205  21.603  24.879  1.00  0.00     0.347 HD
BRANCH  12  15
ATOM     15  C   UNL A   1      32.450  20.699  24.527  1.00  0.00     0.257 C 
ATOM     16  C   UNL A   1      33.088  19.489  25.193  1.00  0.00     0.071 C 
ENDBRANCH  12  15
ENDBRANCH   7  12
BRANCH  11  17
ATOM     17  N   UNL A   1      30.994  25.734  24.013  1.00  0.00    -0.331 N 
ATOM     18  C   UNL A   1      29.219  26.165  23.938  1.00  0.00     0.278 C 
ATOM     19  C   UNL A   1      32.242  27.067  24.075  1.00  0.00     0.278 C 
ATOM     20  H   UNL A   1      31.101  25.430  24.981  1.00  0.00     0.348 HD
ATOM     21  C   UNL A   1      28.469  27.828  23.319  1.00  0.00     0.198 C 
ATOM     22  C   UNL A   1      31.975  28.950  23.632  1.00  0.00     0.198 C 
ATOM     23  S   UNL A   1      29.889  29.578  23.054  1.00  0.00     0.161 S 
ATOM     24  O   UNL A   1      29.960  29.881  21.623  1.00  0.00    -0.228 OA
ATOM     25  O   UNL A   1      29.425  30.675  23.851  1.00  0.00    -0.228 OA
ENDBRANCH  11  17
ENDBRANCH   4   7
ENDBRANCH   2   3
ENDBRANCH   1   2
BRANCH   1  26
ATOM     26  C   UNL A   1      37.802  20.527  25.002  1.00  0.00     0.023 C 
BRANCH  26  27
ATOM     27  C   UNL A   1      38.960  20.479  26.012  1.00  0.00     0.116 C 
BRANCH  27  28
ATOM     28  N   UNL A   1      39.893  19.394  25.750  1.00  0.00    -0.352 N 
ATOM     29  C   UNL A   1      41.247  19.359  25.992  1.00  0.00     0.251 C 
ATOM     30  H   UNL A   1      39.507  18.582  25.349  1.00  0.00     0.163 HD
ATOM     31  O   UNL A   1      41.899  18.347  25.754  1.00  0.00    -0.269 OA
BRANCH  29  32
ATOM     32  C   UNL A   1      41.925  20.600  26.405  1.00  0.00     0.039 A 
ATOM     33  C   UNL A   1      42.230  21.520  25.403  1.00  0.00     0.014 A 
ATOM     34  C   UNL A   1      42.184  20.893  27.746  1.00  0.00     0.014 A 
ATOM     35  C   UNL A   1      42.723  22.770  25.754  1.00  0.00     0.010 A 
ATOM     36  C   UNL A   1      42.608  22.166  28.103  1.00  0.00     0.010 A 
ATOM     37  C   UNL A   1      42.871  23.114  27.108  1.00  0.00    -0.014 A 
BRANCH  37  38
ATOM     38  C   UNL A   1      43.282  24.482  27.477  1.00  0.00     0.031 A 
ATOM     39  C   UNL A   1      44.715  24.893  27.340  1.00  0.00     0.074 A 
ATOM     40  C   UNL A   1      42.346  25.328  27.948  1.00  0.00     0.049 A 
ATOM     41  N   UNL A   1      45.258  26.062  27.555  1.00  0.00    -0.248 NA
ATOM     42  C   UNL A   1      45.668  23.850  26.931  1.00  0.00     0.031 C 
ATOM     43  C   UNL A   1      40.939  24.982  28.175  1.00  0.00     0.029 A 
ATOM     44  N   UNL A   1      42.425  26.646  28.306  1.00  0.00    -0.354 N 
ATOM     45  C   UNL A   1      46.614  25.893  27.309  1.00  0.00     0.074 A 
ATOM     46  C   UNL A   1      46.821  24.498  26.991  1.00  0.00     0.031 C 
ATOM     47  C   UNL A   1      40.280  26.074  28.593  1.00  0.00     0.029 A 
ATOM     48  C   UNL A   1      41.221  27.183  28.691  1.00  0.00     0.049 A 
ATOM     49  H   UNL A   1      43.265  27.159  28.291  1.00  0.00     0.167 HD
ATOM     50  C   UNL A   1      47.590  26.830  27.325  1.00  0.00     0.037 A 
ATOM     51  C   UNL A   1      40.917  28.439  29.068  1.00  0.00     0.037 A 
ATOM     52  C   UNL A   1      47.350  28.214  27.638  1.00  0.00     0.049 A 
ATOM     53  C   UNL A   1      42.014  29.466  29.057  1.00  0.00     0.074 A 
ATOM     54  C   UNL A   1      48.243  29.269  27.641  1.00  0.00     0.029 A 
ATOM     55  N   UNL A   1      46.116  28.729  28.013  1.00  0.00    -0.354 N 
ATOM     56  N   UNL A   1      43.280  29.317  28.741  1.00  0.00    -0.248 NA
ATOM     57  C   UNL A   1      41.646  30.833  29.441  1.00  0.00     0.031 C 
ATOM     58  C   UNL A   1      47.559  30.413  28.067  1.00  0.00     0.029 A 
ATOM     59  C   UNL A   1      46.228  30.084  28.275  1.00  0.00     0.049 A 
ATOM     60  H   UNL A   1      45.284  28.208  28.083  1.00  0.00     0.167 HD
ATOM     61  C   UNL A   1      43.856  30.572  28.869  1.00  0.00     0.074 A 
ATOM     62  C   UNL A   1      42.793  31.475  29.270  1.00  0.00     0.031 C 
ATOM     63  C   UNL A   1      45.145  30.949  28.676  1.00  0.00     0.037 A 
BRANCH  50  64
ATOM     64  C   UNL A   1      48.987  26.377  27.009  1.00  0.00     0.057 A 
ATOM     65  C   UNL A   1      49.882  25.974  28.010  1.00  0.00     0.134 A 
ATOM     66  C   UNL A   1      49.450  26.352  25.688  1.00  0.00     0.134 A 
ATOM     67  F   UNL A   1      49.511  25.987  29.300  1.00  0.00    -0.206 F 
ATOM     68  C   UNL A   1      51.196  25.601  27.715  1.00  0.00     0.040 A 
ATOM     69  C   UNL A   1      50.752  25.952  25.376  1.00  0.00     0.040 A 
ATOM     70  F   UNL A   1      48.649  26.720  24.677  1.00  0.00    -0.206 F 
ATOM     71  C   UNL A   1      51.632  25.586  26.392  1.00  0.00     0.006 A 
ENDBRANCH  50  64
BRANCH  51  72
ATOM     72  C   UNL A   1      39.522  28.786  29.443  1.00  0.00     0.057 A 
ATOM     73  C   UNL A   1      39.056  28.621  30.752  1.00  0.00     0.134 A 
ATOM     74  C   UNL A   1      38.626  29.317  28.506  1.00  0.00     0.134 A 
ATOM     75  F   UNL A   1      39.859  28.109  31.695  1.00  0.00    -0.206 F 
ATOM     76  C   UNL A   1      37.747  28.953  31.112  1.00  0.00     0.040 A 
ATOM     77  C   UNL A   1      37.324  29.679  28.858  1.00  0.00     0.040 A 
ATOM     78  F   UNL A   1      39.012  29.515  27.236  1.00  0.00    -0.206 F 
ATOM     79  C   UNL A   1      36.879  29.490  30.164  1.00  0.00     0.006 A 
ENDBRANCH  51  72
BRANCH  63  80
ATOM     80  C   UNL A   1      45.462  32.400  28.880  1.00  0.00     0.057 A 
ATOM     81  C   UNL A   1      45.917  32.889  30.111  1.00  0.00     0.134 A 
ATOM     82  C   UNL A   1      45.353  33.307  27.819  1.00  0.00     0.134 A 
ATOM     83  F   UNL A   1      46.029  32.072  31.169  1.00  0.00    -0.206 F 
ATOM     84  C   UNL A   1      46.231  34.237  30.285  1.00  0.00     0.040 A 
ATOM     85  C   UNL A   1      45.694  34.651  27.973  1.00  0.00     0.040 A 
ATOM     86  F   UNL A   1      44.933  32.898  26.612  1.00  0.00    -0.206 F 
ATOM     87  C   UNL A   1      46.128  35.120  29.210  1.00  0.00     0.006 A 
ENDBRANCH  63  80
ENDBRANCH  37  38
ENDBRANCH  29  32
ENDBRANCH  27  28
ENDBRANCH  26  27
ENDBRANCH   1  26
TORSDOF 14
ENDMDL
