MODEL 1
REMARK VINA RESULT:     -13.9      0.000      0.000
REMARK SMILES O=C(NCCCCNC(=O)[C@@H](c1c[nH]c2ccc(Cl)cc12)[NH+]1CC[NH+](CCNc2cc(=O)oc3ccccc23)CC1)c1ccc(-c2c3nc(c(-c4c(F)cccc4F)c4ccc([nH]4)c(-c4c(F)cccc4F)c4nc(c(-c5c(F)cccc5F)c5ccc2[nH]5)C=C4)C=C3)cc1
REMARK SMILES IDX 7 1 6 2 5 3 4 4 3 5 1 6 2 7 42 9 43 10 95 11 44 12 94 13
REMARK SMILES IDX 45 14 46 15 47 16 88 17 48 18 93 19 87 20 89 21 49 22 92 23
REMARK SMILES IDX 86 24 85 25 50 27 76 28 59 29 75 30 60 31 63 32 74 33 90 34
REMARK SMILES IDX 61 35 62 36 73 38 91 39 64 40 51 41 52 42 57 43 53 44 54 45
REMARK SMILES IDX 56 46 58 47 55 48 77 49 78 50 83 51 79 52 80 53 82 54 84 55
REMARK SMILES IDX 81 56 65 57 66 58 71 59 67 60 68 61 70 62 72 63 69 64 8 65
REMARK SMILES IDX 9 66 10 68 11 69 12 70 13 71 21 72 14 73 15 74 20 75 16 77
REMARK SMILES IDX 18 78 17 79 19 80 22 81 23 82 41 83 24 85 40 86 25 87 26 89
REMARK SMILES IDX 27 90 28 91 29 93 30 94 39 95 31 96 34 97 38 98 32 99 33 100
REMARK SMILES IDX 35 101 37 102 36 103
REMARK H PARENT 3 8 89 26 63 37 8 67 14 76 22 84 25 88 28 92
REMARK Flexibility Score: inf
ROOT
ATOM      1  C   UNL A   1      36.822  22.323  25.688  1.00  0.00     0.116 C 
ENDROOT
BRANCH   1   2
ATOM      2  C   UNL A   1      37.171  21.302  24.618  1.00  0.00     0.023 C 
BRANCH   2   3
ATOM      3  C   UNL A   1      37.882  20.062  25.144  1.00  0.00     0.023 C 
BRANCH   3   4
ATOM      4  C   UNL A   1      39.263  20.298  25.752  1.00  0.00     0.116 C 
BRANCH   4   5
ATOM      5  N   UNL A   1      40.142  19.138  25.758  1.00  0.00    -0.352 N 
ATOM      6  O   UNL A   1      42.137  18.071  25.957  1.00  0.00    -0.269 OA
ATOM      7  C   UNL A   1      41.488  19.100  26.064  1.00  0.00     0.251 C 
ATOM      8  H   UNL A   1      39.728  18.279  25.516  1.00  0.00     0.163 HD
BRANCH   7   9
ATOM      9  C   UNL A   1      42.157  20.350  26.493  1.00  0.00     0.039 A 
ATOM     10  C   UNL A   1      42.081  20.781  27.820  1.00  0.00     0.014 A 
ATOM     11  C   UNL A   1      42.798  21.131  25.530  1.00  0.00     0.014 A 
ATOM     12  C   UNL A   1      42.485  22.068  28.148  1.00  0.00     0.010 A 
ATOM     13  C   UNL A   1      43.278  22.394  25.879  1.00  0.00     0.010 A 
ATOM     14  C   UNL A   1      43.079  22.888  27.179  1.00  0.00    -0.014 A 
BRANCH  14  15
ATOM     15  C   UNL A   1      43.498  24.263  27.535  1.00  0.00     0.031 A 
ATOM     16  C   UNL A   1      42.480  25.282  27.964  1.00  0.00     0.074 A 
ATOM     17  C   UNL A   1      44.804  24.581  27.466  1.00  0.00     0.049 A 
ATOM     18  N   UNL A   1      42.643  26.556  28.209  1.00  0.00    -0.248 NA
ATOM     19  C   UNL A   1      41.094  24.813  28.133  1.00  0.00     0.031 C 
ATOM     20  C   UNL A   1      45.875  23.662  27.072  1.00  0.00     0.029 A 
ATOM     21  N   UNL A   1      45.453  25.763  27.711  1.00  0.00    -0.354 N 
ATOM     22  C   UNL A   1      41.383  27.049  28.524  1.00  0.00     0.074 A 
ATOM     23  C   UNL A   1      40.460  25.938  28.438  1.00  0.00     0.031 C 
ATOM     24  C   UNL A   1      47.046  24.312  27.106  1.00  0.00     0.029 A 
ATOM     25  C   UNL A   1      46.801  25.705  27.455  1.00  0.00     0.049 A 
ATOM     26  H   UNL A   1      44.997  26.572  28.037  1.00  0.00     0.167 HD
ATOM     27  C   UNL A   1      41.035  28.316  28.850  1.00  0.00     0.037 A 
ATOM     28  C   UNL A   1      47.728  26.679  27.453  1.00  0.00     0.037 A 
ATOM     29  C   UNL A   1      41.974  29.401  28.969  1.00  0.00     0.049 A 
ATOM     30  C   UNL A   1      47.306  28.080  27.787  1.00  0.00     0.074 A 
ATOM     31  C   UNL A   1      41.739  30.706  29.368  1.00  0.00     0.029 A 
ATOM     32  N   UNL A   1      43.328  29.308  28.684  1.00  0.00    -0.354 N 
ATOM     33  N   UNL A   1      46.117  28.526  28.113  1.00  0.00    -0.248 NA
ATOM     34  C   UNL A   1      48.347  29.114  27.739  1.00  0.00     0.031 C 
ATOM     35  C   UNL A   1      42.942  31.412  29.279  1.00  0.00     0.029 A 
ATOM     36  C   UNL A   1      43.934  30.540  28.862  1.00  0.00     0.049 A 
ATOM     37  H   UNL A   1      43.790  28.487  28.397  1.00  0.00     0.167 HD
ATOM     38  C   UNL A   1      46.265  29.890  28.309  1.00  0.00     0.074 A 
ATOM     39  C   UNL A   1      47.665  30.194  28.094  1.00  0.00     0.031 C 
ATOM     40  C   UNL A   1      45.327  30.814  28.629  1.00  0.00     0.037 A 
BRANCH  27  41
ATOM     41  C   UNL A   1      39.585  28.617  29.083  1.00  0.00     0.057 A 
ATOM     42  C   UNL A   1      38.983  28.455  30.336  1.00  0.00     0.134 A 
ATOM     43  C   UNL A   1      38.802  29.158  28.055  1.00  0.00     0.134 A 
ATOM     44  F   UNL A   1      39.674  27.933  31.361  1.00  0.00    -0.206 F 
ATOM     45  C   UNL A   1      37.652  28.817  30.557  1.00  0.00     0.040 A 
ATOM     46  C   UNL A   1      37.477  29.541  28.268  1.00  0.00     0.040 A 
ATOM     47  F   UNL A   1      39.319  29.344  26.831  1.00  0.00    -0.206 F 
ATOM     48  C   UNL A   1      36.898  29.371  29.523  1.00  0.00     0.006 A 
ENDBRANCH  27  41
BRANCH  28  49
ATOM     49  C   UNL A   1      49.125  26.368  27.063  1.00  0.00     0.057 A 
ATOM     50  C   UNL A   1      50.049  25.882  27.993  1.00  0.00     0.134 A 
ATOM     51  C   UNL A   1      49.566  26.546  25.746  1.00  0.00     0.134 A 
ATOM     52  F   UNL A   1      49.690  25.708  29.274  1.00  0.00    -0.206 F 
ATOM     53  C   UNL A   1      51.366  25.596  27.630  1.00  0.00     0.040 A 
ATOM     54  C   UNL A   1      50.872  26.239  25.363  1.00  0.00     0.040 A 
ATOM     55  F   UNL A   1      48.725  27.004  24.805  1.00  0.00    -0.206 F 
ATOM     56  C   UNL A   1      51.778  25.768  26.310  1.00  0.00     0.006 A 
ENDBRANCH  28  49
BRANCH  40  57
ATOM     57  C   UNL A   1      45.794  32.230  28.761  1.00  0.00     0.057 A 
ATOM     58  C   UNL A   1      45.738  33.120  27.681  1.00  0.00     0.134 A 
ATOM     59  C   UNL A   1      46.277  32.716  29.982  1.00  0.00     0.134 A 
ATOM     60  F   UNL A   1      45.301  32.706  26.482  1.00  0.00    -0.206 F 
ATOM     61  C   UNL A   1      46.165  34.441  27.807  1.00  0.00     0.040 A 
ATOM     62  C   UNL A   1      46.684  34.041  30.126  1.00  0.00     0.040 A 
ATOM     63  F   UNL A   1      46.347  31.913  31.054  1.00  0.00    -0.206 F 
ATOM     64  C   UNL A   1      46.633  34.907  29.034  1.00  0.00     0.006 A 
ENDBRANCH  40  57
ENDBRANCH  14  15
ENDBRANCH   7   9
ENDBRANCH   4   5
ENDBRANCH   3   4
ENDBRANCH   2   3
ENDBRANCH   1   2
BRANCH   1  65
ATOM     65  N   UNL A   1      35.663  22.024  26.492  1.00  0.00    -0.351 N 
ATOM     66  C   UNL A   1      34.397  21.697  26.077  1.00  0.00     0.283 C 
ATOM     67  H   UNL A   1      35.799  22.060  27.466  1.00  0.00     0.163 HD
ATOM     68  O   UNL A   1      33.661  21.195  26.939  1.00  0.00    -0.268 OA
BRANCH  66  69
ATOM     69  C   UNL A   1      33.863  21.928  24.631  1.00  0.00     0.308 C 
BRANCH  69  70
ATOM     70  C   UNL A   1      33.210  20.687  24.006  1.00  0.00     0.044 A 
ATOM     71  C   UNL A   1      32.197  20.804  23.058  1.00  0.00     0.094 A 
ATOM     72  C   UNL A   1      33.465  19.263  24.111  1.00  0.00     0.011 A 
ATOM     73  N   UNL A   1      31.938  19.579  22.518  1.00  0.00    -0.361 N 
ATOM     74  C   UNL A   1      32.775  18.641  23.063  1.00  0.00     0.046 A 
ATOM     75  C   UNL A   1      34.283  18.430  24.910  1.00  0.00     0.031 A 
ATOM     76  H   UNL A   1      31.250  19.397  21.837  1.00  0.00     0.166 HD
ATOM     77  C   UNL A   1      32.961  17.300  22.699  1.00  0.00     0.028 A 
ATOM     78  C   UNL A   1      34.523  17.105  24.527  1.00  0.00     0.041 A 
ATOM     79  C   UNL A   1      33.888  16.551  23.425  1.00  0.00     0.022 A 
ATOM     80  Cl  UNL A   1      35.681  16.176  25.399  1.00  0.00    -0.084 Cl
ENDBRANCH  69  70
BRANCH  69  81
ATOM     81  N   UNL A   1      33.196  23.218  24.348  1.00  0.00    -0.312 N 
ATOM     82  C   UNL A   1      32.121  23.666  25.228  1.00  0.00     0.325 C 
ATOM     83  C   UNL A   1      34.124  24.348  24.105  1.00  0.00     0.325 C 
ATOM     84  H   UNL A   1      32.730  22.946  23.484  1.00  0.00     0.349 HD
ATOM     85  C   UNL A   1      32.528  24.476  26.476  1.00  0.00     0.324 C 
ATOM     86  C   UNL A   1      34.458  25.274  25.307  1.00  0.00     0.324 C 
ATOM     87  N   UNL A   1      33.340  25.652  26.186  1.00  0.00    -0.324 N 
ATOM     88  H   UNL A   1      33.748  25.970  27.066  1.00  0.00     0.348 HD
BRANCH  87  89
ATOM     89  C   UNL A   1      32.600  26.871  25.818  1.00  0.00     0.283 C 
BRANCH  89  90
ATOM     90  C   UNL A   1      31.307  26.826  24.958  1.00  0.00     0.174 C 
BRANCH  90  91
ATOM     91  N   UNL A   1      31.209  27.970  24.048  1.00  0.00    -0.379 N 
ATOM     92  H   UNL A   1      31.424  27.790  23.105  1.00  0.00     0.160 HD
BRANCH  91  93
ATOM     93  C   UNL A   1      30.850  29.277  24.349  1.00  0.00     0.053 A 
ATOM     94  C   UNL A   1      31.395  30.007  25.332  1.00  0.00     0.120 A 
ATOM     95  C   UNL A   1      29.799  29.929  23.534  1.00  0.00     0.041 A 
ATOM     96  C   UNL A   1      30.967  31.366  25.687  1.00  0.00     0.338 A 
ATOM     97  C   UNL A   1      29.339  31.195  23.908  1.00  0.00     0.140 A 
ATOM     98  C   UNL A   1      29.247  29.368  22.373  1.00  0.00     0.014 A 
ATOM     99  O   UNL A   1      31.528  31.982  26.587  1.00  0.00    -0.246 OA
ATOM    100  O   UNL A   1      29.889  31.888  25.000  1.00  0.00    -0.423 OA
ATOM    101  C   UNL A   1      28.337  31.868  23.203  1.00  0.00     0.048 A 
ATOM    102  C   UNL A   1      28.245  30.033  21.656  1.00  0.00     0.001 A 
ATOM    103  C   UNL A   1      27.786  31.280  22.073  1.00  0.00     0.004 A 
ENDBRANCH  91  93
ENDBRANCH  90  91
ENDBRANCH  89  90
ENDBRANCH  87  89
ENDBRANCH  69  81
ENDBRANCH  66  69
ENDBRANCH   1  65
TORSDOF 17
ENDMDL
MODEL 2
REMARK VINA RESULT:     -13.9      1.557      2.242
REMARK SMILES O=C(NCCCCNC(=O)[C@@H](c1c[nH]c2ccc(Cl)cc12)[NH+]1CC[NH+](CCNc2cc(=O)oc3ccccc23)CC1)c1ccc(-c2c3nc(c(-c4c(F)cccc4F)c4ccc([nH]4)c(-c4c(F)cccc4F)c4nc(c(-c5c(F)cccc5F)c5ccc2[nH]5)C=C4)C=C3)cc1
REMARK SMILES IDX 7 1 6 2 5 3 4 4 3 5 1 6 2 7 42 9 43 10 95 11 44 12 94 13
REMARK SMILES IDX 45 14 46 15 47 16 88 17 48 18 93 19 87 20 89 21 49 22 92 23
REMARK SMILES IDX 86 24 85 25 50 27 76 28 59 29 75 30 60 31 63 32 74 33 90 34
REMARK SMILES IDX 61 35 62 36 73 38 91 39 64 40 51 41 52 42 57 43 53 44 54 45
REMARK SMILES IDX 56 46 58 47 55 48 77 49 78 50 83 51 79 52 80 53 82 54 84 55
REMARK SMILES IDX 81 56 65 57 66 58 71 59 67 60 68 61 70 62 72 63 69 64 8 65
REMARK SMILES IDX 9 66 10 68 11 69 12 70 13 71 21 72 14 73 15 74 20 75 16 77
REMARK SMILES IDX 18 78 17 79 19 80 22 81 23 82 41 83 24 85 40 86 25 87 26 89
REMARK SMILES IDX 27 90 28 91 29 93 30 94 39 95 31 96 34 97 38 98 32 99 33 100
REMARK SMILES IDX 35 101 37 102 36 103
REMARK H PARENT 3 8 89 26 63 37 8 67 14 76 22 84 25 88 28 92
REMARK Flexibility Score: inf
ROOT
ATOM      1  C   UNL A   1      36.335  23.011  25.242  1.00  0.00     0.116 C 
ENDROOT
BRANCH   1   2
ATOM      2  C   UNL A   1      36.761  21.914  24.280  1.00  0.00     0.023 C 
BRANCH   2   3
ATOM      3  C   UNL A   1      37.323  20.671  24.958  1.00  0.00     0.023 C 
BRANCH   3   4
ATOM      4  C   UNL A   1      38.659  20.855  25.675  1.00  0.00     0.116 C 
BRANCH   4   5
ATOM      5  N   UNL A   1      39.564  19.717  25.598  1.00  0.00    -0.352 N 
ATOM      6  O   UNL A   1      41.569  18.669  25.786  1.00  0.00    -0.269 OA
ATOM      7  C   UNL A   1      40.892  19.666  25.974  1.00  0.00     0.251 C 
ATOM      8  H   UNL A   1      39.184  18.885  25.234  1.00  0.00     0.163 HD
BRANCH   7   9
ATOM      9  C   UNL A   1      41.505  20.869  26.582  1.00  0.00     0.039 A 
ATOM     10  C   UNL A   1      41.372  21.124  27.950  1.00  0.00     0.014 A 
ATOM     11  C   UNL A   1      42.154  21.783  25.751  1.00  0.00     0.014 A 
ATOM     12  C   UNL A   1      41.724  22.369  28.454  1.00  0.00     0.010 A 
ATOM     13  C   UNL A   1      42.582  23.004  26.275  1.00  0.00     0.010 A 
ATOM     14  C   UNL A   1      42.324  23.323  27.619  1.00  0.00    -0.014 A 
BRANCH  14  15
ATOM     15  C   UNL A   1      42.687  24.651  28.162  1.00  0.00     0.031 A 
ATOM     16  C   UNL A   1      41.628  25.689  28.406  1.00  0.00     0.074 A 
ATOM     17  C   UNL A   1      43.981  24.910  28.430  1.00  0.00     0.049 A 
ATOM     18  N   UNL A   1      41.767  26.936  28.774  1.00  0.00    -0.248 NA
ATOM     19  C   UNL A   1      40.228  25.277  28.206  1.00  0.00     0.031 C 
ATOM     20  C   UNL A   1      45.086  23.967  28.239  1.00  0.00     0.029 A 
ATOM     21  N   UNL A   1      44.588  26.042  28.906  1.00  0.00    -0.354 N 
ATOM     22  C   UNL A   1      40.484  27.468  28.813  1.00  0.00     0.074 A 
ATOM     23  C   UNL A   1      39.575  26.410  28.430  1.00  0.00     0.031 C 
ATOM     24  C   UNL A   1      46.234  24.557  28.598  1.00  0.00     0.029 A 
ATOM     25  C   UNL A   1      45.955  25.937  28.977  1.00  0.00     0.049 A 
ATOM     26  H   UNL A   1      44.093  26.850  29.171  1.00  0.00     0.167 HD
ATOM     27  C   UNL A   1      40.108  28.728  29.136  1.00  0.00     0.037 A 
ATOM     28  C   UNL A   1      46.886  26.863  29.266  1.00  0.00     0.037 A 
ATOM     29  C   UNL A   1      41.024  29.758  29.552  1.00  0.00     0.049 A 
ATOM     30  C   UNL A   1      46.439  28.260  29.588  1.00  0.00     0.074 A 
ATOM     31  C   UNL A   1      40.740  31.045  29.976  1.00  0.00     0.029 A 
ATOM     32  N   UNL A   1      42.403  29.618  29.593  1.00  0.00    -0.354 N 
ATOM     33  N   UNL A   1      45.222  28.741  29.651  1.00  0.00    -0.248 NA
ATOM     34  C   UNL A   1      47.494  29.243  29.864  1.00  0.00     0.031 C 
ATOM     35  C   UNL A   1      41.951  31.697  30.227  1.00  0.00     0.029 A 
ATOM     36  C   UNL A   1      42.986  30.806  29.999  1.00  0.00     0.049 A 
ATOM     37  H   UNL A   1      42.894  28.796  29.367  1.00  0.00     0.167 HD
ATOM     38  C   UNL A   1      45.360  30.082  29.974  1.00  0.00     0.074 A 
ATOM     39  C   UNL A   1      46.780  30.331  30.122  1.00  0.00     0.031 C 
ATOM     40  C   UNL A   1      44.402  31.027  30.126  1.00  0.00     0.037 A 
BRANCH  27  41
ATOM     41  C   UNL A   1      38.655  29.082  29.036  1.00  0.00     0.057 A 
ATOM     42  C   UNL A   1      37.795  29.015  30.138  1.00  0.00     0.134 A 
ATOM     43  C   UNL A   1      38.130  29.581  27.836  1.00  0.00     0.134 A 
ATOM     44  F   UNL A   1      38.231  28.538  31.314  1.00  0.00    -0.206 F 
ATOM     45  C   UNL A   1      36.463  29.427  30.050  1.00  0.00     0.040 A 
ATOM     46  C   UNL A   1      36.806  30.012  27.740  1.00  0.00     0.040 A 
ATOM     47  F   UNL A   1      38.902  29.676  26.743  1.00  0.00    -0.206 F 
ATOM     48  C   UNL A   1      35.968  29.936  28.850  1.00  0.00     0.006 A 
ENDBRANCH  27  41
BRANCH  28  49
ATOM     49  C   UNL A   1      48.324  26.511  29.200  1.00  0.00     0.057 A 
ATOM     50  C   UNL A   1      49.061  26.675  28.023  1.00  0.00     0.134 A 
ATOM     51  C   UNL A   1      48.999  26.006  30.319  1.00  0.00     0.134 A 
ATOM     52  F   UNL A   1      48.466  27.138  26.913  1.00  0.00    -0.206 F 
ATOM     53  C   UNL A   1      50.414  26.338  27.957  1.00  0.00     0.040 A 
ATOM     54  C   UNL A   1      50.357  25.689  30.275  1.00  0.00     0.040 A 
ATOM     55  F   UNL A   1      48.349  25.831  31.480  1.00  0.00    -0.206 F 
ATOM     56  C   UNL A   1      51.066  25.850  29.088  1.00  0.00     0.006 A 
ENDBRANCH  28  49
BRANCH  40  57
ATOM     57  C   UNL A   1      44.867  32.409  30.466  1.00  0.00     0.057 A 
ATOM     58  C   UNL A   1      45.083  32.800  31.793  1.00  0.00     0.134 A 
ATOM     59  C   UNL A   1      45.127  33.347  29.459  1.00  0.00     0.134 A 
ATOM     60  F   UNL A   1      44.835  31.949  32.801  1.00  0.00    -0.206 F 
ATOM     61  C   UNL A   1      45.525  34.084  32.109  1.00  0.00     0.040 A 
ATOM     62  C   UNL A   1      45.591  34.626  29.761  1.00  0.00     0.040 A 
ATOM     63  F   UNL A   1      44.945  33.029  28.169  1.00  0.00    -0.206 F 
ATOM     64  C   UNL A   1      45.787  34.999  31.091  1.00  0.00     0.006 A 
ENDBRANCH  40  57
ENDBRANCH  14  15
ENDBRANCH   7   9
ENDBRANCH   4   5
ENDBRANCH   3   4
ENDBRANCH   2   3
ENDBRANCH   1   2
BRANCH   1  65
ATOM     65  N   UNL A   1      35.202  22.710  26.081  1.00  0.00    -0.351 N 
ATOM     66  C   UNL A   1      33.892  22.526  25.714  1.00  0.00     0.283 C 
ATOM     67  H   UNL A   1      35.393  22.625  27.043  1.00  0.00     0.163 HD
ATOM     68  O   UNL A   1      33.167  21.986  26.561  1.00  0.00    -0.268 OA
BRANCH  66  69
ATOM     69  C   UNL A   1      33.300  22.959  24.339  1.00  0.00     0.308 C 
BRANCH  69  70
ATOM     70  C   UNL A   1      32.659  21.808  23.551  1.00  0.00     0.044 A 
ATOM     71  C   UNL A   1      31.913  22.048  22.400  1.00  0.00     0.094 A 
ATOM     72  C   UNL A   1      32.704  20.364  23.675  1.00  0.00     0.011 A 
ATOM     73  N   UNL A   1      31.635  20.864  21.784  1.00  0.00    -0.361 N 
ATOM     74  C   UNL A   1      32.202  19.829  22.483  1.00  0.00     0.046 A 
ATOM     75  C   UNL A   1      33.207  19.437  24.619  1.00  0.00     0.031 A 
ATOM     76  H   UNL A   1      31.105  20.768  20.960  1.00  0.00     0.166 HD
ATOM     77  C   UNL A   1      32.298  18.474  22.138  1.00  0.00     0.028 A 
ATOM     78  C   UNL A   1      33.361  18.091  24.269  1.00  0.00     0.041 A 
ATOM     79  C   UNL A   1      32.933  17.617  23.037  1.00  0.00     0.022 A 
ATOM     80  Cl  UNL A   1      34.163  17.026  25.358  1.00  0.00    -0.084 Cl
ENDBRANCH  69  70
BRANCH  69  81
ATOM     81  N   UNL A   1      32.589  24.255  24.280  1.00  0.00    -0.312 N 
ATOM     82  C   UNL A   1      31.287  24.377  24.929  1.00  0.00     0.325 C 
ATOM     83  C   UNL A   1      33.420  25.428  24.639  1.00  0.00     0.325 C 
ATOM     84  H   UNL A   1      32.384  24.254  23.282  1.00  0.00     0.349 HD
ATOM     85  C   UNL A   1      31.282  24.767  26.421  1.00  0.00     0.324 C 
ATOM     86  C   UNL A   1      33.343  25.941  26.104  1.00  0.00     0.324 C 
ATOM     87  N   UNL A   1      32.008  25.996  26.721  1.00  0.00    -0.324 N 
ATOM     88  H   UNL A   1      32.148  26.034  27.731  1.00  0.00     0.348 HD
BRANCH  87  89
ATOM     89  C   UNL A   1      31.255  27.249  26.542  1.00  0.00     0.283 C 
BRANCH  89  90
ATOM     90  C   UNL A   1      31.946  28.641  26.565  1.00  0.00     0.174 C 
BRANCH  90  91
ATOM     91  N   UNL A   1      31.454  29.518  25.501  1.00  0.00    -0.379 N 
ATOM     92  H   UNL A   1      31.494  30.484  25.687  1.00  0.00     0.160 HD
BRANCH  91  93
ATOM     93  C   UNL A   1      30.939  29.160  24.263  1.00  0.00     0.053 A 
ATOM     94  C   UNL A   1      31.265  28.041  23.600  1.00  0.00     0.120 A 
ATOM     95  C   UNL A   1      29.954  30.058  23.617  1.00  0.00     0.041 A 
ATOM     96  C   UNL A   1      30.766  27.699  22.262  1.00  0.00     0.338 A 
ATOM     97  C   UNL A   1      29.527  29.774  22.317  1.00  0.00     0.140 A 
ATOM     98  C   UNL A   1      29.385  31.176  24.244  1.00  0.00     0.014 A 
ATOM     99  O   UNL A   1      31.093  26.645  21.725  1.00  0.00    -0.246 OA
ATOM    100  O   UNL A   1      29.963  28.627  21.631  1.00  0.00    -0.423 OA
ATOM    101  C   UNL A   1      28.617  30.583  21.631  1.00  0.00     0.048 A 
ATOM    102  C   UNL A   1      28.469  31.993  23.570  1.00  0.00     0.001 A 
ATOM    103  C   UNL A   1      28.089  31.700  22.263  1.00  0.00     0.004 A 
ENDBRANCH  91  93
ENDBRANCH  90  91
ENDBRANCH  89  90
ENDBRANCH  87  89
ENDBRANCH  69  81
ENDBRANCH  66  69
ENDBRANCH   1  65
TORSDOF 17
ENDMDL
MODEL 3
REMARK VINA RESULT:     -13.9      1.554      2.247
REMARK SMILES O=C(NCCCCNC(=O)[C@@H](c1c[nH]c2ccc(Cl)cc12)[NH+]1CC[NH+](CCNc2cc(=O)oc3ccccc23)CC1)c1ccc(-c2c3nc(c(-c4c(F)cccc4F)c4ccc([nH]4)c(-c4c(F)cccc4F)c4nc(c(-c5c(F)cccc5F)c5ccc2[nH]5)C=C4)C=C3)cc1
REMARK SMILES IDX 7 1 6 2 5 3 4 4 3 5 1 6 2 7 42 9 43 10 95 11 44 12 94 13
REMARK SMILES IDX 45 14 46 15 47 16 88 17 48 18 93 19 87 20 89 21 49 22 92 23
REMARK SMILES IDX 86 24 85 25 50 27 76 28 59 29 75 30 60 31 63 32 74 33 90 34
REMARK SMILES IDX 61 35 62 36 73 38 91 39 64 40 51 41 52 42 57 43 53 44 54 45
REMARK SMILES IDX 56 46 58 47 55 48 77 49 78 50 83 51 79 52 80 53 82 54 84 55
REMARK SMILES IDX 81 56 65 57 66 58 71 59 67 60 68 61 70 62 72 63 69 64 8 65
REMARK SMILES IDX 9 66 10 68 11 69 12 70 13 71 21 72 14 73 15 74 20 75 16 77
REMARK SMILES IDX 18 78 17 79 19 80 22 81 23 82 41 83 24 85 40 86 25 87 26 89
REMARK SMILES IDX 27 90 28 91 29 93 30 94 39 95 31 96 34 97 38 98 32 99 33 100
REMARK SMILES IDX 35 101 37 102 36 103
REMARK H PARENT 3 8 89 26 63 37 8 67 14 76 22 84 25 88 28 92
REMARK Flexibility Score: inf
ROOT
ATOM      1  C   UNL A   1      36.602  22.583  25.587  1.00  0.00     0.116 C 
ENDROOT
BRANCH   1   2
ATOM      2  C   UNL A   1      37.024  21.608  24.499  1.00  0.00     0.023 C 
BRANCH   2   3
ATOM      3  C   UNL A   1      37.655  20.324  25.021  1.00  0.00     0.023 C 
BRANCH   3   4
ATOM      4  C   UNL A   1      38.984  20.489  25.753  1.00  0.00     0.116 C 
BRANCH   4   5
ATOM      5  N   UNL A   1      39.853  19.320  25.730  1.00  0.00    -0.352 N 
ATOM      6  O   UNL A   1      41.844  18.235  25.853  1.00  0.00    -0.269 OA
ATOM      7  C   UNL A   1      41.210  19.270  25.981  1.00  0.00     0.251 C 
ATOM      8  H   UNL A   1      39.421  18.464  25.509  1.00  0.00     0.163 HD
BRANCH   7   9
ATOM      9  C   UNL A   1      41.907  20.516  26.375  1.00  0.00     0.039 A 
ATOM     10  C   UNL A   1      42.129  20.814  27.722  1.00  0.00     0.014 A 
ATOM     11  C   UNL A   1      42.268  21.426  25.380  1.00  0.00     0.014 A 
ATOM     12  C   UNL A   1      42.545  22.088  28.084  1.00  0.00     0.010 A 
ATOM     13  C   UNL A   1      42.763  22.679  25.742  1.00  0.00     0.010 A 
ATOM     14  C   UNL A   1      42.856  23.035  27.097  1.00  0.00    -0.014 A 
BRANCH  14  15
ATOM     15  C   UNL A   1      43.289  24.394  27.493  1.00  0.00     0.031 A 
ATOM     16  C   UNL A   1      42.281  25.413  27.944  1.00  0.00     0.074 A 
ATOM     17  C   UNL A   1      44.599  24.699  27.438  1.00  0.00     0.049 A 
ATOM     18  N   UNL A   1      42.457  26.678  28.225  1.00  0.00    -0.248 NA
ATOM     19  C   UNL A   1      40.889  24.955  28.095  1.00  0.00     0.031 C 
ATOM     20  C   UNL A   1      45.662  23.779  27.024  1.00  0.00     0.029 A 
ATOM     21  N   UNL A   1      45.259  25.866  27.717  1.00  0.00    -0.354 N 
ATOM     22  C   UNL A   1      41.201  27.176  28.547  1.00  0.00     0.074 A 
ATOM     23  C   UNL A   1      40.266  26.078  28.428  1.00  0.00     0.031 C 
ATOM     24  C   UNL A   1      46.840  24.414  27.080  1.00  0.00     0.029 A 
ATOM     25  C   UNL A   1      46.608  25.801  27.466  1.00  0.00     0.049 A 
ATOM     26  H   UNL A   1      44.812  26.671  28.063  1.00  0.00     0.167 HD
ATOM     27  C   UNL A   1      40.866  28.438  28.906  1.00  0.00     0.037 A 
ATOM     28  C   UNL A   1      47.546  26.764  27.494  1.00  0.00     0.037 A 
ATOM     29  C   UNL A   1      41.816  29.509  29.058  1.00  0.00     0.049 A 
ATOM     30  C   UNL A   1      47.138  28.160  27.864  1.00  0.00     0.074 A 
ATOM     31  C   UNL A   1      41.593  30.804  29.492  1.00  0.00     0.029 A 
ATOM     32  N   UNL A   1      43.170  29.407  28.776  1.00  0.00    -0.354 N 
ATOM     33  N   UNL A   1      45.953  28.610  28.196  1.00  0.00    -0.248 NA
ATOM     34  C   UNL A   1      48.191  29.183  27.848  1.00  0.00     0.031 C 
ATOM     35  C   UNL A   1      42.805  31.500  29.427  1.00  0.00     0.029 A 
ATOM     36  C   UNL A   1      43.789  30.627  28.991  1.00  0.00     0.049 A 
ATOM     37  H   UNL A   1      43.624  28.590  28.469  1.00  0.00     0.167 HD
ATOM     38  C   UNL A   1      46.115  29.967  28.430  1.00  0.00     0.074 A 
ATOM     39  C   UNL A   1      47.520  30.260  28.229  1.00  0.00     0.031 C 
ATOM     40  C   UNL A   1      45.186  30.892  28.771  1.00  0.00     0.037 A 
BRANCH  27  41
ATOM     41  C   UNL A   1      39.418  28.748  29.141  1.00  0.00     0.057 A 
ATOM     42  C   UNL A   1      38.816  28.588  30.394  1.00  0.00     0.134 A 
ATOM     43  C   UNL A   1      38.638  29.298  28.115  1.00  0.00     0.134 A 
ATOM     44  F   UNL A   1      39.504  28.059  31.417  1.00  0.00    -0.206 F 
ATOM     45  C   UNL A   1      37.488  28.959  30.618  1.00  0.00     0.040 A 
ATOM     46  C   UNL A   1      37.315  29.689  28.330  1.00  0.00     0.040 A 
ATOM     47  F   UNL A   1      39.156  29.482  26.891  1.00  0.00    -0.206 F 
ATOM     48  C   UNL A   1      36.737  29.521  29.586  1.00  0.00     0.006 A 
ENDBRANCH  27  41
BRANCH  28  49
ATOM     49  C   UNL A   1      48.941  26.448  27.102  1.00  0.00     0.057 A 
ATOM     50  C   UNL A   1      49.898  26.078  28.051  1.00  0.00     0.134 A 
ATOM     51  C   UNL A   1      49.348  26.504  25.762  1.00  0.00     0.134 A 
ATOM     52  F   UNL A   1      49.573  26.023  29.352  1.00  0.00    -0.206 F 
ATOM     53  C   UNL A   1      51.214  25.787  27.686  1.00  0.00     0.040 A 
ATOM     54  C   UNL A   1      50.652  26.191  25.379  1.00  0.00     0.040 A 
ATOM     55  F   UNL A   1      48.475  26.847  24.802  1.00  0.00    -0.206 F 
ATOM     56  C   UNL A   1      51.590  25.837  26.345  1.00  0.00     0.006 A 
ENDBRANCH  28  49
BRANCH  40  57
ATOM     57  C   UNL A   1      45.668  32.299  28.943  1.00  0.00     0.057 A 
ATOM     58  C   UNL A   1      46.162  32.755  30.171  1.00  0.00     0.134 A 
ATOM     59  C   UNL A   1      45.662  33.196  27.868  1.00  0.00     0.134 A 
ATOM     60  F   UNL A   1      46.176  31.946  31.241  1.00  0.00    -0.206 F 
ATOM     61  C   UNL A   1      46.619  34.063  30.329  1.00  0.00     0.040 A 
ATOM     62  C   UNL A   1      46.138  34.499  28.008  1.00  0.00     0.040 A 
ATOM     63  F   UNL A   1      45.206  32.815  26.666  1.00  0.00    -0.206 F 
ATOM     64  C   UNL A   1      46.614  34.937  29.243  1.00  0.00     0.006 A 
ENDBRANCH  40  57
ENDBRANCH  14  15
ENDBRANCH   7   9
ENDBRANCH   4   5
ENDBRANCH   3   4
ENDBRANCH   2   3
ENDBRANCH   1   2
BRANCH   1  65
ATOM     65  N   UNL A   1      35.524  22.149  26.439  1.00  0.00    -0.351 N 
ATOM     66  C   UNL A   1      34.278  21.701  26.079  1.00  0.00     0.283 C 
ATOM     67  H   UNL A   1      35.705  22.179  27.406  1.00  0.00     0.163 HD
ATOM     68  O   UNL A   1      33.642  21.108  26.963  1.00  0.00    -0.268 OA
BRANCH  66  69
ATOM     69  C   UNL A   1      33.648  21.905  24.668  1.00  0.00     0.308 C 
BRANCH  69  70
ATOM     70  C   UNL A   1      33.129  20.610  24.028  1.00  0.00     0.044 A 
ATOM     71  C   UNL A   1      32.153  20.635  23.036  1.00  0.00     0.094 A 
ATOM     72  C   UNL A   1      33.497  19.213  24.158  1.00  0.00     0.011 A 
ATOM     73  N   UNL A   1      32.020  19.390  22.497  1.00  0.00    -0.361 N 
ATOM     74  C   UNL A   1      32.908  18.529  23.088  1.00  0.00     0.046 A 
ATOM     75  C   UNL A   1      34.345  18.457  25.000  1.00  0.00     0.031 A 
ATOM     76  H   UNL A   1      31.380  19.147  21.789  1.00  0.00     0.166 HD
ATOM     77  C   UNL A   1      33.220  17.206  22.746  1.00  0.00     0.028 A 
ATOM     78  C   UNL A   1      34.711  17.154  24.642  1.00  0.00     0.041 A 
ATOM     79  C   UNL A   1      34.174  16.541  23.519  1.00  0.00     0.022 A 
ATOM     80  Cl  UNL A   1      35.902  16.330  25.573  1.00  0.00    -0.084 Cl
ENDBRANCH  69  70
BRANCH  69  81
ATOM     81  N   UNL A   1      32.810  23.107  24.462  1.00  0.00    -0.312 N 
ATOM     82  C   UNL A   1      31.358  22.960  24.438  1.00  0.00     0.325 C 
ATOM     83  C   UNL A   1      33.166  24.258  25.324  1.00  0.00     0.325 C 
ATOM     84  H   UNL A   1      33.070  23.292  23.494  1.00  0.00     0.349 HD
ATOM     85  C   UNL A   1      30.624  23.031  25.793  1.00  0.00     0.324 C 
ATOM     86  C   UNL A   1      32.358  24.447  26.639  1.00  0.00     0.324 C 
ATOM     87  N   UNL A   1      30.904  24.238  26.562  1.00  0.00    -0.324 N 
ATOM     88  H   UNL A   1      30.575  24.080  27.515  1.00  0.00     0.348 HD
BRANCH  87  89
ATOM     89  C   UNL A   1      30.089  25.418  26.226  1.00  0.00     0.283 C 
BRANCH  89  90
ATOM     90  C   UNL A   1      29.706  25.770  24.762  1.00  0.00     0.174 C 
BRANCH  90  91
ATOM     91  N   UNL A   1      30.184  27.099  24.371  1.00  0.00    -0.379 N 
ATOM     92  H   UNL A   1      29.492  27.789  24.260  1.00  0.00     0.160 HD
BRANCH  91  93
ATOM     93  C   UNL A   1      31.490  27.506  24.140  1.00  0.00     0.053 A 
ATOM     94  C   UNL A   1      32.121  27.403  22.961  1.00  0.00     0.120 A 
ATOM     95  C   UNL A   1      32.255  28.107  25.257  1.00  0.00     0.041 A 
ATOM     96  C   UNL A   1      33.523  27.776  22.738  1.00  0.00     0.338 A 
ATOM     97  C   UNL A   1      33.609  28.401  25.072  1.00  0.00     0.140 A 
ATOM     98  C   UNL A   1      31.695  28.436  26.501  1.00  0.00     0.014 A 
ATOM     99  O   UNL A   1      34.027  27.673  21.625  1.00  0.00    -0.246 OA
ATOM    100  O   UNL A   1      34.246  28.198  23.836  1.00  0.00    -0.423 OA
ATOM    101  C   UNL A   1      34.403  28.949  26.083  1.00  0.00     0.048 A 
ATOM    102  C   UNL A   1      32.480  28.989  27.521  1.00  0.00     0.001 A 
ATOM    103  C   UNL A   1      33.833  29.241  27.315  1.00  0.00     0.004 A 
ENDBRANCH  91  93
ENDBRANCH  90  91
ENDBRANCH  89  90
ENDBRANCH  87  89
ENDBRANCH  69  81
ENDBRANCH  66  69
ENDBRANCH   1  65
TORSDOF 17
ENDMDL
