MODEL 1
REMARK VINA RESULT:     -13.5      0.000      0.000
REMARK SMILES Cc1ccccc1OC1(C(=O)NCCCCNC(=O)c2ccc(-c3c4nc(c(-c5c(F)cccc5F)c5ccc([nH]5)c(-c5c(F)cccc5F)c5nc(c(-c6c(F)cccc6F)c6ccc3[nH]6)C=C5)C=C4)cc2)CCN(C(=O)[C@H]2CCCCO2)CC1
REMARK SMILES IDX 14 1 13 2 12 3 10 4 11 5 9 7 74 8 86 9 75 10 85 11 76 12
REMARK SMILES IDX 77 13 78 14 8 15 7 16 1 17 2 18 3 19 4 20 6 21 5 22 79 23
REMARK SMILES IDX 80 24 84 25 81 26 83 27 82 28 15 29 16 30 17 31 18 32 19 34
REMARK SMILES IDX 20 35 21 36 73 37 22 38 72 39 23 40 24 41 25 42 66 43 26 44
REMARK SMILES IDX 71 45 65 46 67 47 27 48 70 49 64 50 63 51 28 53 54 54 37 55
REMARK SMILES IDX 53 56 38 57 41 58 52 59 68 60 39 61 40 62 51 64 69 65 42 66
REMARK SMILES IDX 29 67 30 68 35 69 31 70 32 71 34 72 36 73 33 74 55 75 56 76
REMARK SMILES IDX 61 77 57 78 58 79 60 80 62 81 59 82 43 83 44 84 49 85 45 86
REMARK SMILES IDX 46 87 48 88 50 89 47 90
REMARK H PARENT 12 6 17 33 67 52 41 63
REMARK Flexibility Score: inf
ROOT
ATOM      1  C   UNL A   1      37.944  21.083  25.322  1.00  0.00     0.023 C 
ENDROOT
BRANCH   1   2
ATOM      2  C   UNL A   1      36.944  22.249  25.334  1.00  0.00     0.116 C 
BRANCH   2   3
ATOM      3  N   UNL A   1      36.047  22.229  26.474  1.00  0.00    -0.353 N 
ATOM      4  C   UNL A   1      34.699  22.409  26.621  1.00  0.00     0.264 C 
ATOM      5  O   UNL A   1      34.294  22.214  27.775  1.00  0.00    -0.270 OA
ATOM      6  H   UNL A   1      36.507  22.048  27.325  1.00  0.00     0.163 HD
BRANCH   4   7
ATOM      7  C   UNL A   1      33.722  22.827  25.446  1.00  0.00     0.190 C 
ATOM      8  C   UNL A   1      32.296  22.598  25.925  1.00  0.00     0.080 C 
ATOM      9  C   UNL A   1      34.142  24.214  24.952  1.00  0.00     0.080 C 
ATOM     10  C   UNL A   1      31.489  23.844  26.231  1.00  0.00     0.124 C 
ATOM     11  C   UNL A   1      33.143  25.358  25.095  1.00  0.00     0.124 C 
ATOM     12  N   UNL A   1      31.762  25.006  25.404  1.00  0.00    -0.340 N 
ATOM     13  C   UNL A   1      30.687  25.891  25.229  1.00  0.00     0.251 C 
ATOM     14  O   UNL A   1      29.598  25.666  25.767  1.00  0.00    -0.272 OA
BRANCH   7  15
ATOM     15  O   UNL A   1      34.063  21.830  24.439  1.00  0.00    -0.477 OA
BRANCH  15  16
ATOM     16  C   UNL A   1      33.508  20.643  24.064  1.00  0.00     0.123 A 
ATOM     17  C   UNL A   1      31.747  21.220  22.248  1.00  0.00     0.048 C 
ATOM     18  C   UNL A   1      32.517  20.300  23.131  1.00  0.00    -0.009 A 
ATOM     19  C   UNL A   1      32.109  18.947  23.012  1.00  0.00     0.007 A 
ATOM     20  C   UNL A   1      32.677  17.936  23.774  1.00  0.00     0.001 A 
ATOM     21  C   UNL A   1      34.065  19.594  24.824  1.00  0.00     0.047 A 
ATOM     22  C   UNL A   1      33.664  18.261  24.684  1.00  0.00     0.004 A 
ENDBRANCH  15  16
ENDBRANCH   7  15
BRANCH  13  23
ATOM     23  C   UNL A   1      30.880  27.121  24.310  1.00  0.00     0.207 C 
ATOM     24  C   UNL A   1      29.602  27.311  23.481  1.00  0.00     0.042 C 
ATOM     25  O   UNL A   1      31.131  28.261  25.139  1.00  0.00    -0.368 OA
ATOM     26  C   UNL A   1      29.571  28.652  22.760  1.00  0.00     0.006 C 
ATOM     27  C   UNL A   1      31.221  29.483  24.421  1.00  0.00     0.161 C 
ATOM     28  C   UNL A   1      29.905  29.780  23.722  1.00  0.00     0.029 C 
ENDBRANCH  13  23
ENDBRANCH   4   7
ENDBRANCH   2   3
ENDBRANCH   1   2
BRANCH   1  29
ATOM     29  C   UNL A   1      39.274  21.351  26.018  1.00  0.00     0.023 C 
BRANCH  29  30
ATOM     30  C   UNL A   1      39.414  22.763  26.566  1.00  0.00     0.116 C 
BRANCH  30  31
ATOM     31  N   UNL A   1      40.726  23.094  27.107  1.00  0.00    -0.352 N 
ATOM     32  C   UNL A   1      41.255  24.331  27.458  1.00  0.00     0.251 C 
ATOM     33  H   UNL A   1      41.329  22.327  27.242  1.00  0.00     0.163 HD
ATOM     34  O   UNL A   1      42.410  24.414  27.838  1.00  0.00    -0.269 OA
BRANCH  32  35
ATOM     35  C   UNL A   1      40.363  25.521  27.537  1.00  0.00     0.039 A 
ATOM     36  C   UNL A   1      40.650  26.595  26.684  1.00  0.00     0.014 A 
ATOM     37  C   UNL A   1      39.481  25.695  28.595  1.00  0.00     0.014 A 
ATOM     38  C   UNL A   1      40.325  27.886  27.085  1.00  0.00     0.010 A 
ATOM     39  C   UNL A   1      39.268  26.974  29.063  1.00  0.00     0.010 A 
ATOM     40  C   UNL A   1      39.774  28.065  28.350  1.00  0.00    -0.014 A 
BRANCH  40  41
ATOM     41  C   UNL A   1      39.838  29.325  29.079  1.00  0.00     0.031 A 
ATOM     42  C   UNL A   1      38.798  30.350  28.891  1.00  0.00     0.074 A 
ATOM     43  C   UNL A   1      40.790  29.475  30.029  1.00  0.00     0.049 A 
ATOM     44  N   UNL A   1      38.917  31.585  29.243  1.00  0.00    -0.248 NA
ATOM     45  C   UNL A   1      37.542  30.067  28.211  1.00  0.00     0.031 C 
ATOM     46  C   UNL A   1      40.843  30.477  31.087  1.00  0.00     0.029 A 
ATOM     47  N   UNL A   1      42.038  28.841  30.088  1.00  0.00    -0.354 N 
ATOM     48  C   UNL A   1      37.682  32.183  29.112  1.00  0.00     0.074 A 
ATOM     49  C   UNL A   1      36.899  31.227  28.369  1.00  0.00     0.031 C 
ATOM     50  C   UNL A   1      42.112  30.593  31.511  1.00  0.00     0.029 A 
ATOM     51  C   UNL A   1      42.935  29.783  30.630  1.00  0.00     0.049 A 
ATOM     52  H   UNL A   1      42.247  27.920  29.806  1.00  0.00     0.167 HD
ATOM     53  C   UNL A   1      37.450  33.353  29.777  1.00  0.00     0.037 A 
ATOM     54  C   UNL A   1      43.981  30.260  29.893  1.00  0.00     0.037 A 
ATOM     55  C   UNL A   1      38.701  33.883  30.333  1.00  0.00     0.049 A 
ATOM     56  C   UNL A   1      43.925  31.750  29.641  1.00  0.00     0.074 A 
ATOM     57  C   UNL A   1      39.251  33.873  31.604  1.00  0.00     0.029 A 
ATOM     58  N   UNL A   1      39.726  34.264  29.468  1.00  0.00    -0.354 N 
ATOM     59  N   UNL A   1      42.855  32.479  29.805  1.00  0.00    -0.248 NA
ATOM     60  C   UNL A   1      45.061  32.534  29.162  1.00  0.00     0.031 C 
ATOM     61  C   UNL A   1      40.635  34.166  31.487  1.00  0.00     0.029 A 
ATOM     62  C   UNL A   1      40.921  34.385  30.151  1.00  0.00     0.049 A 
ATOM     63  H   UNL A   1      39.613  34.425  28.504  1.00  0.00     0.167 HD
ATOM     64  C   UNL A   1      43.116  33.772  29.436  1.00  0.00     0.074 A 
ATOM     65  C   UNL A   1      44.519  33.763  29.069  1.00  0.00     0.031 C 
ATOM     66  C   UNL A   1      42.148  34.736  29.447  1.00  0.00     0.037 A 
BRANCH  53  67
ATOM     67  C   UNL A   1      36.072  33.864  30.182  1.00  0.00     0.057 A 
ATOM     68  C   UNL A   1      35.167  34.329  29.202  1.00  0.00     0.134 A 
ATOM     69  C   UNL A   1      35.598  34.026  31.497  1.00  0.00     0.134 A 
ATOM     70  F   UNL A   1      35.401  34.165  27.893  1.00  0.00    -0.206 F 
ATOM     71  C   UNL A   1      33.969  34.994  29.509  1.00  0.00     0.040 A 
ATOM     72  C   UNL A   1      34.418  34.714  31.821  1.00  0.00     0.040 A 
ATOM     73  F   UNL A   1      36.211  33.489  32.551  1.00  0.00    -0.206 F 
ATOM     74  C   UNL A   1      33.604  35.219  30.824  1.00  0.00     0.006 A 
ENDBRANCH  53  67
BRANCH  54  75
ATOM     75  C   UNL A   1      44.547  29.249  28.963  1.00  0.00     0.057 A 
ATOM     76  C   UNL A   1      44.145  29.285  27.615  1.00  0.00     0.134 A 
ATOM     77  C   UNL A   1      45.717  28.545  29.260  1.00  0.00     0.134 A 
ATOM     78  F   UNL A   1      43.032  29.949  27.265  1.00  0.00    -0.206 F 
ATOM     79  C   UNL A   1      44.933  28.749  26.594  1.00  0.00     0.040 A 
ATOM     80  C   UNL A   1      46.510  27.995  28.245  1.00  0.00     0.040 A 
ATOM     81  F   UNL A   1      46.179  28.489  30.517  1.00  0.00    -0.206 F 
ATOM     82  C   UNL A   1      46.140  28.131  26.907  1.00  0.00     0.006 A 
ENDBRANCH  54  75
BRANCH  66  83
ATOM     83  C   UNL A   1      42.279  36.121  28.862  1.00  0.00     0.057 A 
ATOM     84  C   UNL A   1      42.955  37.180  29.485  1.00  0.00     0.134 A 
ATOM     85  C   UNL A   1      41.842  36.381  27.544  1.00  0.00     0.134 A 
ATOM     86  F   UNL A   1      43.517  37.041  30.693  1.00  0.00    -0.206 F 
ATOM     87  C   UNL A   1      43.138  38.424  28.863  1.00  0.00     0.040 A 
ATOM     88  C   UNL A   1      42.066  37.599  26.894  1.00  0.00     0.040 A 
ATOM     89  F   UNL A   1      41.198  35.452  26.821  1.00  0.00    -0.206 F 
ATOM     90  C   UNL A   1      42.704  38.632  27.560  1.00  0.00     0.006 A 
ENDBRANCH  66  83
ENDBRANCH  40  41
ENDBRANCH  32  35
ENDBRANCH  30  31
ENDBRANCH  29  30
ENDBRANCH   1  29
TORSDOF 14
ENDMDL
MODEL 2
REMARK VINA RESULT:     -13.4      3.733      9.436
REMARK SMILES Cc1ccccc1OC1(C(=O)NCCCCNC(=O)c2ccc(-c3c4nc(c(-c5c(F)cccc5F)c5ccc([nH]5)c(-c5c(F)cccc5F)c5nc(c(-c6c(F)cccc6F)c6ccc3[nH]6)C=C5)C=C4)cc2)CCN(C(=O)[C@H]2CCCCO2)CC1
REMARK SMILES IDX 14 1 13 2 12 3 10 4 11 5 9 7 74 8 86 9 75 10 85 11 76 12
REMARK SMILES IDX 77 13 78 14 8 15 7 16 1 17 2 18 3 19 4 20 6 21 5 22 79 23
REMARK SMILES IDX 80 24 84 25 81 26 83 27 82 28 15 29 16 30 17 31 18 32 19 34
REMARK SMILES IDX 20 35 21 36 73 37 22 38 72 39 23 40 24 41 25 42 66 43 26 44
REMARK SMILES IDX 71 45 65 46 67 47 27 48 70 49 64 50 63 51 28 53 54 54 37 55
REMARK SMILES IDX 53 56 38 57 41 58 52 59 68 60 39 61 40 62 51 64 69 65 42 66
REMARK SMILES IDX 29 67 30 68 35 69 31 70 32 71 34 72 36 73 33 74 55 75 56 76
REMARK SMILES IDX 61 77 57 78 58 79 60 80 62 81 59 82 43 83 44 84 49 85 45 86
REMARK SMILES IDX 46 87 48 88 50 89 47 90
REMARK H PARENT 12 6 17 33 67 52 41 63
REMARK Flexibility Score: inf
ROOT
ATOM      1  C   UNL A   1      33.004  29.594  27.399  1.00  0.00     0.023 C 
ENDROOT
BRANCH   1   2
ATOM      2  C   UNL A   1      34.182  28.891  26.707  1.00  0.00     0.116 C 
BRANCH   2   3
ATOM      3  N   UNL A   1      34.261  29.163  25.284  1.00  0.00    -0.353 N 
ATOM      4  C   UNL A   1      33.654  28.624  24.182  1.00  0.00     0.264 C 
ATOM      5  O   UNL A   1      33.926  29.213  23.127  1.00  0.00    -0.270 OA
ATOM      6  H   UNL A   1      34.887  29.889  25.063  1.00  0.00     0.163 HD
BRANCH   4   7
ATOM      7  C   UNL A   1      32.689  27.369  24.221  1.00  0.00     0.190 C 
ATOM      8  C   UNL A   1      32.499  26.886  22.790  1.00  0.00     0.080 C 
ATOM      9  C   UNL A   1      33.214  26.400  25.284  1.00  0.00     0.080 C 
ATOM     10  C   UNL A   1      33.191  25.587  22.429  1.00  0.00     0.124 C 
ATOM     11  C   UNL A   1      33.666  25.015  24.831  1.00  0.00     0.124 C 
ATOM     12  N   UNL A   1      33.289  24.595  23.486  1.00  0.00    -0.340 N 
ATOM     13  C   UNL A   1      33.327  23.259  23.060  1.00  0.00     0.251 C 
ATOM     14  O   UNL A   1      33.287  22.984  21.857  1.00  0.00    -0.272 OA
BRANCH   7  15
ATOM     15  O   UNL A   1      31.456  27.986  24.694  1.00  0.00    -0.477 OA
BRANCH  15  16
ATOM     16  C   UNL A   1      30.280  28.320  24.092  1.00  0.00     0.123 A 
ATOM     17  C   UNL A   1      28.943  26.110  23.858  1.00  0.00     0.048 C 
ATOM     18  C   UNL A   1      29.154  27.576  23.707  1.00  0.00    -0.009 A 
ATOM     19  C   UNL A   1      28.087  28.223  23.032  1.00  0.00     0.007 A 
ATOM     20  C   UNL A   1      28.105  29.583  22.758  1.00  0.00     0.001 A 
ATOM     21  C   UNL A   1      30.269  29.699  23.800  1.00  0.00     0.047 A 
ATOM     22  C   UNL A   1      29.202  30.328  23.148  1.00  0.00     0.004 A 
ENDBRANCH  15  16
ENDBRANCH   7  15
BRANCH  13  23
ATOM     23  C   UNL A   1      33.369  22.140  24.129  1.00  0.00     0.207 C 
ATOM     24  C   UNL A   1      32.410  21.022  23.697  1.00  0.00     0.042 C 
ATOM     25  O   UNL A   1      34.715  21.659  24.218  1.00  0.00    -0.368 OA
ATOM     26  C   UNL A   1      32.588  19.753  24.519  1.00  0.00     0.006 C 
ATOM     27  C   UNL A   1      34.870  20.551  25.093  1.00  0.00     0.161 C 
ATOM     28  C   UNL A   1      34.057  19.370  24.592  1.00  0.00     0.029 C 
ENDBRANCH  13  23
ENDBRANCH   4   7
ENDBRANCH   2   3
ENDBRANCH   1   2
BRANCH   1  29
ATOM     29  C   UNL A   1      33.067  31.117  27.415  1.00  0.00     0.023 C 
BRANCH  29  30
ATOM     30  C   UNL A   1      34.480  31.680  27.439  1.00  0.00     0.116 C 
BRANCH  30  31
ATOM     31  N   UNL A   1      34.945  32.143  28.740  1.00  0.00    -0.352 N 
ATOM     32  C   UNL A   1      35.780  31.518  29.659  1.00  0.00     0.251 C 
ATOM     33  H   UNL A   1      34.616  33.032  29.009  1.00  0.00     0.163 HD
ATOM     34  O   UNL A   1      36.005  32.045  30.735  1.00  0.00    -0.269 OA
BRANCH  32  35
ATOM     35  C   UNL A   1      36.535  30.297  29.261  1.00  0.00     0.039 A 
ATOM     36  C   UNL A   1      36.659  29.280  30.216  1.00  0.00     0.014 A 
ATOM     37  C   UNL A   1      37.330  30.278  28.122  1.00  0.00     0.014 A 
ATOM     38  C   UNL A   1      37.781  28.459  30.192  1.00  0.00     0.010 A 
ATOM     39  C   UNL A   1      38.505  29.560  28.161  1.00  0.00     0.010 A 
ATOM     40  C   UNL A   1      38.768  28.720  29.247  1.00  0.00    -0.014 A 
BRANCH  40  41
ATOM     41  C   UNL A   1      40.154  28.298  29.402  1.00  0.00     0.031 A 
ATOM     42  C   UNL A   1      40.607  27.006  28.857  1.00  0.00     0.074 A 
ATOM     43  C   UNL A   1      41.042  29.172  29.930  1.00  0.00     0.049 A 
ATOM     44  N   UNL A   1      41.702  26.414  29.194  1.00  0.00    -0.248 NA
ATOM     45  C   UNL A   1      39.803  26.233  27.922  1.00  0.00     0.031 C 
ATOM     46  C   UNL A   1      42.498  29.105  29.877  1.00  0.00     0.029 A 
ATOM     47  N   UNL A   1      40.774  30.219  30.821  1.00  0.00    -0.354 N 
ATOM     48  C   UNL A   1      41.893  25.357  28.331  1.00  0.00     0.074 A 
ATOM     49  C   UNL A   1      40.636  25.230  27.637  1.00  0.00     0.031 C 
ATOM     50  C   UNL A   1      43.003  29.854  30.870  1.00  0.00     0.029 A 
ATOM     51  C   UNL A   1      41.885  30.297  31.685  1.00  0.00     0.049 A 
ATOM     52  H   UNL A   1      39.970  30.788  30.840  1.00  0.00     0.167 HD
ATOM     53  C   UNL A   1      43.146  24.822  28.222  1.00  0.00     0.037 A 
ATOM     54  C   UNL A   1      41.753  30.044  33.020  1.00  0.00     0.037 A 
ATOM     55  C   UNL A   1      44.022  25.354  29.272  1.00  0.00     0.049 A 
ATOM     56  C   UNL A   1      42.556  28.857  33.503  1.00  0.00     0.074 A 
ATOM     57  C   UNL A   1      45.005  26.332  29.280  1.00  0.00     0.029 A 
ATOM     58  N   UNL A   1      43.730  25.085  30.608  1.00  0.00    -0.354 N 
ATOM     59  N   UNL A   1      43.068  27.953  32.713  1.00  0.00    -0.248 NA
ATOM     60  C   UNL A   1      42.828  28.581  34.911  1.00  0.00     0.031 C 
ATOM     61  C   UNL A   1      45.238  26.710  30.628  1.00  0.00     0.029 A 
ATOM     62  C   UNL A   1      44.423  25.943  31.441  1.00  0.00     0.049 A 
ATOM     63  H   UNL A   1      43.115  24.381  30.915  1.00  0.00     0.167 HD
ATOM     64  C   UNL A   1      43.683  26.982  33.460  1.00  0.00     0.074 A 
ATOM     65  C   UNL A   1      43.531  27.436  34.830  1.00  0.00     0.031 C 
ATOM     66  C   UNL A   1      44.247  25.879  32.887  1.00  0.00     0.037 A 
BRANCH  53  67
ATOM     67  C   UNL A   1      43.662  24.058  27.009  1.00  0.00     0.057 A 
ATOM     68  C   UNL A   1      44.321  24.742  25.963  1.00  0.00     0.134 A 
ATOM     69  C   UNL A   1      43.470  22.690  26.743  1.00  0.00     0.134 A 
ATOM     70  F   UNL A   1      44.681  26.027  26.078  1.00  0.00    -0.206 F 
ATOM     71  C   UNL A   1      44.646  24.147  24.733  1.00  0.00     0.040 A 
ATOM     72  C   UNL A   1      43.763  22.087  25.509  1.00  0.00     0.040 A 
ATOM     73  F   UNL A   1      43.040  21.833  27.668  1.00  0.00    -0.206 F 
ATOM     74  C   UNL A   1      44.337  22.821  24.488  1.00  0.00     0.006 A 
ENDBRANCH  53  67
BRANCH  54  75
ATOM     75  C   UNL A   1      40.440  30.477  33.568  1.00  0.00     0.057 A 
ATOM     76  C   UNL A   1      40.261  31.839  33.870  1.00  0.00     0.134 A 
ATOM     77  C   UNL A   1      39.288  29.699  33.427  1.00  0.00     0.134 A 
ATOM     78  F   UNL A   1      41.330  32.640  34.014  1.00  0.00    -0.206 F 
ATOM     79  C   UNL A   1      38.995  32.427  33.912  1.00  0.00     0.040 A 
ATOM     80  C   UNL A   1      38.012  30.276  33.476  1.00  0.00     0.040 A 
ATOM     81  F   UNL A   1      39.377  28.399  33.112  1.00  0.00    -0.206 F 
ATOM     82  C   UNL A   1      37.866  31.648  33.678  1.00  0.00     0.006 A 
ENDBRANCH  54  75
BRANCH  66  83
ATOM     83  C   UNL A   1      44.752  24.664  33.627  1.00  0.00     0.057 A 
ATOM     84  C   UNL A   1      46.104  24.309  33.732  1.00  0.00     0.134 A 
ATOM     85  C   UNL A   1      43.865  23.885  34.404  1.00  0.00     0.134 A 
ATOM     86  F   UNL A   1      47.066  25.025  33.136  1.00  0.00    -0.206 F 
ATOM     87  C   UNL A   1      46.538  23.227  34.511  1.00  0.00     0.040 A 
ATOM     88  C   UNL A   1      44.292  22.838  35.226  1.00  0.00     0.040 A 
ATOM     89  F   UNL A   1      42.545  24.124  34.416  1.00  0.00    -0.206 F 
ATOM     90  C   UNL A   1      45.634  22.496  35.271  1.00  0.00     0.006 A 
ENDBRANCH  66  83
ENDBRANCH  40  41
ENDBRANCH  32  35
ENDBRANCH  30  31
ENDBRANCH  29  30
ENDBRANCH   1  29
TORSDOF 14
ENDMDL
MODEL 3
REMARK VINA RESULT:     -13.3      3.328      8.990
REMARK SMILES Cc1ccccc1OC1(C(=O)NCCCCNC(=O)c2ccc(-c3c4nc(c(-c5c(F)cccc5F)c5ccc([nH]5)c(-c5c(F)cccc5F)c5nc(c(-c6c(F)cccc6F)c6ccc3[nH]6)C=C5)C=C4)cc2)CCN(C(=O)[C@H]2CCCCO2)CC1
REMARK SMILES IDX 14 1 13 2 12 3 10 4 11 5 9 7 74 8 86 9 75 10 85 11 76 12
REMARK SMILES IDX 77 13 78 14 8 15 7 16 1 17 2 18 3 19 4 20 6 21 5 22 79 23
REMARK SMILES IDX 80 24 84 25 81 26 83 27 82 28 15 29 16 30 17 31 18 32 19 34
REMARK SMILES IDX 20 35 21 36 73 37 22 38 72 39 23 40 24 41 25 42 66 43 26 44
REMARK SMILES IDX 71 45 65 46 67 47 27 48 70 49 64 50 63 51 28 53 54 54 37 55
REMARK SMILES IDX 53 56 38 57 41 58 52 59 68 60 39 61 40 62 51 64 69 65 42 66
REMARK SMILES IDX 29 67 30 68 35 69 31 70 32 71 34 72 36 73 33 74 55 75 56 76
REMARK SMILES IDX 61 77 57 78 58 79 60 80 62 81 59 82 43 83 44 84 49 85 45 86
REMARK SMILES IDX 46 87 48 88 50 89 47 90
REMARK H PARENT 12 6 17 33 67 52 41 63
REMARK Flexibility Score: inf
ROOT
ATOM      1  C   UNL A   1      33.175  29.514  27.246  1.00  0.00     0.023 C 
ENDROOT
BRANCH   1   2
ATOM      2  C   UNL A   1      32.536  30.011  25.940  1.00  0.00     0.116 C 
BRANCH   2   3
ATOM      3  N   UNL A   1      33.330  29.717  24.761  1.00  0.00    -0.353 N 
ATOM      4  C   UNL A   1      33.318  28.706  23.840  1.00  0.00     0.264 C 
ATOM      5  O   UNL A   1      34.115  28.873  22.907  1.00  0.00    -0.270 OA
ATOM      6  H   UNL A   1      34.028  30.389  24.588  1.00  0.00     0.163 HD
BRANCH   4   7
ATOM      7  C   UNL A   1      32.383  27.431  23.929  1.00  0.00     0.190 C 
ATOM      8  C   UNL A   1      32.203  26.888  22.518  1.00  0.00     0.080 C 
ATOM      9  C   UNL A   1      32.931  26.517  25.028  1.00  0.00     0.080 C 
ATOM     10  C   UNL A   1      32.926  25.593  22.207  1.00  0.00     0.124 C 
ATOM     11  C   UNL A   1      33.416  25.126  24.629  1.00  0.00     0.124 C 
ATOM     12  N   UNL A   1      33.048  24.645  23.301  1.00  0.00    -0.340 N 
ATOM     13  C   UNL A   1      33.118  23.295  22.929  1.00  0.00     0.251 C 
ATOM     14  O   UNL A   1      33.083  22.972  21.737  1.00  0.00    -0.272 OA
BRANCH   7  15
ATOM     15  O   UNL A   1      31.136  28.036  24.380  1.00  0.00    -0.477 OA
BRANCH  15  16
ATOM     16  C   UNL A   1      29.986  28.404  23.748  1.00  0.00     0.123 A 
ATOM     17  C   UNL A   1      28.408  26.349  23.881  1.00  0.00     0.048 C 
ATOM     18  C   UNL A   1      28.774  27.741  23.498  1.00  0.00    -0.009 A 
ATOM     19  C   UNL A   1      27.764  28.391  22.744  1.00  0.00     0.007 A 
ATOM     20  C   UNL A   1      27.923  29.683  22.260  1.00  0.00     0.001 A 
ATOM     21  C   UNL A   1      30.117  29.714  23.243  1.00  0.00     0.047 A 
ATOM     22  C   UNL A   1      29.106  30.350  22.514  1.00  0.00     0.004 A 
ENDBRANCH  15  16
ENDBRANCH   7  15
BRANCH  13  23
ATOM     23  C   UNL A   1      33.186  22.220  24.040  1.00  0.00     0.207 C 
ATOM     24  C   UNL A   1      32.321  21.026  23.613  1.00  0.00     0.042 C 
ATOM     25  O   UNL A   1      34.556  21.833  24.201  1.00  0.00    -0.368 OA
ATOM     26  C   UNL A   1      32.546  19.802  24.490  1.00  0.00     0.006 C 
ATOM     27  C   UNL A   1      34.746  20.769  25.122  1.00  0.00     0.161 C 
ATOM     28  C   UNL A   1      34.032  19.519  24.636  1.00  0.00     0.029 C 
ENDBRANCH  13  23
ENDBRANCH   4   7
ENDBRANCH   2   3
ENDBRANCH   1   2
BRANCH   1  29
ATOM     29  C   UNL A   1      34.700  29.485  27.261  1.00  0.00     0.023 C 
BRANCH  29  30
ATOM     30  C   UNL A   1      35.340  30.784  27.728  1.00  0.00     0.116 C 
BRANCH  30  31
ATOM     31  N   UNL A   1      34.411  31.870  28.012  1.00  0.00    -0.352 N 
ATOM     32  C   UNL A   1      34.448  32.831  29.016  1.00  0.00     0.251 C 
ATOM     33  H   UNL A   1      33.640  31.932  27.402  1.00  0.00     0.163 HD
ATOM     34  O   UNL A   1      33.534  33.629  29.131  1.00  0.00    -0.269 OA
BRANCH  32  35
ATOM     35  C   UNL A   1      35.681  32.996  29.836  1.00  0.00     0.039 A 
ATOM     36  C   UNL A   1      36.751  33.688  29.253  1.00  0.00     0.014 A 
ATOM     37  C   UNL A   1      35.884  32.254  30.992  1.00  0.00     0.014 A 
ATOM     38  C   UNL A   1      38.051  33.368  29.629  1.00  0.00     0.010 A 
ATOM     39  C   UNL A   1      37.166  31.837  31.281  1.00  0.00     0.010 A 
ATOM     40  C   UNL A   1      38.239  32.328  30.533  1.00  0.00    -0.014 A 
BRANCH  40  41
ATOM     41  C   UNL A   1      39.484  31.578  30.641  1.00  0.00     0.031 A 
ATOM     42  C   UNL A   1      39.658  30.311  29.911  1.00  0.00     0.074 A 
ATOM     43  C   UNL A   1      40.519  32.136  31.309  1.00  0.00     0.049 A 
ATOM     44  N   UNL A   1      40.573  29.439  30.169  1.00  0.00    -0.248 NA
ATOM     45  C   UNL A   1      38.747  29.890  28.857  1.00  0.00     0.031 C 
ATOM     46  C   UNL A   1      41.924  31.743  31.268  1.00  0.00     0.029 A 
ATOM     47  N   UNL A   1      40.453  33.076  32.347  1.00  0.00    -0.354 N 
ATOM     48  C   UNL A   1      40.562  28.503  29.157  1.00  0.00     0.074 A 
ATOM     49  C   UNL A   1      39.344  28.773  28.434  1.00  0.00     0.031 C 
ATOM     50  C   UNL A   1      42.536  32.202  32.371  1.00  0.00     0.029 A 
ATOM     51  C   UNL A   1      41.508  32.768  33.228  1.00  0.00     0.049 A 
ATOM     52  H   UNL A   1      39.798  33.806  32.440  1.00  0.00     0.167 HD
ATOM     53  C   UNL A   1      41.664  27.714  28.985  1.00  0.00     0.037 A 
ATOM     54  C   UNL A   1      41.257  32.360  34.506  1.00  0.00     0.037 A 
ATOM     55  C   UNL A   1      42.586  27.870  30.117  1.00  0.00     0.049 A 
ATOM     56  C   UNL A   1      41.745  30.962  34.813  1.00  0.00     0.074 A 
ATOM     57  C   UNL A   1      43.762  28.582  30.288  1.00  0.00     0.029 A 
ATOM     58  N   UNL A   1      42.175  27.484  31.391  1.00  0.00    -0.354 N 
ATOM     59  N   UNL A   1      42.077  30.089  33.901  1.00  0.00    -0.248 NA
ATOM     60  C   UNL A   1      41.878  30.427  36.166  1.00  0.00     0.031 C 
ATOM     61  C   UNL A   1      44.009  28.695  31.682  1.00  0.00     0.029 A 
ATOM     62  C   UNL A   1      43.002  28.027  32.356  1.00  0.00     0.049 A 
ATOM     63  H   UNL A   1      41.402  26.905  31.578  1.00  0.00     0.167 HD
ATOM     64  C   UNL A   1      42.418  28.904  34.499  1.00  0.00     0.074 A 
ATOM     65  C   UNL A   1      42.306  29.176  35.920  1.00  0.00     0.031 C 
ATOM     66  C   UNL A   1      42.745  27.795  33.772  1.00  0.00     0.037 A 
BRANCH  53  67
ATOM     67  C   UNL A   1      42.053  27.037  27.676  1.00  0.00     0.057 A 
ATOM     68  C   UNL A   1      42.270  25.642  27.632  1.00  0.00     0.134 A 
ATOM     69  C   UNL A   1      42.329  27.682  26.456  1.00  0.00     0.134 A 
ATOM     70  F   UNL A   1      41.964  24.848  28.666  1.00  0.00    -0.206 F 
ATOM     71  C   UNL A   1      42.819  24.980  26.522  1.00  0.00     0.040 A 
ATOM     72  C   UNL A   1      42.906  27.039  25.349  1.00  0.00     0.040 A 
ATOM     73  F   UNL A   1      42.015  28.957  26.231  1.00  0.00    -0.206 F 
ATOM     74  C   UNL A   1      43.171  25.683  25.384  1.00  0.00     0.006 A 
ENDBRANCH  53  67
BRANCH  54  75
ATOM     75  C   UNL A   1      40.052  33.000  35.096  1.00  0.00     0.057 A 
ATOM     76  C   UNL A   1      38.833  32.299  35.045  1.00  0.00     0.134 A 
ATOM     77  C   UNL A   1      40.147  34.047  36.018  1.00  0.00     0.134 A 
ATOM     78  F   UNL A   1      38.680  31.280  34.183  1.00  0.00    -0.206 F 
ATOM     79  C   UNL A   1      37.799  32.548  35.951  1.00  0.00     0.040 A 
ATOM     80  C   UNL A   1      39.112  34.311  36.924  1.00  0.00     0.040 A 
ATOM     81  F   UNL A   1      41.285  34.742  36.144  1.00  0.00    -0.206 F 
ATOM     82  C   UNL A   1      37.953  33.535  36.919  1.00  0.00     0.006 A 
ENDBRANCH  54  75
BRANCH  66  83
ATOM     83  C   UNL A   1      42.924  26.402  34.324  1.00  0.00     0.057 A 
ATOM     84  C   UNL A   1      41.938  25.703  35.034  1.00  0.00     0.134 A 
ATOM     85  C   UNL A   1      44.080  25.654  34.009  1.00  0.00     0.134 A 
ATOM     86  F   UNL A   1      40.748  26.252  35.310  1.00  0.00    -0.206 F 
ATOM     87  C   UNL A   1      42.110  24.373  35.446  1.00  0.00     0.040 A 
ATOM     88  C   UNL A   1      44.240  24.312  34.367  1.00  0.00     0.040 A 
ATOM     89  F   UNL A   1      45.097  26.190  33.316  1.00  0.00    -0.206 F 
ATOM     90  C   UNL A   1      43.257  23.670  35.102  1.00  0.00     0.006 A 
ENDBRANCH  66  83
ENDBRANCH  40  41
ENDBRANCH  32  35
ENDBRANCH  30  31
ENDBRANCH  29  30
ENDBRANCH   1  29
TORSDOF 14
ENDMDL
