MODEL 1
REMARK VINA RESULT:     -12.2      0.000      0.000
REMARK SMILES CC1=C2C(=O)CC(C)(C)CC2=N[C@@H]1C(=O)NCCCCNC(=O)c1ccc(-c2c3nc(c(-c4c(F)cccc4F)c4ccc([nH]4)c(-c4c(F)cccc4F)c4nc(c(-c5c(F)cccc5F)c5ccc2[nH]5)C=C4)C=C3)cc1
REMARK SMILES IDX 19 1 18 2 17 3 16 4 14 5 15 6 13 8 1 9 2 10 3 11 4 12 11 13
REMARK SMILES IDX 12 14 5 15 6 16 10 17 7 18 8 19 9 20 20 21 21 22 22 23 23 25
REMARK SMILES IDX 24 26 25 27 77 28 26 29 76 30 27 31 28 32 29 33 70 34 30 35
REMARK SMILES IDX 75 36 69 37 71 38 31 39 74 40 68 41 67 42 32 44 58 45 41 46
REMARK SMILES IDX 57 47 42 48 45 49 56 50 72 51 43 52 44 53 55 55 73 56 46 57
REMARK SMILES IDX 33 58 34 59 39 60 35 61 36 62 38 63 40 64 37 65 59 66 60 67
REMARK SMILES IDX 65 68 61 69 62 70 64 71 66 72 63 73 47 74 48 75 53 76 49 77
REMARK SMILES IDX 50 78 52 79 54 80 51 81
REMARK H PARENT 16 7 21 24 71 43 45 54
REMARK Flexibility Score: inf
ROOT
ATOM      1  C   UNL A   1      41.914  20.258  27.177  1.00  0.00     0.023 C 
ENDROOT
BRANCH   1   2
ATOM      2  C   UNL A   1      40.911  21.407  27.373  1.00  0.00     0.023 C 
BRANCH   2   3
ATOM      3  C   UNL A   1      39.724  21.458  26.395  1.00  0.00     0.116 C 
BRANCH   3   4
ATOM      4  N   UNL A   1      38.889  22.599  26.677  1.00  0.00    -0.354 N 
ATOM      5  C   UNL A   1      37.735  22.981  26.067  1.00  0.00     0.249 C 
ATOM      6  O   UNL A   1      37.486  24.192  26.099  1.00  0.00    -0.272 OA
ATOM      7  H   UNL A   1      39.196  23.179  27.412  1.00  0.00     0.163 HD
BRANCH   5   8
ATOM      8  C   UNL A   1      36.762  21.927  25.436  1.00  0.00     0.221 C 
ATOM      9  C   UNL A   1      36.531  23.045  23.037  1.00  0.00     0.043 C 
ATOM     10  C   UNL A   1      35.965  22.354  24.222  1.00  0.00    -0.027 C 
ATOM     11  C   UNL A   1      34.654  22.254  24.457  1.00  0.00     0.040 C 
ATOM     12  C   UNL A   1      33.464  22.655  23.699  1.00  0.00     0.165 C 
ATOM     13  C   UNL A   1      34.695  22.320  25.904  1.00  0.00     0.048 C 
ATOM     14  N   UNL A   1      35.707  21.768  26.504  1.00  0.00    -0.271 NA
ATOM     15  O   UNL A   1      33.169  22.093  22.648  1.00  0.00    -0.294 OA
ATOM     16  C   UNL A   1      32.599  23.733  24.326  1.00  0.00     0.088 C 
ATOM     17  C   UNL A   1      33.719  23.239  26.577  1.00  0.00     0.063 C 
ATOM     18  C   UNL A   1      33.243  24.364  25.590  1.00  0.00    -0.023 C 
ATOM     19  C   UNL A   1      34.374  25.327  25.135  1.00  0.00     0.012 C 
ATOM     20  C   UNL A   1      32.214  25.231  26.332  1.00  0.00     0.012 C 
ENDBRANCH   5   8
ENDBRANCH   3   4
ENDBRANCH   2   3
ENDBRANCH   1   2
BRANCH   1  21
ATOM     21  C   UNL A   1      42.079  19.807  25.738  1.00  0.00     0.116 C 
BRANCH  21  22
ATOM     22  N   UNL A   1      43.484  19.618  25.359  1.00  0.00    -0.352 N 
ATOM     23  C   UNL A   1      44.421  20.573  24.988  1.00  0.00     0.251 C 
ATOM     24  H   UNL A   1      43.805  18.687  25.368  1.00  0.00     0.163 HD
ATOM     25  O   UNL A   1      45.408  20.275  24.345  1.00  0.00    -0.269 OA
BRANCH  23  26
ATOM     26  C   UNL A   1      44.197  21.965  25.421  1.00  0.00     0.039 A 
ATOM     27  C   UNL A   1      43.281  22.824  24.809  1.00  0.00     0.014 A 
ATOM     28  C   UNL A   1      44.925  22.381  26.524  1.00  0.00     0.014 A 
ATOM     29  C   UNL A   1      43.084  24.087  25.368  1.00  0.00     0.010 A 
ATOM     30  C   UNL A   1      44.507  23.463  27.230  1.00  0.00     0.010 A 
ATOM     31  C   UNL A   1      43.709  24.390  26.587  1.00  0.00    -0.014 A 
BRANCH  31  32
ATOM     32  C   UNL A   1      43.525  25.643  27.297  1.00  0.00     0.031 A 
ATOM     33  C   UNL A   1      44.491  26.694  26.906  1.00  0.00     0.074 A 
ATOM     34  C   UNL A   1      42.399  25.901  28.003  1.00  0.00     0.049 A 
ATOM     35  N   UNL A   1      45.477  27.150  27.599  1.00  0.00    -0.248 NA
ATOM     36  C   UNL A   1      44.478  27.161  25.509  1.00  0.00     0.031 C 
ATOM     37  C   UNL A   1      41.197  25.064  28.155  1.00  0.00     0.029 A 
ATOM     38  N   UNL A   1      42.042  27.037  28.656  1.00  0.00    -0.354 N 
ATOM     39  C   UNL A   1      46.053  28.146  26.817  1.00  0.00     0.074 A 
ATOM     40  C   UNL A   1      45.571  27.926  25.482  1.00  0.00     0.031 C 
ATOM     41  C   UNL A   1      40.181  25.805  28.650  1.00  0.00     0.029 A 
ATOM     42  C   UNL A   1      40.696  27.110  29.012  1.00  0.00     0.049 A 
ATOM     43  H   UNL A   1      42.684  27.755  28.861  1.00  0.00     0.167 HD
ATOM     44  C   UNL A   1      46.627  29.236  27.400  1.00  0.00     0.037 A 
ATOM     45  C   UNL A   1      40.065  28.190  29.541  1.00  0.00     0.037 A 
ATOM     46  C   UNL A   1      46.829  29.002  28.814  1.00  0.00     0.049 A 
ATOM     47  C   UNL A   1      41.120  29.088  30.077  1.00  0.00     0.074 A 
ATOM     48  C   UNL A   1      47.516  28.067  29.563  1.00  0.00     0.029 A 
ATOM     49  N   UNL A   1      45.928  29.581  29.678  1.00  0.00    -0.354 N 
ATOM     50  N   UNL A   1      41.873  28.788  31.099  1.00  0.00    -0.248 NA
ATOM     51  C   UNL A   1      41.664  30.090  29.172  1.00  0.00     0.031 C 
ATOM     52  C   UNL A   1      46.672  27.796  30.680  1.00  0.00     0.029 A 
ATOM     53  C   UNL A   1      45.561  28.638  30.600  1.00  0.00     0.049 A 
ATOM     54  H   UNL A   1      45.606  30.511  29.640  1.00  0.00     0.167 HD
ATOM     55  C   UNL A   1      43.144  29.216  30.739  1.00  0.00     0.074 A 
ATOM     56  C   UNL A   1      42.938  30.077  29.574  1.00  0.00     0.031 C 
ATOM     57  C   UNL A   1      44.258  28.592  31.223  1.00  0.00     0.037 A 
BRANCH  44  58
ATOM     58  C   UNL A   1      46.600  30.642  26.831  1.00  0.00     0.057 A 
ATOM     59  C   UNL A   1      47.801  31.378  26.823  1.00  0.00     0.134 A 
ATOM     60  C   UNL A   1      45.440  31.405  26.586  1.00  0.00     0.134 A 
ATOM     61  F   UNL A   1      48.983  30.773  27.012  1.00  0.00    -0.206 F 
ATOM     62  C   UNL A   1      47.831  32.774  26.719  1.00  0.00     0.040 A 
ATOM     63  C   UNL A   1      45.465  32.795  26.432  1.00  0.00     0.040 A 
ATOM     64  F   UNL A   1      44.211  30.884  26.568  1.00  0.00    -0.206 F 
ATOM     65  C   UNL A   1      46.656  33.489  26.543  1.00  0.00     0.006 A 
ENDBRANCH  44  58
BRANCH  45  66
ATOM     66  C   UNL A   1      38.669  28.649  29.346  1.00  0.00     0.057 A 
ATOM     67  C   UNL A   1      37.775  28.737  30.425  1.00  0.00     0.134 A 
ATOM     68  C   UNL A   1      38.266  29.288  28.161  1.00  0.00     0.134 A 
ATOM     69  F   UNL A   1      38.085  28.194  31.611  1.00  0.00    -0.206 F 
ATOM     70  C   UNL A   1      36.568  29.446  30.339  1.00  0.00     0.040 A 
ATOM     71  C   UNL A   1      37.061  29.997  28.061  1.00  0.00     0.040 A 
ATOM     72  F   UNL A   1      39.071  29.328  27.090  1.00  0.00    -0.206 F 
ATOM     73  C   UNL A   1      36.214  30.090  29.159  1.00  0.00     0.006 A 
ENDBRANCH  45  66
BRANCH  57  74
ATOM     74  C   UNL A   1      44.087  27.607  32.347  1.00  0.00     0.057 A 
ATOM     75  C   UNL A   1      43.988  26.218  32.178  1.00  0.00     0.134 A 
ATOM     76  C   UNL A   1      44.197  28.076  33.661  1.00  0.00     0.134 A 
ATOM     77  F   UNL A   1      43.971  25.665  30.959  1.00  0.00    -0.206 F 
ATOM     78  C   UNL A   1      43.967  25.340  33.268  1.00  0.00     0.040 A 
ATOM     79  C   UNL A   1      44.211  27.209  34.755  1.00  0.00     0.040 A 
ATOM     80  F   UNL A   1      44.349  29.388  33.899  1.00  0.00    -0.206 F 
ATOM     81  C   UNL A   1      44.088  25.836  34.562  1.00  0.00     0.006 A 
ENDBRANCH  57  74
ENDBRANCH  31  32
ENDBRANCH  23  26
ENDBRANCH  21  22
ENDBRANCH   1  21
TORSDOF 11
ENDMDL
MODEL 2
REMARK VINA RESULT:     -11.9      0.965      1.495
REMARK SMILES CC1=C2C(=O)CC(C)(C)CC2=N[C@@H]1C(=O)NCCCCNC(=O)c1ccc(-c2c3nc(c(-c4c(F)cccc4F)c4ccc([nH]4)c(-c4c(F)cccc4F)c4nc(c(-c5c(F)cccc5F)c5ccc2[nH]5)C=C4)C=C3)cc1
REMARK SMILES IDX 19 1 18 2 17 3 16 4 14 5 15 6 13 8 1 9 2 10 3 11 4 12 11 13
REMARK SMILES IDX 12 14 5 15 6 16 10 17 7 18 8 19 9 20 20 21 21 22 22 23 23 25
REMARK SMILES IDX 24 26 25 27 77 28 26 29 76 30 27 31 28 32 29 33 70 34 30 35
REMARK SMILES IDX 75 36 69 37 71 38 31 39 74 40 68 41 67 42 32 44 58 45 41 46
REMARK SMILES IDX 57 47 42 48 45 49 56 50 72 51 43 52 44 53 55 55 73 56 46 57
REMARK SMILES IDX 33 58 34 59 39 60 35 61 36 62 38 63 40 64 37 65 59 66 60 67
REMARK SMILES IDX 65 68 61 69 62 70 64 71 66 72 63 73 47 74 48 75 53 76 49 77
REMARK SMILES IDX 50 78 52 79 54 80 51 81
REMARK H PARENT 16 7 21 24 71 43 45 54
REMARK Flexibility Score: inf
ROOT
ATOM      1  C   UNL A   1      41.169  20.260  26.176  1.00  0.00     0.023 C 
ENDROOT
BRANCH   1   2
ATOM      2  C   UNL A   1      40.439  21.289  27.054  1.00  0.00     0.023 C 
BRANCH   2   3
ATOM      3  C   UNL A   1      39.453  22.229  26.338  1.00  0.00     0.116 C 
BRANCH   3   4
ATOM      4  N   UNL A   1      38.503  21.467  25.566  1.00  0.00    -0.354 N 
ATOM      5  C   UNL A   1      37.148  21.586  25.524  1.00  0.00     0.249 C 
ATOM      6  O   UNL A   1      36.527  20.558  25.233  1.00  0.00    -0.272 OA
ATOM      7  H   UNL A   1      38.888  20.767  24.990  1.00  0.00     0.163 HD
BRANCH   5   8
ATOM      8  C   UNL A   1      36.447  22.967  25.762  1.00  0.00     0.221 C 
ATOM      9  C   UNL A   1      34.658  22.157  27.551  1.00  0.00     0.043 C 
ATOM     10  C   UNL A   1      35.057  22.949  26.361  1.00  0.00    -0.027 C 
ATOM     11  C   UNL A   1      34.181  23.536  25.542  1.00  0.00     0.040 C 
ATOM     12  C   UNL A   1      32.720  23.669  25.563  1.00  0.00     0.165 C 
ATOM     13  C   UNL A   1      34.915  23.382  24.303  1.00  0.00     0.048 C 
ATOM     14  N   UNL A   1      36.211  23.465  24.356  1.00  0.00    -0.271 NA
ATOM     15  O   UNL A   1      32.163  24.357  26.413  1.00  0.00    -0.294 OA
ATOM     16  C   UNL A   1      31.966  22.979  24.441  1.00  0.00     0.088 C 
ATOM     17  C   UNL A   1      34.154  22.878  23.112  1.00  0.00     0.063 C 
ATOM     18  C   UNL A   1      32.879  22.080  23.564  1.00  0.00    -0.023 C 
ATOM     19  C   UNL A   1      33.193  20.780  24.354  1.00  0.00     0.012 C 
ATOM     20  C   UNL A   1      32.130  21.642  22.295  1.00  0.00     0.012 C 
ENDBRANCH   5   8
ENDBRANCH   3   4
ENDBRANCH   2   3
ENDBRANCH   1   2
BRANCH   1  21
ATOM     21  C   UNL A   1      42.430  19.688  26.797  1.00  0.00     0.116 C 
BRANCH  21  22
ATOM     22  N   UNL A   1      43.538  19.583  25.840  1.00  0.00    -0.352 N 
ATOM     23  C   UNL A   1      44.106  20.577  25.054  1.00  0.00     0.251 C 
ATOM     24  H   UNL A   1      43.931  18.686  25.742  1.00  0.00     0.163 HD
ATOM     25  O   UNL A   1      44.737  20.308  24.051  1.00  0.00    -0.269 OA
BRANCH  23  26
ATOM     26  C   UNL A   1      43.942  21.977  25.486  1.00  0.00     0.039 A 
ATOM     27  C   UNL A   1      43.123  22.897  24.825  1.00  0.00     0.014 A 
ATOM     28  C   UNL A   1      44.620  22.339  26.639  1.00  0.00     0.014 A 
ATOM     29  C   UNL A   1      42.970  24.166  25.383  1.00  0.00     0.010 A 
ATOM     30  C   UNL A   1      44.225  23.441  27.328  1.00  0.00     0.010 A 
ATOM     31  C   UNL A   1      43.531  24.421  26.643  1.00  0.00    -0.014 A 
BRANCH  31  32
ATOM     32  C   UNL A   1      43.380  25.679  27.353  1.00  0.00     0.031 A 
ATOM     33  C   UNL A   1      44.365  26.708  26.953  1.00  0.00     0.074 A 
ATOM     34  C   UNL A   1      42.265  25.961  28.068  1.00  0.00     0.049 A 
ATOM     35  N   UNL A   1      45.367  27.144  27.638  1.00  0.00    -0.248 NA
ATOM     36  C   UNL A   1      44.351  27.173  25.555  1.00  0.00     0.031 C 
ATOM     37  C   UNL A   1      41.048  25.151  28.231  1.00  0.00     0.029 A 
ATOM     38  N   UNL A   1      41.938  27.106  28.722  1.00  0.00    -0.354 N 
ATOM     39  C   UNL A   1      45.957  28.127  26.849  1.00  0.00     0.074 A 
ATOM     40  C   UNL A   1      45.459  27.915  25.518  1.00  0.00     0.031 C 
ATOM     41  C   UNL A   1      40.051  25.914  28.734  1.00  0.00     0.029 A 
ATOM     42  C   UNL A   1      40.598  27.208  29.090  1.00  0.00     0.049 A 
ATOM     43  H   UNL A   1      42.597  27.810  28.921  1.00  0.00     0.167 HD
ATOM     44  C   UNL A   1      46.559  29.205  27.425  1.00  0.00     0.037 A 
ATOM     45  C   UNL A   1      39.994  28.301  29.622  1.00  0.00     0.037 A 
ATOM     46  C   UNL A   1      46.767  28.968  28.838  1.00  0.00     0.049 A 
ATOM     47  C   UNL A   1      41.073  29.178  30.148  1.00  0.00     0.074 A 
ATOM     48  C   UNL A   1      47.441  28.019  29.583  1.00  0.00     0.029 A 
ATOM     49  N   UNL A   1      45.887  29.567  29.709  1.00  0.00    -0.354 N 
ATOM     50  N   UNL A   1      41.828  28.863  31.164  1.00  0.00    -0.248 NA
ATOM     51  C   UNL A   1      41.630  30.167  29.237  1.00  0.00     0.031 C 
ATOM     52  C   UNL A   1      46.600  27.768  30.707  1.00  0.00     0.029 A 
ATOM     53  C   UNL A   1      45.507  28.633  30.635  1.00  0.00     0.049 A 
ATOM     54  H   UNL A   1      45.584  30.503  29.673  1.00  0.00     0.167 HD
ATOM     55  C   UNL A   1      43.104  29.263  30.793  1.00  0.00     0.074 A 
ATOM     56  C   UNL A   1      42.907  30.127  29.629  1.00  0.00     0.031 C 
ATOM     57  C   UNL A   1      44.209  28.616  31.269  1.00  0.00     0.037 A 
BRANCH  44  58
ATOM     58  C   UNL A   1      46.557  30.610  26.855  1.00  0.00     0.057 A 
ATOM     59  C   UNL A   1      47.772  31.323  26.841  1.00  0.00     0.134 A 
ATOM     60  C   UNL A   1      45.412  31.395  26.614  1.00  0.00     0.134 A 
ATOM     61  F   UNL A   1      48.944  30.694  27.027  1.00  0.00    -0.206 F 
ATOM     62  C   UNL A   1      47.829  32.717  26.736  1.00  0.00     0.040 A 
ATOM     63  C   UNL A   1      45.463  32.784  26.458  1.00  0.00     0.040 A 
ATOM     64  F   UNL A   1      44.173  30.898  26.601  1.00  0.00    -0.206 F 
ATOM     65  C   UNL A   1      46.668  33.455  26.563  1.00  0.00     0.006 A 
ENDBRANCH  44  58
BRANCH  45  66
ATOM     66  C   UNL A   1      38.606  28.790  29.439  1.00  0.00     0.057 A 
ATOM     67  C   UNL A   1      37.729  28.914  30.527  1.00  0.00     0.134 A 
ATOM     68  C   UNL A   1      38.203  29.422  28.250  1.00  0.00     0.134 A 
ATOM     69  F   UNL A   1      38.041  28.380  31.717  1.00  0.00    -0.206 F 
ATOM     70  C   UNL A   1      36.537  29.649  30.446  1.00  0.00     0.040 A 
ATOM     71  C   UNL A   1      37.014  30.157  28.155  1.00  0.00     0.040 A 
ATOM     72  F   UNL A   1      38.995  29.428  27.168  1.00  0.00    -0.206 F 
ATOM     73  C   UNL A   1      36.183  30.285  29.261  1.00  0.00     0.006 A 
ENDBRANCH  45  66
BRANCH  57  74
ATOM     74  C   UNL A   1      44.026  27.636  32.396  1.00  0.00     0.057 A 
ATOM     75  C   UNL A   1      43.922  26.247  32.232  1.00  0.00     0.134 A 
ATOM     76  C   UNL A   1      44.129  28.110  33.708  1.00  0.00     0.134 A 
ATOM     77  F   UNL A   1      43.910  25.689  31.015  1.00  0.00    -0.206 F 
ATOM     78  C   UNL A   1      43.890  25.373  33.325  1.00  0.00     0.040 A 
ATOM     79  C   UNL A   1      44.132  27.247  34.806  1.00  0.00     0.040 A 
ATOM     80  F   UNL A   1      44.285  29.422  33.942  1.00  0.00    -0.206 F 
ATOM     81  C   UNL A   1      44.004  25.874  34.617  1.00  0.00     0.006 A 
ENDBRANCH  57  74
ENDBRANCH  31  32
ENDBRANCH  23  26
ENDBRANCH  21  22
ENDBRANCH   1  21
TORSDOF 11
ENDMDL
MODEL 3
REMARK VINA RESULT:     -11.6      2.073      6.045
REMARK SMILES CC1=C2C(=O)CC(C)(C)CC2=N[C@@H]1C(=O)NCCCCNC(=O)c1ccc(-c2c3nc(c(-c4c(F)cccc4F)c4ccc([nH]4)c(-c4c(F)cccc4F)c4nc(c(-c5c(F)cccc5F)c5ccc2[nH]5)C=C4)C=C3)cc1
REMARK SMILES IDX 19 1 18 2 17 3 16 4 14 5 15 6 13 8 1 9 2 10 3 11 4 12 11 13
REMARK SMILES IDX 12 14 5 15 6 16 10 17 7 18 8 19 9 20 20 21 21 22 22 23 23 25
REMARK SMILES IDX 24 26 25 27 77 28 26 29 76 30 27 31 28 32 29 33 70 34 30 35
REMARK SMILES IDX 75 36 69 37 71 38 31 39 74 40 68 41 67 42 32 44 58 45 41 46
REMARK SMILES IDX 57 47 42 48 45 49 56 50 72 51 43 52 44 53 55 55 73 56 46 57
REMARK SMILES IDX 33 58 34 59 39 60 35 61 36 62 38 63 40 64 37 65 59 66 60 67
REMARK SMILES IDX 65 68 61 69 62 70 64 71 66 72 63 73 47 74 48 75 53 76 49 77
REMARK SMILES IDX 50 78 52 79 54 80 51 81
REMARK H PARENT 16 7 21 24 71 43 45 54
REMARK Flexibility Score: inf
ROOT
ATOM      1  C   UNL A   1      37.694  19.561  24.971  1.00  0.00     0.023 C 
ENDROOT
BRANCH   1   2
ATOM      2  C   UNL A   1      36.487  20.512  25.026  1.00  0.00     0.023 C 
BRANCH   2   3
ATOM      3  C   UNL A   1      35.097  19.867  24.890  1.00  0.00     0.116 C 
BRANCH   3   4
ATOM      4  N   UNL A   1      34.139  20.556  25.720  1.00  0.00    -0.354 N 
ATOM      5  C   UNL A   1      33.484  21.723  25.476  1.00  0.00     0.249 C 
ATOM      6  O   UNL A   1      33.144  22.367  26.476  1.00  0.00    -0.272 OA
ATOM      7  H   UNL A   1      33.931  20.121  26.579  1.00  0.00     0.163 HD
BRANCH   5   8
ATOM      8  C   UNL A   1      33.130  22.166  24.016  1.00  0.00     0.221 C 
ATOM      9  C   UNL A   1      35.365  23.505  23.496  1.00  0.00     0.043 C 
ATOM     10  C   UNL A   1      33.892  23.341  23.440  1.00  0.00    -0.027 C 
ATOM     11  C   UNL A   1      33.056  24.325  23.098  1.00  0.00     0.040 C 
ATOM     12  C   UNL A   1      33.261  25.702  22.636  1.00  0.00     0.165 C 
ATOM     13  C   UNL A   1      31.946  23.966  23.958  1.00  0.00     0.048 C 
ATOM     14  N   UNL A   1      31.726  22.702  24.163  1.00  0.00    -0.271 NA
ATOM     15  O   UNL A   1      33.745  25.929  21.531  1.00  0.00    -0.294 OA
ATOM     16  C   UNL A   1      32.772  26.802  23.561  1.00  0.00     0.088 C 
ATOM     17  C   UNL A   1      31.309  25.069  24.752  1.00  0.00     0.063 C 
ATOM     18  C   UNL A   1      32.307  26.266  24.942  1.00  0.00    -0.023 C 
ATOM     19  C   UNL A   1      33.566  25.914  25.782  1.00  0.00     0.012 C 
ATOM     20  C   UNL A   1      31.569  27.370  25.717  1.00  0.00     0.012 C 
ENDBRANCH   5   8
ENDBRANCH   3   4
ENDBRANCH   2   3
ENDBRANCH   1   2
BRANCH   1  21
ATOM     21  C   UNL A   1      38.989  20.163  25.485  1.00  0.00     0.116 C 
BRANCH  21  22
ATOM     22  N   UNL A   1      40.030  19.156  25.720  1.00  0.00    -0.352 N 
ATOM     23  C   UNL A   1      41.384  19.344  25.966  1.00  0.00     0.251 C 
ATOM     24  H   UNL A   1      39.727  18.219  25.702  1.00  0.00     0.163 HD
ATOM     25  O   UNL A   1      42.192  18.459  25.769  1.00  0.00    -0.269 OA
BRANCH  23  26
ATOM     26  C   UNL A   1      41.813  20.650  26.500  1.00  0.00     0.039 A 
ATOM     27  C   UNL A   1      42.419  21.639  25.720  1.00  0.00     0.014 A 
ATOM     28  C   UNL A   1      41.540  20.877  27.839  1.00  0.00     0.014 A 
ATOM     29  C   UNL A   1      42.693  22.872  26.313  1.00  0.00     0.010 A 
ATOM     30  C   UNL A   1      41.519  22.151  28.309  1.00  0.00     0.010 A 
ATOM     31  C   UNL A   1      42.232  23.111  27.616  1.00  0.00    -0.014 A 
BRANCH  31  32
ATOM     32  C   UNL A   1      42.396  24.376  28.310  1.00  0.00     0.031 A 
ATOM     33  C   UNL A   1      41.252  25.299  28.139  1.00  0.00     0.074 A 
ATOM     34  C   UNL A   1      43.350  24.550  29.254  1.00  0.00     0.049 A 
ATOM     35  N   UNL A   1      41.216  26.384  27.443  1.00  0.00    -0.248 NA
ATOM     36  C   UNL A   1      39.936  24.872  28.645  1.00  0.00     0.031 C 
ATOM     37  C   UNL A   1      44.316  23.569  29.777  1.00  0.00     0.029 A 
ATOM     38  N   UNL A   1      43.587  25.632  30.039  1.00  0.00    -0.354 N 
ATOM     39  C   UNL A   1      39.941  26.907  27.634  1.00  0.00     0.074 A 
ATOM     40  C   UNL A   1      39.146  25.828  28.153  1.00  0.00     0.031 C 
ATOM     41  C   UNL A   1      44.862  24.029  30.925  1.00  0.00     0.029 A 
ATOM     42  C   UNL A   1      44.423  25.395  31.129  1.00  0.00     0.049 A 
ATOM     43  H   UNL A   1      43.198  26.518  29.854  1.00  0.00     0.167 HD
ATOM     44  C   UNL A   1      39.742  28.255  27.637  1.00  0.00     0.037 A 
ATOM     45  C   UNL A   1      44.699  26.266  32.133  1.00  0.00     0.037 A 
ATOM     46  C   UNL A   1      40.899  28.935  27.095  1.00  0.00     0.049 A 
ATOM     47  C   UNL A   1      44.331  27.620  31.643  1.00  0.00     0.074 A 
ATOM     48  C   UNL A   1      41.583  28.898  25.895  1.00  0.00     0.029 A 
ATOM     49  N   UNL A   1      41.759  29.519  27.995  1.00  0.00    -0.354 N 
ATOM     50  N   UNL A   1      44.960  28.234  30.679  1.00  0.00    -0.248 NA
ATOM     51  C   UNL A   1      42.968  28.069  31.886  1.00  0.00     0.031 C 
ATOM     52  C   UNL A   1      42.960  29.006  26.253  1.00  0.00     0.029 A 
ATOM     53  C   UNL A   1      43.038  29.188  27.634  1.00  0.00     0.049 A 
ATOM     54  H   UNL A   1      41.501  30.078  28.764  1.00  0.00     0.167 HD
ATOM     55  C   UNL A   1      43.956  28.819  29.919  1.00  0.00     0.074 A 
ATOM     56  C   UNL A   1      42.757  28.746  30.754  1.00  0.00     0.031 C 
ATOM     57  C   UNL A   1      44.120  29.024  28.578  1.00  0.00     0.037 A 
BRANCH  44  58
ATOM     58  C   UNL A   1      38.737  28.984  28.508  1.00  0.00     0.057 A 
ATOM     59  C   UNL A   1      38.759  28.738  29.895  1.00  0.00     0.134 A 
ATOM     60  C   UNL A   1      37.584  29.652  28.048  1.00  0.00     0.134 A 
ATOM     61  F   UNL A   1      39.810  28.136  30.473  1.00  0.00    -0.206 F 
ATOM     62  C   UNL A   1      37.667  29.008  30.728  1.00  0.00     0.040 A 
ATOM     63  C   UNL A   1      36.508  29.971  28.881  1.00  0.00     0.040 A 
ATOM     64  F   UNL A   1      37.379  29.960  26.764  1.00  0.00    -0.206 F 
ATOM     65  C   UNL A   1      36.527  29.609  30.216  1.00  0.00     0.006 A 
ENDBRANCH  44  58
BRANCH  45  66
ATOM     66  C   UNL A   1      44.956  25.995  33.568  1.00  0.00     0.057 A 
ATOM     67  C   UNL A   1      46.014  26.619  34.247  1.00  0.00     0.134 A 
ATOM     68  C   UNL A   1      44.002  25.352  34.374  1.00  0.00     0.134 A 
ATOM     69  F   UNL A   1      46.955  27.292  33.570  1.00  0.00    -0.206 F 
ATOM     70  C   UNL A   1      46.100  26.629  35.647  1.00  0.00     0.040 A 
ATOM     71  C   UNL A   1      44.077  25.352  35.773  1.00  0.00     0.040 A 
ATOM     72  F   UNL A   1      42.913  24.784  33.837  1.00  0.00    -0.206 F 
ATOM     73  C   UNL A   1      45.122  26.005  36.416  1.00  0.00     0.006 A 
ENDBRANCH  45  66
BRANCH  57  74
ATOM     74  C   UNL A   1      45.496  28.845  27.997  1.00  0.00     0.057 A 
ATOM     75  C   UNL A   1      45.979  27.644  27.456  1.00  0.00     0.134 A 
ATOM     76  C   UNL A   1      46.296  29.980  27.827  1.00  0.00     0.134 A 
ATOM     77  F   UNL A   1      45.248  26.524  27.485  1.00  0.00    -0.206 F 
ATOM     78  C   UNL A   1      47.217  27.571  26.806  1.00  0.00     0.040 A 
ATOM     79  C   UNL A   1      47.516  29.928  27.151  1.00  0.00     0.040 A 
ATOM     80  F   UNL A   1      45.875  31.175  28.270  1.00  0.00    -0.206 F 
ATOM     81  C   UNL A   1      47.985  28.719  26.645  1.00  0.00     0.006 A 
ENDBRANCH  57  74
ENDBRANCH  31  32
ENDBRANCH  23  26
ENDBRANCH  21  22
ENDBRANCH   1  21
TORSDOF 11
ENDMDL
