MODEL 1
REMARK VINA RESULT:     -11.9      0.000      0.000
REMARK SMILES Cn1cc(/C=C/C(=O)Nc2ccc(C(=O)NCCCCNC(=O)c3ccc(-c4c5nc(c(-c6c(F)cccc6F)c6ccc([nH]6)c(-c6c(F)cccc6F)c6nc(c(-c7c(F)cccc7F)c7ccc4[nH]7)C=C6)C=C5)cc3)c(O)c2)cn1
REMARK SMILES IDX 18 1 17 2 16 3 14 4 15 5 13 7 10 8 11 9 80 10 12 11 78 12
REMARK SMILES IDX 9 13 7 14 8 15 6 17 5 18 4 19 1 20 2 21 3 22 82 23 81 24
REMARK SMILES IDX 79 25 19 27 20 28 21 29 22 30 23 32 24 33 25 34 77 35 26 36
REMARK SMILES IDX 76 37 27 38 28 39 29 40 70 41 30 42 75 43 69 44 71 45 31 46
REMARK SMILES IDX 74 47 68 48 67 49 32 51 58 52 41 53 57 54 42 55 45 56 56 57
REMARK SMILES IDX 72 58 43 59 44 60 55 62 73 63 46 64 33 65 34 66 39 67 35 68
REMARK SMILES IDX 36 69 38 70 40 71 37 72 59 73 60 74 65 75 61 76 62 77 64 78
REMARK SMILES IDX 66 79 63 80 47 81 48 82 53 83 49 84 50 85 52 86 54 87 51 88
REMARK H PARENT 16 6 9 16 79 26 21 31 71 50 45 61
REMARK Flexibility Score: inf
ROOT
ATOM      1  C   UNL A   1      32.879  29.647  24.977  1.00  0.00     0.023 C 
ENDROOT
BRANCH   1   2
ATOM      2  C   UNL A   1      31.355  29.725  25.046  1.00  0.00     0.116 C 
BRANCH   2   3
ATOM      3  N   UNL A   1      30.690  29.822  23.756  1.00  0.00    -0.352 N 
ATOM      4  C   UNL A   1      30.401  28.851  22.824  1.00  0.00     0.255 C 
ATOM      5  O   UNL A   1      29.816  29.183  21.794  1.00  0.00    -0.269 OA
ATOM      6  H   UNL A   1      30.400  30.729  23.509  1.00  0.00     0.163 HD
BRANCH   4   7
ATOM      7  C   UNL A   1      30.851  27.444  22.981  1.00  0.00     0.081 A 
ATOM      8  C   UNL A   1      31.221  24.658  23.014  1.00  0.00     0.045 A 
ATOM      9  C   UNL A   1      30.279  25.252  23.852  1.00  0.00     0.027 A 
ATOM     10  C   UNL A   1      32.126  25.482  22.342  1.00  0.00     0.073 A 
ATOM     11  C   UNL A   1      30.067  26.631  23.808  1.00  0.00     0.020 A 
ATOM     12  C   UNL A   1      31.961  26.870  22.358  1.00  0.00     0.130 A 
BRANCH   8  13
ATOM     13  N   UNL A   1      31.303  23.273  22.786  1.00  0.00    -0.322 N 
ATOM     14  C   UNL A   1      32.253  22.346  23.116  1.00  0.00     0.248 C 
ATOM     15  O   UNL A   1      32.173  21.202  22.667  1.00  0.00    -0.270 OA
ATOM     16  H   UNL A   1      30.532  22.901  22.299  1.00  0.00     0.170 HD
BRANCH  14  17
ATOM     17  C   UNL A   1      33.380  22.667  24.025  1.00  0.00     0.072 C 
ATOM     18  C   UNL A   1      34.636  22.877  23.597  1.00  0.00     0.017 C 
BRANCH  18  19
ATOM     19  C   UNL A   1      35.757  23.044  24.454  1.00  0.00     0.013 A 
ATOM     20  C   UNL A   1      38.829  22.040  26.035  1.00  0.00     0.173 C 
ATOM     21  N   UNL A   1      37.622  22.646  25.526  1.00  0.00    -0.275 N 
ATOM     22  C   UNL A   1      36.813  22.163  24.539  1.00  0.00     0.116 A 
ATOM     23  N   UNL A   1      37.182  23.801  26.062  1.00  0.00    -0.181 NA
ATOM     24  C   UNL A   1      36.039  24.037  25.410  1.00  0.00     0.143 A 
ENDBRANCH  18  19
ENDBRANCH  14  17
ENDBRANCH   8  13
BRANCH  12  25
ATOM     25  O   UNL A   1      32.945  27.596  21.749  1.00  0.00    -0.507 OA
ATOM     26  H   UNL A   1      33.823  27.562  22.076  1.00  0.00     0.293 HD
ENDBRANCH  12  25
ENDBRANCH   4   7
ENDBRANCH   2   3
ENDBRANCH   1   2
BRANCH   1  27
ATOM     27  C   UNL A   1      33.543  28.493  25.728  1.00  0.00     0.023 C 
BRANCH  27  28
ATOM     28  C   UNL A   1      33.594  28.606  27.248  1.00  0.00     0.116 C 
BRANCH  28  29
ATOM     29  N   UNL A   1      33.670  29.974  27.734  1.00  0.00    -0.352 N 
ATOM     30  C   UNL A   1      34.721  30.666  28.291  1.00  0.00     0.251 C 
ATOM     31  H   UNL A   1      32.835  30.489  27.651  1.00  0.00     0.163 HD
ATOM     32  O   UNL A   1      34.541  31.804  28.717  1.00  0.00    -0.269 OA
BRANCH  30  33
ATOM     33  C   UNL A   1      36.055  30.039  28.425  1.00  0.00     0.039 A 
ATOM     34  C   UNL A   1      36.928  30.081  27.333  1.00  0.00     0.014 A 
ATOM     35  C   UNL A   1      36.455  29.421  29.610  1.00  0.00     0.014 A 
ATOM     36  C   UNL A   1      38.232  29.595  27.465  1.00  0.00     0.010 A 
ATOM     37  C   UNL A   1      37.781  29.017  29.767  1.00  0.00     0.010 A 
ATOM     38  C   UNL A   1      38.688  29.110  28.701  1.00  0.00    -0.014 A 
BRANCH  38  39
ATOM     39  C   UNL A   1      40.105  28.705  28.902  1.00  0.00     0.031 A 
ATOM     40  C   UNL A   1      41.101  29.681  29.468  1.00  0.00     0.074 A 
ATOM     41  C   UNL A   1      40.514  27.480  28.513  1.00  0.00     0.049 A 
ATOM     42  N   UNL A   1      42.395  29.550  29.621  1.00  0.00    -0.248 NA
ATOM     43  C   UNL A   1      40.576  30.988  29.899  1.00  0.00     0.031 C 
ATOM     44  C   UNL A   1      39.663  26.451  27.911  1.00  0.00     0.029 A 
ATOM     45  N   UNL A   1      41.757  26.896  28.553  1.00  0.00    -0.354 N 
ATOM     46  C   UNL A   1      42.837  30.753  30.156  1.00  0.00     0.074 A 
ATOM     47  C   UNL A   1      41.685  31.624  30.246  1.00  0.00     0.031 C 
ATOM     48  C   UNL A   1      40.401  25.358  27.660  1.00  0.00     0.029 A 
ATOM     49  C   UNL A   1      41.785  25.620  28.040  1.00  0.00     0.049 A 
ATOM     50  H   UNL A   1      42.552  27.348  28.915  1.00  0.00     0.167 HD
ATOM     51  C   UNL A   1      44.082  31.093  30.567  1.00  0.00     0.037 A 
ATOM     52  C   UNL A   1      42.813  24.763  27.884  1.00  0.00     0.037 A 
ATOM     53  C   UNL A   1      45.226  30.223  30.498  1.00  0.00     0.049 A 
ATOM     54  C   UNL A   1      44.192  25.179  28.322  1.00  0.00     0.074 A 
ATOM     55  C   UNL A   1      46.525  30.472  30.908  1.00  0.00     0.029 A 
ATOM     56  N   UNL A   1      45.206  28.933  29.992  1.00  0.00    -0.354 N 
ATOM     57  N   UNL A   1      44.582  26.305  28.868  1.00  0.00    -0.248 NA
ATOM     58  C   UNL A   1      45.272  24.201  28.126  1.00  0.00     0.031 C 
ATOM     59  C   UNL A   1      47.298  29.343  30.623  1.00  0.00     0.029 A 
ATOM     60  C   UNL A   1      46.472  28.376  30.076  1.00  0.00     0.049 A 
ATOM     61  H   UNL A   1      44.411  28.480  29.629  1.00  0.00     0.167 HD
ATOM     62  C   UNL A   1      45.941  26.156  29.114  1.00  0.00     0.074 A 
ATOM     63  C   UNL A   1      46.305  24.827  28.671  1.00  0.00     0.031 C 
ATOM     64  C   UNL A   1      46.812  27.042  29.655  1.00  0.00     0.037 A 
BRANCH  51  65
ATOM     65  C   UNL A   1      44.267  32.461  31.155  1.00  0.00     0.057 A 
ATOM     66  C   UNL A   1      44.168  32.683  32.536  1.00  0.00     0.134 A 
ATOM     67  C   UNL A   1      44.597  33.556  30.347  1.00  0.00     0.134 A 
ATOM     68  F   UNL A   1      43.842  31.678  33.362  1.00  0.00    -0.206 F 
ATOM     69  C   UNL A   1      44.371  33.948  33.089  1.00  0.00     0.040 A 
ATOM     70  C   UNL A   1      44.828  34.820  30.892  1.00  0.00     0.040 A 
ATOM     71  F   UNL A   1      44.714  33.413  29.019  1.00  0.00    -0.206 F 
ATOM     72  C   UNL A   1      44.711  35.019  32.266  1.00  0.00     0.006 A 
ENDBRANCH  51  65
BRANCH  52  73
ATOM     73  C   UNL A   1      42.592  23.417  27.292  1.00  0.00     0.057 A 
ATOM     74  C   UNL A   1      42.269  22.319  28.099  1.00  0.00     0.134 A 
ATOM     75  C   UNL A   1      42.751  23.184  25.921  1.00  0.00     0.134 A 
ATOM     76  F   UNL A   1      42.123  22.475  29.423  1.00  0.00    -0.206 F 
ATOM     77  C   UNL A   1      42.146  21.033  27.571  1.00  0.00     0.040 A 
ATOM     78  C   UNL A   1      42.603  21.908  25.375  1.00  0.00     0.040 A 
ATOM     79  F   UNL A   1      43.054  24.194  25.092  1.00  0.00    -0.206 F 
ATOM     80  C   UNL A   1      42.312  20.825  26.203  1.00  0.00     0.006 A 
ENDBRANCH  52  73
BRANCH  64  81
ATOM     81  C   UNL A   1      48.227  26.584  29.849  1.00  0.00     0.057 A 
ATOM     82  C   UNL A   1      49.219  26.813  28.888  1.00  0.00     0.134 A 
ATOM     83  C   UNL A   1      48.608  25.935  31.031  1.00  0.00     0.134 A 
ATOM     84  F   UNL A   1      48.915  27.416  27.728  1.00  0.00    -0.206 F 
ATOM     85  C   UNL A   1      50.535  26.391  29.083  1.00  0.00     0.040 A 
ATOM     86  C   UNL A   1      49.926  25.533  31.250  1.00  0.00     0.040 A 
ATOM     87  F   UNL A   1      47.708  25.693  31.996  1.00  0.00    -0.206 F 
ATOM     88  C   UNL A   1      50.892  25.755  30.271  1.00  0.00     0.006 A 
ENDBRANCH  64  81
ENDBRANCH  38  39
ENDBRANCH  30  33
ENDBRANCH  28  29
ENDBRANCH  27  28
ENDBRANCH   1  27
TORSDOF 15
ENDMDL
MODEL 2
REMARK VINA RESULT:     -11.5      2.214      7.841
REMARK SMILES Cn1cc(/C=C/C(=O)Nc2ccc(C(=O)NCCCCNC(=O)c3ccc(-c4c5nc(c(-c6c(F)cccc6F)c6ccc([nH]6)c(-c6c(F)cccc6F)c6nc(c(-c7c(F)cccc7F)c7ccc4[nH]7)C=C6)C=C5)cc3)c(O)c2)cn1
REMARK SMILES IDX 18 1 17 2 16 3 14 4 15 5 13 7 10 8 11 9 80 10 12 11 78 12
REMARK SMILES IDX 9 13 7 14 8 15 6 17 5 18 4 19 1 20 2 21 3 22 82 23 81 24
REMARK SMILES IDX 79 25 19 27 20 28 21 29 22 30 23 32 24 33 25 34 77 35 26 36
REMARK SMILES IDX 76 37 27 38 28 39 29 40 70 41 30 42 75 43 69 44 71 45 31 46
REMARK SMILES IDX 74 47 68 48 67 49 32 51 58 52 41 53 57 54 42 55 45 56 56 57
REMARK SMILES IDX 72 58 43 59 44 60 55 62 73 63 46 64 33 65 34 66 39 67 35 68
REMARK SMILES IDX 36 69 38 70 40 71 37 72 59 73 60 74 65 75 61 76 62 77 64 78
REMARK SMILES IDX 66 79 63 80 47 81 48 82 53 83 49 84 50 85 52 86 54 87 51 88
REMARK H PARENT 16 6 9 16 79 26 21 31 71 50 45 61
REMARK Flexibility Score: inf
ROOT
ATOM      1  C   UNL A   1      36.590  20.907  24.661  1.00  0.00     0.023 C 
ENDROOT
BRANCH   1   2
ATOM      2  C   UNL A   1      35.451  21.076  25.664  1.00  0.00     0.116 C 
BRANCH   2   3
ATOM      3  N   UNL A   1      34.401  20.074  25.569  1.00  0.00    -0.352 N 
ATOM      4  C   UNL A   1      33.071  20.200  25.239  1.00  0.00     0.255 C 
ATOM      5  O   UNL A   1      32.372  19.188  25.222  1.00  0.00    -0.269 OA
ATOM      6  H   UNL A   1      34.687  19.155  25.776  1.00  0.00     0.163 HD
BRANCH   4   7
ATOM      7  C   UNL A   1      32.438  21.522  24.994  1.00  0.00     0.081 A 
ATOM      8  C   UNL A   1      30.874  23.726  24.225  1.00  0.00     0.045 A 
ATOM      9  C   UNL A   1      31.712  23.104  23.302  1.00  0.00     0.027 A 
ATOM     10  C   UNL A   1      31.002  23.389  25.573  1.00  0.00     0.073 A 
ATOM     11  C   UNL A   1      32.460  21.985  23.673  1.00  0.00     0.020 A 
ATOM     12  C   UNL A   1      31.811  22.315  25.957  1.00  0.00     0.130 A 
BRANCH   8  13
ATOM     13  N   UNL A   1      29.886  24.665  23.876  1.00  0.00    -0.322 N 
ATOM     14  C   UNL A   1      29.809  26.020  24.051  1.00  0.00     0.248 C 
ATOM     15  O   UNL A   1      28.759  26.609  23.794  1.00  0.00    -0.270 OA
ATOM     16  H   UNL A   1      29.105  24.274  23.421  1.00  0.00     0.170 HD
BRANCH  14  17
ATOM     17  C   UNL A   1      30.966  26.817  24.524  1.00  0.00     0.072 C 
ATOM     18  C   UNL A   1      31.167  27.131  25.814  1.00  0.00     0.017 C 
BRANCH  18  19
ATOM     19  C   UNL A   1      32.183  28.011  26.276  1.00  0.00     0.013 A 
ATOM     20  C   UNL A   1      33.478  31.127  27.521  1.00  0.00     0.173 C 
ATOM     21  N   UNL A   1      33.186  29.800  27.035  1.00  0.00    -0.275 N 
ATOM     22  C   UNL A   1      31.953  29.267  26.793  1.00  0.00     0.116 A 
ATOM     23  N   UNL A   1      34.199  28.961  26.745  1.00  0.00    -0.181 NA
ATOM     24  C   UNL A   1      33.583  27.872  26.275  1.00  0.00     0.143 A 
ENDBRANCH  18  19
ENDBRANCH  14  17
ENDBRANCH   8  13
BRANCH  12  25
ATOM     25  O   UNL A   1      31.944  22.118  27.302  1.00  0.00    -0.507 OA
ATOM     26  H   UNL A   1      31.935  22.851  27.886  1.00  0.00     0.293 HD
ENDBRANCH  12  25
ENDBRANCH   4   7
ENDBRANCH   2   3
ENDBRANCH   1   2
BRANCH   1  27
ATOM     27  C   UNL A   1      37.620  19.819  24.967  1.00  0.00     0.023 C 
BRANCH  27  28
ATOM     28  C   UNL A   1      38.854  20.248  25.754  1.00  0.00     0.116 C 
BRANCH  28  29
ATOM     29  N   UNL A   1      39.915  19.255  25.772  1.00  0.00    -0.352 N 
ATOM     30  C   UNL A   1      41.250  19.381  26.080  1.00  0.00     0.251 C 
ATOM     31  H   UNL A   1      39.633  18.344  25.523  1.00  0.00     0.163 HD
ATOM     32  O   UNL A   1      41.998  18.416  25.945  1.00  0.00    -0.269 OA
BRANCH  30  33
ATOM     33  C   UNL A   1      41.805  20.678  26.527  1.00  0.00     0.039 A 
ATOM     34  C   UNL A   1      42.262  21.580  25.560  1.00  0.00     0.014 A 
ATOM     35  C   UNL A   1      41.872  21.017  27.879  1.00  0.00     0.014 A 
ATOM     36  C   UNL A   1      42.689  22.855  25.943  1.00  0.00     0.010 A 
ATOM     37  C   UNL A   1      42.215  22.316  28.251  1.00  0.00     0.010 A 
ATOM     38  C   UNL A   1      42.616  23.254  27.288  1.00  0.00    -0.014 A 
BRANCH  38  39
ATOM     39  C   UNL A   1      42.943  24.644  27.704  1.00  0.00     0.031 A 
ATOM     40  C   UNL A   1      44.377  25.074  27.858  1.00  0.00     0.074 A 
ATOM     41  C   UNL A   1      41.949  25.503  28.010  1.00  0.00     0.049 A 
ATOM     42  N   UNL A   1      44.859  26.205  28.309  1.00  0.00    -0.248 NA
ATOM     43  C   UNL A   1      45.407  24.093  27.476  1.00  0.00     0.031 C 
ATOM     44  C   UNL A   1      40.517  25.204  27.946  1.00  0.00     0.029 A 
ATOM     45  N   UNL A   1      41.993  26.803  28.453  1.00  0.00    -0.354 N 
ATOM     46  C   UNL A   1      46.241  26.069  28.271  1.00  0.00     0.074 A 
ATOM     47  C   UNL A   1      46.521  24.726  27.811  1.00  0.00     0.031 C 
ATOM     48  C   UNL A   1      39.821  26.292  28.311  1.00  0.00     0.029 A 
ATOM     49  C   UNL A   1      40.753  27.353  28.678  1.00  0.00     0.049 A 
ATOM     50  H   UNL A   1      42.833  27.295  28.594  1.00  0.00     0.167 HD
ATOM     51  C   UNL A   1      47.193  26.989  28.560  1.00  0.00     0.037 A 
ATOM     52  C   UNL A   1      40.407  28.570  29.140  1.00  0.00     0.037 A 
ATOM     53  C   UNL A   1      46.918  28.331  28.998  1.00  0.00     0.049 A 
ATOM     54  C   UNL A   1      41.487  29.562  29.482  1.00  0.00     0.074 A 
ATOM     55  C   UNL A   1      47.816  29.342  29.297  1.00  0.00     0.029 A 
ATOM     56  N   UNL A   1      45.649  28.854  29.193  1.00  0.00    -0.354 N 
ATOM     57  N   UNL A   1      42.788  29.431  29.396  1.00  0.00    -0.248 NA
ATOM     58  C   UNL A   1      41.047  30.874  29.980  1.00  0.00     0.031 C 
ATOM     59  C   UNL A   1      47.092  30.467  29.702  1.00  0.00     0.029 A 
ATOM     60  C   UNL A   1      45.742  30.171  29.612  1.00  0.00     0.049 A 
ATOM     61  H   UNL A   1      44.808  28.363  29.052  1.00  0.00     0.167 HD
ATOM     62  C   UNL A   1      43.319  30.651  29.794  1.00  0.00     0.074 A 
ATOM     63  C   UNL A   1      42.199  31.515  30.107  1.00  0.00     0.031 C 
ATOM     64  C   UNL A   1      44.617  31.024  29.894  1.00  0.00     0.037 A 
BRANCH  51  65
ATOM     65  C   UNL A   1      48.625  26.580  28.386  1.00  0.00     0.057 A 
ATOM     66  C   UNL A   1      49.343  25.971  29.425  1.00  0.00     0.134 A 
ATOM     67  C   UNL A   1      49.280  26.745  27.159  1.00  0.00     0.134 A 
ATOM     68  F   UNL A   1      48.777  25.795  30.628  1.00  0.00    -0.206 F 
ATOM     69  C   UNL A   1      50.666  25.559  29.256  1.00  0.00     0.040 A 
ATOM     70  C   UNL A   1      50.595  26.314  26.971  1.00  0.00     0.040 A 
ATOM     71  F   UNL A   1      48.651  27.314  26.121  1.00  0.00    -0.206 F 
ATOM     72  C   UNL A   1      51.292  25.723  28.023  1.00  0.00     0.006 A 
ENDBRANCH  51  65
BRANCH  52  73
ATOM     73  C   UNL A   1      38.976  28.939  29.304  1.00  0.00     0.057 A 
ATOM     74  C   UNL A   1      38.260  29.533  28.258  1.00  0.00     0.134 A 
ATOM     75  C   UNL A   1      38.308  28.757  30.520  1.00  0.00     0.134 A 
ATOM     76  F   UNL A   1      38.851  29.751  27.074  1.00  0.00    -0.206 F 
ATOM     77  C   UNL A   1      36.943  29.965  28.424  1.00  0.00     0.040 A 
ATOM     78  C   UNL A   1      36.982  29.158  30.692  1.00  0.00     0.040 A 
ATOM     79  F   UNL A   1      38.935  28.188  31.560  1.00  0.00    -0.206 F 
ATOM     80  C   UNL A   1      36.300  29.776  29.646  1.00  0.00     0.006 A 
ENDBRANCH  52  73
BRANCH  64  81
ATOM     81  C   UNL A   1      44.897  32.440  30.306  1.00  0.00     0.057 A 
ATOM     82  C   UNL A   1      44.975  33.482  29.374  1.00  0.00     0.134 A 
ATOM     83  C   UNL A   1      45.055  32.769  31.659  1.00  0.00     0.134 A 
ATOM     84  F   UNL A   1      44.846  33.230  28.062  1.00  0.00    -0.206 F 
ATOM     85  C   UNL A   1      45.225  34.797  29.769  1.00  0.00     0.040 A 
ATOM     86  C   UNL A   1      45.279  34.083  32.069  1.00  0.00     0.040 A 
ATOM     87  F   UNL A   1      44.983  31.819  32.604  1.00  0.00    -0.206 F 
ATOM     88  C   UNL A   1      45.371  35.100  31.121  1.00  0.00     0.006 A 
ENDBRANCH  64  81
ENDBRANCH  38  39
ENDBRANCH  30  33
ENDBRANCH  28  29
ENDBRANCH  27  28
ENDBRANCH   1  27
TORSDOF 15
ENDMDL
MODEL 3
REMARK VINA RESULT:     -11.4      2.491      7.639
REMARK SMILES Cn1cc(/C=C/C(=O)Nc2ccc(C(=O)NCCCCNC(=O)c3ccc(-c4c5nc(c(-c6c(F)cccc6F)c6ccc([nH]6)c(-c6c(F)cccc6F)c6nc(c(-c7c(F)cccc7F)c7ccc4[nH]7)C=C6)C=C5)cc3)c(O)c2)cn1
REMARK SMILES IDX 18 1 17 2 16 3 14 4 15 5 13 7 10 8 11 9 80 10 12 11 78 12
REMARK SMILES IDX 9 13 7 14 8 15 6 17 5 18 4 19 1 20 2 21 3 22 82 23 81 24
REMARK SMILES IDX 79 25 19 27 20 28 21 29 22 30 23 32 24 33 25 34 77 35 26 36
REMARK SMILES IDX 76 37 27 38 28 39 29 40 70 41 30 42 75 43 69 44 71 45 31 46
REMARK SMILES IDX 74 47 68 48 67 49 32 51 58 52 41 53 57 54 42 55 45 56 56 57
REMARK SMILES IDX 72 58 43 59 44 60 55 62 73 63 46 64 33 65 34 66 39 67 35 68
REMARK SMILES IDX 36 69 38 70 40 71 37 72 59 73 60 74 65 75 61 76 62 77 64 78
REMARK SMILES IDX 66 79 63 80 47 81 48 82 53 83 49 84 50 85 52 86 54 87 51 88
REMARK H PARENT 16 6 9 16 79 26 21 31 71 50 45 61
REMARK Flexibility Score: inf
ROOT
ATOM      1  C   UNL A   1      36.803  21.139  24.729  1.00  0.00     0.023 C 
ENDROOT
BRANCH   1   2
ATOM      2  C   UNL A   1      35.545  21.025  25.588  1.00  0.00     0.116 C 
BRANCH   2   3
ATOM      3  N   UNL A   1      34.582  20.035  25.131  1.00  0.00    -0.352 N 
ATOM      4  C   UNL A   1      33.311  20.192  24.626  1.00  0.00     0.255 C 
ATOM      5  O   UNL A   1      32.683  19.186  24.297  1.00  0.00    -0.269 OA
ATOM      6  H   UNL A   1      34.888  19.103  25.192  1.00  0.00     0.163 HD
BRANCH   4   7
ATOM      7  C   UNL A   1      32.644  21.517  24.553  1.00  0.00     0.081 A 
ATOM      8  C   UNL A   1      31.015  23.759  24.086  1.00  0.00     0.045 A 
ATOM      9  C   UNL A   1      31.838  23.267  23.076  1.00  0.00     0.027 A 
ATOM     10  C   UNL A   1      31.189  23.271  25.383  1.00  0.00     0.073 A 
ATOM     11  C   UNL A   1      32.619  22.130  23.295  1.00  0.00     0.020 A 
ATOM     12  C   UNL A   1      32.029  22.179  25.618  1.00  0.00     0.130 A 
BRANCH   8  13
ATOM     13  N   UNL A   1      29.999  24.708  23.875  1.00  0.00    -0.322 N 
ATOM     14  C   UNL A   1      29.916  26.042  24.171  1.00  0.00     0.248 C 
ATOM     15  O   UNL A   1      28.847  26.634  24.024  1.00  0.00    -0.270 OA
ATOM     16  H   UNL A   1      29.198  24.345  23.430  1.00  0.00     0.170 HD
BRANCH  14  17
ATOM     17  C   UNL A   1      31.089  26.813  24.649  1.00  0.00     0.072 C 
ATOM     18  C   UNL A   1      31.255  27.186  25.929  1.00  0.00     0.017 C 
BRANCH  18  19
ATOM     19  C   UNL A   1      32.291  28.045  26.385  1.00  0.00     0.013 A 
ATOM     20  C   UNL A   1      33.654  31.135  27.626  1.00  0.00     0.173 C 
ATOM     21  N   UNL A   1      33.333  29.814  27.140  1.00  0.00    -0.275 N 
ATOM     22  C   UNL A   1      32.088  29.304  26.905  1.00  0.00     0.116 A 
ATOM     23  N   UNL A   1      34.328  28.956  26.842  1.00  0.00    -0.181 NA
ATOM     24  C   UNL A   1      33.688  27.879  26.375  1.00  0.00     0.143 A 
ENDBRANCH  18  19
ENDBRANCH  14  17
ENDBRANCH   8  13
BRANCH  12  25
ATOM     25  O   UNL A   1      32.205  21.831  26.927  1.00  0.00    -0.507 OA
ATOM     26  H   UNL A   1      33.067  21.667  27.256  1.00  0.00     0.293 HD
ENDBRANCH  12  25
ENDBRANCH   4   7
ENDBRANCH   2   3
ENDBRANCH   1   2
BRANCH   1  27
ATOM     27  C   UNL A   1      37.825  20.010  24.855  1.00  0.00     0.023 C 
BRANCH  27  28
ATOM     28  C   UNL A   1      39.032  20.276  25.749  1.00  0.00     0.116 C 
BRANCH  28  29
ATOM     29  N   UNL A   1      40.011  19.201  25.752  1.00  0.00    -0.352 N 
ATOM     30  C   UNL A   1      41.364  19.227  26.001  1.00  0.00     0.251 C 
ATOM     31  H   UNL A   1      39.647  18.310  25.542  1.00  0.00     0.163 HD
ATOM     32  O   UNL A   1      42.026  18.202  25.864  1.00  0.00    -0.269 OA
BRANCH  30  33
ATOM     33  C   UNL A   1      42.039  20.486  26.387  1.00  0.00     0.039 A 
ATOM     34  C   UNL A   1      42.527  21.322  25.377  1.00  0.00     0.014 A 
ATOM     35  C   UNL A   1      42.188  20.855  27.725  1.00  0.00     0.014 A 
ATOM     36  C   UNL A   1      43.070  22.567  25.705  1.00  0.00     0.010 A 
ATOM     37  C   UNL A   1      42.649  22.132  28.044  1.00  0.00     0.010 A 
ATOM     38  C   UNL A   1      43.085  23.007  27.038  1.00  0.00    -0.014 A 
BRANCH  38  39
ATOM     39  C   UNL A   1      43.539  24.377  27.400  1.00  0.00     0.031 A 
ATOM     40  C   UNL A   1      42.542  25.423  27.818  1.00  0.00     0.074 A 
ATOM     41  C   UNL A   1      44.844  24.701  27.287  1.00  0.00     0.049 A 
ATOM     42  N   UNL A   1      42.731  26.694  28.070  1.00  0.00    -0.248 NA
ATOM     43  C   UNL A   1      41.141  24.988  27.949  1.00  0.00     0.031 C 
ATOM     44  C   UNL A   1      45.911  23.796  26.853  1.00  0.00     0.029 A 
ATOM     45  N   UNL A   1      45.495  25.889  27.516  1.00  0.00    -0.354 N 
ATOM     46  C   UNL A   1      41.479  27.208  28.381  1.00  0.00     0.074 A 
ATOM     47  C   UNL A   1      40.528  26.128  28.227  1.00  0.00     0.031 C 
ATOM     48  C   UNL A   1      47.081  24.453  26.868  1.00  0.00     0.029 A 
ATOM     49  C   UNL A   1      46.846  25.836  27.270  1.00  0.00     0.049 A 
ATOM     50  H   UNL A   1      45.036  26.702  27.828  1.00  0.00     0.167 HD
ATOM     51  C   UNL A   1      41.152  28.458  28.789  1.00  0.00     0.037 A 
ATOM     52  C   UNL A   1      47.788  26.796  27.349  1.00  0.00     0.037 A 
ATOM     53  C   UNL A   1      42.096  29.529  28.963  1.00  0.00     0.049 A 
ATOM     54  C   UNL A   1      47.391  28.183  27.777  1.00  0.00     0.074 A 
ATOM     55  C   UNL A   1      41.862  30.825  29.392  1.00  0.00     0.029 A 
ATOM     56  N   UNL A   1      43.458  29.427  28.724  1.00  0.00    -0.354 N 
ATOM     57  N   UNL A   1      46.208  28.640  28.110  1.00  0.00    -0.248 NA
ATOM     58  C   UNL A   1      48.462  29.188  27.844  1.00  0.00     0.031 C 
ATOM     59  C   UNL A   1      43.078  31.515  29.384  1.00  0.00     0.029 A 
ATOM     60  C   UNL A   1      44.075  30.637  28.992  1.00  0.00     0.049 A 
ATOM     61  H   UNL A   1      43.917  28.614  28.411  1.00  0.00     0.167 HD
ATOM     62  C   UNL A   1      46.400  29.970  28.461  1.00  0.00     0.074 A 
ATOM     63  C   UNL A   1      47.814  30.244  28.314  1.00  0.00     0.031 C 
ATOM     64  C   UNL A   1      45.487  30.886  28.865  1.00  0.00     0.037 A 
BRANCH  51  65
ATOM     65  C   UNL A   1      39.710  28.727  29.103  1.00  0.00     0.057 A 
ATOM     66  C   UNL A   1      39.198  28.552  30.396  1.00  0.00     0.134 A 
ATOM     67  C   UNL A   1      38.836  29.215  28.123  1.00  0.00     0.134 A 
ATOM     68  F   UNL A   1      39.980  28.076  31.376  1.00  0.00    -0.206 F 
ATOM     69  C   UNL A   1      37.864  28.833  30.698  1.00  0.00     0.040 A 
ATOM     70  C   UNL A   1      37.507  29.524  28.420  1.00  0.00     0.040 A 
ATOM     71  F   UNL A   1      39.261  29.412  26.867  1.00  0.00    -0.206 F 
ATOM     72  C   UNL A   1      37.017  29.329  29.710  1.00  0.00     0.006 A 
ENDBRANCH  51  65
BRANCH  52  73
ATOM     73  C   UNL A   1      49.207  26.493  27.025  1.00  0.00     0.057 A 
ATOM     74  C   UNL A   1      49.673  26.547  25.706  1.00  0.00     0.134 A 
ATOM     75  C   UNL A   1      50.115  26.092  28.012  1.00  0.00     0.134 A 
ATOM     76  F   UNL A   1      48.845  26.905  24.712  1.00  0.00    -0.206 F 
ATOM     77  C   UNL A   1      50.978  26.180  25.373  1.00  0.00     0.040 A 
ATOM     78  C   UNL A   1      51.431  25.750  27.699  1.00  0.00     0.040 A 
ATOM     79  F   UNL A   1      49.735  26.026  29.297  1.00  0.00    -0.206 F 
ATOM     80  C   UNL A   1      51.863  25.780  26.374  1.00  0.00     0.006 A 
ENDBRANCH  52  73
BRANCH  64  81
ATOM     81  C   UNL A   1      45.996  32.249  29.231  1.00  0.00     0.057 A 
ATOM     82  C   UNL A   1      46.427  32.557  30.528  1.00  0.00     0.134 A 
ATOM     83  C   UNL A   1      46.087  33.257  28.262  1.00  0.00     0.134 A 
ATOM     84  F   UNL A   1      46.352  31.639  31.504  1.00  0.00    -0.206 F 
ATOM     85  C   UNL A   1      46.907  33.825  30.854  1.00  0.00     0.040 A 
ATOM     86  C   UNL A   1      46.591  34.521  28.570  1.00  0.00     0.040 A 
ATOM     87  F   UNL A   1      45.699  33.025  26.999  1.00  0.00    -0.206 F 
ATOM     88  C   UNL A   1      46.997  34.809  29.871  1.00  0.00     0.006 A 
ENDBRANCH  64  81
ENDBRANCH  38  39
ENDBRANCH  30  33
ENDBRANCH  28  29
ENDBRANCH  27  28
ENDBRANCH   1  27
TORSDOF 15
ENDMDL
