MODEL 1
REMARK VINA RESULT:     -11.1      0.000      0.000
REMARK SMILES O=C(NCCCCNC(=O)[C@H]1COc2c(O)cccc2C1)c1ccc(-c2c3nc(c(-c4c(F)cccc4F)c4ccc([nH]4)c(-c4c(F)cccc4F)c4nc(c(-c5c(F)cccc5F)c5ccc2[nH]5)C=C4)C=C3)cc1
REMARK SMILES IDX 5 1 4 2 3 3 1 4 2 5 22 7 23 8 75 9 24 10 74 11 25 12 26 13
REMARK SMILES IDX 27 14 68 15 28 16 73 17 67 18 69 19 29 20 72 21 66 22 65 23
REMARK SMILES IDX 30 25 56 26 39 27 55 28 40 29 43 30 54 31 70 32 41 33 42 34
REMARK SMILES IDX 53 36 71 37 44 38 31 39 32 40 37 41 33 42 34 43 36 44 38 45
REMARK SMILES IDX 35 46 57 47 58 48 63 49 59 50 60 51 62 52 64 53 61 54 45 55
REMARK SMILES IDX 46 56 51 57 47 58 48 59 50 60 52 61 49 62 6 63 7 64 8 65
REMARK SMILES IDX 9 66 10 68 11 69 12 70 21 71 13 72 20 73 14 74 19 75 15 76
REMARK SMILES IDX 18 77 17 78 16 79
REMARK H PARENT 3 6 69 24 43 35 8 67 16 80
REMARK Flexibility Score: inf
ROOT
ATOM      1  C   UNL A   1      35.611  33.167  28.305  1.00  0.00     0.023 C 
ENDROOT
BRANCH   1   2
ATOM      2  C   UNL A   1      34.644  32.327  29.132  1.00  0.00     0.116 C 
BRANCH   2   3
ATOM      3  N   UNL A   1      34.067  31.223  28.376  1.00  0.00    -0.352 N 
ATOM      4  O   UNL A   1      34.071  29.343  27.128  1.00  0.00    -0.269 OA
ATOM      5  C   UNL A   1      34.678  30.103  27.869  1.00  0.00     0.251 C 
ATOM      6  H   UNL A   1      33.100  31.291  28.205  1.00  0.00     0.163 HD
BRANCH   5   7
ATOM      7  C   UNL A   1      36.090  29.839  28.207  1.00  0.00     0.039 A 
ATOM      8  C   UNL A   1      37.098  30.075  27.269  1.00  0.00     0.014 A 
ATOM      9  C   UNL A   1      36.397  29.330  29.471  1.00  0.00     0.014 A 
ATOM     10  C   UNL A   1      38.404  29.687  27.550  1.00  0.00     0.010 A 
ATOM     11  C   UNL A   1      37.715  28.991  29.772  1.00  0.00     0.010 A 
ATOM     12  C   UNL A   1      38.721  29.137  28.802  1.00  0.00    -0.014 A 
BRANCH  12  13
ATOM     13  C   UNL A   1      40.116  28.742  29.101  1.00  0.00     0.031 A 
ATOM     14  C   UNL A   1      41.046  29.690  29.800  1.00  0.00     0.074 A 
ATOM     15  C   UNL A   1      40.538  27.520  28.728  1.00  0.00     0.049 A 
ATOM     16  N   UNL A   1      42.308  29.532  30.106  1.00  0.00    -0.248 NA
ATOM     17  C   UNL A   1      40.489  30.990  30.207  1.00  0.00     0.031 C 
ATOM     18  C   UNL A   1      39.718  26.518  28.043  1.00  0.00     0.029 A 
ATOM     19  N   UNL A   1      41.761  26.917  28.862  1.00  0.00    -0.354 N 
ATOM     20  C   UNL A   1      42.700  30.709  30.731  1.00  0.00     0.074 A 
ATOM     21  C   UNL A   1      41.547  31.584  30.742  1.00  0.00     0.031 C 
ATOM     22  C   UNL A   1      40.463  25.424  27.817  1.00  0.00     0.029 A 
ATOM     23  C   UNL A   1      41.819  25.668  28.297  1.00  0.00     0.049 A 
ATOM     24  H   UNL A   1      42.524  27.340  29.319  1.00  0.00     0.167 HD
ATOM     25  C   UNL A   1      43.910  31.021  31.254  1.00  0.00     0.037 A 
ATOM     26  C   UNL A   1      42.859  24.828  28.152  1.00  0.00     0.037 A 
ATOM     27  C   UNL A   1      45.047  30.137  31.249  1.00  0.00     0.049 A 
ATOM     28  C   UNL A   1      44.205  25.234  28.676  1.00  0.00     0.074 A 
ATOM     29  C   UNL A   1      46.292  30.330  31.821  1.00  0.00     0.029 A 
ATOM     30  N   UNL A   1      45.080  28.900  30.626  1.00  0.00    -0.354 N 
ATOM     31  N   UNL A   1      44.545  26.322  29.325  1.00  0.00    -0.248 NA
ATOM     32  C   UNL A   1      45.315  24.301  28.437  1.00  0.00     0.031 C 
ATOM     33  C   UNL A   1      47.097  29.232  31.497  1.00  0.00     0.029 A 
ATOM     34  C   UNL A   1      46.340  28.337  30.758  1.00  0.00     0.049 A 
ATOM     35  H   UNL A   1      44.322  28.481  30.158  1.00  0.00     0.167 HD
ATOM     36  C   UNL A   1      45.904  26.202  29.577  1.00  0.00     0.074 A 
ATOM     37  C   UNL A   1      46.321  24.924  29.036  1.00  0.00     0.031 C 
ATOM     38  C   UNL A   1      46.737  27.073  30.197  1.00  0.00     0.037 A 
BRANCH  25  39
ATOM     39  C   UNL A   1      44.079  32.381  31.863  1.00  0.00     0.057 A 
ATOM     40  C   UNL A   1      44.553  33.451  31.093  1.00  0.00     0.134 A 
ATOM     41  C   UNL A   1      43.835  32.620  33.220  1.00  0.00     0.134 A 
ATOM     42  F   UNL A   1      44.812  33.288  29.787  1.00  0.00    -0.206 F 
ATOM     43  C   UNL A   1      44.786  34.708  31.654  1.00  0.00     0.040 A 
ATOM     44  C   UNL A   1      44.044  33.878  33.789  1.00  0.00     0.040 A 
ATOM     45  F   UNL A   1      43.369  31.640  34.010  1.00  0.00    -0.206 F 
ATOM     46  C   UNL A   1      44.529  34.924  33.005  1.00  0.00     0.006 A 
ENDBRANCH  25  39
BRANCH  26  47
ATOM     47  C   UNL A   1      42.680  23.539  27.440  1.00  0.00     0.057 A 
ATOM     48  C   UNL A   1      42.856  23.446  26.054  1.00  0.00     0.134 A 
ATOM     49  C   UNL A   1      42.360  22.367  28.132  1.00  0.00     0.134 A 
ATOM     50  F   UNL A   1      43.162  24.536  25.335  1.00  0.00    -0.206 F 
ATOM     51  C   UNL A   1      42.714  22.233  25.380  1.00  0.00     0.040 A 
ATOM     52  C   UNL A   1      42.240  21.142  27.474  1.00  0.00     0.040 A 
ATOM     53  F   UNL A   1      42.201  22.391  29.463  1.00  0.00    -0.206 F 
ATOM     54  C   UNL A   1      42.415  21.074  26.093  1.00  0.00     0.006 A 
ENDBRANCH  26  47
BRANCH  38  55
ATOM     55  C   UNL A   1      48.174  26.666  30.312  1.00  0.00     0.057 A 
ATOM     56  C   UNL A   1      48.620  25.895  31.392  1.00  0.00     0.134 A 
ATOM     57  C   UNL A   1      49.122  27.053  29.355  1.00  0.00     0.134 A 
ATOM     58  F   UNL A   1      47.763  25.497  32.345  1.00  0.00    -0.206 F 
ATOM     59  C   UNL A   1      49.959  25.522  31.517  1.00  0.00     0.040 A 
ATOM     60  C   UNL A   1      50.458  26.665  29.457  1.00  0.00     0.040 A 
ATOM     61  F   UNL A   1      48.752  27.776  28.288  1.00  0.00    -0.206 F 
ATOM     62  C   UNL A   1      50.881  25.902  30.544  1.00  0.00     0.006 A 
ENDBRANCH  38  55
ENDBRANCH  12  13
ENDBRANCH   5   7
ENDBRANCH   2   3
ENDBRANCH   1   2
BRANCH   1  63
ATOM     63  C   UNL A   1      36.897  33.571  29.021  1.00  0.00     0.023 C 
BRANCH  63  64
ATOM     64  C   UNL A   1      37.155  32.869  30.350  1.00  0.00     0.116 C 
BRANCH  64  65
ATOM     65  N   UNL A   1      37.591  33.787  31.380  1.00  0.00    -0.356 N 
ATOM     66  C   UNL A   1      37.132  34.087  32.618  1.00  0.00     0.226 C 
ATOM     67  H   UNL A   1      38.389  34.303  31.126  1.00  0.00     0.163 HD
ATOM     68  O   UNL A   1      37.810  34.929  33.224  1.00  0.00    -0.275 OA
BRANCH  66  69
ATOM     69  C   UNL A   1      35.823  33.571  33.235  1.00  0.00     0.120 C 
ATOM     70  C   UNL A   1      35.164  34.343  34.366  1.00  0.00     0.243 C 
ATOM     71  C   UNL A   1      34.746  33.523  32.131  1.00  0.00     0.056 C 
ATOM     72  O   UNL A   1      35.017  35.728  34.048  1.00  0.00    -0.489 OA
ATOM     73  C   UNL A   1      34.182  34.905  31.901  1.00  0.00    -0.001 A 
ATOM     74  C   UNL A   1      34.368  35.921  32.850  1.00  0.00     0.164 A 
ATOM     75  C   UNL A   1      33.461  35.192  30.735  1.00  0.00     0.008 A 
ATOM     76  C   UNL A   1      33.911  37.213  32.591  1.00  0.00     0.157 A 
ATOM     77  C   UNL A   1      32.977  36.484  30.502  1.00  0.00     0.004 A 
ATOM     78  C   UNL A   1      33.215  37.502  31.427  1.00  0.00     0.050 A 
BRANCH  76  79
ATOM     79  O   UNL A   1      34.142  38.221  33.485  1.00  0.00    -0.504 OA
ATOM     80  H   UNL A   1      34.778  38.881  33.292  1.00  0.00     0.293 HD
ENDBRANCH  76  79
ENDBRANCH  66  69
ENDBRANCH  64  65
ENDBRANCH  63  64
ENDBRANCH   1  63
TORSDOF 12
ENDMDL
MODEL 2
REMARK VINA RESULT:     -11.1      5.124     10.789
REMARK SMILES O=C(NCCCCNC(=O)[C@H]1COc2c(O)cccc2C1)c1ccc(-c2c3nc(c(-c4c(F)cccc4F)c4ccc([nH]4)c(-c4c(F)cccc4F)c4nc(c(-c5c(F)cccc5F)c5ccc2[nH]5)C=C4)C=C3)cc1
REMARK SMILES IDX 5 1 4 2 3 3 1 4 2 5 22 7 23 8 75 9 24 10 74 11 25 12 26 13
REMARK SMILES IDX 27 14 68 15 28 16 73 17 67 18 69 19 29 20 72 21 66 22 65 23
REMARK SMILES IDX 30 25 56 26 39 27 55 28 40 29 43 30 54 31 70 32 41 33 42 34
REMARK SMILES IDX 53 36 71 37 44 38 31 39 32 40 37 41 33 42 34 43 36 44 38 45
REMARK SMILES IDX 35 46 57 47 58 48 63 49 59 50 60 51 62 52 64 53 61 54 45 55
REMARK SMILES IDX 46 56 51 57 47 58 48 59 50 60 52 61 49 62 6 63 7 64 8 65
REMARK SMILES IDX 9 66 10 68 11 69 12 70 21 71 13 72 20 73 14 74 19 75 15 76
REMARK SMILES IDX 18 77 17 78 16 79
REMARK H PARENT 3 6 69 24 43 35 8 67 16 80
REMARK Flexibility Score: inf
ROOT
ATOM      1  C   UNL A   1      37.904  20.074  24.999  1.00  0.00     0.023 C 
ENDROOT
BRANCH   1   2
ATOM      2  C   UNL A   1      38.983  20.221  26.067  1.00  0.00     0.116 C 
BRANCH   2   3
ATOM      3  N   UNL A   1      40.025  19.210  25.957  1.00  0.00    -0.352 N 
ATOM      4  O   UNL A   1      42.132  18.416  25.791  1.00  0.00    -0.269 OA
ATOM      5  C   UNL A   1      41.388  19.350  26.055  1.00  0.00     0.251 C 
ATOM      6  H   UNL A   1      39.706  18.293  25.788  1.00  0.00     0.163 HD
BRANCH   5   7
ATOM      7  C   UNL A   1      41.949  20.654  26.459  1.00  0.00     0.039 A 
ATOM      8  C   UNL A   1      42.134  20.955  27.811  1.00  0.00     0.014 A 
ATOM      9  C   UNL A   1      42.269  21.585  25.470  1.00  0.00     0.014 A 
ATOM     10  C   UNL A   1      42.526  22.237  28.182  1.00  0.00     0.010 A 
ATOM     11  C   UNL A   1      42.715  22.854  25.842  1.00  0.00     0.010 A 
ATOM     12  C   UNL A   1      42.814  23.197  27.200  1.00  0.00    -0.014 A 
BRANCH  12  13
ATOM     13  C   UNL A   1      43.247  24.555  27.601  1.00  0.00     0.031 A 
ATOM     14  C   UNL A   1      42.241  25.585  28.027  1.00  0.00     0.074 A 
ATOM     15  C   UNL A   1      44.559  24.853  27.569  1.00  0.00     0.049 A 
ATOM     16  N   UNL A   1      42.433  26.832  28.370  1.00  0.00    -0.248 NA
ATOM     17  C   UNL A   1      40.832  25.160  28.070  1.00  0.00     0.031 C 
ATOM     18  C   UNL A   1      45.624  23.928  27.172  1.00  0.00     0.029 A 
ATOM     19  N   UNL A   1      45.219  26.016  27.865  1.00  0.00    -0.354 N 
ATOM     20  C   UNL A   1      41.176  27.346  28.662  1.00  0.00     0.074 A 
ATOM     21  C   UNL A   1      40.223  26.281  28.433  1.00  0.00     0.031 C 
ATOM     22  C   UNL A   1      46.804  24.562  27.248  1.00  0.00     0.029 A 
ATOM     23  C   UNL A   1      46.574  25.944  27.653  1.00  0.00     0.049 A 
ATOM     24  H   UNL A   1      44.766  26.825  28.196  1.00  0.00     0.167 HD
ATOM     25  C   UNL A   1      40.854  28.590  29.088  1.00  0.00     0.037 A 
ATOM     26  C   UNL A   1      47.518  26.897  27.742  1.00  0.00     0.037 A 
ATOM     27  C   UNL A   1      41.813  29.639  29.325  1.00  0.00     0.049 A 
ATOM     28  C   UNL A   1      47.118  28.287  28.146  1.00  0.00     0.074 A 
ATOM     29  C   UNL A   1      41.595  30.909  29.831  1.00  0.00     0.029 A 
ATOM     30  N   UNL A   1      43.168  29.543  29.053  1.00  0.00    -0.354 N 
ATOM     31  N   UNL A   1      45.935  28.741  28.483  1.00  0.00    -0.248 NA
ATOM     32  C   UNL A   1      48.183  29.298  28.170  1.00  0.00     0.031 C 
ATOM     33  C   UNL A   1      42.812  31.600  29.816  1.00  0.00     0.029 A 
ATOM     34  C   UNL A   1      43.794  30.746  29.338  1.00  0.00     0.049 A 
ATOM     35  H   UNL A   1      43.621  28.739  28.710  1.00  0.00     0.167 HD
ATOM     36  C   UNL A   1      46.114  30.087  28.766  1.00  0.00     0.074 A 
ATOM     37  C   UNL A   1      47.524  30.370  28.587  1.00  0.00     0.031 C 
ATOM     38  C   UNL A   1      45.194  31.011  29.135  1.00  0.00     0.037 A 
BRANCH  25  39
ATOM     39  C   UNL A   1      39.404  28.899  29.314  1.00  0.00     0.057 A 
ATOM     40  C   UNL A   1      38.620  29.427  28.280  1.00  0.00     0.134 A 
ATOM     41  C   UNL A   1      38.798  28.735  30.565  1.00  0.00     0.134 A 
ATOM     42  F   UNL A   1      39.142  29.615  27.058  1.00  0.00    -0.206 F 
ATOM     43  C   UNL A   1      37.288  29.789  28.485  1.00  0.00     0.040 A 
ATOM     44  C   UNL A   1      37.461  29.074  30.778  1.00  0.00     0.040 A 
ATOM     45  F   UNL A   1      39.491  28.224  31.594  1.00  0.00    -0.206 F 
ATOM     46  C   UNL A   1      36.704  29.610  29.737  1.00  0.00     0.006 A 
ENDBRANCH  25  39
BRANCH  26  47
ATOM     47  C   UNL A   1      48.926  26.583  27.398  1.00  0.00     0.057 A 
ATOM     48  C   UNL A   1      49.820  26.107  28.364  1.00  0.00     0.134 A 
ATOM     49  C   UNL A   1      49.400  26.723  26.090  1.00  0.00     0.134 A 
ATOM     50  F   UNL A   1      49.425  25.953  29.637  1.00  0.00    -0.206 F 
ATOM     51  C   UNL A   1      51.139  25.785  28.043  1.00  0.00     0.040 A 
ATOM     52  C   UNL A   1      50.710  26.381  25.750  1.00  0.00     0.040 A 
ATOM     53  F   UNL A   1      48.584  27.154  25.118  1.00  0.00    -0.206 F 
ATOM     54  C   UNL A   1      51.584  25.913  26.730  1.00  0.00     0.006 A 
ENDBRANCH  26  47
BRANCH  38  55
ATOM     55  C   UNL A   1      45.692  32.406  29.362  1.00  0.00     0.057 A 
ATOM     56  C   UNL A   1      45.690  33.348  28.326  1.00  0.00     0.134 A 
ATOM     57  C   UNL A   1      46.187  32.811  30.608  1.00  0.00     0.134 A 
ATOM     58  F   UNL A   1      45.233  33.020  27.108  1.00  0.00    -0.206 F 
ATOM     59  C   UNL A   1      46.165  34.645  28.521  1.00  0.00     0.040 A 
ATOM     60  C   UNL A   1      46.642  34.113  30.821  1.00  0.00     0.040 A 
ATOM     61  F   UNL A   1      46.197  31.960  31.644  1.00  0.00    -0.206 F 
ATOM     62  C   UNL A   1      46.637  35.033  29.774  1.00  0.00     0.006 A 
ENDBRANCH  38  55
ENDBRANCH  12  13
ENDBRANCH   5   7
ENDBRANCH   2   3
ENDBRANCH   1   2
BRANCH   1  63
ATOM     63  C   UNL A   1      37.572  21.353  24.232  1.00  0.00     0.023 C 
BRANCH  63  64
ATOM     64  C   UNL A   1      36.437  22.189  24.814  1.00  0.00     0.116 C 
BRANCH  64  65
ATOM     65  N   UNL A   1      35.357  22.379  23.871  1.00  0.00    -0.356 N 
ATOM     66  C   UNL A   1      34.019  22.174  23.929  1.00  0.00     0.226 C 
ATOM     67  H   UNL A   1      35.658  22.731  23.002  1.00  0.00     0.163 HD
ATOM     68  O   UNL A   1      33.408  22.493  22.899  1.00  0.00    -0.275 OA
BRANCH  66  69
ATOM     69  C   UNL A   1      33.269  21.491  25.083  1.00  0.00     0.120 C 
ATOM     70  C   UNL A   1      31.903  20.874  24.836  1.00  0.00     0.243 C 
ATOM     71  C   UNL A   1      34.128  20.317  25.599  1.00  0.00     0.056 C 
ATOM     72  O   UNL A   1      31.910  20.003  23.703  1.00  0.00    -0.489 OA
ATOM     73  C   UNL A   1      33.969  19.123  24.687  1.00  0.00    -0.001 A 
ATOM     74  C   UNL A   1      32.896  19.048  23.787  1.00  0.00     0.164 A 
ATOM     75  C   UNL A   1      34.893  18.071  24.730  1.00  0.00     0.008 A 
ATOM     76  C   UNL A   1      32.804  17.979  22.896  1.00  0.00     0.157 A 
ATOM     77  C   UNL A   1      34.770  16.986  23.854  1.00  0.00     0.004 A 
ATOM     78  C   UNL A   1      33.730  16.946  22.925  1.00  0.00     0.050 A 
BRANCH  76  79
ATOM     79  O   UNL A   1      31.795  17.930  21.976  1.00  0.00    -0.504 OA
ATOM     80  H   UNL A   1      31.430  18.724  21.638  1.00  0.00     0.293 HD
ENDBRANCH  76  79
ENDBRANCH  66  69
ENDBRANCH  64  65
ENDBRANCH  63  64
ENDBRANCH   1  63
TORSDOF 12
ENDMDL
MODEL 3
REMARK VINA RESULT:     -11.0      4.169      9.722
REMARK SMILES O=C(NCCCCNC(=O)[C@H]1COc2c(O)cccc2C1)c1ccc(-c2c3nc(c(-c4c(F)cccc4F)c4ccc([nH]4)c(-c4c(F)cccc4F)c4nc(c(-c5c(F)cccc5F)c5ccc2[nH]5)C=C4)C=C3)cc1
REMARK SMILES IDX 5 1 4 2 3 3 1 4 2 5 22 7 23 8 75 9 24 10 74 11 25 12 26 13
REMARK SMILES IDX 27 14 68 15 28 16 73 17 67 18 69 19 29 20 72 21 66 22 65 23
REMARK SMILES IDX 30 25 56 26 39 27 55 28 40 29 43 30 54 31 70 32 41 33 42 34
REMARK SMILES IDX 53 36 71 37 44 38 31 39 32 40 37 41 33 42 34 43 36 44 38 45
REMARK SMILES IDX 35 46 57 47 58 48 63 49 59 50 60 51 62 52 64 53 61 54 45 55
REMARK SMILES IDX 46 56 51 57 47 58 48 59 50 60 52 61 49 62 6 63 7 64 8 65
REMARK SMILES IDX 9 66 10 68 11 69 12 70 21 71 13 72 20 73 14 74 19 75 15 76
REMARK SMILES IDX 18 77 17 78 16 79
REMARK H PARENT 3 6 69 24 43 35 8 67 16 80
REMARK Flexibility Score: inf
ROOT
ATOM      1  C   UNL A   1      31.378  32.173  26.817  1.00  0.00     0.023 C 
ENDROOT
BRANCH   1   2
ATOM      2  C   UNL A   1      32.640  32.905  27.264  1.00  0.00     0.116 C 
BRANCH   2   3
ATOM      3  N   UNL A   1      32.382  34.285  27.653  1.00  0.00    -0.352 N 
ATOM      4  O   UNL A   1      32.568  36.152  28.907  1.00  0.00    -0.269 OA
ATOM      5  C   UNL A   1      33.008  35.052  28.605  1.00  0.00     0.251 C 
ATOM      6  H   UNL A   1      31.654  34.731  27.163  1.00  0.00     0.163 HD
BRANCH   5   7
ATOM      7  C   UNL A   1      34.208  34.521  29.280  1.00  0.00     0.039 A 
ATOM      8  C   UNL A   1      35.470  34.672  28.701  1.00  0.00     0.014 A 
ATOM      9  C   UNL A   1      34.056  33.848  30.494  1.00  0.00     0.014 A 
ATOM     10  C   UNL A   1      36.570  34.043  29.275  1.00  0.00     0.010 A 
ATOM     11  C   UNL A   1      35.169  33.263  31.098  1.00  0.00     0.010 A 
ATOM     12  C   UNL A   1      36.426  33.329  30.475  1.00  0.00    -0.014 A 
BRANCH  12  13
ATOM     13  C   UNL A   1      37.604  32.676  31.090  1.00  0.00     0.031 A 
ATOM     14  C   UNL A   1      38.221  31.461  30.459  1.00  0.00     0.074 A 
ATOM     15  C   UNL A   1      38.105  33.184  32.230  1.00  0.00     0.049 A 
ATOM     16  N   UNL A   1      39.226  30.736  30.878  1.00  0.00    -0.248 NA
ATOM     17  C   UNL A   1      37.632  30.997  29.193  1.00  0.00     0.031 C 
ATOM     18  C   UNL A   1      37.584  34.362  32.929  1.00  0.00     0.029 A 
ATOM     19  N   UNL A   1      39.157  32.773  33.006  1.00  0.00    -0.354 N 
ATOM     20  C   UNL A   1      39.387  29.727  29.937  1.00  0.00     0.074 A 
ATOM     21  C   UNL A   1      38.360  29.918  28.934  1.00  0.00     0.031 C 
ATOM     22  C   UNL A   1      38.318  34.576  34.031  1.00  0.00     0.029 A 
ATOM     23  C   UNL A   1      39.327  33.528  34.139  1.00  0.00     0.049 A 
ATOM     24  H   UNL A   1      39.734  32.010  32.772  1.00  0.00     0.167 HD
ATOM     25  C   UNL A   1      40.312  28.739  29.913  1.00  0.00     0.037 A 
ATOM     26  C   UNL A   1      40.180  33.371  35.167  1.00  0.00     0.037 A 
ATOM     27  C   UNL A   1      41.337  28.564  30.909  1.00  0.00     0.049 A 
ATOM     28  C   UNL A   1      41.145  32.221  35.147  1.00  0.00     0.074 A 
ATOM     29  C   UNL A   1      42.369  27.642  30.934  1.00  0.00     0.029 A 
ATOM     30  N   UNL A   1      41.448  29.319  32.066  1.00  0.00    -0.354 N 
ATOM     31  N   UNL A   1      41.330  31.314  34.218  1.00  0.00    -0.248 NA
ATOM     32  C   UNL A   1      42.012  32.067  36.323  1.00  0.00     0.031 C 
ATOM     33  C   UNL A   1      43.072  27.804  32.133  1.00  0.00     0.029 A 
ATOM     34  C   UNL A   1      42.503  28.854  32.836  1.00  0.00     0.049 A 
ATOM     35  H   UNL A   1      40.864  30.075  32.307  1.00  0.00     0.167 HD
ATOM     36  C   UNL A   1      42.337  30.487  34.694  1.00  0.00     0.074 A 
ATOM     37  C   UNL A   1      42.742  31.015  35.981  1.00  0.00     0.031 C 
ATOM     38  C   UNL A   1      42.876  29.383  34.120  1.00  0.00     0.037 A 
BRANCH  25  39
ATOM     39  C   UNL A   1      40.255  27.754  28.783  1.00  0.00     0.057 A 
ATOM     40  C   UNL A   1      39.532  26.561  28.915  1.00  0.00     0.134 A 
ATOM     41  C   UNL A   1      40.963  27.952  27.592  1.00  0.00     0.134 A 
ATOM     42  F   UNL A   1      38.837  26.307  30.033  1.00  0.00    -0.206 F 
ATOM     43  C   UNL A   1      39.522  25.598  27.905  1.00  0.00     0.040 A 
ATOM     44  C   UNL A   1      40.945  27.005  26.566  1.00  0.00     0.040 A 
ATOM     45  F   UNL A   1      41.667  29.078  27.399  1.00  0.00    -0.206 F 
ATOM     46  C   UNL A   1      40.228  25.820  26.725  1.00  0.00     0.006 A 
ENDBRANCH  25  39
BRANCH  26  47
ATOM     47  C   UNL A   1      40.129  34.298  36.324  1.00  0.00     0.057 A 
ATOM     48  C   UNL A   1      40.862  35.490  36.332  1.00  0.00     0.134 A 
ATOM     49  C   UNL A   1      39.322  34.027  37.433  1.00  0.00     0.134 A 
ATOM     50  F   UNL A   1      41.655  35.805  35.297  1.00  0.00    -0.206 F 
ATOM     51  C   UNL A   1      40.800  36.379  37.405  1.00  0.00     0.040 A 
ATOM     52  C   UNL A   1      39.231  34.919  38.503  1.00  0.00     0.040 A 
ATOM     53  F   UNL A   1      38.581  32.910  37.473  1.00  0.00    -0.206 F 
ATOM     54  C   UNL A   1      39.974  36.098  38.491  1.00  0.00     0.006 A 
ENDBRANCH  26  47
BRANCH  38  55
ATOM     55  C   UNL A   1      43.954  28.682  34.890  1.00  0.00     0.057 A 
ATOM     56  C   UNL A   1      45.297  29.050  34.746  1.00  0.00     0.134 A 
ATOM     57  C   UNL A   1      43.659  27.630  35.766  1.00  0.00     0.134 A 
ATOM     58  F   UNL A   1      45.645  30.048  33.919  1.00  0.00    -0.206 F 
ATOM     59  C   UNL A   1      46.310  28.395  35.446  1.00  0.00     0.040 A 
ATOM     60  C   UNL A   1      44.662  26.983  36.490  1.00  0.00     0.040 A 
ATOM     61  F   UNL A   1      42.390  27.244  35.961  1.00  0.00    -0.206 F 
ATOM     62  C   UNL A   1      45.993  27.362  36.327  1.00  0.00     0.006 A 
ENDBRANCH  38  55
ENDBRANCH  12  13
ENDBRANCH   5   7
ENDBRANCH   2   3
ENDBRANCH   1   2
BRANCH   1  63
ATOM     63  C   UNL A   1      31.617  30.885  26.032  1.00  0.00     0.023 C 
BRANCH  63  64
ATOM     64  C   UNL A   1      32.569  29.888  26.685  1.00  0.00     0.116 C 
BRANCH  64  65
ATOM     65  N   UNL A   1      31.899  28.666  27.074  1.00  0.00    -0.356 N 
ATOM     66  C   UNL A   1      31.768  27.449  26.495  1.00  0.00     0.226 C 
ATOM     67  H   UNL A   1      31.441  28.734  27.942  1.00  0.00     0.163 HD
ATOM     68  O   UNL A   1      31.127  26.629  27.168  1.00  0.00    -0.275 OA
BRANCH  66  69
ATOM     69  C   UNL A   1      32.230  27.079  25.076  1.00  0.00     0.120 C 
ATOM     70  C   UNL A   1      31.623  25.877  24.373  1.00  0.00     0.243 C 
ATOM     71  C   UNL A   1      31.923  28.264  24.136  1.00  0.00     0.056 C 
ATOM     72  O   UNL A   1      30.195  25.908  24.406  1.00  0.00    -0.489 OA
ATOM     73  C   UNL A   1      30.463  28.248  23.748  1.00  0.00    -0.001 A 
ATOM     74  C   UNL A   1      29.688  27.092  23.925  1.00  0.00     0.164 A 
ATOM     75  C   UNL A   1      29.863  29.389  23.201  1.00  0.00     0.008 A 
ATOM     76  C   UNL A   1      28.324  27.114  23.636  1.00  0.00     0.157 A 
ATOM     77  C   UNL A   1      28.500  29.387  22.882  1.00  0.00     0.004 A 
ATOM     78  C   UNL A   1      27.725  28.250  23.113  1.00  0.00     0.050 A 
BRANCH  76  79
ATOM     79  O   UNL A   1      27.552  26.010  23.862  1.00  0.00    -0.504 OA
ATOM     80  H   UNL A   1      27.794  25.184  23.491  1.00  0.00     0.293 HD
ENDBRANCH  76  79
ENDBRANCH  66  69
ENDBRANCH  64  65
ENDBRANCH  63  64
ENDBRANCH   1  63
TORSDOF 12
ENDMDL
