MODEL 1
REMARK VINA RESULT:     -10.6      0.000      0.000
REMARK SMILES CCOC[C@@H](O)C[C@]1(C(=O)NCCCCNC(=O)c2ccc(-c3c4nc(c(-c5c(F)cccc5F)c5ccc([nH]5)c(-c5c(F)cccc5F)c5nc(c(-c6c(F)cccc6F)c6ccc3[nH]6)C=C5)C=C4)cc2)CCc2ccccc21
REMARK SMILES IDX 12 1 11 2 9 3 10 4 8 6 73 7 80 8 74 9 75 10 79 11 76 12
REMARK SMILES IDX 78 13 77 14 7 15 5 16 4 17 3 18 2 19 1 20 6 21 13 23 14 24
REMARK SMILES IDX 15 25 16 26 17 27 18 29 19 30 20 31 72 32 21 33 71 34 22 35
REMARK SMILES IDX 23 36 24 37 65 38 25 39 70 40 64 41 66 42 26 43 69 44 63 45
REMARK SMILES IDX 62 46 27 48 53 49 36 50 52 51 37 52 40 53 51 54 67 55 38 56
REMARK SMILES IDX 39 57 50 59 68 60 41 61 28 62 29 63 34 64 30 65 31 66 33 67
REMARK SMILES IDX 35 68 32 69 54 70 55 71 60 72 56 73 57 74 59 75 61 76 58 77
REMARK SMILES IDX 42 78 43 79 48 80 44 81 45 82 47 83 49 84 46 85
REMARK H PARENT 11 5 6 22 16 28 66 47 40 58
REMARK Flexibility Score: inf
ROOT
ATOM      1  C   UNL A   1      36.130  21.586  25.695  1.00  0.00     0.116 C 
ENDROOT
BRANCH   1   2
ATOM      2  N   UNL A   1      35.003  20.687  25.756  1.00  0.00    -0.355 N 
ATOM      3  C   UNL A   1      33.663  20.906  25.711  1.00  0.00     0.230 C 
ATOM      4  O   UNL A   1      32.986  19.876  25.613  1.00  0.00    -0.274 OA
ATOM      5  H   UNL A   1      35.251  19.739  25.846  1.00  0.00     0.163 HD
BRANCH   3   6
ATOM      6  C   UNL A   1      32.994  22.312  25.726  1.00  0.00     0.077 C 
ATOM      7  C   UNL A   1      33.660  23.390  26.626  1.00  0.00     0.026 C 
ATOM      8  C   UNL A   1      33.103  22.971  24.356  1.00  0.00    -0.029 A 
ATOM      9  C   UNL A   1      34.341  24.465  25.768  1.00  0.00     0.037 C 
ATOM     10  C   UNL A   1      33.851  24.152  24.396  1.00  0.00    -0.044 A 
ATOM     11  C   UNL A   1      32.615  22.495  23.144  1.00  0.00     0.005 A 
ATOM     12  C   UNL A   1      34.151  24.858  23.240  1.00  0.00     0.004 A 
ATOM     13  C   UNL A   1      32.902  23.206  21.976  1.00  0.00     0.000 A 
ATOM     14  C   UNL A   1      33.672  24.376  22.022  1.00  0.00     0.000 A 
BRANCH   6  15
ATOM     15  C   UNL A   1      31.488  22.145  26.115  1.00  0.00     0.056 C 
BRANCH  15  16
ATOM     16  C   UNL A   1      30.794  23.258  26.943  1.00  0.00     0.141 C 
BRANCH  16  17
ATOM     17  C   UNL A   1      30.162  24.389  26.112  1.00  0.00     0.191 C 
BRANCH  17  18
ATOM     18  O   UNL A   1      31.001  25.524  25.884  1.00  0.00    -0.379 OA
BRANCH  18  19
ATOM     19  C   UNL A   1      30.547  26.496  24.947  1.00  0.00     0.157 C 
ATOM     20  C   UNL A   1      30.622  26.065  23.491  1.00  0.00     0.035 C 
ENDBRANCH  18  19
ENDBRANCH  17  18
ENDBRANCH  16  17
BRANCH  16  21
ATOM     21  O   UNL A   1      29.772  22.582  27.694  1.00  0.00    -0.391 OA
ATOM     22  H   UNL A   1      28.912  22.996  27.515  1.00  0.00     0.211 HD
ENDBRANCH  16  21
ENDBRANCH  15  16
ENDBRANCH   6  15
ENDBRANCH   3   6
ENDBRANCH   1   2
BRANCH   1  23
ATOM     23  C   UNL A   1      37.043  21.273  24.515  1.00  0.00     0.023 C 
BRANCH  23  24
ATOM     24  C   UNL A   1      37.951  20.063  24.728  1.00  0.00     0.023 C 
BRANCH  24  25
ATOM     25  C   UNL A   1      38.980  20.222  25.840  1.00  0.00     0.116 C 
BRANCH  25  26
ATOM     26  N   UNL A   1      40.063  19.254  25.769  1.00  0.00    -0.352 N 
ATOM     27  C   UNL A   1      41.396  19.444  26.048  1.00  0.00     0.251 C 
ATOM     28  H   UNL A   1      39.809  18.346  25.486  1.00  0.00     0.163 HD
ATOM     29  O   UNL A   1      42.209  18.556  25.843  1.00  0.00    -0.269 OA
BRANCH  27  30
ATOM     30  C   UNL A   1      41.833  20.757  26.561  1.00  0.00     0.039 A 
ATOM     31  C   UNL A   1      42.324  21.700  25.656  1.00  0.00     0.014 A 
ATOM     32  C   UNL A   1      41.721  21.064  27.919  1.00  0.00     0.014 A 
ATOM     33  C   UNL A   1      42.654  22.976  26.111  1.00  0.00     0.010 A 
ATOM     34  C   UNL A   1      41.973  22.358  28.355  1.00  0.00     0.010 A 
ATOM     35  C   UNL A   1      42.455  23.323  27.458  1.00  0.00    -0.014 A 
BRANCH  35  36
ATOM     36  C   UNL A   1      42.768  24.686  27.947  1.00  0.00     0.031 A 
ATOM     37  C   UNL A   1      44.195  25.080  28.206  1.00  0.00     0.074 A 
ATOM     38  C   UNL A   1      41.767  25.550  28.199  1.00  0.00     0.049 A 
ATOM     39  N   UNL A   1      44.671  26.215  28.650  1.00  0.00    -0.248 NA
ATOM     40  C   UNL A   1      45.222  24.054  27.961  1.00  0.00     0.031 C 
ATOM     41  C   UNL A   1      40.339  25.263  28.045  1.00  0.00     0.029 A 
ATOM     42  N   UNL A   1      41.798  26.848  28.640  1.00  0.00    -0.354 N 
ATOM     43  C   UNL A   1      46.045  26.034  28.750  1.00  0.00     0.074 A 
ATOM     44  C   UNL A   1      46.319  24.663  28.380  1.00  0.00     0.031 C 
ATOM     45  C   UNL A   1      39.634  26.362  28.356  1.00  0.00     0.029 A 
ATOM     46  C   UNL A   1      40.555  27.421  28.756  1.00  0.00     0.049 A 
ATOM     47  H   UNL A   1      42.633  27.324  28.855  1.00  0.00     0.167 HD
ATOM     48  C   UNL A   1      46.995  26.937  29.088  1.00  0.00     0.037 A 
ATOM     49  C   UNL A   1      40.202  28.663  29.135  1.00  0.00     0.037 A 
ATOM     50  C   UNL A   1      46.720  28.307  29.427  1.00  0.00     0.049 A 
ATOM     51  C   UNL A   1      41.277  29.653  29.488  1.00  0.00     0.074 A 
ATOM     52  C   UNL A   1      47.613  29.319  29.729  1.00  0.00     0.029 A 
ATOM     53  N   UNL A   1      45.449  28.858  29.506  1.00  0.00    -0.354 N 
ATOM     54  N   UNL A   1      42.578  29.491  29.504  1.00  0.00    -0.248 NA
ATOM     55  C   UNL A   1      40.835  31.003  29.861  1.00  0.00     0.031 C 
ATOM     56  C   UNL A   1      46.882  30.473  30.028  1.00  0.00     0.029 A 
ATOM     57  C   UNL A   1      45.535  30.193  29.866  1.00  0.00     0.049 A 
ATOM     58  H   UNL A   1      44.611  28.373  29.332  1.00  0.00     0.167 HD
ATOM     59  C   UNL A   1      43.111  30.723  29.859  1.00  0.00     0.074 A 
ATOM     60  C   UNL A   1      41.992  31.626  30.034  1.00  0.00     0.031 C 
ATOM     61  C   UNL A   1      44.409  31.078  30.026  1.00  0.00     0.037 A 
BRANCH  48  62
ATOM     62  C   UNL A   1      48.421  26.466  29.095  1.00  0.00     0.057 A 
ATOM     63  C   UNL A   1      49.229  26.543  27.953  1.00  0.00     0.134 A 
ATOM     64  C   UNL A   1      48.998  25.946  30.261  1.00  0.00     0.134 A 
ATOM     65  F   UNL A   1      48.733  27.016  26.799  1.00  0.00    -0.206 F 
ATOM     66  C   UNL A   1      50.550  26.092  27.960  1.00  0.00     0.040 A 
ATOM     67  C   UNL A   1      50.327  25.519  30.289  1.00  0.00     0.040 A 
ATOM     68  F   UNL A   1      48.282  25.847  31.390  1.00  0.00    -0.206 F 
ATOM     69  C   UNL A   1      51.105  25.585  29.133  1.00  0.00     0.006 A 
ENDBRANCH  48  62
BRANCH  49  70
ATOM     70  C   UNL A   1      38.772  29.056  29.159  1.00  0.00     0.057 A 
ATOM     71  C   UNL A   1      38.142  29.555  28.012  1.00  0.00     0.134 A 
ATOM     72  C   UNL A   1      38.003  28.952  30.323  1.00  0.00     0.134 A 
ATOM     73  F   UNL A   1      38.832  29.693  26.871  1.00  0.00    -0.206 F 
ATOM     74  C   UNL A   1      36.807  29.959  28.027  1.00  0.00     0.040 A 
ATOM     75  C   UNL A   1      36.658  29.329  30.347  1.00  0.00     0.040 A 
ATOM     76  F   UNL A   1      38.543  28.472  31.452  1.00  0.00    -0.206 F 
ATOM     77  C   UNL A   1      36.059  29.842  29.199  1.00  0.00     0.006 A 
ENDBRANCH  49  70
BRANCH  61  78
ATOM     78  C   UNL A   1      44.688  32.509  30.378  1.00  0.00     0.057 A 
ATOM     79  C   UNL A   1      44.854  33.494  29.396  1.00  0.00     0.134 A 
ATOM     80  C   UNL A   1      44.763  32.910  31.718  1.00  0.00     0.134 A 
ATOM     81  F   UNL A   1      44.806  33.172  28.095  1.00  0.00    -0.206 F 
ATOM     82  C   UNL A   1      45.113  34.823  29.736  1.00  0.00     0.040 A 
ATOM     83  C   UNL A   1      44.994  34.239  32.070  1.00  0.00     0.040 A 
ATOM     84  F   UNL A   1      44.603  32.017  32.706  1.00  0.00    -0.206 F 
ATOM     85  C   UNL A   1      45.178  35.199  31.076  1.00  0.00     0.006 A 
ENDBRANCH  61  78
ENDBRANCH  35  36
ENDBRANCH  27  30
ENDBRANCH  25  26
ENDBRANCH  24  25
ENDBRANCH  23  24
ENDBRANCH   1  23
TORSDOF 17
ENDMDL
MODEL 2
REMARK VINA RESULT:     -10.6      1.219      2.248
REMARK SMILES CCOC[C@@H](O)C[C@]1(C(=O)NCCCCNC(=O)c2ccc(-c3c4nc(c(-c5c(F)cccc5F)c5ccc([nH]5)c(-c5c(F)cccc5F)c5nc(c(-c6c(F)cccc6F)c6ccc3[nH]6)C=C5)C=C4)cc2)CCc2ccccc21
REMARK SMILES IDX 12 1 11 2 9 3 10 4 8 6 73 7 80 8 74 9 75 10 79 11 76 12
REMARK SMILES IDX 78 13 77 14 7 15 5 16 4 17 3 18 2 19 1 20 6 21 13 23 14 24
REMARK SMILES IDX 15 25 16 26 17 27 18 29 19 30 20 31 72 32 21 33 71 34 22 35
REMARK SMILES IDX 23 36 24 37 65 38 25 39 70 40 64 41 66 42 26 43 69 44 63 45
REMARK SMILES IDX 62 46 27 48 53 49 36 50 52 51 37 52 40 53 51 54 67 55 38 56
REMARK SMILES IDX 39 57 50 59 68 60 41 61 28 62 29 63 34 64 30 65 31 66 33 67
REMARK SMILES IDX 35 68 32 69 54 70 55 71 60 72 56 73 57 74 59 75 61 76 58 77
REMARK SMILES IDX 42 78 43 79 48 80 44 81 45 82 47 83 49 84 46 85
REMARK H PARENT 11 5 6 22 16 28 66 47 40 58
REMARK Flexibility Score: inf
ROOT
ATOM      1  C   UNL A   1      37.552  23.296  25.724  1.00  0.00     0.116 C 
ENDROOT
BRANCH   1   2
ATOM      2  N   UNL A   1      37.401  23.034  24.312  1.00  0.00    -0.355 N 
ATOM      3  C   UNL A   1      36.330  23.122  23.482  1.00  0.00     0.230 C 
ATOM      4  O   UNL A   1      36.606  22.986  22.284  1.00  0.00    -0.274 OA
ATOM      5  H   UNL A   1      38.227  22.735  23.869  1.00  0.00     0.163 HD
BRANCH   3   6
ATOM      6  C   UNL A   1      34.873  23.419  23.943  1.00  0.00     0.077 C 
ATOM      7  C   UNL A   1      33.906  23.995  22.869  1.00  0.00     0.026 C 
ATOM      8  C   UNL A   1      34.155  22.128  24.316  1.00  0.00    -0.029 A 
ATOM      9  C   UNL A   1      32.854  22.951  22.475  1.00  0.00     0.037 C 
ATOM     10  C   UNL A   1      33.048  21.882  23.495  1.00  0.00    -0.044 A 
ATOM     11  C   UNL A   1      34.521  21.204  25.288  1.00  0.00     0.005 A 
ATOM     12  C   UNL A   1      32.313  20.711  23.605  1.00  0.00     0.004 A 
ATOM     13  C   UNL A   1      33.778  20.027  25.413  1.00  0.00     0.000 A 
ATOM     14  C   UNL A   1      32.685  19.778  24.571  1.00  0.00     0.000 A 
BRANCH   6  15
ATOM     15  C   UNL A   1      34.924  24.372  25.182  1.00  0.00     0.056 C 
BRANCH  15  16
ATOM     16  C   UNL A   1      33.659  25.185  25.563  1.00  0.00     0.141 C 
BRANCH  16  17
ATOM     17  C   UNL A   1      32.817  24.582  26.700  1.00  0.00     0.191 C 
BRANCH  17  18
ATOM     18  O   UNL A   1      31.417  24.868  26.643  1.00  0.00    -0.379 OA
BRANCH  18  19
ATOM     19  C   UNL A   1      30.614  24.043  25.805  1.00  0.00     0.157 C 
ATOM     20  C   UNL A   1      30.540  22.583  26.224  1.00  0.00     0.035 C 
ENDBRANCH  18  19
ENDBRANCH  17  18
ENDBRANCH  16  17
BRANCH  16  21
ATOM     21  O   UNL A   1      34.151  26.477  25.960  1.00  0.00    -0.391 OA
ATOM     22  H   UNL A   1      35.086  26.557  25.714  1.00  0.00     0.211 HD
ENDBRANCH  16  21
ENDBRANCH  15  16
ENDBRANCH   6  15
ENDBRANCH   3   6
ENDBRANCH   1   2
BRANCH   1  23
ATOM     23  C   UNL A   1      38.683  22.476  26.334  1.00  0.00     0.023 C 
BRANCH  23  24
ATOM     24  C   UNL A   1      39.048  21.222  25.542  1.00  0.00     0.023 C 
BRANCH  24  25
ATOM     25  C   UNL A   1      39.449  20.022  26.392  1.00  0.00     0.116 C 
BRANCH  25  26
ATOM     26  N   UNL A   1      40.603  19.306  25.873  1.00  0.00    -0.352 N 
ATOM     27  C   UNL A   1      41.912  19.723  25.819  1.00  0.00     0.251 C 
ATOM     28  H   UNL A   1      40.424  18.407  25.514  1.00  0.00     0.163 HD
ATOM     29  O   UNL A   1      42.760  19.047  25.257  1.00  0.00    -0.269 OA
BRANCH  27  30
ATOM     30  C   UNL A   1      42.267  21.025  26.418  1.00  0.00     0.039 A 
ATOM     31  C   UNL A   1      42.606  22.080  25.572  1.00  0.00     0.014 A 
ATOM     32  C   UNL A   1      42.225  21.206  27.803  1.00  0.00     0.014 A 
ATOM     33  C   UNL A   1      42.854  23.340  26.116  1.00  0.00     0.010 A 
ATOM     34  C   UNL A   1      42.391  22.477  28.335  1.00  0.00     0.010 A 
ATOM     35  C   UNL A   1      42.721  23.554  27.499  1.00  0.00    -0.014 A 
BRANCH  35  36
ATOM     36  C   UNL A   1      42.947  24.896  28.086  1.00  0.00     0.031 A 
ATOM     37  C   UNL A   1      44.327  25.303  28.517  1.00  0.00     0.074 A 
ATOM     38  C   UNL A   1      41.903  25.727  28.270  1.00  0.00     0.049 A 
ATOM     39  N   UNL A   1      44.725  26.422  29.067  1.00  0.00    -0.248 NA
ATOM     40  C   UNL A   1      45.399  24.311  28.335  1.00  0.00     0.031 C 
ATOM     41  C   UNL A   1      40.508  25.420  27.948  1.00  0.00     0.029 A 
ATOM     42  N   UNL A   1      41.855  27.000  28.776  1.00  0.00    -0.354 N 
ATOM     43  C   UNL A   1      46.084  26.262  29.306  1.00  0.00     0.074 A 
ATOM     44  C   UNL A   1      46.430  24.918  28.901  1.00  0.00     0.031 C 
ATOM     45  C   UNL A   1      39.746  26.488  28.235  1.00  0.00     0.029 A 
ATOM     46  C   UNL A   1      40.592  27.542  28.785  1.00  0.00     0.049 A 
ATOM     47  H   UNL A   1      42.650  27.480  29.104  1.00  0.00     0.167 HD
ATOM     48  C   UNL A   1      46.970  27.164  29.789  1.00  0.00     0.037 A 
ATOM     49  C   UNL A   1      40.171  28.756  29.184  1.00  0.00     0.037 A 
ATOM     50  C   UNL A   1      46.626  28.510  30.164  1.00  0.00     0.049 A 
ATOM     51  C   UNL A   1      41.177  29.747  29.700  1.00  0.00     0.074 A 
ATOM     52  C   UNL A   1      47.457  29.521  30.612  1.00  0.00     0.029 A 
ATOM     53  N   UNL A   1      45.341  29.031  30.133  1.00  0.00    -0.354 N 
ATOM     54  N   UNL A   1      42.472  29.608  29.850  1.00  0.00    -0.248 NA
ATOM     55  C   UNL A   1      40.664  31.067  30.090  1.00  0.00     0.031 C 
ATOM     56  C   UNL A   1      46.670  30.644  30.886  1.00  0.00     0.029 A 
ATOM     57  C   UNL A   1      45.355  30.347  30.565  1.00  0.00     0.049 A 
ATOM     58  H   UNL A   1      44.538  28.540  29.845  1.00  0.00     0.167 HD
ATOM     59  C   UNL A   1      42.933  30.831  30.321  1.00  0.00     0.074 A 
ATOM     60  C   UNL A   1      41.780  31.702  30.419  1.00  0.00     0.031 C 
ATOM     61  C   UNL A   1      44.197  31.201  30.646  1.00  0.00     0.037 A 
BRANCH  48  62
ATOM     62  C   UNL A   1      48.397  26.721  29.928  1.00  0.00     0.057 A 
ATOM     63  C   UNL A   1      49.341  26.947  28.918  1.00  0.00     0.134 A 
ATOM     64  C   UNL A   1      48.838  26.076  31.091  1.00  0.00     0.134 A 
ATOM     65  F   UNL A   1      48.981  27.546  27.772  1.00  0.00    -0.206 F 
ATOM     66  C   UNL A   1      50.665  26.522  29.046  1.00  0.00     0.040 A 
ATOM     67  C   UNL A   1      50.165  25.672  31.243  1.00  0.00     0.040 A 
ATOM     68  F   UNL A   1      47.987  25.831  32.098  1.00  0.00    -0.206 F 
ATOM     69  C   UNL A   1      51.082  25.888  30.214  1.00  0.00     0.006 A 
ENDBRANCH  48  62
BRANCH  49  70
ATOM     70  C   UNL A   1      38.737  29.120  29.072  1.00  0.00     0.057 A 
ATOM     71  C   UNL A   1      38.202  29.580  27.862  1.00  0.00     0.134 A 
ATOM     72  C   UNL A   1      37.869  29.027  30.166  1.00  0.00     0.134 A 
ATOM     73  F   UNL A   1      38.988  29.705  26.783  1.00  0.00    -0.206 F 
ATOM     74  C   UNL A   1      36.863  29.956  27.749  1.00  0.00     0.040 A 
ATOM     75  C   UNL A   1      36.521  29.377  30.061  1.00  0.00     0.040 A 
ATOM     76  F   UNL A   1      38.317  28.585  31.350  1.00  0.00    -0.206 F 
ATOM     77  C   UNL A   1      36.017  29.851  28.852  1.00  0.00     0.006 A 
ENDBRANCH  49  70
BRANCH  61  78
ATOM     78  C   UNL A   1      44.400  32.617  31.096  1.00  0.00     0.057 A 
ATOM     79  C   UNL A   1      44.358  32.977  32.449  1.00  0.00     0.134 A 
ATOM     80  C   UNL A   1      44.669  33.628  30.165  1.00  0.00     0.134 A 
ATOM     81  F   UNL A   1      44.092  32.058  33.390  1.00  0.00    -0.206 F 
ATOM     82  C   UNL A   1      44.548  34.299  32.857  1.00  0.00     0.040 A 
ATOM     83  C   UNL A   1      44.889  34.946  30.562  1.00  0.00     0.040 A 
ATOM     84  F   UNL A   1      44.734  33.347  28.854  1.00  0.00    -0.206 F 
ATOM     85  C   UNL A   1      44.820  35.286  31.912  1.00  0.00     0.006 A 
ENDBRANCH  61  78
ENDBRANCH  35  36
ENDBRANCH  27  30
ENDBRANCH  25  26
ENDBRANCH  24  25
ENDBRANCH  23  24
ENDBRANCH   1  23
TORSDOF 17
ENDMDL
MODEL 3
REMARK VINA RESULT:     -10.6      0.694      1.757
REMARK SMILES CCOC[C@@H](O)C[C@]1(C(=O)NCCCCNC(=O)c2ccc(-c3c4nc(c(-c5c(F)cccc5F)c5ccc([nH]5)c(-c5c(F)cccc5F)c5nc(c(-c6c(F)cccc6F)c6ccc3[nH]6)C=C5)C=C4)cc2)CCc2ccccc21
REMARK SMILES IDX 12 1 11 2 9 3 10 4 8 6 73 7 80 8 74 9 75 10 79 11 76 12
REMARK SMILES IDX 78 13 77 14 7 15 5 16 4 17 3 18 2 19 1 20 6 21 13 23 14 24
REMARK SMILES IDX 15 25 16 26 17 27 18 29 19 30 20 31 72 32 21 33 71 34 22 35
REMARK SMILES IDX 23 36 24 37 65 38 25 39 70 40 64 41 66 42 26 43 69 44 63 45
REMARK SMILES IDX 62 46 27 48 53 49 36 50 52 51 37 52 40 53 51 54 67 55 38 56
REMARK SMILES IDX 39 57 50 59 68 60 41 61 28 62 29 63 34 64 30 65 31 66 33 67
REMARK SMILES IDX 35 68 32 69 54 70 55 71 60 72 56 73 57 74 59 75 61 76 58 77
REMARK SMILES IDX 42 78 43 79 48 80 44 81 45 82 47 83 49 84 46 85
REMARK H PARENT 11 5 6 22 16 28 66 47 40 58
REMARK Flexibility Score: inf
ROOT
ATOM      1  C   UNL A   1      36.013  21.462  25.755  1.00  0.00     0.116 C 
ENDROOT
BRANCH   1   2
ATOM      2  N   UNL A   1      34.856  20.603  25.844  1.00  0.00    -0.355 N 
ATOM      3  C   UNL A   1      33.525  20.864  25.775  1.00  0.00     0.230 C 
ATOM      4  O   UNL A   1      32.815  19.853  25.718  1.00  0.00    -0.274 OA
ATOM      5  H   UNL A   1      35.072  19.653  25.981  1.00  0.00     0.163 HD
BRANCH   3   6
ATOM      6  C   UNL A   1      32.903  22.290  25.717  1.00  0.00     0.077 C 
ATOM      7  C   UNL A   1      33.548  23.369  26.633  1.00  0.00     0.026 C 
ATOM      8  C   UNL A   1      33.117  22.912  24.343  1.00  0.00    -0.029 A 
ATOM      9  C   UNL A   1      34.315  24.400  25.794  1.00  0.00     0.037 C 
ATOM     10  C   UNL A   1      33.900  24.070  24.402  1.00  0.00    -0.044 A 
ATOM     11  C   UNL A   1      32.689  22.423  23.114  1.00  0.00     0.005 A 
ATOM     12  C   UNL A   1      34.293  24.737  23.251  1.00  0.00     0.004 A 
ATOM     13  C   UNL A   1      33.070  23.096  21.950  1.00  0.00     0.000 A 
ATOM     14  C   UNL A   1      33.873  24.242  22.017  1.00  0.00     0.000 A 
BRANCH   6  15
ATOM     15  C   UNL A   1      31.372  22.181  26.016  1.00  0.00     0.056 C 
BRANCH  15  16
ATOM     16  C   UNL A   1      30.723  23.179  27.010  1.00  0.00     0.141 C 
BRANCH  16  17
ATOM     17  C   UNL A   1      30.043  24.396  26.360  1.00  0.00     0.191 C 
BRANCH  17  18
ATOM     18  O   UNL A   1      30.930  25.362  25.792  1.00  0.00    -0.379 OA
BRANCH  18  19
ATOM     19  C   UNL A   1      30.516  26.006  24.591  1.00  0.00     0.157 C 
ATOM     20  C   UNL A   1      30.259  25.074  23.419  1.00  0.00     0.035 C 
ENDBRANCH  18  19
ENDBRANCH  17  18
ENDBRANCH  16  17
BRANCH  16  21
ATOM     21  O   UNL A   1      29.745  22.407  27.729  1.00  0.00    -0.391 OA
ATOM     22  H   UNL A   1      29.829  22.584  28.680  1.00  0.00     0.211 HD
ENDBRANCH  16  21
ENDBRANCH  15  16
ENDBRANCH   6  15
ENDBRANCH   3   6
ENDBRANCH   1   2
BRANCH   1  23
ATOM     23  C   UNL A   1      36.952  21.032  24.633  1.00  0.00     0.023 C 
BRANCH  23  24
ATOM     24  C   UNL A   1      37.834  19.833  24.977  1.00  0.00     0.023 C 
BRANCH  24  25
ATOM     25  C   UNL A   1      39.016  20.148  25.886  1.00  0.00     0.116 C 
BRANCH  25  26
ATOM     26  N   UNL A   1      40.065  19.142  25.840  1.00  0.00    -0.352 N 
ATOM     27  C   UNL A   1      41.411  19.302  26.068  1.00  0.00     0.251 C 
ATOM     28  H   UNL A   1      39.774  18.228  25.618  1.00  0.00     0.163 HD
ATOM     29  O   UNL A   1      42.189  18.377  25.892  1.00  0.00    -0.269 OA
BRANCH  27  30
ATOM     30  C   UNL A   1      41.906  20.627  26.491  1.00  0.00     0.039 A 
ATOM     31  C   UNL A   1      42.245  21.559  25.509  1.00  0.00     0.014 A 
ATOM     32  C   UNL A   1      41.996  20.954  27.845  1.00  0.00     0.014 A 
ATOM     33  C   UNL A   1      42.626  22.845  25.890  1.00  0.00     0.010 A 
ATOM     34  C   UNL A   1      42.296  22.258  28.220  1.00  0.00     0.010 A 
ATOM     35  C   UNL A   1      42.627  23.212  27.247  1.00  0.00    -0.014 A 
BRANCH  35  36
ATOM     36  C   UNL A   1      42.995  24.585  27.663  1.00  0.00     0.031 A 
ATOM     37  C   UNL A   1      44.439  25.003  27.679  1.00  0.00     0.074 A 
ATOM     38  C   UNL A   1      42.035  25.439  28.068  1.00  0.00     0.049 A 
ATOM     39  N   UNL A   1      44.963  26.149  28.027  1.00  0.00    -0.248 NA
ATOM     40  C   UNL A   1      45.427  23.988  27.279  1.00  0.00     0.031 C 
ATOM     41  C   UNL A   1      40.606  25.129  28.154  1.00  0.00     0.029 A 
ATOM     42  N   UNL A   1      42.118  26.742  28.485  1.00  0.00    -0.354 N 
ATOM     43  C   UNL A   1      46.337  25.989  27.900  1.00  0.00     0.074 A 
ATOM     44  C   UNL A   1      46.569  24.618  27.505  1.00  0.00     0.031 C 
ATOM     45  C   UNL A   1      39.945  26.223  28.567  1.00  0.00     0.029 A 
ATOM     46  C   UNL A   1      40.902  27.299  28.798  1.00  0.00     0.049 A 
ATOM     47  H   UNL A   1      42.970  27.233  28.554  1.00  0.00     0.167 HD
ATOM     48  C   UNL A   1      47.316  26.909  28.067  1.00  0.00     0.037 A 
ATOM     49  C   UNL A   1      40.597  28.542  29.217  1.00  0.00     0.037 A 
ATOM     50  C   UNL A   1      47.078  28.280  28.433  1.00  0.00     0.049 A 
ATOM     51  C   UNL A   1      41.700  29.551  29.377  1.00  0.00     0.074 A 
ATOM     52  C   UNL A   1      47.994  29.307  28.573  1.00  0.00     0.029 A 
ATOM     53  N   UNL A   1      45.830  28.814  28.716  1.00  0.00    -0.354 N 
ATOM     54  N   UNL A   1      42.988  29.407  29.181  1.00  0.00    -0.248 NA
ATOM     55  C   UNL A   1      41.304  30.899  29.804  1.00  0.00     0.031 C 
ATOM     56  C   UNL A   1      47.304  30.455  28.977  1.00  0.00     0.029 A 
ATOM     57  C   UNL A   1      45.953  30.155  29.042  1.00  0.00     0.049 A 
ATOM     58  H   UNL A   1      44.982  28.315  28.687  1.00  0.00     0.167 HD
ATOM     59  C   UNL A   1      43.553  30.651  29.430  1.00  0.00     0.074 A 
ATOM     60  C   UNL A   1      42.464  31.541  29.778  1.00  0.00     0.031 C 
ATOM     61  C   UNL A   1      44.855  31.025  29.377  1.00  0.00     0.037 A 
BRANCH  48  62
ATOM     62  C   UNL A   1      48.730  26.458  27.845  1.00  0.00     0.057 A 
ATOM     63  C   UNL A   1      49.530  25.992  28.897  1.00  0.00     0.134 A 
ATOM     64  C   UNL A   1      49.295  26.473  26.563  1.00  0.00     0.134 A 
ATOM     65  F   UNL A   1      49.056  25.966  30.152  1.00  0.00    -0.206 F 
ATOM     66  C   UNL A   1      50.849  25.586  28.688  1.00  0.00     0.040 A 
ATOM     67  C   UNL A   1      50.603  26.042  26.337  1.00  0.00     0.040 A 
ATOM     68  F   UNL A   1      48.584  26.904  25.511  1.00  0.00    -0.206 F 
ATOM     69  C   UNL A   1      51.387  25.604  27.403  1.00  0.00     0.006 A 
ENDBRANCH  48  62
BRANCH  49  70
ATOM     70  C   UNL A   1      39.184  28.915  29.472  1.00  0.00     0.057 A 
ATOM     71  C   UNL A   1      38.597  28.701  30.725  1.00  0.00     0.134 A 
ATOM     72  C   UNL A   1      38.384  29.482  28.473  1.00  0.00     0.134 A 
ATOM     73  F   UNL A   1      39.308  28.146  31.717  1.00  0.00    -0.206 F 
ATOM     74  C   UNL A   1      37.260  29.016  30.970  1.00  0.00     0.040 A 
ATOM     75  C   UNL A   1      37.052  29.825  28.712  1.00  0.00     0.040 A 
ATOM     76  F   UNL A   1      38.890  29.720  27.255  1.00  0.00    -0.206 F 
ATOM     77  C   UNL A   1      36.484  29.584  29.961  1.00  0.00     0.006 A 
ENDBRANCH  49  70
BRANCH  61  78
ATOM     78  C   UNL A   1      45.165  32.465  29.663  1.00  0.00     0.057 A 
ATOM     79  C   UNL A   1      45.507  32.908  30.947  1.00  0.00     0.134 A 
ATOM     80  C   UNL A   1      45.146  33.414  28.634  1.00  0.00     0.134 A 
ATOM     81  F   UNL A   1      45.530  32.050  31.979  1.00  0.00    -0.206 F 
ATOM     82  C   UNL A   1      45.792  34.250  31.202  1.00  0.00     0.040 A 
ATOM     83  C   UNL A   1      45.457  34.753  28.870  1.00  0.00     0.040 A 
ATOM     84  F   UNL A   1      44.836  33.054  27.379  1.00  0.00    -0.206 F 
ATOM     85  C   UNL A   1      45.774  35.175  30.160  1.00  0.00     0.006 A 
ENDBRANCH  61  78
ENDBRANCH  35  36
ENDBRANCH  27  30
ENDBRANCH  25  26
ENDBRANCH  24  25
ENDBRANCH  23  24
ENDBRANCH   1  23
TORSDOF 17
ENDMDL
