MODEL 1
REMARK VINA RESULT:     -11.4      0.000      0.000
REMARK SMILES COCC[C@H](NC(=O)c1ccc(C)cc1F)C(=O)NCCCCNC(=O)c1ccc(-c2c3nc(c(-c4c(F)cccc4F)c4ccc([nH]4)c(-c4c(F)cccc4F)c4nc(c(-c5c(F)cccc5F)c5ccc2[nH]5)C=C4)C=C3)cc1
REMARK SMILES IDX 21 1 20 2 19 3 17 4 18 5 5 7 4 8 3 9 2 10 1 11 6 12 7 13
REMARK SMILES IDX 8 15 9 16 10 17 15 18 11 19 14 20 16 21 12 22 13 23 22 24
REMARK SMILES IDX 23 25 24 26 25 27 26 29 27 30 28 31 80 32 29 33 79 34 30 35
REMARK SMILES IDX 31 36 32 37 73 38 33 39 78 40 72 41 74 42 34 43 77 44 71 45
REMARK SMILES IDX 70 46 35 48 61 49 44 50 60 51 45 52 48 53 59 54 75 55 46 56
REMARK SMILES IDX 47 57 58 59 76 60 49 61 36 62 37 63 42 64 38 65 39 66 41 67
REMARK SMILES IDX 43 68 40 69 62 70 63 71 68 72 64 73 65 74 67 75 69 76 66 77
REMARK SMILES IDX 50 78 51 79 56 80 52 81 53 82 55 83 57 84 54 85
REMARK H PARENT 19 6 6 14 24 28 74 47 48 58
REMARK Flexibility Score: inf
ROOT
ATOM      1  C   UNL A   1      31.613  30.492  26.042  1.00  0.00     0.023 C 
ENDROOT
BRANCH   1   2
ATOM      2  C   UNL A   1      31.968  29.555  27.191  1.00  0.00     0.116 C 
BRANCH   2   3
ATOM      3  N   UNL A   1      32.983  28.615  26.809  1.00  0.00    -0.354 N 
ATOM      4  C   UNL A   1      32.847  27.487  26.064  1.00  0.00     0.242 C 
ATOM      5  O   UNL A   1      33.886  26.863  25.819  1.00  0.00    -0.273 OA
ATOM      6  H   UNL A   1      33.893  28.813  27.128  1.00  0.00     0.163 HD
BRANCH   4   7
ATOM      7  C   UNL A   1      31.514  27.088  25.362  1.00  0.00     0.173 C 
BRANCH   7   8
ATOM      8  C   UNL A   1      30.694  26.187  26.290  1.00  0.00     0.063 C 
BRANCH   8   9
ATOM      9  C   UNL A   1      30.739  24.694  25.954  1.00  0.00     0.162 C 
BRANCH   9  10
ATOM     10  O   UNL A   1      30.718  23.886  27.136  1.00  0.00    -0.385 OA
ATOM     11  C   UNL A   1      29.749  22.848  27.122  1.00  0.00     0.194 C 
ENDBRANCH   9  10
ENDBRANCH   8   9
ENDBRANCH   7   8
BRANCH   7  12
ATOM     12  N   UNL A   1      31.544  26.704  23.919  1.00  0.00    -0.340 N 
ATOM     13  C   UNL A   1      31.019  27.130  22.715  1.00  0.00     0.254 C 
ATOM     14  H   UNL A   1      32.107  25.909  23.785  1.00  0.00     0.164 HD
ATOM     15  O   UNL A   1      31.355  26.545  21.688  1.00  0.00    -0.269 OA
BRANCH  13  16
ATOM     16  C   UNL A   1      30.028  28.214  22.611  1.00  0.00     0.075 A 
ATOM     17  C   UNL A   1      30.347  29.468  22.099  1.00  0.00     0.017 A 
ATOM     18  C   UNL A   1      28.743  27.991  23.099  1.00  0.00     0.136 A 
ATOM     19  C   UNL A   1      29.503  30.550  22.366  1.00  0.00     0.004 A 
ATOM     20  C   UNL A   1      27.890  29.058  23.356  1.00  0.00     0.043 A 
ATOM     21  F   UNL A   1      28.337  26.764  23.445  1.00  0.00    -0.206 F 
ATOM     22  C   UNL A   1      28.310  30.360  23.076  1.00  0.00    -0.048 A 
ATOM     23  C   UNL A   1      27.490  31.524  23.546  1.00  0.00     0.044 C 
ENDBRANCH  13  16
ENDBRANCH   7  12
ENDBRANCH   4   7
ENDBRANCH   2   3
ENDBRANCH   1   2
BRANCH   1  24
ATOM     24  C   UNL A   1      31.404  31.942  26.470  1.00  0.00     0.023 C 
BRANCH  24  25
ATOM     25  C   UNL A   1      32.585  32.571  27.199  1.00  0.00     0.116 C 
BRANCH  25  26
ATOM     26  N   UNL A   1      32.359  33.946  27.620  1.00  0.00    -0.352 N 
ATOM     27  C   UNL A   1      33.084  34.681  28.533  1.00  0.00     0.251 C 
ATOM     28  H   UNL A   1      31.597  34.406  27.203  1.00  0.00     0.163 HD
ATOM     29  O   UNL A   1      32.737  35.803  28.855  1.00  0.00    -0.269 OA
BRANCH  27  30
ATOM     30  C   UNL A   1      34.281  34.064  29.147  1.00  0.00     0.039 A 
ATOM     31  C   UNL A   1      34.106  33.109  30.149  1.00  0.00     0.014 A 
ATOM     32  C   UNL A   1      35.562  34.400  28.703  1.00  0.00     0.014 A 
ATOM     33  C   UNL A   1      35.222  32.456  30.675  1.00  0.00     0.010 A 
ATOM     34  C   UNL A   1      36.661  33.685  29.162  1.00  0.00     0.010 A 
ATOM     35  C   UNL A   1      36.506  32.722  30.170  1.00  0.00    -0.014 A 
BRANCH  35  36
ATOM     36  C   UNL A   1      37.698  32.032  30.722  1.00  0.00     0.031 A 
ATOM     37  C   UNL A   1      38.212  32.399  32.088  1.00  0.00     0.074 A 
ATOM     38  C   UNL A   1      38.334  31.099  29.987  1.00  0.00     0.049 A 
ATOM     39  N   UNL A   1      39.230  31.908  32.748  1.00  0.00    -0.248 NA
ATOM     40  C   UNL A   1      37.509  33.481  32.795  1.00  0.00     0.031 C 
ATOM     41  C   UNL A   1      37.973  30.700  28.625  1.00  0.00     0.029 A 
ATOM     42  N   UNL A   1      39.418  30.314  30.287  1.00  0.00    -0.354 N 
ATOM     43  C   UNL A   1      39.291  32.626  33.936  1.00  0.00     0.074 A 
ATOM     44  C   UNL A   1      38.257  33.634  33.876  1.00  0.00     0.031 C 
ATOM     45  C   UNL A   1      38.795  29.717  28.224  1.00  0.00     0.029 A 
ATOM     46  C   UNL A   1      39.757  29.437  29.285  1.00  0.00     0.049 A 
ATOM     47  H   UNL A   1      39.908  30.372  31.139  1.00  0.00     0.167 HD
ATOM     48  C   UNL A   1      40.110  32.440  34.999  1.00  0.00     0.037 A 
ATOM     49  C   UNL A   1      40.729  28.506  29.235  1.00  0.00     0.037 A 
ATOM     50  C   UNL A   1      41.121  31.420  35.068  1.00  0.00     0.049 A 
ATOM     51  C   UNL A   1      41.618  28.313  30.432  1.00  0.00     0.074 A 
ATOM     52  C   UNL A   1      41.963  31.109  36.120  1.00  0.00     0.029 A 
ATOM     53  N   UNL A   1      41.424  30.541  34.039  1.00  0.00    -0.354 N 
ATOM     54  N   UNL A   1      41.612  28.944  31.581  1.00  0.00    -0.248 NA
ATOM     55  C   UNL A   1      42.643  27.264  30.329  1.00  0.00     0.031 C 
ATOM     56  C   UNL A   1      42.809  30.073  35.710  1.00  0.00     0.029 A 
ATOM     57  C   UNL A   1      42.456  29.701  34.423  1.00  0.00     0.049 A 
ATOM     58  H   UNL A   1      40.973  30.517  33.165  1.00  0.00     0.167 HD
ATOM     59  C   UNL A   1      42.609  28.353  32.346  1.00  0.00     0.074 A 
ATOM     60  C   UNL A   1      43.184  27.297  31.538  1.00  0.00     0.031 C 
ATOM     61  C   UNL A   1      43.016  28.656  33.604  1.00  0.00     0.037 A 
BRANCH  48  62
ATOM     62  C   UNL A   1      39.933  33.360  36.173  1.00  0.00     0.057 A 
ATOM     63  C   UNL A   1      40.632  34.572  36.277  1.00  0.00     0.134 A 
ATOM     64  C   UNL A   1      39.041  33.042  37.205  1.00  0.00     0.134 A 
ATOM     65  F   UNL A   1      41.514  34.930  35.333  1.00  0.00    -0.206 F 
ATOM     66  C   UNL A   1      40.474  35.416  37.378  1.00  0.00     0.040 A 
ATOM     67  C   UNL A   1      38.851  33.893  38.296  1.00  0.00     0.040 A 
ATOM     68  F   UNL A   1      38.336  31.901  37.169  1.00  0.00    -0.206 F 
ATOM     69  C   UNL A   1      39.576  35.079  38.388  1.00  0.00     0.006 A 
ENDBRANCH  48  62
BRANCH  49  70
ATOM     70  C   UNL A   1      40.889  27.657  28.027  1.00  0.00     0.057 A 
ATOM     71  C   UNL A   1      41.676  28.075  26.947  1.00  0.00     0.134 A 
ATOM     72  C   UNL A   1      40.248  26.418  27.913  1.00  0.00     0.134 A 
ATOM     73  F   UNL A   1      42.303  29.260  26.988  1.00  0.00    -0.206 F 
ATOM     74  C   UNL A   1      41.799  27.307  25.788  1.00  0.00     0.040 A 
ATOM     75  C   UNL A   1      40.383  25.627  26.771  1.00  0.00     0.040 A 
ATOM     76  F   UNL A   1      39.486  25.955  28.915  1.00  0.00    -0.206 F 
ATOM     77  C   UNL A   1      41.153  26.076  25.700  1.00  0.00     0.006 A 
ENDBRANCH  49  70
BRANCH  61  78
ATOM     78  C   UNL A   1      44.114  27.814  34.187  1.00  0.00     0.057 A 
ATOM     79  C   UNL A   1      43.852  26.611  34.855  1.00  0.00     0.134 A 
ATOM     80  C   UNL A   1      45.453  28.207  34.066  1.00  0.00     0.134 A 
ATOM     81  F   UNL A   1      42.590  26.183  35.016  1.00  0.00    -0.206 F 
ATOM     82  C   UNL A   1      44.878  25.847  35.413  1.00  0.00     0.040 A 
ATOM     83  C   UNL A   1      46.491  27.436  34.591  1.00  0.00     0.040 A 
ATOM     84  F   UNL A   1      45.776  29.342  33.429  1.00  0.00    -0.206 F 
ATOM     85  C   UNL A   1      46.203  26.258  35.277  1.00  0.00     0.006 A 
ENDBRANCH  61  78
ENDBRANCH  35  36
ENDBRANCH  27  30
ENDBRANCH  25  26
ENDBRANCH  24  25
ENDBRANCH   1  24
TORSDOF 16
ENDMDL
MODEL 2
REMARK VINA RESULT:     -11.3      1.328      2.868
REMARK SMILES COCC[C@H](NC(=O)c1ccc(C)cc1F)C(=O)NCCCCNC(=O)c1ccc(-c2c3nc(c(-c4c(F)cccc4F)c4ccc([nH]4)c(-c4c(F)cccc4F)c4nc(c(-c5c(F)cccc5F)c5ccc2[nH]5)C=C4)C=C3)cc1
REMARK SMILES IDX 21 1 20 2 19 3 17 4 18 5 5 7 4 8 3 9 2 10 1 11 6 12 7 13
REMARK SMILES IDX 8 15 9 16 10 17 15 18 11 19 14 20 16 21 12 22 13 23 22 24
REMARK SMILES IDX 23 25 24 26 25 27 26 29 27 30 28 31 80 32 29 33 79 34 30 35
REMARK SMILES IDX 31 36 32 37 73 38 33 39 78 40 72 41 74 42 34 43 77 44 71 45
REMARK SMILES IDX 70 46 35 48 61 49 44 50 60 51 45 52 48 53 59 54 75 55 46 56
REMARK SMILES IDX 47 57 58 59 76 60 49 61 36 62 37 63 42 64 38 65 39 66 41 67
REMARK SMILES IDX 43 68 40 69 62 70 63 71 68 72 64 73 65 74 67 75 69 76 66 77
REMARK SMILES IDX 50 78 51 79 56 80 52 81 53 82 55 83 57 84 54 85
REMARK H PARENT 19 6 6 14 24 28 74 47 48 58
REMARK Flexibility Score: inf
ROOT
ATOM      1  C   UNL A   1      30.651  31.608  25.338  1.00  0.00     0.023 C 
ENDROOT
BRANCH   1   2
ATOM      2  C   UNL A   1      30.995  30.257  24.721  1.00  0.00     0.116 C 
BRANCH   2   3
ATOM      3  N   UNL A   1      30.138  29.951  23.612  1.00  0.00    -0.354 N 
ATOM      4  C   UNL A   1      30.082  28.805  22.885  1.00  0.00     0.242 C 
ATOM      5  O   UNL A   1      29.214  28.755  22.006  1.00  0.00    -0.273 OA
ATOM      6  H   UNL A   1      29.511  30.661  23.345  1.00  0.00     0.163 HD
BRANCH   4   7
ATOM      7  C   UNL A   1      30.898  27.527  23.247  1.00  0.00     0.173 C 
BRANCH   7   8
ATOM      8  C   UNL A   1      31.320  26.806  21.964  1.00  0.00     0.063 C 
BRANCH   8   9
ATOM      9  C   UNL A   1      32.600  25.974  22.076  1.00  0.00     0.162 C 
BRANCH   9  10
ATOM     10  O   UNL A   1      32.370  24.737  22.759  1.00  0.00    -0.385 OA
ATOM     11  C   UNL A   1      32.994  23.610  22.161  1.00  0.00     0.194 C 
ENDBRANCH   9  10
ENDBRANCH   8   9
ENDBRANCH   7   8
BRANCH   7  12
ATOM     12  N   UNL A   1      30.429  26.664  24.372  1.00  0.00    -0.340 N 
ATOM     13  C   UNL A   1      30.697  26.457  25.710  1.00  0.00     0.254 C 
ATOM     14  H   UNL A   1      29.713  26.060  24.068  1.00  0.00     0.164 HD
ATOM     15  O   UNL A   1      30.006  25.651  26.330  1.00  0.00    -0.269 OA
BRANCH  13  16
ATOM     16  C   UNL A   1      31.810  27.113  26.416  1.00  0.00     0.075 A 
ATOM     17  C   UNL A   1      31.604  28.075  27.400  1.00  0.00     0.017 A 
ATOM     18  C   UNL A   1      33.114  26.799  26.041  1.00  0.00     0.136 A 
ATOM     19  C   UNL A   1      32.658  28.921  27.759  1.00  0.00     0.004 A 
ATOM     20  C   UNL A   1      34.172  27.625  26.403  1.00  0.00     0.043 A 
ATOM     21  F   UNL A   1      33.371  25.768  25.227  1.00  0.00    -0.206 F 
ATOM     22  C   UNL A   1      33.928  28.751  27.192  1.00  0.00    -0.048 A 
ATOM     23  C   UNL A   1      35.018  29.758  27.407  1.00  0.00     0.044 C 
ENDBRANCH  13  16
ENDBRANCH   7  12
ENDBRANCH   4   7
ENDBRANCH   2   3
ENDBRANCH   1   2
BRANCH   1  24
ATOM     24  C   UNL A   1      31.198  31.800  26.750  1.00  0.00     0.023 C 
BRANCH  24  25
ATOM     25  C   UNL A   1      32.497  32.592  26.832  1.00  0.00     0.116 C 
BRANCH  25  26
ATOM     26  N   UNL A   1      32.354  33.907  27.438  1.00  0.00    -0.352 N 
ATOM     27  C   UNL A   1      33.138  34.476  28.419  1.00  0.00     0.251 C 
ATOM     28  H   UNL A   1      31.608  34.457  27.108  1.00  0.00     0.163 HD
ATOM     29  O   UNL A   1      32.858  35.560  28.897  1.00  0.00    -0.269 OA
BRANCH  27  30
ATOM     30  C   UNL A   1      34.313  33.724  28.910  1.00  0.00     0.039 A 
ATOM     31  C   UNL A   1      35.590  34.185  28.590  1.00  0.00     0.014 A 
ATOM     32  C   UNL A   1      34.149  32.595  29.717  1.00  0.00     0.014 A 
ATOM     33  C   UNL A   1      36.707  33.536  29.119  1.00  0.00     0.010 A 
ATOM     34  C   UNL A   1      35.257  32.007  30.316  1.00  0.00     0.010 A 
ATOM     35  C   UNL A   1      36.549  32.456  30.004  1.00  0.00    -0.014 A 
BRANCH  35  36
ATOM     36  C   UNL A   1      37.729  31.760  30.574  1.00  0.00     0.031 A 
ATOM     37  C   UNL A   1      38.167  32.057  31.984  1.00  0.00     0.074 A 
ATOM     38  C   UNL A   1      38.424  30.888  29.819  1.00  0.00     0.049 A 
ATOM     39  N   UNL A   1      39.163  31.550  32.664  1.00  0.00    -0.248 NA
ATOM     40  C   UNL A   1      37.402  33.079  32.716  1.00  0.00     0.031 C 
ATOM     41  C   UNL A   1      38.140  30.563  28.419  1.00  0.00     0.029 A 
ATOM     42  N   UNL A   1      39.511  30.111  30.125  1.00  0.00    -0.354 N 
ATOM     43  C   UNL A   1      39.148  32.197  33.893  1.00  0.00     0.074 A 
ATOM     44  C   UNL A   1      38.093  33.184  33.840  1.00  0.00     0.031 C 
ATOM     45  C   UNL A   1      39.005  29.624  28.002  1.00  0.00     0.029 A 
ATOM     46  C   UNL A   1      39.921  29.303  29.092  1.00  0.00     0.049 A 
ATOM     47  H   UNL A   1      39.957  30.129  31.003  1.00  0.00     0.167 HD
ATOM     48  C   UNL A   1      39.919  31.967  34.983  1.00  0.00     0.037 A 
ATOM     49  C   UNL A   1      40.917  28.399  29.036  1.00  0.00     0.037 A 
ATOM     50  C   UNL A   1      40.950  30.967  35.042  1.00  0.00     0.049 A 
ATOM     51  C   UNL A   1      41.753  28.155  30.264  1.00  0.00     0.074 A 
ATOM     52  C   UNL A   1      41.748  30.613  36.116  1.00  0.00     0.029 A 
ATOM     53  N   UNL A   1      41.325  30.159  33.980  1.00  0.00    -0.354 N 
ATOM     54  N   UNL A   1      41.674  28.715  31.446  1.00  0.00    -0.248 NA
ATOM     55  C   UNL A   1      42.807  27.138  30.151  1.00  0.00     0.031 C 
ATOM     56  C   UNL A   1      42.639  29.622  35.689  1.00  0.00     0.029 A 
ATOM     57  C   UNL A   1      42.359  29.320  34.366  1.00  0.00     0.049 A 
ATOM     58  H   UNL A   1      40.918  30.177  33.085  1.00  0.00     0.167 HD
ATOM     59  C   UNL A   1      42.647  28.103  32.224  1.00  0.00     0.074 A 
ATOM     60  C   UNL A   1      43.288  27.111  31.385  1.00  0.00     0.031 C 
ATOM     61  C   UNL A   1      42.984  28.340  33.516  1.00  0.00     0.037 A 
BRANCH  48  62
ATOM     62  C   UNL A   1      39.661  32.810  36.199  1.00  0.00     0.057 A 
ATOM     63  C   UNL A   1      40.363  34.001  36.436  1.00  0.00     0.134 A 
ATOM     64  C   UNL A   1      38.688  32.439  37.137  1.00  0.00     0.134 A 
ATOM     65  F   UNL A   1      41.319  34.408  35.588  1.00  0.00    -0.206 F 
ATOM     66  C   UNL A   1      40.129  34.774  37.575  1.00  0.00     0.040 A 
ATOM     67  C   UNL A   1      38.424  33.220  38.264  1.00  0.00     0.040 A 
ATOM     68  F   UNL A   1      37.976  31.314  36.971  1.00  0.00    -0.206 F 
ATOM     69  C   UNL A   1      39.152  34.386  38.490  1.00  0.00     0.006 A 
ENDBRANCH  48  62
BRANCH  49  70
ATOM     70  C   UNL A   1      41.158  27.627  27.790  1.00  0.00     0.057 A 
ATOM     71  C   UNL A   1      40.576  26.368  27.595  1.00  0.00     0.134 A 
ATOM     72  C   UNL A   1      41.987  28.117  26.774  1.00  0.00     0.134 A 
ATOM     73  F   UNL A   1      39.786  25.837  28.540  1.00  0.00    -0.206 F 
ATOM     74  C   UNL A   1      40.830  25.614  26.450  1.00  0.00     0.040 A 
ATOM     75  C   UNL A   1      42.228  27.385  25.611  1.00  0.00     0.040 A 
ATOM     76  F   UNL A   1      42.568  29.320  26.894  1.00  0.00    -0.206 F 
ATOM     77  C   UNL A   1      41.656  26.124  25.451  1.00  0.00     0.006 A 
ENDBRANCH  49  70
BRANCH  61  78
ATOM     78  C   UNL A   1      44.074  27.489  34.104  1.00  0.00     0.057 A 
ATOM     79  C   UNL A   1      43.807  26.256  34.713  1.00  0.00     0.134 A 
ATOM     80  C   UNL A   1      45.411  27.904  34.045  1.00  0.00     0.134 A 
ATOM     81  F   UNL A   1      42.546  25.806  34.813  1.00  0.00    -0.206 F 
ATOM     82  C   UNL A   1      44.824  25.485  35.276  1.00  0.00     0.040 A 
ATOM     83  C   UNL A   1      46.441  27.126  34.575  1.00  0.00     0.040 A 
ATOM     84  F   UNL A   1      45.739  29.068  33.464  1.00  0.00    -0.206 F 
ATOM     85  C   UNL A   1      46.146  25.917  35.203  1.00  0.00     0.006 A 
ENDBRANCH  61  78
ENDBRANCH  35  36
ENDBRANCH  27  30
ENDBRANCH  25  26
ENDBRANCH  24  25
ENDBRANCH   1  24
TORSDOF 16
ENDMDL
MODEL 3
REMARK VINA RESULT:     -11.2      5.321     10.326
REMARK SMILES COCC[C@H](NC(=O)c1ccc(C)cc1F)C(=O)NCCCCNC(=O)c1ccc(-c2c3nc(c(-c4c(F)cccc4F)c4ccc([nH]4)c(-c4c(F)cccc4F)c4nc(c(-c5c(F)cccc5F)c5ccc2[nH]5)C=C4)C=C3)cc1
REMARK SMILES IDX 21 1 20 2 19 3 17 4 18 5 5 7 4 8 3 9 2 10 1 11 6 12 7 13
REMARK SMILES IDX 8 15 9 16 10 17 15 18 11 19 14 20 16 21 12 22 13 23 22 24
REMARK SMILES IDX 23 25 24 26 25 27 26 29 27 30 28 31 80 32 29 33 79 34 30 35
REMARK SMILES IDX 31 36 32 37 73 38 33 39 78 40 72 41 74 42 34 43 77 44 71 45
REMARK SMILES IDX 70 46 35 48 61 49 44 50 60 51 45 52 48 53 59 54 75 55 46 56
REMARK SMILES IDX 47 57 58 59 76 60 49 61 36 62 37 63 42 64 38 65 39 66 41 67
REMARK SMILES IDX 43 68 40 69 62 70 63 71 68 72 64 73 65 74 67 75 69 76 66 77
REMARK SMILES IDX 50 78 51 79 56 80 52 81 53 82 55 83 57 84 54 85
REMARK H PARENT 19 6 6 14 24 28 74 47 48 58
REMARK Flexibility Score: inf
ROOT
ATOM      1  C   UNL A   1      36.726  20.665  24.987  1.00  0.00     0.023 C 
ENDROOT
BRANCH   1   2
ATOM      2  C   UNL A   1      37.087  21.922  24.204  1.00  0.00     0.116 C 
BRANCH   2   3
ATOM      3  N   UNL A   1      36.564  23.102  24.831  1.00  0.00    -0.354 N 
ATOM      4  C   UNL A   1      35.314  23.624  24.729  1.00  0.00     0.242 C 
ATOM      5  O   UNL A   1      35.081  24.626  25.414  1.00  0.00    -0.273 OA
ATOM      6  H   UNL A   1      37.191  23.595  25.408  1.00  0.00     0.163 HD
BRANCH   4   7
ATOM      7  C   UNL A   1      34.153  22.909  23.974  1.00  0.00     0.173 C 
BRANCH   7   8
ATOM      8  C   UNL A   1      34.052  23.458  22.548  1.00  0.00     0.063 C 
BRANCH   8   9
ATOM      9  C   UNL A   1      33.009  24.561  22.348  1.00  0.00     0.162 C 
BRANCH   9  10
ATOM     10  O   UNL A   1      33.393  25.469  21.310  1.00  0.00    -0.385 OA
ATOM     11  C   UNL A   1      32.491  25.523  20.213  1.00  0.00     0.194 C 
ENDBRANCH   9  10
ENDBRANCH   8   9
ENDBRANCH   7   8
BRANCH   7  12
ATOM     12  N   UNL A   1      32.863  22.673  24.689  1.00  0.00    -0.340 N 
ATOM     13  C   UNL A   1      32.058  21.616  25.067  1.00  0.00     0.254 C 
ATOM     14  H   UNL A   1      32.467  23.526  24.976  1.00  0.00     0.164 HD
ATOM     15  O   UNL A   1      31.053  21.854  25.734  1.00  0.00    -0.269 OA
BRANCH  13  16
ATOM     16  C   UNL A   1      32.315  20.226  24.660  1.00  0.00     0.075 A 
ATOM     17  C   UNL A   1      32.704  19.244  25.566  1.00  0.00     0.017 A 
ATOM     18  C   UNL A   1      32.223  19.899  23.309  1.00  0.00     0.136 A 
ATOM     19  C   UNL A   1      33.291  18.068  25.089  1.00  0.00     0.004 A 
ATOM     20  C   UNL A   1      32.791  18.727  22.825  1.00  0.00     0.043 A 
ATOM     21  F   UNL A   1      31.695  20.754  22.425  1.00  0.00    -0.206 F 
ATOM     22  C   UNL A   1      33.416  17.846  23.711  1.00  0.00    -0.048 A 
ATOM     23  C   UNL A   1      34.213  16.694  23.176  1.00  0.00     0.044 C 
ENDBRANCH  13  16
ENDBRANCH   7  12
ENDBRANCH   4   7
ENDBRANCH   2   3
ENDBRANCH   1   2
BRANCH   1  24
ATOM     24  C   UNL A   1      37.834  19.616  25.018  1.00  0.00     0.023 C 
BRANCH  24  25
ATOM     25  C   UNL A   1      39.080  20.023  25.795  1.00  0.00     0.116 C 
BRANCH  25  26
ATOM     26  N   UNL A   1      40.140  19.027  25.784  1.00  0.00    -0.352 N 
ATOM     27  C   UNL A   1      41.475  19.208  26.075  1.00  0.00     0.251 C 
ATOM     28  H   UNL A   1      39.871  18.113  25.539  1.00  0.00     0.163 HD
ATOM     29  O   UNL A   1      42.275  18.299  25.948  1.00  0.00    -0.269 OA
BRANCH  27  30
ATOM     30  C   UNL A   1      41.928  20.547  26.511  1.00  0.00     0.039 A 
ATOM     31  C   UNL A   1      42.288  21.485  25.543  1.00  0.00     0.014 A 
ATOM     32  C   UNL A   1      41.955  20.882  27.867  1.00  0.00     0.014 A 
ATOM     33  C   UNL A   1      42.633  22.778  25.936  1.00  0.00     0.010 A 
ATOM     34  C   UNL A   1      42.210  22.193  28.249  1.00  0.00     0.010 A 
ATOM     35  C   UNL A   1      42.575  23.150  27.291  1.00  0.00    -0.014 A 
BRANCH  35  36
ATOM     36  C   UNL A   1      42.938  24.524  27.719  1.00  0.00     0.031 A 
ATOM     37  C   UNL A   1      44.383  24.947  27.734  1.00  0.00     0.074 A 
ATOM     38  C   UNL A   1      41.978  25.378  28.120  1.00  0.00     0.049 A 
ATOM     39  N   UNL A   1      44.903  26.102  28.066  1.00  0.00    -0.248 NA
ATOM     40  C   UNL A   1      45.378  23.931  27.356  1.00  0.00     0.031 C 
ATOM     41  C   UNL A   1      40.549  25.068  28.211  1.00  0.00     0.029 A 
ATOM     42  N   UNL A   1      42.059  26.687  28.522  1.00  0.00    -0.354 N 
ATOM     43  C   UNL A   1      46.278  25.945  27.945  1.00  0.00     0.074 A 
ATOM     44  C   UNL A   1      46.517  24.566  27.582  1.00  0.00     0.031 C 
ATOM     45  C   UNL A   1      39.885  26.168  28.604  1.00  0.00     0.029 A 
ATOM     46  C   UNL A   1      40.841  27.249  28.819  1.00  0.00     0.049 A 
ATOM     47  H   UNL A   1      42.910  27.178  28.593  1.00  0.00     0.167 HD
ATOM     48  C   UNL A   1      47.253  26.873  28.086  1.00  0.00     0.037 A 
ATOM     49  C   UNL A   1      40.532  28.500  29.211  1.00  0.00     0.037 A 
ATOM     50  C   UNL A   1      47.011  28.251  28.421  1.00  0.00     0.049 A 
ATOM     51  C   UNL A   1      41.633  29.515  29.351  1.00  0.00     0.074 A 
ATOM     52  C   UNL A   1      47.923  29.285  28.531  1.00  0.00     0.029 A 
ATOM     53  N   UNL A   1      45.763  28.786  28.699  1.00  0.00    -0.354 N 
ATOM     54  N   UNL A   1      42.921  29.375  29.153  1.00  0.00    -0.248 NA
ATOM     55  C   UNL A   1      41.232  30.870  29.755  1.00  0.00     0.031 C 
ATOM     56  C   UNL A   1      47.231  30.436  28.922  1.00  0.00     0.029 A 
ATOM     57  C   UNL A   1      45.882  30.132  29.002  1.00  0.00     0.049 A 
ATOM     58  H   UNL A   1      44.917  28.284  28.684  1.00  0.00     0.167 HD
ATOM     59  C   UNL A   1      43.481  30.625  29.381  1.00  0.00     0.074 A 
ATOM     60  C   UNL A   1      42.388  31.517  29.710  1.00  0.00     0.031 C 
ATOM     61  C   UNL A   1      44.782  31.004  29.327  1.00  0.00     0.037 A 
BRANCH  48  62
ATOM     62  C   UNL A   1      48.669  26.423  27.867  1.00  0.00     0.057 A 
ATOM     63  C   UNL A   1      49.475  25.972  28.924  1.00  0.00     0.134 A 
ATOM     64  C   UNL A   1      49.232  26.421  26.585  1.00  0.00     0.134 A 
ATOM     65  F   UNL A   1      49.005  25.963  30.181  1.00  0.00    -0.206 F 
ATOM     66  C   UNL A   1      50.795  25.568  28.717  1.00  0.00     0.040 A 
ATOM     67  C   UNL A   1      50.541  25.989  26.361  1.00  0.00     0.040 A 
ATOM     68  F   UNL A   1      48.518  26.834  25.527  1.00  0.00    -0.206 F 
ATOM     69  C   UNL A   1      51.329  25.570  27.431  1.00  0.00     0.006 A 
ENDBRANCH  48  62
BRANCH  49  70
ATOM     70  C   UNL A   1      39.117  28.877  29.460  1.00  0.00     0.057 A 
ATOM     71  C   UNL A   1      38.332  29.448  28.450  1.00  0.00     0.134 A 
ATOM     72  C   UNL A   1      38.521  28.695  30.713  1.00  0.00     0.134 A 
ATOM     73  F   UNL A   1      38.851  29.663  27.232  1.00  0.00    -0.206 F 
ATOM     74  C   UNL A   1      37.016  29.848  28.684  1.00  0.00     0.040 A 
ATOM     75  C   UNL A   1      37.197  29.067  30.954  1.00  0.00     0.040 A 
ATOM     76  F   UNL A   1      39.215  28.146  31.721  1.00  0.00    -0.206 F 
ATOM     77  C   UNL A   1      36.443  29.654  29.939  1.00  0.00     0.006 A 
ENDBRANCH  49  70
BRANCH  61  78
ATOM     78  C   UNL A   1      45.084  32.449  29.601  1.00  0.00     0.057 A 
ATOM     79  C   UNL A   1      45.058  33.418  28.589  1.00  0.00     0.134 A 
ATOM     80  C   UNL A   1      45.390  32.879  30.898  1.00  0.00     0.134 A 
ATOM     81  F   UNL A   1      44.783  33.070  27.322  1.00  0.00    -0.206 F 
ATOM     82  C   UNL A   1      45.362  34.754  28.850  1.00  0.00     0.040 A 
ATOM     83  C   UNL A   1      45.664  34.219  31.178  1.00  0.00     0.040 A 
ATOM     84  F   UNL A   1      45.421  32.007  31.917  1.00  0.00    -0.206 F 
ATOM     85  C   UNL A   1      45.662  35.158  30.149  1.00  0.00     0.006 A 
ENDBRANCH  61  78
ENDBRANCH  35  36
ENDBRANCH  27  30
ENDBRANCH  25  26
ENDBRANCH  24  25
ENDBRANCH   1  24
TORSDOF 16
ENDMDL
