MODEL 1
REMARK VINA RESULT:     -12.4      0.000      0.000
REMARK SMILES O=C(CC1CCN(C(=O)NCc2ccccn2)CC1)NCCCCNC(=O)c1ccc(-c2c3nc(c(-c4c(F)cccc4F)c4ccc([nH]4)c(-c4c(F)cccc4F)c4nc(c(-c5c(F)cccc5F)c5ccc2[nH]5)C=C4)C=C3)cc1
REMARK SMILES IDX 22 1 21 2 20 3 1 4 2 5 3 7 4 8 5 9 19 10 6 11 18 12 7 13
REMARK SMILES IDX 8 14 9 15 10 16 11 18 12 19 13 20 17 21 14 22 16 23 15 24
REMARK SMILES IDX 23 25 24 26 25 27 26 28 27 30 28 31 29 32 81 33 30 34 80 35
REMARK SMILES IDX 31 36 32 37 33 38 74 39 34 40 79 41 73 42 75 43 35 44 78 45
REMARK SMILES IDX 72 46 71 47 36 49 62 50 45 51 61 52 46 53 49 54 60 55 76 56
REMARK SMILES IDX 47 57 48 58 59 60 77 61 50 62 37 63 38 64 43 65 39 66 40 67
REMARK SMILES IDX 42 68 44 69 41 70 63 71 64 72 69 73 65 74 66 75 68 76 70 77
REMARK SMILES IDX 67 78 51 79 52 80 57 81 53 82 54 83 56 84 58 85 55 86
REMARK H PARENT 20 6 10 17 25 29 75 48 49 59
REMARK Flexibility Score: inf
ROOT
ATOM      1  C   UNL A   1      34.314  33.565  28.743  1.00  0.00     0.023 C 
ENDROOT
BRANCH   1   2
ATOM      2  C   UNL A   1      35.240  32.529  28.107  1.00  0.00     0.116 C 
BRANCH   2   3
ATOM      3  N   UNL A   1      34.510  31.359  27.658  1.00  0.00    -0.356 N 
ATOM      4  O   UNL A   1      35.956  29.844  28.592  1.00  0.00    -0.275 OA
ATOM      5  C   UNL A   1      34.954  30.088  27.927  1.00  0.00     0.220 C 
ATOM      6  H   UNL A   1      33.677  31.479  27.148  1.00  0.00     0.163 HD
BRANCH   5   7
ATOM      7  C   UNL A   1      34.153  28.978  27.282  1.00  0.00     0.103 C 
BRANCH   7   8
ATOM      8  C   UNL A   1      32.662  29.261  27.016  1.00  0.00     0.002 C 
ATOM      9  C   UNL A   1      31.693  28.164  27.507  1.00  0.00     0.026 C 
ATOM     10  C   UNL A   1      32.454  29.509  25.501  1.00  0.00     0.026 C 
ATOM     11  C   UNL A   1      31.653  26.928  26.603  1.00  0.00     0.121 C 
ATOM     12  C   UNL A   1      32.490  28.195  24.715  1.00  0.00     0.121 C 
ATOM     13  N   UNL A   1      31.434  27.328  25.209  1.00  0.00    -0.325 N 
ATOM     14  C   UNL A   1      30.300  26.905  24.584  1.00  0.00     0.317 C 
ATOM     15  O   UNL A   1      29.524  26.104  25.118  1.00  0.00    -0.249 OA
ATOM     16  N   UNL A   1      29.905  27.323  23.374  1.00  0.00    -0.332 N 
ATOM     17  H   UNL A   1      29.097  26.843  23.078  1.00  0.00     0.165 HD
BRANCH  16  18
ATOM     18  C   UNL A   1      30.334  28.287  22.374  1.00  0.00     0.174 C 
BRANCH  18  19
ATOM     19  C   UNL A   1      29.515  29.562  22.415  1.00  0.00     0.060 A 
ATOM     20  C   UNL A   1      29.469  30.314  23.591  1.00  0.00     0.026 A 
ATOM     21  N   UNL A   1      28.841  29.932  21.296  1.00  0.00    -0.259 NA
ATOM     22  C   UNL A   1      28.716  31.483  23.621  1.00  0.00     0.004 A 
ATOM     23  C   UNL A   1      28.106  31.067  21.361  1.00  0.00     0.111 A 
ATOM     24  C   UNL A   1      28.017  31.870  22.486  1.00  0.00     0.020 A 
ENDBRANCH  18  19
ENDBRANCH  16  18
ENDBRANCH   7   8
ENDBRANCH   5   7
ENDBRANCH   2   3
ENDBRANCH   1   2
BRANCH   1  25
ATOM     25  C   UNL A   1      34.471  33.721  30.257  1.00  0.00     0.023 C 
BRANCH  25  26
ATOM     26  C   UNL A   1      34.716  32.425  31.023  1.00  0.00     0.116 C 
BRANCH  26  27
ATOM     27  N   UNL A   1      35.145  32.650  32.393  1.00  0.00    -0.352 N 
ATOM     28  C   UNL A   1      36.302  32.256  33.023  1.00  0.00     0.251 C 
ATOM     29  H   UNL A   1      34.513  33.157  32.954  1.00  0.00     0.163 HD
ATOM     30  O   UNL A   1      36.428  32.411  34.231  1.00  0.00    -0.269 OA
BRANCH  28  31
ATOM     31  C   UNL A   1      37.387  31.613  32.246  1.00  0.00     0.039 A 
ATOM     32  C   UNL A   1      37.551  31.966  30.904  1.00  0.00     0.014 A 
ATOM     33  C   UNL A   1      38.241  30.675  32.832  1.00  0.00     0.014 A 
ATOM     34  C   UNL A   1      38.613  31.431  30.172  1.00  0.00     0.010 A 
ATOM     35  C   UNL A   1      39.344  30.204  32.124  1.00  0.00     0.010 A 
ATOM     36  C   UNL A   1      39.544  30.578  30.786  1.00  0.00    -0.014 A 
BRANCH  36  37
ATOM     37  C   UNL A   1      40.735  30.079  30.050  1.00  0.00     0.031 A 
ATOM     38  C   UNL A   1      41.888  30.998  29.757  1.00  0.00     0.074 A 
ATOM     39  C   UNL A   1      40.753  28.811  29.591  1.00  0.00     0.049 A 
ATOM     40  N   UNL A   1      42.979  30.764  29.072  1.00  0.00    -0.248 NA
ATOM     41  C   UNL A   1      41.792  32.370  30.279  1.00  0.00     0.031 C 
ATOM     42  C   UNL A   1      39.680  27.831  29.769  1.00  0.00     0.029 A 
ATOM     43  N   UNL A   1      41.705  28.134  28.872  1.00  0.00    -0.354 N 
ATOM     44  C   UNL A   1      43.692  31.957  29.077  1.00  0.00     0.074 A 
ATOM     45  C   UNL A   1      42.884  32.928  29.779  1.00  0.00     0.031 C 
ATOM     46  C   UNL A   1      40.042  26.673  29.195  1.00  0.00     0.029 A 
ATOM     47  C   UNL A   1      41.350  26.840  28.569  1.00  0.00     0.049 A 
ATOM     48  H   UNL A   1      42.562  28.534  28.597  1.00  0.00     0.167 HD
ATOM     49  C   UNL A   1      44.921  32.212  28.564  1.00  0.00     0.037 A 
ATOM     50  C   UNL A   1      42.000  25.898  27.859  1.00  0.00     0.037 A 
ATOM     51  C   UNL A   1      45.730  31.241  27.876  1.00  0.00     0.049 A 
ATOM     52  C   UNL A   1      43.351  26.214  27.279  1.00  0.00     0.074 A 
ATOM     53  C   UNL A   1      47.006  31.391  27.361  1.00  0.00     0.029 A 
ATOM     54  N   UNL A   1      45.339  29.939  27.599  1.00  0.00    -0.354 N 
ATOM     55  N   UNL A   1      44.041  27.326  27.347  1.00  0.00    -0.248 NA
ATOM     56  C   UNL A   1      44.017  25.140  26.528  1.00  0.00     0.031 C 
ATOM     57  C   UNL A   1      47.366  30.198  26.727  1.00  0.00     0.029 A 
ATOM     58  C   UNL A   1      46.340  29.284  26.899  1.00  0.00     0.049 A 
ATOM     59  H   UNL A   1      44.479  29.539  27.861  1.00  0.00     0.167 HD
ATOM     60  C   UNL A   1      45.232  27.078  26.676  1.00  0.00     0.074 A 
ATOM     61  C   UNL A   1      45.177  25.704  26.222  1.00  0.00     0.031 C 
ATOM     62  C   UNL A   1      46.277  27.913  26.457  1.00  0.00     0.037 A 
BRANCH  49  63
ATOM     63  C   UNL A   1      45.466  33.602  28.733  1.00  0.00     0.057 A 
ATOM     64  C   UNL A   1      46.282  33.948  29.819  1.00  0.00     0.134 A 
ATOM     65  C   UNL A   1      45.202  34.596  27.782  1.00  0.00     0.134 A 
ATOM     66  F   UNL A   1      46.566  33.048  30.772  1.00  0.00    -0.206 F 
ATOM     67  C   UNL A   1      46.792  35.240  29.967  1.00  0.00     0.040 A 
ATOM     68  C   UNL A   1      45.731  35.882  27.904  1.00  0.00     0.040 A 
ATOM     69  F   UNL A   1      44.436  34.331  26.714  1.00  0.00    -0.206 F 
ATOM     70  C   UNL A   1      46.523  36.209  29.002  1.00  0.00     0.006 A 
ENDBRANCH  49  63
BRANCH  50  71
ATOM     71  C   UNL A   1      41.386  24.558  27.663  1.00  0.00     0.057 A 
ATOM     72  C   UNL A   1      41.811  23.450  28.404  1.00  0.00     0.134 A 
ATOM     73  C   UNL A   1      40.370  24.351  26.721  1.00  0.00     0.134 A 
ATOM     74  F   UNL A   1      42.793  23.580  29.308  1.00  0.00    -0.206 F 
ATOM     75  C   UNL A   1      41.267  22.181  28.200  1.00  0.00     0.040 A 
ATOM     76  C   UNL A   1      39.797  23.094  26.528  1.00  0.00     0.040 A 
ATOM     77  F   UNL A   1      39.911  25.374  25.984  1.00  0.00    -0.206 F 
ATOM     78  C   UNL A   1      40.253  22.002  27.263  1.00  0.00     0.006 A 
ENDBRANCH  50  71
BRANCH  62  79
ATOM     79  C   UNL A   1      47.465  27.354  25.728  1.00  0.00     0.057 A 
ATOM     80  C   UNL A   1      47.609  27.473  24.339  1.00  0.00     0.134 A 
ATOM     81  C   UNL A   1      48.500  26.723  26.431  1.00  0.00     0.134 A 
ATOM     82  F   UNL A   1      46.650  28.055  23.603  1.00  0.00    -0.206 F 
ATOM     83  C   UNL A   1      48.724  26.960  23.675  1.00  0.00     0.040 A 
ATOM     84  C   UNL A   1      49.634  26.233  25.782  1.00  0.00     0.040 A 
ATOM     85  F   UNL A   1      48.431  26.583  27.764  1.00  0.00    -0.206 F 
ATOM     86  C   UNL A   1      49.745  26.345  24.398  1.00  0.00     0.006 A 
ENDBRANCH  62  79
ENDBRANCH  36  37
ENDBRANCH  28  31
ENDBRANCH  26  27
ENDBRANCH  25  26
ENDBRANCH   1  25
TORSDOF 14
ENDMDL
MODEL 2
REMARK VINA RESULT:     -12.3      4.709      7.135
REMARK SMILES O=C(CC1CCN(C(=O)NCc2ccccn2)CC1)NCCCCNC(=O)c1ccc(-c2c3nc(c(-c4c(F)cccc4F)c4ccc([nH]4)c(-c4c(F)cccc4F)c4nc(c(-c5c(F)cccc5F)c5ccc2[nH]5)C=C4)C=C3)cc1
REMARK SMILES IDX 22 1 21 2 20 3 1 4 2 5 3 7 4 8 5 9 19 10 6 11 18 12 7 13
REMARK SMILES IDX 8 14 9 15 10 16 11 18 12 19 13 20 17 21 14 22 16 23 15 24
REMARK SMILES IDX 23 25 24 26 25 27 26 28 27 30 28 31 29 32 81 33 30 34 80 35
REMARK SMILES IDX 31 36 32 37 33 38 74 39 34 40 79 41 73 42 75 43 35 44 78 45
REMARK SMILES IDX 72 46 71 47 36 49 62 50 45 51 61 52 46 53 49 54 60 55 76 56
REMARK SMILES IDX 47 57 48 58 59 60 77 61 50 62 37 63 38 64 43 65 39 66 40 67
REMARK SMILES IDX 42 68 44 69 41 70 63 71 64 72 69 73 65 74 66 75 68 76 70 77
REMARK SMILES IDX 67 78 51 79 52 80 57 81 53 82 54 83 56 84 58 85 55 86
REMARK H PARENT 20 6 10 17 25 29 75 48 49 59
REMARK Flexibility Score: inf
ROOT
ATOM      1  C   UNL A   1      33.271  34.159  28.944  1.00  0.00     0.023 C 
ENDROOT
BRANCH   1   2
ATOM      2  C   UNL A   1      34.390  33.262  28.416  1.00  0.00     0.116 C 
BRANCH   2   3
ATOM      3  N   UNL A   1      33.916  31.921  28.133  1.00  0.00    -0.356 N 
ATOM      4  O   UNL A   1      35.997  31.051  27.720  1.00  0.00    -0.275 OA
ATOM      5  C   UNL A   1      34.780  30.914  27.779  1.00  0.00     0.220 C 
ATOM      6  H   UNL A   1      32.953  31.728  28.196  1.00  0.00     0.163 HD
BRANCH   5   7
ATOM      7  C   UNL A   1      34.119  29.609  27.392  1.00  0.00     0.103 C 
BRANCH   7   8
ATOM      8  C   UNL A   1      32.609  29.657  27.088  1.00  0.00     0.002 C 
ATOM      9  C   UNL A   1      31.816  28.406  27.527  1.00  0.00     0.026 C 
ATOM     10  C   UNL A   1      32.404  29.906  25.573  1.00  0.00     0.026 C 
ATOM     11  C   UNL A   1      31.999  27.204  26.596  1.00  0.00     0.121 C 
ATOM     12  C   UNL A   1      32.671  28.636  24.760  1.00  0.00     0.121 C 
ATOM     13  N   UNL A   1      31.755  27.599  25.205  1.00  0.00    -0.325 N 
ATOM     14  C   UNL A   1      30.719  27.017  24.538  1.00  0.00     0.317 C 
ATOM     15  O   UNL A   1      30.068  26.089  25.032  1.00  0.00    -0.249 OA
ATOM     16  N   UNL A   1      30.294  27.397  23.325  1.00  0.00    -0.332 N 
ATOM     17  H   UNL A   1      29.582  26.802  22.996  1.00  0.00     0.165 HD
BRANCH  16  18
ATOM     18  C   UNL A   1      30.588  28.442  22.360  1.00  0.00     0.174 C 
BRANCH  18  19
ATOM     19  C   UNL A   1      29.604  29.592  22.437  1.00  0.00     0.060 A 
ATOM     20  C   UNL A   1      29.508  30.340  23.613  1.00  0.00     0.026 A 
ATOM     21  N   UNL A   1      28.834  29.856  21.350  1.00  0.00    -0.259 NA
ATOM     22  C   UNL A   1      28.602  31.394  23.676  1.00  0.00     0.004 A 
ATOM     23  C   UNL A   1      27.952  30.879  21.447  1.00  0.00     0.111 A 
ATOM     24  C   UNL A   1      27.805  31.671  22.574  1.00  0.00     0.020 A 
ENDBRANCH  18  19
ENDBRANCH  16  18
ENDBRANCH   7   8
ENDBRANCH   5   7
ENDBRANCH   2   3
ENDBRANCH   1   2
BRANCH   1  25
ATOM     25  C   UNL A   1      33.450  35.650  28.648  1.00  0.00     0.023 C 
BRANCH  25  26
ATOM     26  C   UNL A   1      33.622  36.540  29.873  1.00  0.00     0.116 C 
BRANCH  26  27
ATOM     27  N   UNL A   1      32.544  36.393  30.837  1.00  0.00    -0.352 N 
ATOM     28  C   UNL A   1      32.502  35.653  31.995  1.00  0.00     0.251 C 
ATOM     29  H   UNL A   1      31.723  36.895  30.629  1.00  0.00     0.163 HD
ATOM     30  O   UNL A   1      31.450  35.533  32.610  1.00  0.00    -0.269 OA
BRANCH  28  31
ATOM     31  C   UNL A   1      33.722  34.971  32.484  1.00  0.00     0.039 A 
ATOM     32  C   UNL A   1      33.617  33.656  32.942  1.00  0.00     0.014 A 
ATOM     33  C   UNL A   1      34.961  35.618  32.489  1.00  0.00     0.014 A 
ATOM     34  C   UNL A   1      34.766  32.966  33.338  1.00  0.00     0.010 A 
ATOM     35  C   UNL A   1      36.114  34.903  32.808  1.00  0.00     0.010 A 
ATOM     36  C   UNL A   1      36.030  33.569  33.235  1.00  0.00    -0.014 A 
BRANCH  36  37
ATOM     37  C   UNL A   1      37.271  32.817  33.556  1.00  0.00     0.031 A 
ATOM     38  C   UNL A   1      38.043  33.122  34.811  1.00  0.00     0.074 A 
ATOM     39  C   UNL A   1      37.739  31.899  32.687  1.00  0.00     0.049 A 
ATOM     40  N   UNL A   1      39.179  32.620  35.226  1.00  0.00    -0.248 NA
ATOM     41  C   UNL A   1      37.477  34.144  35.705  1.00  0.00     0.031 C 
ATOM     42  C   UNL A   1      37.110  31.541  31.414  1.00  0.00     0.029 A 
ATOM     43  N   UNL A   1      38.858  31.107  32.738  1.00  0.00    -0.354 N 
ATOM     44  C   UNL A   1      39.465  33.269  36.421  1.00  0.00     0.074 A 
ATOM     45  C   UNL A   1      38.416  34.241  36.634  1.00  0.00     0.031 C 
ATOM     46  C   UNL A   1      37.840  30.586  30.816  1.00  0.00     0.029 A 
ATOM     47  C   UNL A   1      39.010  30.296  31.638  1.00  0.00     0.049 A 
ATOM     48  H   UNL A   1      39.493  31.117  33.490  1.00  0.00     0.167 HD
ATOM     49  C   UNL A   1      40.494  33.055  37.276  1.00  0.00     0.037 A 
ATOM     50  C   UNL A   1      39.988  29.425  31.321  1.00  0.00     0.037 A 
ATOM     51  C   UNL A   1      41.530  32.078  37.069  1.00  0.00     0.049 A 
ATOM     52  C   UNL A   1      41.133  29.224  32.275  1.00  0.00     0.074 A 
ATOM     53  C   UNL A   1      42.589  31.755  37.900  1.00  0.00     0.029 A 
ATOM     54  N   UNL A   1      41.643  31.269  35.948  1.00  0.00    -0.354 N 
ATOM     55  N   UNL A   1      41.356  29.798  33.433  1.00  0.00    -0.248 NA
ATOM     56  C   UNL A   1      42.159  28.248  31.882  1.00  0.00     0.031 C 
ATOM     57  C   UNL A   1      43.372  30.790  37.258  1.00  0.00     0.029 A 
ATOM     58  C   UNL A   1      42.768  30.467  36.055  1.00  0.00     0.049 A 
ATOM     59  H   UNL A   1      41.017  31.265  35.188  1.00  0.00     0.167 HD
ATOM     60  C   UNL A   1      42.528  29.233  33.918  1.00  0.00     0.074 A 
ATOM     61  C   UNL A   1      42.961  28.260  32.937  1.00  0.00     0.031 C 
ATOM     62  C   UNL A   1      43.186  29.496  35.074  1.00  0.00     0.037 A 
BRANCH  49  63
ATOM     63  C   UNL A   1      40.546  33.896  38.520  1.00  0.00     0.057 A 
ATOM     64  C   UNL A   1      39.850  33.538  39.683  1.00  0.00     0.134 A 
ATOM     65  C   UNL A   1      41.329  35.056  38.569  1.00  0.00     0.134 A 
ATOM     66  F   UNL A   1      39.073  32.445  39.703  1.00  0.00    -0.206 F 
ATOM     67  C   UNL A   1      39.908  34.320  40.839  1.00  0.00     0.040 A 
ATOM     68  C   UNL A   1      41.419  35.829  39.728  1.00  0.00     0.040 A 
ATOM     69  F   UNL A   1      42.028  35.453  37.495  1.00  0.00    -0.206 F 
ATOM     70  C   UNL A   1      40.701  35.466  40.865  1.00  0.00     0.006 A 
ENDBRANCH  49  63
BRANCH  50  71
ATOM     71  C   UNL A   1      39.924  28.666  30.044  1.00  0.00     0.057 A 
ATOM     72  C   UNL A   1      39.256  27.439  29.963  1.00  0.00     0.134 A 
ATOM     73  C   UNL A   1      40.539  29.143  28.880  1.00  0.00     0.134 A 
ATOM     74  F   UNL A   1      38.663  26.920  31.048  1.00  0.00    -0.206 F 
ATOM     75  C   UNL A   1      39.223  26.701  28.778  1.00  0.00     0.040 A 
ATOM     76  C   UNL A   1      40.489  28.430  27.681  1.00  0.00     0.040 A 
ATOM     77  F   UNL A   1      41.188  30.317  28.888  1.00  0.00    -0.206 F 
ATOM     78  C   UNL A   1      39.837  27.200  27.631  1.00  0.00     0.006 A 
ENDBRANCH  50  71
BRANCH  62  79
ATOM     79  C   UNL A   1      44.422  28.694  35.362  1.00  0.00     0.057 A 
ATOM     80  C   UNL A   1      44.373  27.471  36.047  1.00  0.00     0.134 A 
ATOM     81  C   UNL A   1      45.675  29.131  34.913  1.00  0.00     0.134 A 
ATOM     82  F   UNL A   1      43.207  27.001  36.515  1.00  0.00    -0.206 F 
ATOM     83  C   UNL A   1      45.528  26.729  36.297  1.00  0.00     0.040 A 
ATOM     84  C   UNL A   1      46.833  28.382  35.130  1.00  0.00     0.040 A 
ATOM     85  F   UNL A   1      45.793  30.287  34.243  1.00  0.00    -0.206 F 
ATOM     86  C   UNL A   1      46.762  27.180  35.831  1.00  0.00     0.006 A 
ENDBRANCH  62  79
ENDBRANCH  36  37
ENDBRANCH  28  31
ENDBRANCH  26  27
ENDBRANCH  25  26
ENDBRANCH   1  25
TORSDOF 14
ENDMDL
MODEL 3
REMARK VINA RESULT:     -12.1      5.248     10.425
REMARK SMILES O=C(CC1CCN(C(=O)NCc2ccccn2)CC1)NCCCCNC(=O)c1ccc(-c2c3nc(c(-c4c(F)cccc4F)c4ccc([nH]4)c(-c4c(F)cccc4F)c4nc(c(-c5c(F)cccc5F)c5ccc2[nH]5)C=C4)C=C3)cc1
REMARK SMILES IDX 22 1 21 2 20 3 1 4 2 5 3 7 4 8 5 9 19 10 6 11 18 12 7 13
REMARK SMILES IDX 8 14 9 15 10 16 11 18 12 19 13 20 17 21 14 22 16 23 15 24
REMARK SMILES IDX 23 25 24 26 25 27 26 28 27 30 28 31 29 32 81 33 30 34 80 35
REMARK SMILES IDX 31 36 32 37 33 38 74 39 34 40 79 41 73 42 75 43 35 44 78 45
REMARK SMILES IDX 72 46 71 47 36 49 62 50 45 51 61 52 46 53 49 54 60 55 76 56
REMARK SMILES IDX 47 57 48 58 59 60 77 61 50 62 37 63 38 64 43 65 39 66 40 67
REMARK SMILES IDX 42 68 44 69 41 70 63 71 64 72 69 73 65 74 66 75 68 76 70 77
REMARK SMILES IDX 67 78 51 79 52 80 57 81 53 82 54 83 56 84 58 85 55 86
REMARK H PARENT 20 6 10 17 25 29 75 48 49 59
REMARK Flexibility Score: inf
ROOT
ATOM      1  C   UNL A   1      41.297  21.108  26.989  1.00  0.00     0.023 C 
ENDROOT
BRANCH   1   2
ATOM      2  C   UNL A   1      40.521  22.289  27.570  1.00  0.00     0.116 C 
BRANCH   2   3
ATOM      3  N   UNL A   1      39.229  22.451  26.930  1.00  0.00    -0.356 N 
ATOM      4  O   UNL A   1      39.498  24.684  26.486  1.00  0.00    -0.275 OA
ATOM      5  C   UNL A   1      38.811  23.668  26.452  1.00  0.00     0.220 C 
ATOM      6  H   UNL A   1      38.639  21.669  26.836  1.00  0.00     0.163 HD
BRANCH   5   7
ATOM      7  C   UNL A   1      37.392  23.699  25.929  1.00  0.00     0.103 C 
BRANCH   7   8
ATOM      8  C   UNL A   1      36.977  22.561  24.976  1.00  0.00     0.002 C 
ATOM      9  C   UNL A   1      36.589  23.015  23.552  1.00  0.00     0.026 C 
ATOM     10  C   UNL A   1      35.810  21.766  25.613  1.00  0.00     0.026 C 
ATOM     11  C   UNL A   1      35.194  23.641  23.464  1.00  0.00     0.121 C 
ATOM     12  C   UNL A   1      34.489  22.533  25.500  1.00  0.00     0.121 C 
ATOM     13  N   UNL A   1      34.204  22.762  24.094  1.00  0.00    -0.325 N 
ATOM     14  C   UNL A   1      33.209  22.246  23.319  1.00  0.00     0.317 C 
ATOM     15  O   UNL A   1      33.055  22.595  22.143  1.00  0.00    -0.249 OA
ATOM     16  N   UNL A   1      32.338  21.314  23.731  1.00  0.00    -0.332 N 
ATOM     17  H   UNL A   1      31.660  21.132  23.040  1.00  0.00     0.165 HD
BRANCH  16  18
ATOM     18  C   UNL A   1      32.114  20.496  24.910  1.00  0.00     0.174 C 
BRANCH  18  19
ATOM     19  C   UNL A   1      32.513  19.050  24.693  1.00  0.00     0.060 A 
ATOM     20  C   UNL A   1      32.811  18.604  23.403  1.00  0.00     0.026 A 
ATOM     21  N   UNL A   1      32.563  18.225  25.771  1.00  0.00    -0.259 NA
ATOM     22  C   UNL A   1      33.177  17.275  23.211  1.00  0.00     0.004 A 
ATOM     23  C   UNL A   1      32.908  16.935  25.550  1.00  0.00     0.111 A 
ATOM     24  C   UNL A   1      33.226  16.420  24.303  1.00  0.00     0.020 A 
ENDBRANCH  18  19
ENDBRANCH  16  18
ENDBRANCH   7   8
ENDBRANCH   5   7
ENDBRANCH   2   3
ENDBRANCH   1   2
BRANCH   1  25
ATOM     25  C   UNL A   1      42.389  21.488  25.987  1.00  0.00     0.023 C 
BRANCH  25  26
ATOM     26  C   UNL A   1      42.295  22.904  25.428  1.00  0.00     0.116 C 
BRANCH  26  27
ATOM     27  N   UNL A   1      43.560  23.392  24.905  1.00  0.00    -0.352 N 
ATOM     28  C   UNL A   1      44.301  24.485  25.289  1.00  0.00     0.251 C 
ATOM     29  H   UNL A   1      43.942  22.863  24.167  1.00  0.00     0.163 HD
ATOM     30  O   UNL A   1      45.277  24.826  24.633  1.00  0.00    -0.269 OA
BRANCH  28  31
ATOM     31  C   UNL A   1      43.902  25.271  26.479  1.00  0.00     0.039 A 
ATOM     32  C   UNL A   1      44.194  26.636  26.509  1.00  0.00     0.014 A 
ATOM     33  C   UNL A   1      43.240  24.672  27.555  1.00  0.00     0.014 A 
ATOM     34  C   UNL A   1      43.761  27.414  27.586  1.00  0.00     0.010 A 
ATOM     35  C   UNL A   1      42.740  25.463  28.587  1.00  0.00     0.010 A 
ATOM     36  C   UNL A   1      42.994  26.843  28.614  1.00  0.00    -0.014 A 
BRANCH  36  37
ATOM     37  C   UNL A   1      42.441  27.674  29.715  1.00  0.00     0.031 A 
ATOM     38  C   UNL A   1      43.070  27.646  31.081  1.00  0.00     0.074 A 
ATOM     39  C   UNL A   1      41.332  28.410  29.503  1.00  0.00     0.049 A 
ATOM     40  N   UNL A   1      42.690  28.248  32.179  1.00  0.00    -0.248 NA
ATOM     41  C   UNL A   1      44.270  26.811  31.240  1.00  0.00     0.031 C 
ATOM     42  C   UNL A   1      40.599  28.490  28.237  1.00  0.00     0.029 A 
ATOM     43  N   UNL A   1      40.621  29.224  30.349  1.00  0.00    -0.354 N 
ATOM     44  C   UNL A   1      43.598  27.859  33.157  1.00  0.00     0.074 A 
ATOM     45  C   UNL A   1      44.509  26.924  32.538  1.00  0.00     0.031 C 
ATOM     46  C   UNL A   1      39.557  29.323  28.385  1.00  0.00     0.029 A 
ATOM     47  C   UNL A   1      39.519  29.801  29.763  1.00  0.00     0.049 A 
ATOM     48  H   UNL A   1      40.875  29.380  31.287  1.00  0.00     0.167 HD
ATOM     49  C   UNL A   1      43.679  28.265  34.448  1.00  0.00     0.037 A 
ATOM     50  C   UNL A   1      38.578  30.614  30.280  1.00  0.00     0.037 A 
ATOM     51  C   UNL A   1      42.777  29.206  35.060  1.00  0.00     0.049 A 
ATOM     52  C   UNL A   1      38.677  31.030  31.723  1.00  0.00     0.074 A 
ATOM     53  C   UNL A   1      42.806  29.715  36.347  1.00  0.00     0.029 A 
ATOM     54  N   UNL A   1      41.681  29.776  34.430  1.00  0.00    -0.354 N 
ATOM     55  N   UNL A   1      39.577  30.706  32.618  1.00  0.00    -0.248 NA
ATOM     56  C   UNL A   1      37.630  31.932  32.225  1.00  0.00     0.031 C 
ATOM     57  C   UNL A   1      41.697  30.550  36.513  1.00  0.00     0.029 A 
ATOM     58  C   UNL A   1      41.011  30.611  35.311  1.00  0.00     0.049 A 
ATOM     59  H   UNL A   1      41.417  29.612  33.496  1.00  0.00     0.167 HD
ATOM     60  C   UNL A   1      39.225  31.385  33.777  1.00  0.00     0.074 A 
ATOM     61  C   UNL A   1      38.036  32.152  33.467  1.00  0.00     0.031 C 
ATOM     62  C   UNL A   1      39.832  31.375  34.989  1.00  0.00     0.037 A 
BRANCH  49  63
ATOM     63  C   UNL A   1      44.787  27.692  35.285  1.00  0.00     0.057 A 
ATOM     64  C   UNL A   1      46.039  28.315  35.380  1.00  0.00     0.134 A 
ATOM     65  C   UNL A   1      44.589  26.525  36.034  1.00  0.00     0.134 A 
ATOM     66  F   UNL A   1      46.299  29.431  34.681  1.00  0.00    -0.206 F 
ATOM     67  C   UNL A   1      47.063  27.782  36.165  1.00  0.00     0.040 A 
ATOM     68  C   UNL A   1      45.596  25.999  36.846  1.00  0.00     0.040 A 
ATOM     69  F   UNL A   1      43.414  25.882  35.996  1.00  0.00    -0.206 F 
ATOM     70  C   UNL A   1      46.840  26.624  36.908  1.00  0.00     0.006 A 
ENDBRANCH  49  63
BRANCH  50  71
ATOM     71  C   UNL A   1      37.463  31.100  29.426  1.00  0.00     0.057 A 
ATOM     72  C   UNL A   1      36.348  30.295  29.163  1.00  0.00     0.134 A 
ATOM     73  C   UNL A   1      37.491  32.372  28.842  1.00  0.00     0.134 A 
ATOM     74  F   UNL A   1      36.271  29.059  29.679  1.00  0.00    -0.206 F 
ATOM     75  C   UNL A   1      35.314  30.728  28.332  1.00  0.00     0.040 A 
ATOM     76  C   UNL A   1      36.450  32.829  28.033  1.00  0.00     0.040 A 
ATOM     77  F   UNL A   1      38.526  33.196  29.061  1.00  0.00    -0.206 F 
ATOM     78  C   UNL A   1      35.361  32.001  27.768  1.00  0.00     0.006 A 
ENDBRANCH  50  71
BRANCH  62  79
ATOM     79  C   UNL A   1      39.246  32.248  36.061  1.00  0.00     0.057 A 
ATOM     80  C   UNL A   1      38.262  31.784  36.944  1.00  0.00     0.134 A 
ATOM     81  C   UNL A   1      39.702  33.562  36.237  1.00  0.00     0.134 A 
ATOM     82  F   UNL A   1      37.772  30.541  36.824  1.00  0.00    -0.206 F 
ATOM     83  C   UNL A   1      37.735  32.602  37.945  1.00  0.00     0.040 A 
ATOM     84  C   UNL A   1      39.205  34.380  37.252  1.00  0.00     0.040 A 
ATOM     85  F   UNL A   1      40.649  34.067  35.432  1.00  0.00    -0.206 F 
ATOM     86  C   UNL A   1      38.212  33.902  38.106  1.00  0.00     0.006 A 
ENDBRANCH  62  79
ENDBRANCH  36  37
ENDBRANCH  28  31
ENDBRANCH  26  27
ENDBRANCH  25  26
ENDBRANCH   1  25
TORSDOF 14
ENDMDL
