MODEL 1
REMARK VINA RESULT:     -10.6      0.000      0.000
REMARK SMILES CCOc1ccccc1[C@@H](O)[C@@H](C)[C@@H](C)C(=O)NCCCCNC(=O)c1ccc(-c2c3nc(c(-c4c(F)cccc4F)c4ccc([nH]4)c(-c4c(F)cccc4F)c4nc(c(-c5c(F)cccc5F)c5ccc2[nH]5)C=C4)C=C3)cc1
REMARK SMILES IDX 19 1 18 2 16 3 17 4 14 6 15 7 12 8 13 9 10 10 9 11 4 12 5 13
REMARK SMILES IDX 6 14 8 15 7 16 3 17 2 18 1 19 11 20 20 22 21 23 22 24 23 25
REMARK SMILES IDX 24 26 25 28 26 29 27 30 79 31 28 32 78 33 29 34 30 35 31 36
REMARK SMILES IDX 72 37 32 38 77 39 71 40 73 41 33 42 76 43 70 44 69 45 34 47
REMARK SMILES IDX 60 48 43 49 59 50 44 51 47 52 58 53 74 54 45 55 46 56 57 58
REMARK SMILES IDX 75 59 48 60 35 61 36 62 41 63 37 64 38 65 40 66 42 67 39 68
REMARK SMILES IDX 61 69 62 70 67 71 63 72 64 73 66 74 68 75 65 76 49 77 50 78
REMARK SMILES IDX 55 79 51 80 52 81 54 82 56 83 53 84
REMARK H PARENT 18 5 11 21 23 27 73 46 47 57
REMARK Flexibility Score: inf
ROOT
ATOM      1  C   UNL A   1      30.907  27.410  25.488  1.00  0.00     0.116 C 
ENDROOT
BRANCH   1   2
ATOM      2  N   UNL A   1      30.523  27.619  24.106  1.00  0.00    -0.356 N 
ATOM      3  C   UNL A   1      31.098  27.184  22.951  1.00  0.00     0.223 C 
ATOM      4  O   UNL A   1      30.590  27.554  21.889  1.00  0.00    -0.275 OA
ATOM      5  H   UNL A   1      29.712  28.164  23.982  1.00  0.00     0.163 HD
BRANCH   3   6
ATOM      6  C   UNL A   1      32.312  26.253  22.946  1.00  0.00     0.081 C 
ATOM      7  C   UNL A   1      33.486  26.961  22.269  1.00  0.00     0.018 C 
BRANCH   6   8
ATOM      8  C   UNL A   1      31.957  24.813  22.478  1.00  0.00     0.031 C 
ATOM      9  C   UNL A   1      30.942  24.213  23.472  1.00  0.00     0.011 C 
BRANCH   8  10
ATOM     10  C   UNL A   1      33.184  23.913  22.192  1.00  0.00     0.152 C 
BRANCH  10  11
ATOM     11  C   UNL A   1      33.116  22.570  22.889  1.00  0.00     0.023 A 
ATOM     12  C   UNL A   1      33.839  22.326  24.063  1.00  0.00     0.125 A 
ATOM     13  C   UNL A   1      33.721  21.109  24.736  1.00  0.00     0.047 A 
ATOM     14  C   UNL A   1      32.867  20.120  24.243  1.00  0.00     0.004 A 
ATOM     15  C   UNL A   1      32.276  21.555  22.395  1.00  0.00     0.010 A 
ATOM     16  C   UNL A   1      32.151  20.339  23.068  1.00  0.00     0.001 A 
BRANCH  12  17
ATOM     17  O   UNL A   1      34.762  23.240  24.490  1.00  0.00    -0.493 OA
BRANCH  17  18
ATOM     18  C   UNL A   1      34.523  23.686  25.830  1.00  0.00     0.226 C 
ATOM     19  C   UNL A   1      34.118  25.151  25.770  1.00  0.00     0.049 C 
ENDBRANCH  17  18
ENDBRANCH  12  17
ENDBRANCH  10  11
BRANCH  10  20
ATOM     20  O   UNL A   1      33.245  23.657  20.782  1.00  0.00    -0.388 OA
ATOM     21  H   UNL A   1      33.333  22.703  20.630  1.00  0.00     0.211 HD
ENDBRANCH  10  20
ENDBRANCH   8  10
ENDBRANCH   6   8
ENDBRANCH   3   6
ENDBRANCH   1   2
BRANCH   1  22
ATOM     22  C   UNL A   1      31.779  28.555  26.016  1.00  0.00     0.023 C 
BRANCH  22  23
ATOM     23  C   UNL A   1      32.603  28.216  27.253  1.00  0.00     0.023 C 
BRANCH  23  24
ATOM     24  C   UNL A   1      33.968  28.880  27.308  1.00  0.00     0.116 C 
BRANCH  24  25
ATOM     25  N   UNL A   1      33.951  30.184  27.955  1.00  0.00    -0.352 N 
ATOM     26  C   UNL A   1      34.977  30.804  28.626  1.00  0.00     0.251 C 
ATOM     27  H   UNL A   1      33.102  30.682  27.906  1.00  0.00     0.163 HD
ATOM     28  O   UNL A   1      34.805  31.869  29.207  1.00  0.00    -0.269 OA
BRANCH  26  29
ATOM     29  C   UNL A   1      36.286  30.130  28.668  1.00  0.00     0.039 A 
ATOM     30  C   UNL A   1      37.107  30.177  27.540  1.00  0.00     0.014 A 
ATOM     31  C   UNL A   1      36.730  29.545  29.857  1.00  0.00     0.014 A 
ATOM     32  C   UNL A   1      38.414  29.699  27.628  1.00  0.00     0.010 A 
ATOM     33  C   UNL A   1      38.053  29.141  29.963  1.00  0.00     0.010 A 
ATOM     34  C   UNL A   1      38.907  29.217  28.850  1.00  0.00    -0.014 A 
BRANCH  34  35
ATOM     35  C   UNL A   1      40.313  28.775  29.000  1.00  0.00     0.031 A 
ATOM     36  C   UNL A   1      41.348  29.753  29.474  1.00  0.00     0.074 A 
ATOM     37  C   UNL A   1      40.671  27.534  28.618  1.00  0.00     0.049 A 
ATOM     38  N   UNL A   1      42.646  29.614  29.544  1.00  0.00    -0.248 NA
ATOM     39  C   UNL A   1      40.858  31.078  29.888  1.00  0.00     0.031 C 
ATOM     40  C   UNL A   1      39.763  26.513  28.092  1.00  0.00     0.029 A 
ATOM     41  N   UNL A   1      41.902  26.931  28.593  1.00  0.00    -0.354 N 
ATOM     42  C   UNL A   1      43.129  30.839  29.987  1.00  0.00     0.074 A 
ATOM     43  C   UNL A   1      41.991  31.723  30.120  1.00  0.00     0.031 C 
ATOM     44  C   UNL A   1      40.468  25.408  27.801  1.00  0.00     0.029 A 
ATOM     45  C   UNL A   1      41.878  25.654  28.088  1.00  0.00     0.049 A 
ATOM     46  H   UNL A   1      42.724  27.370  28.908  1.00  0.00     0.167 HD
ATOM     47  C   UNL A   1      44.403  31.187  30.279  1.00  0.00     0.037 A 
ATOM     48  C   UNL A   1      42.883  24.787  27.866  1.00  0.00     0.037 A 
ATOM     49  C   UNL A   1      45.526  30.295  30.175  1.00  0.00     0.049 A 
ATOM     50  C   UNL A   1      44.289  25.188  28.212  1.00  0.00     0.074 A 
ATOM     51  C   UNL A   1      46.848  30.530  30.506  1.00  0.00     0.029 A 
ATOM     52  N   UNL A   1      45.454  28.993  29.705  1.00  0.00    -0.354 N 
ATOM     53  N   UNL A   1      44.726  26.328  28.690  1.00  0.00    -0.248 NA
ATOM     54  C   UNL A   1      45.340  24.185  27.995  1.00  0.00     0.031 C 
ATOM     55  C   UNL A   1      47.583  29.378  30.207  1.00  0.00     0.029 A 
ATOM     56  C   UNL A   1      46.712  28.414  29.724  1.00  0.00     0.049 A 
ATOM     57  H   UNL A   1      44.631  28.545  29.402  1.00  0.00     0.167 HD
ATOM     58  C   UNL A   1      46.096  26.173  28.852  1.00  0.00     0.074 A 
ATOM     59  C   UNL A   1      46.417  24.825  28.430  1.00  0.00     0.031 C 
ATOM     60  C   UNL A   1      47.007  27.066  29.309  1.00  0.00     0.037 A 
BRANCH  47  61
ATOM     61  C   UNL A   1      44.638  32.593  30.744  1.00  0.00     0.057 A 
ATOM     62  C   UNL A   1      44.936  33.626  29.846  1.00  0.00     0.134 A 
ATOM     63  C   UNL A   1      44.562  32.920  32.103  1.00  0.00     0.134 A 
ATOM     64  F   UNL A   1      45.039  33.375  28.531  1.00  0.00    -0.206 F 
ATOM     65  C   UNL A   1      45.184  34.927  30.285  1.00  0.00     0.040 A 
ATOM     66  C   UNL A   1      44.782  34.223  32.552  1.00  0.00     0.040 A 
ATOM     67  F   UNL A   1      44.278  31.979  33.017  1.00  0.00    -0.206 F 
ATOM     68  C   UNL A   1      45.102  35.230  31.643  1.00  0.00     0.006 A 
ENDBRANCH  47  61
BRANCH  48  69
ATOM     69  C   UNL A   1      42.590  23.446  27.302  1.00  0.00     0.057 A 
ATOM     70  C   UNL A   1      42.270  22.368  28.135  1.00  0.00     0.134 A 
ATOM     71  C   UNL A   1      42.607  23.214  25.922  1.00  0.00     0.134 A 
ATOM     72  F   UNL A   1      42.254  22.526  29.467  1.00  0.00    -0.206 F 
ATOM     73  C   UNL A   1      41.990  21.102  27.617  1.00  0.00     0.040 A 
ATOM     74  C   UNL A   1      42.308  21.960  25.389  1.00  0.00     0.040 A 
ATOM     75  F   UNL A   1      42.897  24.209  25.072  1.00  0.00    -0.206 F 
ATOM     76  C   UNL A   1      42.003  20.897  26.239  1.00  0.00     0.006 A 
ENDBRANCH  48  69
BRANCH  60  77
ATOM     77  C   UNL A   1      48.430  26.608  29.406  1.00  0.00     0.057 A 
ATOM     78  C   UNL A   1      49.355  26.857  28.387  1.00  0.00     0.134 A 
ATOM     79  C   UNL A   1      48.892  25.966  30.562  1.00  0.00     0.134 A 
ATOM     80  F   UNL A   1      48.970  27.458  27.251  1.00  0.00    -0.206 F 
ATOM     81  C   UNL A   1      50.691  26.473  28.508  1.00  0.00     0.040 A 
ATOM     82  C   UNL A   1      50.229  25.596  30.704  1.00  0.00     0.040 A 
ATOM     83  F   UNL A   1      48.055  25.705  31.577  1.00  0.00    -0.206 F 
ATOM     84  C   UNL A   1      51.133  25.848  29.673  1.00  0.00     0.006 A 
ENDBRANCH  60  77
ENDBRANCH  34  35
ENDBRANCH  26  29
ENDBRANCH  24  25
ENDBRANCH  23  24
ENDBRANCH  22  23
ENDBRANCH   1  22
TORSDOF 17
ENDMDL
MODEL 2
REMARK VINA RESULT:     -10.6      2.303      7.521
REMARK SMILES CCOc1ccccc1[C@@H](O)[C@@H](C)[C@@H](C)C(=O)NCCCCNC(=O)c1ccc(-c2c3nc(c(-c4c(F)cccc4F)c4ccc([nH]4)c(-c4c(F)cccc4F)c4nc(c(-c5c(F)cccc5F)c5ccc2[nH]5)C=C4)C=C3)cc1
REMARK SMILES IDX 19 1 18 2 16 3 17 4 14 6 15 7 12 8 13 9 10 10 9 11 4 12 5 13
REMARK SMILES IDX 6 14 8 15 7 16 3 17 2 18 1 19 11 20 20 22 21 23 22 24 23 25
REMARK SMILES IDX 24 26 25 28 26 29 27 30 79 31 28 32 78 33 29 34 30 35 31 36
REMARK SMILES IDX 72 37 32 38 77 39 71 40 73 41 33 42 76 43 70 44 69 45 34 47
REMARK SMILES IDX 60 48 43 49 59 50 44 51 47 52 58 53 74 54 45 55 46 56 57 58
REMARK SMILES IDX 75 59 48 60 35 61 36 62 41 63 37 64 38 65 40 66 42 67 39 68
REMARK SMILES IDX 61 69 62 70 67 71 63 72 64 73 66 74 68 75 65 76 49 77 50 78
REMARK SMILES IDX 55 79 51 80 52 81 54 82 56 83 53 84
REMARK H PARENT 18 5 11 21 23 27 73 46 47 57
REMARK Flexibility Score: inf
ROOT
ATOM      1  C   UNL A   1      37.755  23.594  25.923  1.00  0.00     0.116 C 
ENDROOT
BRANCH   1   2
ATOM      2  N   UNL A   1      37.498  23.449  24.503  1.00  0.00    -0.356 N 
ATOM      3  C   UNL A   1      36.330  23.275  23.827  1.00  0.00     0.223 C 
ATOM      4  O   UNL A   1      36.397  23.125  22.604  1.00  0.00    -0.275 OA
ATOM      5  H   UNL A   1      38.301  23.484  23.934  1.00  0.00     0.163 HD
BRANCH   3   6
ATOM      6  C   UNL A   1      34.972  23.283  24.531  1.00  0.00     0.081 C 
ATOM      7  C   UNL A   1      34.313  21.913  24.372  1.00  0.00     0.018 C 
BRANCH   6   8
ATOM      8  C   UNL A   1      34.130  24.545  24.186  1.00  0.00     0.031 C 
ATOM      9  C   UNL A   1      33.692  25.215  25.505  1.00  0.00     0.011 C 
BRANCH   8  10
ATOM     10  C   UNL A   1      32.979  24.290  23.183  1.00  0.00     0.152 C 
BRANCH  10  11
ATOM     11  C   UNL A   1      31.911  25.364  23.211  1.00  0.00     0.023 A 
ATOM     12  C   UNL A   1      32.103  26.593  22.568  1.00  0.00     0.125 A 
ATOM     13  C   UNL A   1      31.091  27.553  22.541  1.00  0.00     0.047 A 
ATOM     14  C   UNL A   1      29.865  27.289  23.154  1.00  0.00     0.004 A 
ATOM     15  C   UNL A   1      30.676  25.123  23.841  1.00  0.00     0.010 A 
ATOM     16  C   UNL A   1      29.660  26.078  23.811  1.00  0.00     0.001 A 
BRANCH  12  17
ATOM     17  O   UNL A   1      33.336  26.906  22.065  1.00  0.00    -0.493 OA
BRANCH  17  18
ATOM     18  C   UNL A   1      33.713  28.263  22.323  1.00  0.00     0.226 C 
ATOM     19  C   UNL A   1      34.139  28.362  23.781  1.00  0.00     0.049 C 
ENDBRANCH  17  18
ENDBRANCH  12  17
ENDBRANCH  10  11
BRANCH  10  20
ATOM     20  O   UNL A   1      33.524  24.269  21.857  1.00  0.00    -0.388 OA
ATOM     21  H   UNL A   1      34.479  24.432  21.897  1.00  0.00     0.211 HD
ENDBRANCH  10  20
ENDBRANCH   8  10
ENDBRANCH   6   8
ENDBRANCH   3   6
ENDBRANCH   1   2
BRANCH   1  22
ATOM     22  C   UNL A   1      38.973  22.777  26.367  1.00  0.00     0.023 C 
BRANCH  22  23
ATOM     23  C   UNL A   1      39.134  21.432  25.668  1.00  0.00     0.023 C 
BRANCH  23  24
ATOM     24  C   UNL A   1      39.596  20.300  26.570  1.00  0.00     0.116 C 
BRANCH  24  25
ATOM     25  N   UNL A   1      40.645  19.482  25.979  1.00  0.00    -0.352 N 
ATOM     26  C   UNL A   1      41.974  19.797  25.829  1.00  0.00     0.251 C 
ATOM     27  H   UNL A   1      40.370  18.596  25.649  1.00  0.00     0.163 HD
ATOM     28  O   UNL A   1      42.740  19.052  25.229  1.00  0.00    -0.269 OA
BRANCH  26  29
ATOM     29  C   UNL A   1      42.448  21.083  26.368  1.00  0.00     0.039 A 
ATOM     30  C   UNL A   1      42.813  22.096  25.480  1.00  0.00     0.014 A 
ATOM     31  C   UNL A   1      42.429  21.309  27.747  1.00  0.00     0.014 A 
ATOM     32  C   UNL A   1      43.089  23.370  25.973  1.00  0.00     0.010 A 
ATOM     33  C   UNL A   1      42.631  22.595  28.228  1.00  0.00     0.010 A 
ATOM     34  C   UNL A   1      42.960  23.636  27.345  1.00  0.00    -0.014 A 
BRANCH  34  35
ATOM     35  C   UNL A   1      43.170  24.996  27.895  1.00  0.00     0.031 A 
ATOM     36  C   UNL A   1      44.533  25.397  28.376  1.00  0.00     0.074 A 
ATOM     37  C   UNL A   1      42.120  25.825  28.051  1.00  0.00     0.049 A 
ATOM     38  N   UNL A   1      44.902  26.478  29.011  1.00  0.00    -0.248 NA
ATOM     39  C   UNL A   1      45.621  24.432  28.143  1.00  0.00     0.031 C 
ATOM     40  C   UNL A   1      40.738  25.526  27.671  1.00  0.00     0.029 A 
ATOM     41  N   UNL A   1      42.052  27.082  28.595  1.00  0.00    -0.354 N 
ATOM     42  C   UNL A   1      46.255  26.314  29.274  1.00  0.00     0.074 A 
ATOM     43  C   UNL A   1      46.631  25.009  28.776  1.00  0.00     0.031 C 
ATOM     44  C   UNL A   1      39.960  26.573  27.988  1.00  0.00     0.029 A 
ATOM     45  C   UNL A   1      40.780  27.600  28.624  1.00  0.00     0.049 A 
ATOM     46  H   UNL A   1      42.839  27.567  28.932  1.00  0.00     0.167 HD
ATOM     47  C   UNL A   1      47.113  27.183  29.858  1.00  0.00     0.037 A 
ATOM     48  C   UNL A   1      40.326  28.765  29.121  1.00  0.00     0.037 A 
ATOM     49  C   UNL A   1      46.741  28.492  30.323  1.00  0.00     0.049 A 
ATOM     50  C   UNL A   1      41.298  29.723  29.751  1.00  0.00     0.074 A 
ATOM     51  C   UNL A   1      47.546  29.474  30.871  1.00  0.00     0.029 A 
ATOM     52  N   UNL A   1      45.451  29.001  30.290  1.00  0.00    -0.354 N 
ATOM     53  N   UNL A   1      42.588  29.584  29.938  1.00  0.00    -0.248 NA
ATOM     54  C   UNL A   1      40.755  31.000  30.233  1.00  0.00     0.031 C 
ATOM     55  C   UNL A   1      46.736  30.567  31.199  1.00  0.00     0.029 A 
ATOM     56  C   UNL A   1      45.434  30.280  30.820  1.00  0.00     0.049 A 
ATOM     57  H   UNL A   1      44.663  28.524  29.941  1.00  0.00     0.167 HD
ATOM     58  C   UNL A   1      43.016  30.760  30.537  1.00  0.00     0.074 A 
ATOM     59  C   UNL A   1      41.848  31.608  30.675  1.00  0.00     0.031 C 
ATOM     60  C   UNL A   1      44.262  31.109  30.938  1.00  0.00     0.037 A 
BRANCH  47  61
ATOM     61  C   UNL A   1      48.536  26.739  30.015  1.00  0.00     0.057 A 
ATOM     62  C   UNL A   1      49.508  27.024  29.047  1.00  0.00     0.134 A 
ATOM     63  C   UNL A   1      48.941  26.021  31.147  1.00  0.00     0.134 A 
ATOM     64  F   UNL A   1      49.180  27.694  27.931  1.00  0.00    -0.206 F 
ATOM     65  C   UNL A   1      50.825  26.582  29.181  1.00  0.00     0.040 A 
ATOM     66  C   UNL A   1      50.261  25.597  31.306  1.00  0.00     0.040 A 
ATOM     67  F   UNL A   1      48.062  25.717  32.113  1.00  0.00    -0.206 F 
ATOM     68  C   UNL A   1      51.206  25.870  30.317  1.00  0.00     0.006 A 
ENDBRANCH  47  61
BRANCH  48  69
ATOM     69  C   UNL A   1      38.882  29.096  29.026  1.00  0.00     0.057 A 
ATOM     70  C   UNL A   1      38.045  28.995  30.143  1.00  0.00     0.134 A 
ATOM     71  C   UNL A   1      38.311  29.532  27.826  1.00  0.00     0.134 A 
ATOM     72  F   UNL A   1      38.533  28.566  31.316  1.00  0.00    -0.206 F 
ATOM     73  C   UNL A   1      36.686  29.305  30.067  1.00  0.00     0.040 A 
ATOM     74  C   UNL A   1      36.959  29.867  27.740  1.00  0.00     0.040 A 
ATOM     75  F   UNL A   1      39.064  29.658  26.724  1.00  0.00    -0.206 F 
ATOM     76  C   UNL A   1      36.141  29.748  28.863  1.00  0.00     0.006 A 
ENDBRANCH  48  69
BRANCH  60  77
ATOM     77  C   UNL A   1      44.437  32.472  31.534  1.00  0.00     0.057 A 
ATOM     78  C   UNL A   1      44.349  32.689  32.914  1.00  0.00     0.134 A 
ATOM     79  C   UNL A   1      44.757  33.567  30.722  1.00  0.00     0.134 A 
ATOM     80  F   UNL A   1      44.034  31.683  33.742  1.00  0.00    -0.206 F 
ATOM     81  C   UNL A   1      44.565  33.953  33.465  1.00  0.00     0.040 A 
ATOM     82  C   UNL A   1      44.995  34.830  31.263  1.00  0.00     0.040 A 
ATOM     83  F   UNL A   1      44.862  33.421  29.392  1.00  0.00    -0.206 F 
ATOM     84  C   UNL A   1      44.897  35.026  32.639  1.00  0.00     0.006 A 
ENDBRANCH  60  77
ENDBRANCH  34  35
ENDBRANCH  26  29
ENDBRANCH  24  25
ENDBRANCH  23  24
ENDBRANCH  22  23
ENDBRANCH   1  22
TORSDOF 17
ENDMDL
MODEL 3
REMARK VINA RESULT:     -10.6      2.373      7.528
REMARK SMILES CCOc1ccccc1[C@@H](O)[C@@H](C)[C@@H](C)C(=O)NCCCCNC(=O)c1ccc(-c2c3nc(c(-c4c(F)cccc4F)c4ccc([nH]4)c(-c4c(F)cccc4F)c4nc(c(-c5c(F)cccc5F)c5ccc2[nH]5)C=C4)C=C3)cc1
REMARK SMILES IDX 19 1 18 2 16 3 17 4 14 6 15 7 12 8 13 9 10 10 9 11 4 12 5 13
REMARK SMILES IDX 6 14 8 15 7 16 3 17 2 18 1 19 11 20 20 22 21 23 22 24 23 25
REMARK SMILES IDX 24 26 25 28 26 29 27 30 79 31 28 32 78 33 29 34 30 35 31 36
REMARK SMILES IDX 72 37 32 38 77 39 71 40 73 41 33 42 76 43 70 44 69 45 34 47
REMARK SMILES IDX 60 48 43 49 59 50 44 51 47 52 58 53 74 54 45 55 46 56 57 58
REMARK SMILES IDX 75 59 48 60 35 61 36 62 41 63 37 64 38 65 40 66 42 67 39 68
REMARK SMILES IDX 61 69 62 70 67 71 63 72 64 73 66 74 68 75 65 76 49 77 50 78
REMARK SMILES IDX 55 79 51 80 52 81 54 82 56 83 53 84
REMARK H PARENT 18 5 11 21 23 27 73 46 47 57
REMARK Flexibility Score: inf
ROOT
ATOM      1  C   UNL A   1      34.940  20.384  24.806  1.00  0.00     0.116 C 
ENDROOT
BRANCH   1   2
ATOM      2  N   UNL A   1      34.410  20.961  26.026  1.00  0.00    -0.356 N 
ATOM      3  C   UNL A   1      34.231  22.261  26.387  1.00  0.00     0.223 C 
ATOM      4  O   UNL A   1      33.802  22.483  27.522  1.00  0.00    -0.275 OA
ATOM      5  H   UNL A   1      34.132  20.304  26.704  1.00  0.00     0.163 HD
BRANCH   3   6
ATOM      6  C   UNL A   1      34.523  23.419  25.431  1.00  0.00     0.081 C 
ATOM      7  C   UNL A   1      35.825  24.103  25.849  1.00  0.00     0.018 C 
BRANCH   6   8
ATOM      8  C   UNL A   1      33.275  24.314  25.180  1.00  0.00     0.031 C 
ATOM      9  C   UNL A   1      33.465  25.051  23.839  1.00  0.00     0.011 C 
BRANCH   8  10
ATOM     10  C   UNL A   1      32.896  25.230  26.369  1.00  0.00     0.152 C 
BRANCH  10  11
ATOM     11  C   UNL A   1      32.741  26.685  25.977  1.00  0.00     0.023 A 
ATOM     12  C   UNL A   1      31.505  27.194  25.558  1.00  0.00     0.125 A 
ATOM     13  C   UNL A   1      31.353  28.549  25.262  1.00  0.00     0.047 A 
ATOM     14  C   UNL A   1      32.439  29.417  25.391  1.00  0.00     0.004 A 
ATOM     15  C   UNL A   1      33.830  27.570  26.082  1.00  0.00     0.010 A 
ATOM     16  C   UNL A   1      33.680  28.926  25.792  1.00  0.00     0.001 A 
BRANCH  12  17
ATOM     17  O   UNL A   1      30.468  26.336  25.319  1.00  0.00    -0.493 OA
BRANCH  17  18
ATOM     18  C   UNL A   1      30.055  26.332  23.947  1.00  0.00     0.226 C 
ATOM     19  C   UNL A   1      28.558  26.601  23.908  1.00  0.00     0.049 C 
ENDBRANCH  17  18
ENDBRANCH  12  17
ENDBRANCH  10  11
BRANCH  10  20
ATOM     20  O   UNL A   1      31.635  24.796  26.897  1.00  0.00    -0.388 OA
ATOM     21  H   UNL A   1      31.586  23.829  26.863  1.00  0.00     0.211 HD
ENDBRANCH  10  20
ENDBRANCH   8  10
ENDBRANCH   6   8
ENDBRANCH   3   6
ENDBRANCH   1   2
BRANCH   1  22
ATOM     22  C   UNL A   1      36.406  19.964  24.966  1.00  0.00     0.023 C 
BRANCH  22  23
ATOM     23  C   UNL A   1      37.422  21.075  24.724  1.00  0.00     0.023 C 
BRANCH  23  24
ATOM     24  C   UNL A   1      38.577  21.103  25.710  1.00  0.00     0.116 C 
BRANCH  24  25
ATOM     25  N   UNL A   1      39.447  19.940  25.615  1.00  0.00    -0.352 N 
ATOM     26  C   UNL A   1      40.773  19.851  25.965  1.00  0.00     0.251 C 
ATOM     27  H   UNL A   1      39.037  19.119  25.258  1.00  0.00     0.163 HD
ATOM     28  O   UNL A   1      41.420  18.833  25.750  1.00  0.00    -0.269 OA
BRANCH  26  29
ATOM     29  C   UNL A   1      41.413  21.033  26.566  1.00  0.00     0.039 A 
ATOM     30  C   UNL A   1      41.978  21.996  25.728  1.00  0.00     0.014 A 
ATOM     31  C   UNL A   1      41.358  21.228  27.949  1.00  0.00     0.014 A 
ATOM     32  C   UNL A   1      42.425  23.198  26.273  1.00  0.00     0.010 A 
ATOM     33  C   UNL A   1      41.734  22.454  28.479  1.00  0.00     0.010 A 
ATOM     34  C   UNL A   1      42.268  23.450  27.645  1.00  0.00    -0.014 A 
BRANCH  34  35
ATOM     35  C   UNL A   1      42.659  24.746  28.246  1.00  0.00     0.031 A 
ATOM     36  C   UNL A   1      41.619  25.809  28.451  1.00  0.00     0.074 A 
ATOM     37  C   UNL A   1      43.954  25.000  28.511  1.00  0.00     0.049 A 
ATOM     38  N   UNL A   1      41.769  27.051  28.830  1.00  0.00    -0.248 NA
ATOM     39  C   UNL A   1      40.228  25.432  28.152  1.00  0.00     0.031 C 
ATOM     40  C   UNL A   1      45.062  24.064  28.303  1.00  0.00     0.029 A 
ATOM     41  N   UNL A   1      44.560  26.132  28.991  1.00  0.00    -0.354 N 
ATOM     42  C   UNL A   1      40.498  27.609  28.793  1.00  0.00     0.074 A 
ATOM     43  C   UNL A   1      39.598  26.587  28.306  1.00  0.00     0.031 C 
ATOM     44  C   UNL A   1      46.211  24.660  28.659  1.00  0.00     0.029 A 
ATOM     45  C   UNL A   1      45.926  26.026  29.087  1.00  0.00     0.049 A 
ATOM     46  H   UNL A   1      44.063  26.943  29.244  1.00  0.00     0.167 HD
ATOM     47  C   UNL A   1      40.113  28.855  29.155  1.00  0.00     0.037 A 
ATOM     48  C   UNL A   1      46.845  26.935  29.462  1.00  0.00     0.037 A 
ATOM     49  C   UNL A   1      41.007  29.857  29.668  1.00  0.00     0.049 A 
ATOM     50  C   UNL A   1      46.394  28.308  29.875  1.00  0.00     0.074 A 
ATOM     51  C   UNL A   1      40.708  31.129  30.123  1.00  0.00     0.029 A 
ATOM     52  N   UNL A   1      42.379  29.696  29.796  1.00  0.00    -0.354 N 
ATOM     53  N   UNL A   1      45.182  28.805  29.896  1.00  0.00    -0.248 NA
ATOM     54  C   UNL A   1      47.435  29.244  30.322  1.00  0.00     0.031 C 
ATOM     55  C   UNL A   1      41.905  31.749  30.498  1.00  0.00     0.029 A 
ATOM     56  C   UNL A   1      42.944  30.850  30.311  1.00  0.00     0.049 A 
ATOM     57  H   UNL A   1      42.877  28.881  29.557  1.00  0.00     0.167 HD
ATOM     58  C   UNL A   1      45.309  30.101  30.377  1.00  0.00     0.074 A 
ATOM     59  C   UNL A   1      46.717  30.311  30.646  1.00  0.00     0.031 C 
ATOM     60  C   UNL A   1      44.347  31.034  30.580  1.00  0.00     0.037 A 
BRANCH  47  61
ATOM     61  C   UNL A   1      38.659  29.190  29.011  1.00  0.00     0.057 A 
ATOM     62  C   UNL A   1      37.770  29.093  30.089  1.00  0.00     0.134 A 
ATOM     63  C   UNL A   1      38.141  29.618  27.782  1.00  0.00     0.134 A 
ATOM     64  F   UNL A   1      38.200  28.674  31.289  1.00  0.00    -0.206 F 
ATOM     65  C   UNL A   1      36.411  29.376  29.943  1.00  0.00     0.040 A 
ATOM     66  C   UNL A   1      36.789  29.930  27.630  1.00  0.00     0.040 A 
ATOM     67  F   UNL A   1      38.938  29.735  26.709  1.00  0.00    -0.206 F 
ATOM     68  C   UNL A   1      35.918  29.801  28.711  1.00  0.00     0.006 A 
ENDBRANCH  47  61
BRANCH  48  69
ATOM     69  C   UNL A   1      48.283  26.567  29.480  1.00  0.00     0.057 A 
ATOM     70  C   UNL A   1      48.845  25.913  30.582  1.00  0.00     0.134 A 
ATOM     71  C   UNL A   1      49.122  26.846  28.396  1.00  0.00     0.134 A 
ATOM     72  F   UNL A   1      48.094  25.635  31.657  1.00  0.00    -0.206 F 
ATOM     73  C   UNL A   1      50.195  25.559  30.610  1.00  0.00     0.040 A 
ATOM     74  C   UNL A   1      50.468  26.479  28.401  1.00  0.00     0.040 A 
ATOM     75  F   UNL A   1      48.639  27.463  27.307  1.00  0.00    -0.206 F 
ATOM     76  C   UNL A   1      51.010  25.837  29.514  1.00  0.00     0.006 A 
ENDBRANCH  48  69
BRANCH  60  77
ATOM     77  C   UNL A   1      44.776  32.353  31.144  1.00  0.00     0.057 A 
ATOM     78  C   UNL A   1      45.111  33.433  30.320  1.00  0.00     0.134 A 
ATOM     79  C   UNL A   1      44.795  32.561  32.530  1.00  0.00     0.134 A 
ATOM     80  F   UNL A   1      45.123  33.292  28.986  1.00  0.00    -0.206 F 
ATOM     81  C   UNL A   1      45.460  34.674  30.854  1.00  0.00     0.040 A 
ATOM     82  C   UNL A   1      45.122  33.802  33.075  1.00  0.00     0.040 A 
ATOM     83  F   UNL A   1      44.478  31.566  33.372  1.00  0.00    -0.206 F 
ATOM     84  C   UNL A   1      45.458  34.863  32.236  1.00  0.00     0.006 A 
ENDBRANCH  60  77
ENDBRANCH  34  35
ENDBRANCH  26  29
ENDBRANCH  24  25
ENDBRANCH  23  24
ENDBRANCH  22  23
ENDBRANCH   1  22
TORSDOF 17
ENDMDL
