MODEL 1
REMARK VINA RESULT:     -12.4      0.000      0.000
REMARK SMILES CC1(C)CCSC[C@@H]1[N@@H+]1CCNC(=O)[C@@H]1CC(=O)NCCCCNC(=O)c1ccc(-c2c3nc(c(-c4c(F)cccc4F)c4ccc([nH]4)c(-c4c(F)cccc4F)c4nc(c(-c5c(F)cccc5F)c5ccc2[nH]5)C=C4)C=C3)cc1
REMARK SMILES IDX 21 1 20 2 19 3 17 4 18 5 16 7 15 8 9 9 10 10 11 12 13 13
REMARK SMILES IDX 12 14 14 15 8 17 1 18 2 19 3 20 4 21 5 22 7 23 6 24 22 25
REMARK SMILES IDX 23 26 24 27 25 28 26 30 27 31 28 32 80 33 29 34 79 35 30 36
REMARK SMILES IDX 31 37 32 38 73 39 33 40 78 41 72 42 74 43 34 44 77 45 71 46
REMARK SMILES IDX 70 47 35 49 61 50 44 51 60 52 45 53 48 54 59 55 75 56 46 57
REMARK SMILES IDX 47 58 58 60 76 61 49 62 36 63 37 64 42 65 38 66 39 67 41 68
REMARK SMILES IDX 43 69 40 70 62 71 63 72 68 73 64 74 65 75 67 76 69 77 66 78
REMARK SMILES IDX 50 79 51 80 56 81 52 82 53 83 55 84 57 85 54 86
REMARK H PARENT 19 6 9 11 12 16 24 29 74 48 48 59
REMARK Flexibility Score: inf
ROOT
ATOM      1  C   UNL A   1      37.189  22.172  24.973  1.00  0.00     0.023 C 
ENDROOT
BRANCH   1   2
ATOM      2  C   UNL A   1      36.167  22.259  23.814  1.00  0.00     0.116 C 
BRANCH   2   3
ATOM      3  N   UNL A   1      34.425  22.143  23.972  1.00  0.00    -0.356 N 
ATOM      4  C   UNL A   1      32.775  22.674  23.502  1.00  0.00     0.226 C 
ATOM      5  O   UNL A   1      31.986  22.009  22.781  1.00  0.00    -0.275 OA
ATOM      6  H   UNL A   1      34.280  21.445  24.651  1.00  0.00     0.163 HD
BRANCH   4   7
ATOM      7  C   UNL A   1      31.931  23.826  24.066  1.00  0.00     0.175 C 
BRANCH   7   8
ATOM      8  C   UNL A   1      31.939  23.900  25.566  1.00  0.00     0.283 C 
ATOM      9  N   UNL A   1      33.102  24.626  26.131  1.00  0.00    -0.319 N 
ATOM     10  C   UNL A   1      34.151  23.742  26.626  1.00  0.00     0.284 C 
ATOM     11  H   UNL A   1      32.755  25.080  26.975  1.00  0.00     0.349 HD
ATOM     12  C   UNL A   1      33.544  22.753  27.635  1.00  0.00     0.177 C 
ATOM     13  C   UNL A   1      31.638  22.501  26.125  1.00  0.00     0.279 C 
ATOM     14  N   UNL A   1      32.471  21.981  27.064  1.00  0.00    -0.345 N 
ATOM     15  O   UNL A   1      30.660  21.851  25.750  1.00  0.00    -0.268 OA
ATOM     16  H   UNL A   1      32.339  21.052  27.361  1.00  0.00     0.163 HD
BRANCH   9  17
ATOM     17  C   UNL A   1      33.560  25.791  25.312  1.00  0.00     0.200 C 
ATOM     18  C   UNL A   1      33.516  28.336  25.839  1.00  0.00     0.017 C 
ATOM     19  C   UNL A   1      32.362  27.212  25.708  1.00  0.00     0.018 C 
ATOM     20  C   UNL A   1      31.790  27.340  27.141  1.00  0.00     0.017 C 
ATOM     21  C   UNL A   1      30.830  27.402  24.506  1.00  0.00     0.023 C 
ATOM     22  C   UNL A   1      30.895  26.905  22.600  1.00  0.00     0.070 C 
ATOM     23  C   UNL A   1      34.157  25.479  23.492  1.00  0.00     0.135 C 
ATOM     24  S   UNL A   1      32.869  26.089  21.595  1.00  0.00    -0.156 SA
ENDBRANCH   9  17
ENDBRANCH   7   8
ENDBRANCH   4   7
ENDBRANCH   2   3
ENDBRANCH   1   2
BRANCH   1  25
ATOM     25  C   UNL A   1      37.894  20.834  25.064  1.00  0.00     0.023 C 
BRANCH  25  26
ATOM     26  C   UNL A   1      39.187  20.975  25.835  1.00  0.00     0.116 C 
BRANCH  26  27
ATOM     27  N   UNL A   1      39.984  19.748  25.794  1.00  0.00    -0.352 N 
ATOM     28  C   UNL A   1      41.331  19.617  26.058  1.00  0.00     0.251 C 
ATOM     29  H   UNL A   1      39.505  18.923  25.551  1.00  0.00     0.163 HD
ATOM     30  O   UNL A   1      41.937  18.572  25.864  1.00  0.00    -0.269 OA
BRANCH  28  31
ATOM     31  C   UNL A   1      42.010  20.820  26.552  1.00  0.00     0.039 A 
ATOM     32  C   UNL A   1      42.463  21.766  25.634  1.00  0.00     0.014 A 
ATOM     33  C   UNL A   1      41.914  21.104  27.916  1.00  0.00     0.014 A 
ATOM     34  C   UNL A   1      42.749  23.053  26.083  1.00  0.00     0.010 A 
ATOM     35  C   UNL A   1      42.075  22.413  28.331  1.00  0.00     0.010 A 
ATOM     36  C   UNL A   1      42.504  23.398  27.424  1.00  0.00    -0.014 A 
BRANCH  36  37
ATOM     37  C   UNL A   1      42.726  24.771  27.932  1.00  0.00     0.031 A 
ATOM     38  C   UNL A   1      44.115  25.160  28.361  1.00  0.00     0.074 A 
ATOM     39  C   UNL A   1      41.691  25.616  28.108  1.00  0.00     0.049 A 
ATOM     40  N   UNL A   1      44.518  26.236  28.982  1.00  0.00    -0.248 NA
ATOM     41  C   UNL A   1      45.183  24.173  28.115  1.00  0.00     0.031 C 
ATOM     42  C   UNL A   1      40.287  25.326  27.803  1.00  0.00     0.029 A 
ATOM     43  N   UNL A   1      41.662  26.895  28.602  1.00  0.00    -0.354 N 
ATOM     44  C   UNL A   1      45.864  26.026  29.250  1.00  0.00     0.074 A 
ATOM     45  C   UNL A   1      46.196  24.700  28.782  1.00  0.00     0.031 C 
ATOM     46  C   UNL A   1      39.541  26.408  28.089  1.00  0.00     0.029 A 
ATOM     47  C   UNL A   1      40.406  27.453  28.626  1.00  0.00     0.049 A 
ATOM     48  H   UNL A   1      42.468  27.371  28.911  1.00  0.00     0.167 HD
ATOM     49  C   UNL A   1      46.756  26.878  29.802  1.00  0.00     0.037 A 
ATOM     50  C   UNL A   1      40.005  28.670  29.040  1.00  0.00     0.037 A 
ATOM     51  C   UNL A   1      46.444  28.231  30.162  1.00  0.00     0.049 A 
ATOM     52  C   UNL A   1      41.034  29.630  29.576  1.00  0.00     0.074 A 
ATOM     53  C   UNL A   1      47.299  29.225  30.597  1.00  0.00     0.029 A 
ATOM     54  N   UNL A   1      45.173  28.781  30.109  1.00  0.00    -0.354 N 
ATOM     55  N   UNL A   1      42.324  29.454  29.736  1.00  0.00    -0.248 NA
ATOM     56  C   UNL A   1      40.554  30.958  29.987  1.00  0.00     0.031 C 
ATOM     57  C   UNL A   1      46.540  30.375  30.832  1.00  0.00     0.029 A 
ATOM     58  C   UNL A   1      45.217  30.100  30.518  1.00  0.00     0.049 A 
ATOM     59  H   UNL A   1      44.361  28.304  29.822  1.00  0.00     0.167 HD
ATOM     60  C   UNL A   1      42.811  30.651  30.244  1.00  0.00     0.074 A 
ATOM     61  C   UNL A   1      41.682  31.551  30.350  1.00  0.00     0.031 C 
ATOM     62  C   UNL A   1      44.078  30.977  30.596  1.00  0.00     0.037 A 
BRANCH  49  63
ATOM     63  C   UNL A   1      48.153  26.378  30.014  1.00  0.00     0.057 A 
ATOM     64  C   UNL A   1      49.139  26.489  29.025  1.00  0.00     0.134 A 
ATOM     65  C   UNL A   1      48.518  25.787  31.230  1.00  0.00     0.134 A 
ATOM     66  F   UNL A   1      48.846  27.028  27.831  1.00  0.00    -0.206 F 
ATOM     67  C   UNL A   1      50.431  26.006  29.226  1.00  0.00     0.040 A 
ATOM     68  C   UNL A   1      49.816  25.324  31.452  1.00  0.00     0.040 A 
ATOM     69  F   UNL A   1      47.622  25.648  32.217  1.00  0.00    -0.206 F 
ATOM     70  C   UNL A   1      50.775  25.427  30.447  1.00  0.00     0.006 A 
ENDBRANCH  49  63
BRANCH  50  71
ATOM     71  C   UNL A   1      38.578  29.070  28.941  1.00  0.00     0.057 A 
ATOM     72  C   UNL A   1      38.057  29.582  27.745  1.00  0.00     0.134 A 
ATOM     73  C   UNL A   1      37.712  28.980  30.035  1.00  0.00     0.134 A 
ATOM     74  F   UNL A   1      38.845  29.709  26.667  1.00  0.00    -0.206 F 
ATOM     75  C   UNL A   1      36.733  30.013  27.649  1.00  0.00     0.040 A 
ATOM     76  C   UNL A   1      36.379  29.388  29.946  1.00  0.00     0.040 A 
ATOM     77  F   UNL A   1      38.145  28.491  31.206  1.00  0.00    -0.206 F 
ATOM     78  C   UNL A   1      35.888  29.915  28.753  1.00  0.00     0.006 A 
ENDBRANCH  50  71
BRANCH  62  79
ATOM     79  C   UNL A   1      44.314  32.364  31.105  1.00  0.00     0.057 A 
ATOM     80  C   UNL A   1      44.292  32.654  32.474  1.00  0.00     0.134 A 
ATOM     81  C   UNL A   1      44.636  33.401  30.222  1.00  0.00     0.134 A 
ATOM     82  F   UNL A   1      43.979  31.702  33.365  1.00  0.00    -0.206 F 
ATOM     83  C   UNL A   1      44.576  33.934  32.947  1.00  0.00     0.040 A 
ATOM     84  C   UNL A   1      44.942  34.681  30.685  1.00  0.00     0.040 A 
ATOM     85  F   UNL A   1      44.682  33.182  28.899  1.00  0.00    -0.206 F 
ATOM     86  C   UNL A   1      44.911  34.950  32.053  1.00  0.00     0.006 A 
ENDBRANCH  62  79
ENDBRANCH  36  37
ENDBRANCH  28  31
ENDBRANCH  26  27
ENDBRANCH  25  26
ENDBRANCH   1  25
TORSDOF 13
ENDMDL
MODEL 2
REMARK VINA RESULT:     -12.2      3.492      8.515
REMARK SMILES CC1(C)CCSC[C@@H]1[N@@H+]1CCNC(=O)[C@@H]1CC(=O)NCCCCNC(=O)c1ccc(-c2c3nc(c(-c4c(F)cccc4F)c4ccc([nH]4)c(-c4c(F)cccc4F)c4nc(c(-c5c(F)cccc5F)c5ccc2[nH]5)C=C4)C=C3)cc1
REMARK SMILES IDX 21 1 20 2 19 3 17 4 18 5 16 7 15 8 9 9 10 10 11 12 13 13
REMARK SMILES IDX 12 14 14 15 8 17 1 18 2 19 3 20 4 21 5 22 7 23 6 24 22 25
REMARK SMILES IDX 23 26 24 27 25 28 26 30 27 31 28 32 80 33 29 34 79 35 30 36
REMARK SMILES IDX 31 37 32 38 73 39 33 40 78 41 72 42 74 43 34 44 77 45 71 46
REMARK SMILES IDX 70 47 35 49 61 50 44 51 60 52 45 53 48 54 59 55 75 56 46 57
REMARK SMILES IDX 47 58 58 60 76 61 49 62 36 63 37 64 42 65 38 66 39 67 41 68
REMARK SMILES IDX 43 69 40 70 62 71 63 72 68 73 64 74 65 75 67 76 69 77 66 78
REMARK SMILES IDX 50 79 51 80 56 81 52 82 53 83 55 84 57 85 54 86
REMARK H PARENT 19 6 9 11 12 16 24 29 74 48 48 59
REMARK Flexibility Score: inf
ROOT
ATOM      1  C   UNL A   1      32.835  29.578  26.701  1.00  0.00     0.023 C 
ENDROOT
BRANCH   1   2
ATOM      2  C   UNL A   1      32.060  28.432  27.394  1.00  0.00     0.116 C 
BRANCH   2   3
ATOM      3  N   UNL A   1      30.942  27.331  26.612  1.00  0.00    -0.356 N 
ATOM      4  C   UNL A   1      30.367  25.662  26.280  1.00  0.00     0.226 C 
ATOM      5  O   UNL A   1      29.330  25.149  26.776  1.00  0.00    -0.275 OA
ATOM      6  H   UNL A   1      30.327  27.913  26.109  1.00  0.00     0.163 HD
BRANCH   4   7
ATOM      7  C   UNL A   1      30.820  24.681  25.189  1.00  0.00     0.175 C 
BRANCH   7   8
ATOM      8  C   UNL A   1      31.073  25.334  23.860  1.00  0.00     0.283 C 
ATOM      9  N   UNL A   1      32.482  25.736  23.640  1.00  0.00    -0.319 N 
ATOM     10  C   UNL A   1      32.720  27.157  23.867  1.00  0.00     0.284 C 
ATOM     11  H   UNL A   1      32.644  25.624  22.640  1.00  0.00     0.349 HD
ATOM     12  C   UNL A   1      31.746  27.976  23.004  1.00  0.00     0.177 C 
ATOM     13  C   UNL A   1      29.988  26.396  23.624  1.00  0.00     0.279 C 
ATOM     14  N   UNL A   1      30.370  27.652  23.279  1.00  0.00    -0.345 N 
ATOM     15  O   UNL A   1      28.789  26.131  23.732  1.00  0.00    -0.268 OA
ATOM     16  H   UNL A   1      29.689  28.361  23.214  1.00  0.00     0.163 HD
BRANCH   9  17
ATOM     17  C   UNL A   1      33.491  24.801  24.230  1.00  0.00     0.200 C 
ATOM     18  C   UNL A   1      35.131  23.151  23.070  1.00  0.00     0.017 C 
ATOM     19  C   UNL A   1      33.520  23.279  23.093  1.00  0.00     0.018 C 
ATOM     20  C   UNL A   1      33.310  23.469  21.570  1.00  0.00     0.017 C 
ATOM     21  C   UNL A   1      32.347  21.801  23.610  1.00  0.00     0.023 C 
ATOM     22  C   UNL A   1      31.886  21.403  25.484  1.00  0.00     0.070 C 
ATOM     23  C   UNL A   1      33.563  24.596  26.158  1.00  0.00     0.135 C 
ATOM     24  S   UNL A   1      32.774  22.659  27.275  1.00  0.00    -0.156 SA
ENDBRANCH   9  17
ENDBRANCH   7   8
ENDBRANCH   4   7
ENDBRANCH   2   3
ENDBRANCH   1   2
BRANCH   1  25
ATOM     25  C   UNL A   1      32.221  30.946  26.916  1.00  0.00     0.023 C 
BRANCH  25  26
ATOM     26  C   UNL A   1      33.260  31.908  27.445  1.00  0.00     0.116 C 
BRANCH  26  27
ATOM     27  N   UNL A   1      32.705  33.247  27.662  1.00  0.00    -0.352 N 
ATOM     28  C   UNL A   1      33.191  34.227  28.500  1.00  0.00     0.251 C 
ATOM     29  H   UNL A   1      31.894  33.471  27.152  1.00  0.00     0.163 HD
ATOM     30  O   UNL A   1      32.580  35.265  28.716  1.00  0.00    -0.269 OA
BRANCH  28  31
ATOM     31  C   UNL A   1      34.473  33.939  29.152  1.00  0.00     0.039 A 
ATOM     32  C   UNL A   1      34.483  33.168  30.313  1.00  0.00     0.014 A 
ATOM     33  C   UNL A   1      35.640  34.198  28.429  1.00  0.00     0.014 A 
ATOM     34  C   UNL A   1      35.679  32.575  30.714  1.00  0.00     0.010 A 
ATOM     35  C   UNL A   1      36.789  33.504  28.760  1.00  0.00     0.010 A 
ATOM     36  C   UNL A   1      36.825  32.695  29.909  1.00  0.00    -0.014 A 
BRANCH  36  37
ATOM     37  C   UNL A   1      38.100  32.026  30.258  1.00  0.00     0.031 A 
ATOM     38  C   UNL A   1      39.052  32.736  31.181  1.00  0.00     0.074 A 
ATOM     39  C   UNL A   1      38.445  30.860  29.677  1.00  0.00     0.049 A 
ATOM     40  N   UNL A   1      40.282  32.428  31.497  1.00  0.00    -0.248 NA
ATOM     41  C   UNL A   1      38.577  33.998  31.777  1.00  0.00     0.031 C 
ATOM     42  C   UNL A   1      37.641  30.115  28.705  1.00  0.00     0.029 A 
ATOM     43  N   UNL A   1      39.580  30.102  29.814  1.00  0.00    -0.354 N 
ATOM     44  C   UNL A   1      40.739  33.483  32.275  1.00  0.00     0.074 A 
ATOM     45  C   UNL A   1      39.683  34.467  32.332  1.00  0.00     0.031 C 
ATOM     46  C   UNL A   1      38.295  28.992  28.359  1.00  0.00     0.029 A 
ATOM     47  C   UNL A   1      39.576  28.955  29.056  1.00  0.00     0.049 A 
ATOM     48  H   UNL A   1      40.329  30.355  30.401  1.00  0.00     0.167 HD
ATOM     49  C   UNL A   1      41.921  33.606  32.917  1.00  0.00     0.037 A 
ATOM     50  C   UNL A   1      40.507  27.988  28.940  1.00  0.00     0.037 A 
ATOM     51  C   UNL A   1      42.920  32.577  32.944  1.00  0.00     0.049 A 
ATOM     52  C   UNL A   1      41.783  28.110  29.731  1.00  0.00     0.074 A 
ATOM     53  C   UNL A   1      44.092  32.534  33.675  1.00  0.00     0.029 A 
ATOM     54  N   UNL A   1      42.850  31.399  32.218  1.00  0.00    -0.354 N 
ATOM     55  N   UNL A   1      42.165  29.070  30.539  1.00  0.00    -0.248 NA
ATOM     56  C   UNL A   1      42.756  27.016  29.596  1.00  0.00     0.031 C 
ATOM     57  C   UNL A   1      44.747  31.336  33.371  1.00  0.00     0.029 A 
ATOM     58  C   UNL A   1      43.967  30.626  32.471  1.00  0.00     0.049 A 
ATOM     59  H   UNL A   1      42.114  31.150  31.612  1.00  0.00     0.167 HD
ATOM     60  C   UNL A   1      43.407  28.686  31.025  1.00  0.00     0.074 A 
ATOM     61  C   UNL A   1      43.709  27.399  30.433  1.00  0.00     0.031 C 
ATOM     62  C   UNL A   1      44.230  29.340  31.880  1.00  0.00     0.037 A 
BRANCH  49  63
ATOM     63  C   UNL A   1      42.175  34.880  33.664  1.00  0.00     0.057 A 
ATOM     64  C   UNL A   1      42.853  35.958  33.082  1.00  0.00     0.134 A 
ATOM     65  C   UNL A   1      41.724  35.032  34.981  1.00  0.00     0.134 A 
ATOM     66  F   UNL A   1      43.327  35.868  31.830  1.00  0.00    -0.206 F 
ATOM     67  C   UNL A   1      43.099  37.134  33.792  1.00  0.00     0.040 A 
ATOM     68  C   UNL A   1      41.941  36.213  35.692  1.00  0.00     0.040 A 
ATOM     69  F   UNL A   1      41.070  34.037  35.597  1.00  0.00    -0.206 F 
ATOM     70  C   UNL A   1      42.635  37.266  35.100  1.00  0.00     0.006 A 
ENDBRANCH  49  63
BRANCH  50  71
ATOM     71  C   UNL A   1      40.267  26.808  28.072  1.00  0.00     0.057 A 
ATOM     72  C   UNL A   1      39.478  25.738  28.515  1.00  0.00     0.134 A 
ATOM     73  C   UNL A   1      40.837  26.703  26.799  1.00  0.00     0.134 A 
ATOM     74  F   UNL A   1      38.919  25.773  29.734  1.00  0.00    -0.206 F 
ATOM     75  C   UNL A   1      39.285  24.597  27.734  1.00  0.00     0.040 A 
ATOM     76  C   UNL A   1      40.635  25.576  25.999  1.00  0.00     0.040 A 
ATOM     77  F   UNL A   1      41.596  27.695  26.311  1.00  0.00    -0.206 F 
ATOM     78  C   UNL A   1      39.864  24.515  26.470  1.00  0.00     0.006 A 
ENDBRANCH  50  71
BRANCH  62  79
ATOM     79  C   UNL A   1      45.518  28.669  32.242  1.00  0.00     0.057 A 
ATOM     80  C   UNL A   1      46.696  28.914  31.528  1.00  0.00     0.134 A 
ATOM     81  C   UNL A   1      45.593  27.828  33.358  1.00  0.00     0.134 A 
ATOM     82  F   UNL A   1      46.682  29.702  30.444  1.00  0.00    -0.206 F 
ATOM     83  C   UNL A   1      47.907  28.336  31.909  1.00  0.00     0.040 A 
ATOM     84  C   UNL A   1      46.801  27.261  33.762  1.00  0.00     0.040 A 
ATOM     85  F   UNL A   1      44.498  27.563  34.088  1.00  0.00    -0.206 F 
ATOM     86  C   UNL A   1      47.963  27.515  33.034  1.00  0.00     0.006 A 
ENDBRANCH  62  79
ENDBRANCH  36  37
ENDBRANCH  28  31
ENDBRANCH  26  27
ENDBRANCH  25  26
ENDBRANCH   1  25
TORSDOF 13
ENDMDL
MODEL 3
REMARK VINA RESULT:     -12.2      3.161      7.869
REMARK SMILES CC1(C)CCSC[C@@H]1[N@@H+]1CCNC(=O)[C@@H]1CC(=O)NCCCCNC(=O)c1ccc(-c2c3nc(c(-c4c(F)cccc4F)c4ccc([nH]4)c(-c4c(F)cccc4F)c4nc(c(-c5c(F)cccc5F)c5ccc2[nH]5)C=C4)C=C3)cc1
REMARK SMILES IDX 21 1 20 2 19 3 17 4 18 5 16 7 15 8 9 9 10 10 11 12 13 13
REMARK SMILES IDX 12 14 14 15 8 17 1 18 2 19 3 20 4 21 5 22 7 23 6 24 22 25
REMARK SMILES IDX 23 26 24 27 25 28 26 30 27 31 28 32 80 33 29 34 79 35 30 36
REMARK SMILES IDX 31 37 32 38 73 39 33 40 78 41 72 42 74 43 34 44 77 45 71 46
REMARK SMILES IDX 70 47 35 49 61 50 44 51 60 52 45 53 48 54 59 55 75 56 46 57
REMARK SMILES IDX 47 58 58 60 76 61 49 62 36 63 37 64 42 65 38 66 39 67 41 68
REMARK SMILES IDX 43 69 40 70 62 71 63 72 68 73 64 74 65 75 67 76 69 77 66 78
REMARK SMILES IDX 50 79 51 80 56 81 52 82 53 83 55 84 57 85 54 86
REMARK H PARENT 19 6 9 11 12 16 24 29 74 48 48 59
REMARK Flexibility Score: inf
ROOT
ATOM      1  C   UNL A   1      32.382  29.663  27.247  1.00  0.00     0.023 C 
ENDROOT
BRANCH   1   2
ATOM      2  C   UNL A   1      32.050  28.199  27.625  1.00  0.00     0.116 C 
BRANCH   2   3
ATOM      3  N   UNL A   1      30.944  27.143  26.767  1.00  0.00    -0.356 N 
ATOM      4  C   UNL A   1      30.377  25.495  26.334  1.00  0.00     0.226 C 
ATOM      5  O   UNL A   1      29.333  24.954  26.786  1.00  0.00    -0.275 OA
ATOM      6  H   UNL A   1      30.336  27.752  26.289  1.00  0.00     0.163 HD
BRANCH   4   7
ATOM      7  C   UNL A   1      30.846  24.577  25.196  1.00  0.00     0.175 C 
BRANCH   7   8
ATOM      8  C   UNL A   1      31.100  25.301  23.905  1.00  0.00     0.283 C 
ATOM      9  N   UNL A   1      32.507  25.731  23.718  1.00  0.00    -0.319 N 
ATOM     10  C   UNL A   1      32.725  27.141  24.020  1.00  0.00     0.284 C 
ATOM     11  H   UNL A   1      32.677  25.674  22.714  1.00  0.00     0.349 HD
ATOM     12  C   UNL A   1      31.748  27.993  23.193  1.00  0.00     0.177 C 
ATOM     13  C   UNL A   1      30.004  26.361  23.716  1.00  0.00     0.279 C 
ATOM     14  N   UNL A   1      30.374  27.639  23.439  1.00  0.00    -0.345 N 
ATOM     15  O   UNL A   1      28.808  26.077  23.801  1.00  0.00    -0.268 OA
ATOM     16  H   UNL A   1      29.685  28.341  23.406  1.00  0.00     0.163 HD
BRANCH   9  17
ATOM     17  C   UNL A   1      33.522  24.779  24.265  1.00  0.00     0.200 C 
ATOM     18  C   UNL A   1      35.155  23.173  23.035  1.00  0.00     0.017 C 
ATOM     19  C   UNL A   1      33.544  23.297  23.076  1.00  0.00     0.018 C 
ATOM     20  C   UNL A   1      33.321  23.540  21.563  1.00  0.00     0.017 C 
ATOM     21  C   UNL A   1      32.379  21.799  23.551  1.00  0.00     0.023 C 
ATOM     22  C   UNL A   1      31.935  21.335  25.414  1.00  0.00     0.070 C 
ATOM     23  C   UNL A   1      33.611  24.507  26.185  1.00  0.00     0.135 C 
ATOM     24  S   UNL A   1      32.836  22.530  27.241  1.00  0.00    -0.156 SA
ENDBRANCH   9  17
ENDBRANCH   7   8
ENDBRANCH   4   7
ENDBRANCH   2   3
ENDBRANCH   1   2
BRANCH   1  25
ATOM     25  C   UNL A   1      33.761  29.839  26.646  1.00  0.00     0.023 C 
BRANCH  25  26
ATOM     26  C   UNL A   1      34.813  29.296  27.586  1.00  0.00     0.116 C 
BRANCH  26  27
ATOM     27  N   UNL A   1      34.995  30.157  28.758  1.00  0.00    -0.352 N 
ATOM     28  C   UNL A   1      36.122  30.271  29.544  1.00  0.00     0.251 C 
ATOM     29  H   UNL A   1      34.227  30.717  29.011  1.00  0.00     0.163 HD
ATOM     30  O   UNL A   1      36.132  30.917  30.583  1.00  0.00    -0.269 OA
BRANCH  28  31
ATOM     31  C   UNL A   1      37.307  29.539  29.081  1.00  0.00     0.039 A 
ATOM     32  C   UNL A   1      37.767  29.751  27.783  1.00  0.00     0.014 A 
ATOM     33  C   UNL A   1      38.085  28.893  30.043  1.00  0.00     0.014 A 
ATOM     34  C   UNL A   1      39.072  29.378  27.465  1.00  0.00     0.010 A 
ATOM     35  C   UNL A   1      39.415  28.645  29.758  1.00  0.00     0.010 A 
ATOM     36  C   UNL A   1      39.919  28.873  28.466  1.00  0.00    -0.014 A 
BRANCH  36  37
ATOM     37  C   UNL A   1      41.334  28.528  28.193  1.00  0.00     0.031 A 
ATOM     38  C   UNL A   1      41.663  27.113  27.804  1.00  0.00     0.074 A 
ATOM     39  C   UNL A   1      42.313  29.432  28.393  1.00  0.00     0.049 A 
ATOM     40  N   UNL A   1      42.830  26.540  27.677  1.00  0.00    -0.248 NA
ATOM     41  C   UNL A   1      40.523  26.203  27.596  1.00  0.00     0.031 C 
ATOM     42  C   UNL A   1      42.126  30.813  28.846  1.00  0.00     0.029 A 
ATOM     43  N   UNL A   1      43.673  29.315  28.252  1.00  0.00    -0.354 N 
ATOM     44  C   UNL A   1      42.560  25.200  27.433  1.00  0.00     0.074 A 
ATOM     45  C   UNL A   1      41.127  25.030  27.493  1.00  0.00     0.031 C 
ATOM     46  C   UNL A   1      43.323  31.422  28.914  1.00  0.00     0.029 A 
ATOM     47  C   UNL A   1      44.363  30.466  28.544  1.00  0.00     0.049 A 
ATOM     48  H   UNL A   1      44.114  28.481  27.967  1.00  0.00     0.167 HD
ATOM     49  C   UNL A   1      43.428  24.205  27.147  1.00  0.00     0.037 A 
ATOM     50  C   UNL A   1      45.686  30.716  28.516  1.00  0.00     0.037 A 
ATOM     51  C   UNL A   1      44.839  24.404  26.982  1.00  0.00     0.049 A 
ATOM     52  C   UNL A   1      46.625  29.610  28.114  1.00  0.00     0.074 A 
ATOM     53  C   UNL A   1      45.793  23.499  26.555  1.00  0.00     0.029 A 
ATOM     54  N   UNL A   1      45.493  25.603  27.220  1.00  0.00    -0.354 N 
ATOM     55  N   UNL A   1      46.350  28.368  27.793  1.00  0.00    -0.248 NA
ATOM     56  C   UNL A   1      48.058  29.937  28.069  1.00  0.00     0.031 C 
ATOM     57  C   UNL A   1      47.032  24.145  26.558  1.00  0.00     0.029 A 
ATOM     58  C   UNL A   1      46.843  25.458  26.963  1.00  0.00     0.049 A 
ATOM     59  H   UNL A   1      45.060  26.433  27.526  1.00  0.00     0.167 HD
ATOM     60  C   UNL A   1      47.567  27.775  27.487  1.00  0.00     0.074 A 
ATOM     61  C   UNL A   1      48.582  28.796  27.646  1.00  0.00     0.031 C 
ATOM     62  C   UNL A   1      47.826  26.499  27.114  1.00  0.00     0.037 A 
BRANCH  49  63
ATOM     63  C   UNL A   1      42.867  22.827  26.963  1.00  0.00     0.057 A 
ATOM     64  C   UNL A   1      42.731  22.245  25.696  1.00  0.00     0.134 A 
ATOM     65  C   UNL A   1      42.468  22.070  28.071  1.00  0.00     0.134 A 
ATOM     66  F   UNL A   1      43.077  22.927  24.594  1.00  0.00    -0.206 F 
ATOM     67  C   UNL A   1      42.192  20.969  25.535  1.00  0.00     0.040 A 
ATOM     68  C   UNL A   1      41.953  20.781  27.923  1.00  0.00     0.040 A 
ATOM     69  F   UNL A   1      42.570  22.569  29.312  1.00  0.00    -0.206 F 
ATOM     70  C   UNL A   1      41.808  20.230  26.653  1.00  0.00     0.006 A 
ENDBRANCH  49  63
BRANCH  50  71
ATOM     71  C   UNL A   1      46.208  32.067  28.846  1.00  0.00     0.057 A 
ATOM     72  C   UNL A   1      46.541  32.405  30.164  1.00  0.00     0.134 A 
ATOM     73  C   UNL A   1      46.360  33.056  27.869  1.00  0.00     0.134 A 
ATOM     74  F   UNL A   1      46.399  31.504  31.148  1.00  0.00    -0.206 F 
ATOM     75  C   UNL A   1      46.982  33.686  30.502  1.00  0.00     0.040 A 
ATOM     76  C   UNL A   1      46.821  34.335  28.190  1.00  0.00     0.040 A 
ATOM     77  F   UNL A   1      46.067  32.794  26.587  1.00  0.00    -0.206 F 
ATOM     78  C   UNL A   1      47.124  34.656  29.512  1.00  0.00     0.006 A 
ENDBRANCH  50  71
BRANCH  62  79
ATOM     79  C   UNL A   1      49.251  26.142  26.829  1.00  0.00     0.057 A 
ATOM     80  C   UNL A   1      49.812  26.327  25.560  1.00  0.00     0.134 A 
ATOM     81  C   UNL A   1      50.088  25.680  27.852  1.00  0.00     0.134 A 
ATOM     82  F   UNL A   1      49.055  26.757  24.540  1.00  0.00    -0.206 F 
ATOM     83  C   UNL A   1      51.157  26.054  25.316  1.00  0.00     0.040 A 
ATOM     84  C   UNL A   1      51.439  25.424  27.625  1.00  0.00     0.040 A 
ATOM     85  F   UNL A   1      49.610  25.493  29.092  1.00  0.00    -0.206 F 
ATOM     86  C   UNL A   1      51.977  25.610  26.352  1.00  0.00     0.006 A 
ENDBRANCH  62  79
ENDBRANCH  36  37
ENDBRANCH  28  31
ENDBRANCH  26  27
ENDBRANCH  25  26
ENDBRANCH   1  25
TORSDOF 13
ENDMDL
