MODEL 1
REMARK VINA RESULT:     -10.4      0.000      0.000
REMARK SMILES C[NH2+]C[C@H](C)C(=O)Nc1snc(C)c1C(=O)NCCCCNC(=O)c1ccc(-c2c3nc(c(-c4c(F)cccc4F)c4ccc([nH]4)c(-c4c(F)cccc4F)c4nc(c(-c5c(F)cccc5F)c5ccc2[nH]5)C=C4)C=C3)cc1
REMARK SMILES IDX 18 1 17 2 15 3 16 4 14 6 9 7 10 8 11 9 12 10 13 11 8 12 6 13
REMARK SMILES IDX 7 14 4 16 5 17 3 18 2 19 1 20 19 23 20 24 21 25 22 26 23 27
REMARK SMILES IDX 24 29 25 30 26 31 78 32 27 33 77 34 28 35 29 36 30 37 71 38
REMARK SMILES IDX 31 39 76 40 70 41 72 42 32 43 75 44 69 45 68 46 33 48 59 49
REMARK SMILES IDX 42 50 58 51 43 52 46 53 57 54 73 55 44 56 45 57 56 59 74 60
REMARK SMILES IDX 47 61 34 62 35 63 40 64 36 65 37 66 39 67 41 68 38 69 60 70
REMARK SMILES IDX 61 71 66 72 62 73 63 74 65 75 67 76 64 77 48 78 49 79 54 80
REMARK SMILES IDX 50 81 51 82 53 83 55 84 52 85
REMARK H PARENT 17 5 8 15 2 21 2 22 22 28 72 47 46 58
REMARK Flexibility Score: inf
ROOT
ATOM      1  C   UNL A   1      34.076  28.052  26.523  1.00  0.00     0.116 C 
ENDROOT
BRANCH   1   2
ATOM      2  N   UNL A   1      32.719  27.844  26.983  1.00  0.00    -0.352 N 
ATOM      3  C   UNL A   1      31.738  26.958  26.572  1.00  0.00     0.256 C 
ATOM      4  O   UNL A   1      30.699  26.986  27.233  1.00  0.00    -0.269 OA
ATOM      5  H   UNL A   1      32.444  28.439  27.717  1.00  0.00     0.163 HD
BRANCH   3   6
ATOM      6  C   UNL A   1      31.857  26.075  25.399  1.00  0.00     0.097 A 
ATOM      7  C   UNL A   1      32.082  26.374  24.065  1.00  0.00     0.129 A 
ATOM      8  S   UNL A   1      31.627  25.046  23.094  1.00  0.00    -0.017 S 
ATOM      9  N   UNL A   1      31.611  23.958  24.326  1.00  0.00    -0.195 NA
ATOM     10  C   UNL A   1      31.789  24.610  25.479  1.00  0.00     0.066 A 
ATOM     11  C   UNL A   1      31.878  23.754  26.701  1.00  0.00     0.069 C 
BRANCH   7  12
ATOM     12  N   UNL A   1      32.487  27.450  23.329  1.00  0.00    -0.315 N 
ATOM     13  C   UNL A   1      31.796  28.574  23.005  1.00  0.00     0.233 C 
ATOM     14  O   UNL A   1      32.206  29.210  22.025  1.00  0.00    -0.274 OA
ATOM     15  H   UNL A   1      33.409  27.405  22.985  1.00  0.00     0.170 HD
BRANCH  13  16
ATOM     16  C   UNL A   1      30.693  29.172  23.878  1.00  0.00     0.130 C 
ATOM     17  C   UNL A   1      31.095  30.205  24.917  1.00  0.00     0.024 C 
BRANCH  16  18
ATOM     18  C   UNL A   1      29.520  29.670  23.014  1.00  0.00     0.273 C 
BRANCH  18  19
ATOM     19  N   UNL A   1      29.808  30.776  22.095  1.00  0.00    -0.348 N 
ATOM     20  C   UNL A   1      28.858  31.879  22.191  1.00  0.00     0.330 C 
ATOM     21  H   UNL A   1      30.740  31.135  22.303  1.00  0.00     0.346 HD
ATOM     22  H   UNL A   1      29.737  30.404  21.148  1.00  0.00     0.346 HD
ENDBRANCH  18  19
ENDBRANCH  16  18
ENDBRANCH  13  16
ENDBRANCH   7  12
ENDBRANCH   3   6
ENDBRANCH   1   2
BRANCH   1  23
ATOM     23  C   UNL A   1      34.867  29.181  27.190  1.00  0.00     0.023 C 
BRANCH  23  24
ATOM     24  C   UNL A   1      34.157  30.536  27.343  1.00  0.00     0.023 C 
BRANCH  24  25
ATOM     25  C   UNL A   1      35.030  31.699  27.809  1.00  0.00     0.116 C 
BRANCH  25  26
ATOM     26  N   UNL A   1      34.615  32.324  29.063  1.00  0.00    -0.352 N 
ATOM     27  C   UNL A   1      35.093  32.061  30.345  1.00  0.00     0.251 C 
ATOM     28  H   UNL A   1      33.915  33.013  28.994  1.00  0.00     0.163 HD
ATOM     29  O   UNL A   1      34.493  32.439  31.332  1.00  0.00    -0.269 OA
BRANCH  27  30
ATOM     30  C   UNL A   1      36.350  31.292  30.486  1.00  0.00     0.039 A 
ATOM     31  C   UNL A   1      36.354  29.898  30.592  1.00  0.00     0.014 A 
ATOM     32  C   UNL A   1      37.549  31.996  30.479  1.00  0.00     0.014 A 
ATOM     33  C   UNL A   1      37.578  29.222  30.599  1.00  0.00     0.010 A 
ATOM     34  C   UNL A   1      38.737  31.330  30.321  1.00  0.00     0.010 A 
ATOM     35  C   UNL A   1      38.770  29.945  30.441  1.00  0.00    -0.014 A 
BRANCH  35  36
ATOM     36  C   UNL A   1      40.060  29.268  30.317  1.00  0.00     0.031 A 
ATOM     37  C   UNL A   1      40.797  29.039  31.594  1.00  0.00     0.074 A 
ATOM     38  C   UNL A   1      40.460  28.655  29.180  1.00  0.00     0.049 A 
ATOM     39  N   UNL A   1      41.961  29.487  31.936  1.00  0.00    -0.248 NA
ATOM     40  C   UNL A   1      40.118  28.280  32.656  1.00  0.00     0.031 C 
ATOM     41  C   UNL A   1      39.717  28.480  27.924  1.00  0.00     0.029 A 
ATOM     42  N   UNL A   1      41.595  27.941  28.952  1.00  0.00    -0.354 N 
ATOM     43  C   UNL A   1      42.247  28.919  33.177  1.00  0.00     0.074 A 
ATOM     44  C   UNL A   1      41.023  28.317  33.636  1.00  0.00     0.031 C 
ATOM     45  C   UNL A   1      40.307  27.522  27.178  1.00  0.00     0.029 A 
ATOM     46  C   UNL A   1      41.559  27.151  27.810  1.00  0.00     0.049 A 
ATOM     47  H   UNL A   1      42.378  27.981  29.548  1.00  0.00     0.167 HD
ATOM     48  C   UNL A   1      43.529  28.799  33.628  1.00  0.00     0.037 A 
ATOM     49  C   UNL A   1      42.484  26.240  27.423  1.00  0.00     0.037 A 
ATOM     50  C   UNL A   1      44.425  29.659  32.897  1.00  0.00     0.049 A 
ATOM     51  C   UNL A   1      43.737  26.541  28.156  1.00  0.00     0.074 A 
ATOM     52  C   UNL A   1      44.496  31.019  32.662  1.00  0.00     0.029 A 
ATOM     53  N   UNL A   1      45.252  29.086  31.962  1.00  0.00    -0.354 N 
ATOM     54  N   UNL A   1      44.470  27.597  27.945  1.00  0.00    -0.248 NA
ATOM     55  C   UNL A   1      43.950  25.877  29.432  1.00  0.00     0.031 C 
ATOM     56  C   UNL A   1      44.926  31.134  31.305  1.00  0.00     0.029 A 
ATOM     57  C   UNL A   1      45.147  29.843  30.825  1.00  0.00     0.049 A 
ATOM     58  H   UNL A   1      45.812  28.286  32.085  1.00  0.00     0.167 HD
ATOM     59  C   UNL A   1      44.902  27.981  29.204  1.00  0.00     0.074 A 
ATOM     60  C   UNL A   1      44.639  26.829  30.064  1.00  0.00     0.031 C 
ATOM     61  C   UNL A   1      45.166  29.290  29.491  1.00  0.00     0.037 A 
BRANCH  48  62
ATOM     62  C   UNL A   1      44.038  27.652  34.474  1.00  0.00     0.057 A 
ATOM     63  C   UNL A   1      43.904  26.333  33.997  1.00  0.00     0.134 A 
ATOM     64  C   UNL A   1      44.374  27.759  35.839  1.00  0.00     0.134 A 
ATOM     65  F   UNL A   1      43.578  26.091  32.718  1.00  0.00    -0.206 F 
ATOM     66  C   UNL A   1      44.008  25.214  34.835  1.00  0.00     0.040 A 
ATOM     67  C   UNL A   1      44.532  26.647  36.671  1.00  0.00     0.040 A 
ATOM     68  F   UNL A   1      44.464  28.937  36.466  1.00  0.00    -0.206 F 
ATOM     69  C   UNL A   1      44.316  25.370  36.180  1.00  0.00     0.006 A 
ENDBRANCH  48  62
BRANCH  49  70
ATOM     70  C   UNL A   1      42.306  24.984  26.663  1.00  0.00     0.057 A 
ATOM     71  C   UNL A   1      43.058  24.731  25.508  1.00  0.00     0.134 A 
ATOM     72  C   UNL A   1      41.616  23.887  27.207  1.00  0.00     0.134 A 
ATOM     73  F   UNL A   1      43.772  25.709  24.932  1.00  0.00    -0.206 F 
ATOM     74  C   UNL A   1      43.156  23.452  24.948  1.00  0.00     0.040 A 
ATOM     75  C   UNL A   1      41.700  22.605  26.654  1.00  0.00     0.040 A 
ATOM     76  F   UNL A   1      40.914  24.002  28.344  1.00  0.00    -0.206 F 
ATOM     77  C   UNL A   1      42.488  22.380  25.531  1.00  0.00     0.006 A 
ENDBRANCH  49  70
BRANCH  61  78
ATOM     78  C   UNL A   1      45.228  30.264  28.345  1.00  0.00     0.057 A 
ATOM     79  C   UNL A   1      44.119  30.961  27.840  1.00  0.00     0.134 A 
ATOM     80  C   UNL A   1      46.478  30.605  27.817  1.00  0.00     0.134 A 
ATOM     81  F   UNL A   1      42.895  30.786  28.351  1.00  0.00    -0.206 F 
ATOM     82  C   UNL A   1      44.244  31.909  26.820  1.00  0.00     0.040 A 
ATOM     83  C   UNL A   1      46.620  31.574  26.823  1.00  0.00     0.040 A 
ATOM     84  F   UNL A   1      47.593  30.024  28.291  1.00  0.00    -0.206 F 
ATOM     85  C   UNL A   1      45.500  32.221  26.310  1.00  0.00     0.006 A 
ENDBRANCH  61  78
ENDBRANCH  35  36
ENDBRANCH  27  30
ENDBRANCH  25  26
ENDBRANCH  24  25
ENDBRANCH  23  24
ENDBRANCH   1  23
TORSDOF 15
ENDMDL
MODEL 2
REMARK VINA RESULT:     -10.4      3.659      8.494
REMARK SMILES C[NH2+]C[C@H](C)C(=O)Nc1snc(C)c1C(=O)NCCCCNC(=O)c1ccc(-c2c3nc(c(-c4c(F)cccc4F)c4ccc([nH]4)c(-c4c(F)cccc4F)c4nc(c(-c5c(F)cccc5F)c5ccc2[nH]5)C=C4)C=C3)cc1
REMARK SMILES IDX 18 1 17 2 15 3 16 4 14 6 9 7 10 8 11 9 12 10 13 11 8 12 6 13
REMARK SMILES IDX 7 14 4 16 5 17 3 18 2 19 1 20 19 23 20 24 21 25 22 26 23 27
REMARK SMILES IDX 24 29 25 30 26 31 78 32 27 33 77 34 28 35 29 36 30 37 71 38
REMARK SMILES IDX 31 39 76 40 70 41 72 42 32 43 75 44 69 45 68 46 33 48 59 49
REMARK SMILES IDX 42 50 58 51 43 52 46 53 57 54 73 55 44 56 45 57 56 59 74 60
REMARK SMILES IDX 47 61 34 62 35 63 40 64 36 65 37 66 39 67 41 68 38 69 60 70
REMARK SMILES IDX 61 71 66 72 62 73 63 74 65 75 67 76 64 77 48 78 49 79 54 80
REMARK SMILES IDX 50 81 51 82 53 83 55 84 52 85
REMARK H PARENT 17 5 8 15 2 21 2 22 22 28 72 47 46 58
REMARK Flexibility Score: inf
ROOT
ATOM      1  C   UNL A   1      36.459  23.725  25.645  1.00  0.00     0.116 C 
ENDROOT
BRANCH   1   2
ATOM      2  N   UNL A   1      35.685  23.328  26.802  1.00  0.00    -0.352 N 
ATOM      3  C   UNL A   1      34.453  22.706  26.911  1.00  0.00     0.256 C 
ATOM      4  O   UNL A   1      34.106  22.434  28.063  1.00  0.00    -0.269 OA
ATOM      5  H   UNL A   1      36.110  23.538  27.665  1.00  0.00     0.163 HD
BRANCH   3   6
ATOM      6  C   UNL A   1      33.560  22.428  25.773  1.00  0.00     0.097 A 
ATOM      7  C   UNL A   1      33.697  21.544  24.715  1.00  0.00     0.129 A 
ATOM      8  S   UNL A   1      32.641  21.992  23.453  1.00  0.00    -0.017 S 
ATOM      9  N   UNL A   1      31.696  22.962  24.384  1.00  0.00    -0.195 NA
ATOM     10  C   UNL A   1      32.255  23.076  25.593  1.00  0.00     0.066 A 
ATOM     11  C   UNL A   1      31.479  23.868  26.594  1.00  0.00     0.069 C 
BRANCH   7  12
ATOM     12  N   UNL A   1      34.489  20.481  24.388  1.00  0.00    -0.315 N 
ATOM     13  C   UNL A   1      34.255  19.154  24.565  1.00  0.00     0.233 C 
ATOM     14  O   UNL A   1      35.248  18.415  24.566  1.00  0.00    -0.274 OA
ATOM     15  H   UNL A   1      35.349  20.707  23.966  1.00  0.00     0.170 HD
BRANCH  13  16
ATOM     16  C   UNL A   1      32.858  18.533  24.570  1.00  0.00     0.130 C 
ATOM     17  C   UNL A   1      32.205  18.251  23.226  1.00  0.00     0.024 C 
BRANCH  16  18
ATOM     18  C   UNL A   1      32.810  17.299  25.489  1.00  0.00     0.273 C 
BRANCH  18  19
ATOM     19  N   UNL A   1      32.207  16.086  24.926  1.00  0.00    -0.348 N 
ATOM     20  C   UNL A   1      32.545  14.871  25.659  1.00  0.00     0.330 C 
ATOM     21  H   UNL A   1      31.192  16.196  24.935  1.00  0.00     0.346 HD
ATOM     22  H   UNL A   1      32.578  15.979  23.982  1.00  0.00     0.346 HD
ENDBRANCH  18  19
ENDBRANCH  16  18
ENDBRANCH  13  16
ENDBRANCH   7  12
ENDBRANCH   3   6
ENDBRANCH   1   2
BRANCH   1  23
ATOM     23  C   UNL A   1      37.983  23.690  25.786  1.00  0.00     0.023 C 
BRANCH  23  24
ATOM     24  C   UNL A   1      38.627  22.325  26.079  1.00  0.00     0.023 C 
BRANCH  24  25
ATOM     25  C   UNL A   1      39.934  22.358  26.867  1.00  0.00     0.116 C 
BRANCH  25  26
ATOM     26  N   UNL A   1      41.142  22.117  26.080  1.00  0.00    -0.352 N 
ATOM     27  C   UNL A   1      42.083  23.050  25.655  1.00  0.00     0.251 C 
ATOM     28  H   UNL A   1      41.309  21.182  25.819  1.00  0.00     0.163 HD
ATOM     29  O   UNL A   1      42.891  22.784  24.788  1.00  0.00    -0.269 OA
BRANCH  27  30
ATOM     30  C   UNL A   1      42.073  24.395  26.276  1.00  0.00     0.039 A 
ATOM     31  C   UNL A   1      41.349  25.457  25.725  1.00  0.00     0.014 A 
ATOM     32  C   UNL A   1      42.788  24.574  27.455  1.00  0.00     0.014 A 
ATOM     33  C   UNL A   1      41.280  26.666  26.423  1.00  0.00     0.010 A 
ATOM     34  C   UNL A   1      42.589  25.697  28.216  1.00  0.00     0.010 A 
ATOM     35  C   UNL A   1      41.887  26.773  27.684  1.00  0.00    -0.014 A 
BRANCH  35  36
ATOM     36  C   UNL A   1      41.735  27.975  28.502  1.00  0.00     0.031 A 
ATOM     37  C   UNL A   1      42.774  29.029  28.306  1.00  0.00     0.074 A 
ATOM     38  C   UNL A   1      40.609  28.249  29.199  1.00  0.00     0.049 A 
ATOM     39  N   UNL A   1      43.603  29.504  29.176  1.00  0.00    -0.248 NA
ATOM     40  C   UNL A   1      42.964  29.565  26.949  1.00  0.00     0.031 C 
ATOM     41  C   UNL A   1      39.348  27.495  29.236  1.00  0.00     0.029 A 
ATOM     42  N   UNL A   1      40.314  29.351  29.941  1.00  0.00    -0.354 N 
ATOM     43  C   UNL A   1      44.298  30.528  28.533  1.00  0.00     0.074 A 
ATOM     44  C   UNL A   1      43.975  30.417  27.134  1.00  0.00     0.031 C 
ATOM     45  C   UNL A   1      38.371  28.272  29.749  1.00  0.00     0.029 A 
ATOM     46  C   UNL A   1      38.967  29.498  30.243  1.00  0.00     0.049 A 
ATOM     47  H   UNL A   1      41.000  29.992  30.238  1.00  0.00     0.167 HD
ATOM     48  C   UNL A   1      44.910  31.524  29.234  1.00  0.00     0.037 A 
ATOM     49  C   UNL A   1      38.379  30.564  30.838  1.00  0.00     0.037 A 
ATOM     50  C   UNL A   1      45.089  31.159  30.617  1.00  0.00     0.049 A 
ATOM     51  C   UNL A   1      39.447  31.337  31.516  1.00  0.00     0.074 A 
ATOM     52  C   UNL A   1      45.724  30.125  31.278  1.00  0.00     0.029 A 
ATOM     53  N   UNL A   1      44.254  31.725  31.549  1.00  0.00    -0.354 N 
ATOM     54  N   UNL A   1      40.096  30.919  32.566  1.00  0.00    -0.248 NA
ATOM     55  C   UNL A   1      40.092  32.401  30.764  1.00  0.00     0.031 C 
ATOM     56  C   UNL A   1      44.864  29.807  32.373  1.00  0.00     0.029 A 
ATOM     57  C   UNL A   1      43.798  30.705  32.343  1.00  0.00     0.049 A 
ATOM     58  H   UNL A   1      44.026  32.680  31.630  1.00  0.00     0.167 HD
ATOM     59  C   UNL A   1      41.400  31.342  32.362  1.00  0.00     0.074 A 
ATOM     60  C   UNL A   1      41.316  32.335  31.293  1.00  0.00     0.031 C 
ATOM     61  C   UNL A   1      42.456  30.644  32.873  1.00  0.00     0.037 A 
BRANCH  48  62
ATOM     62  C   UNL A   1      45.020  32.960  28.769  1.00  0.00     0.057 A 
ATOM     63  C   UNL A   1      43.844  33.702  28.542  1.00  0.00     0.134 A 
ATOM     64  C   UNL A   1      46.197  33.541  28.255  1.00  0.00     0.134 A 
ATOM     65  F   UNL A   1      42.654  33.257  28.971  1.00  0.00    -0.206 F 
ATOM     66  C   UNL A   1      43.831  34.883  27.786  1.00  0.00     0.040 A 
ATOM     67  C   UNL A   1      46.202  34.746  27.545  1.00  0.00     0.040 A 
ATOM     68  F   UNL A   1      47.386  32.931  28.318  1.00  0.00    -0.206 F 
ATOM     69  C   UNL A   1      45.014  35.403  27.278  1.00  0.00     0.006 A 
ENDBRANCH  48  62
BRANCH  49  70
ATOM     70  C   UNL A   1      37.015  31.105  30.663  1.00  0.00     0.057 A 
ATOM     71  C   UNL A   1      36.200  31.372  31.772  1.00  0.00     0.134 A 
ATOM     72  C   UNL A   1      36.588  31.641  29.436  1.00  0.00     0.134 A 
ATOM     73  F   UNL A   1      36.539  30.925  32.990  1.00  0.00    -0.206 F 
ATOM     74  C   UNL A   1      35.051  32.165  31.678  1.00  0.00     0.040 A 
ATOM     75  C   UNL A   1      35.437  32.430  29.327  1.00  0.00     0.040 A 
ATOM     76  F   UNL A   1      37.321  31.498  28.323  1.00  0.00    -0.206 F 
ATOM     77  C   UNL A   1      34.675  32.710  30.455  1.00  0.00     0.006 A 
ENDBRANCH  49  70
BRANCH  61  78
ATOM     78  C   UNL A   1      42.165  29.560  33.877  1.00  0.00     0.057 A 
ATOM     79  C   UNL A   1      41.889  28.225  33.541  1.00  0.00     0.134 A 
ATOM     80  C   UNL A   1      42.294  29.851  35.239  1.00  0.00     0.134 A 
ATOM     81  F   UNL A   1      41.851  27.823  32.265  1.00  0.00    -0.206 F 
ATOM     82  C   UNL A   1      41.695  27.242  34.516  1.00  0.00     0.040 A 
ATOM     83  C   UNL A   1      42.138  28.871  36.221  1.00  0.00     0.040 A 
ATOM     84  F   UNL A   1      42.616  31.093  35.638  1.00  0.00    -0.206 F 
ATOM     85  C   UNL A   1      41.824  27.564  35.862  1.00  0.00     0.006 A 
ENDBRANCH  61  78
ENDBRANCH  35  36
ENDBRANCH  27  30
ENDBRANCH  25  26
ENDBRANCH  24  25
ENDBRANCH  23  24
ENDBRANCH   1  23
TORSDOF 15
ENDMDL
MODEL 3
REMARK VINA RESULT:     -10.3      1.298      2.641
REMARK SMILES C[NH2+]C[C@H](C)C(=O)Nc1snc(C)c1C(=O)NCCCCNC(=O)c1ccc(-c2c3nc(c(-c4c(F)cccc4F)c4ccc([nH]4)c(-c4c(F)cccc4F)c4nc(c(-c5c(F)cccc5F)c5ccc2[nH]5)C=C4)C=C3)cc1
REMARK SMILES IDX 18 1 17 2 15 3 16 4 14 6 9 7 10 8 11 9 12 10 13 11 8 12 6 13
REMARK SMILES IDX 7 14 4 16 5 17 3 18 2 19 1 20 19 23 20 24 21 25 22 26 23 27
REMARK SMILES IDX 24 29 25 30 26 31 78 32 27 33 77 34 28 35 29 36 30 37 71 38
REMARK SMILES IDX 31 39 76 40 70 41 72 42 32 43 75 44 69 45 68 46 33 48 59 49
REMARK SMILES IDX 42 50 58 51 43 52 46 53 57 54 73 55 44 56 45 57 56 59 74 60
REMARK SMILES IDX 47 61 34 62 35 63 40 64 36 65 37 66 39 67 41 68 38 69 60 70
REMARK SMILES IDX 61 71 66 72 62 73 63 74 65 75 67 76 64 77 48 78 49 79 54 80
REMARK SMILES IDX 50 81 51 82 53 83 55 84 52 85
REMARK H PARENT 17 5 8 15 2 21 2 22 22 28 72 47 46 58
REMARK Flexibility Score: inf
ROOT
ATOM      1  C   UNL A   1      34.359  28.924  26.071  1.00  0.00     0.116 C 
ENDROOT
BRANCH   1   2
ATOM      2  N   UNL A   1      33.323  29.452  25.208  1.00  0.00    -0.352 N 
ATOM      3  C   UNL A   1      32.108  28.924  24.806  1.00  0.00     0.256 C 
ATOM      4  O   UNL A   1      31.415  29.675  24.118  1.00  0.00    -0.269 OA
ATOM      5  H   UNL A   1      33.517  30.345  24.841  1.00  0.00     0.163 HD
BRANCH   3   6
ATOM      6  C   UNL A   1      31.663  27.550  25.099  1.00  0.00     0.097 A 
ATOM      7  C   UNL A   1      31.623  26.425  24.292  1.00  0.00     0.129 A 
ATOM      8  S   UNL A   1      30.569  25.268  24.973  1.00  0.00    -0.017 S 
ATOM      9  N   UNL A   1      30.544  25.949  26.468  1.00  0.00    -0.195 NA
ATOM     10  C   UNL A   1      31.190  27.118  26.421  1.00  0.00     0.066 A 
ATOM     11  C   UNL A   1      31.327  27.837  27.724  1.00  0.00     0.069 C 
BRANCH   7  12
ATOM     12  N   UNL A   1      32.128  26.032  23.086  1.00  0.00    -0.315 N 
ATOM     13  C   UNL A   1      33.346  25.502  22.801  1.00  0.00     0.233 C 
ATOM     14  O   UNL A   1      33.727  25.596  21.627  1.00  0.00    -0.274 OA
ATOM     15  H   UNL A   1      31.526  26.151  22.316  1.00  0.00     0.170 HD
BRANCH  13  16
ATOM     16  C   UNL A   1      34.153  24.654  23.785  1.00  0.00     0.130 C 
ATOM     17  C   UNL A   1      34.437  25.242  25.157  1.00  0.00     0.024 C 
BRANCH  16  18
ATOM     18  C   UNL A   1      33.571  23.234  23.890  1.00  0.00     0.273 C 
BRANCH  18  19
ATOM     19  N   UNL A   1      33.696  22.570  25.192  1.00  0.00    -0.348 N 
ATOM     20  C   UNL A   1      32.435  22.045  25.704  1.00  0.00     0.330 C 
ATOM     21  H   UNL A   1      34.352  21.795  25.098  1.00  0.00     0.346 HD
ATOM     22  H   UNL A   1      34.017  23.274  25.857  1.00  0.00     0.346 HD
ENDBRANCH  18  19
ENDBRANCH  16  18
ENDBRANCH  13  16
ENDBRANCH   7  12
ENDBRANCH   3   6
ENDBRANCH   1   2
BRANCH   1  23
ATOM     23  C   UNL A   1      34.804  29.809  27.240  1.00  0.00     0.023 C 
BRANCH  23  24
ATOM     24  C   UNL A   1      33.863  30.954  27.647  1.00  0.00     0.023 C 
BRANCH  24  25
ATOM     25  C   UNL A   1      34.539  32.249  28.090  1.00  0.00     0.116 C 
BRANCH  25  26
ATOM     26  N   UNL A   1      34.400  32.570  29.510  1.00  0.00    -0.352 N 
ATOM     27  C   UNL A   1      35.170  32.098  30.569  1.00  0.00     0.251 C 
ATOM     28  H   UNL A   1      33.675  33.194  29.744  1.00  0.00     0.163 HD
ATOM     29  O   UNL A   1      34.800  32.214  31.721  1.00  0.00    -0.269 OA
BRANCH  27  30
ATOM     30  C   UNL A   1      36.457  31.430  30.264  1.00  0.00     0.039 A 
ATOM     31  C   UNL A   1      37.607  32.157  29.943  1.00  0.00     0.014 A 
ATOM     32  C   UNL A   1      36.503  30.043  30.335  1.00  0.00     0.014 A 
ATOM     33  C   UNL A   1      38.818  31.476  29.786  1.00  0.00     0.010 A 
ATOM     34  C   UNL A   1      37.712  29.395  30.344  1.00  0.00     0.010 A 
ATOM     35  C   UNL A   1      38.868  30.091  30.010  1.00  0.00    -0.014 A 
BRANCH  35  36
ATOM     36  C   UNL A   1      40.134  29.361  29.980  1.00  0.00     0.031 A 
ATOM     37  C   UNL A   1      40.773  29.115  31.306  1.00  0.00     0.074 A 
ATOM     38  C   UNL A   1      40.584  28.721  28.877  1.00  0.00     0.049 A 
ATOM     39  N   UNL A   1      41.929  29.517  31.722  1.00  0.00    -0.248 NA
ATOM     40  C   UNL A   1      39.992  28.394  32.324  1.00  0.00     0.031 C 
ATOM     41  C   UNL A   1      39.922  28.563  27.574  1.00  0.00     0.029 A 
ATOM     42  N   UNL A   1      41.702  27.959  28.731  1.00  0.00    -0.354 N 
ATOM     43  C   UNL A   1      42.106  28.951  32.985  1.00  0.00     0.074 A 
ATOM     44  C   UNL A   1      40.830  28.404  33.363  1.00  0.00     0.031 C 
ATOM     45  C   UNL A   1      40.521  27.575  26.877  1.00  0.00     0.029 A 
ATOM     46  C   UNL A   1      41.711  27.160  27.595  1.00  0.00     0.049 A 
ATOM     47  H   UNL A   1      42.444  27.973  29.379  1.00  0.00     0.167 HD
ATOM     48  C   UNL A   1      43.348  28.784  33.523  1.00  0.00     0.037 A 
ATOM     49  C   UNL A   1      42.621  26.208  27.279  1.00  0.00     0.037 A 
ATOM     50  C   UNL A   1      44.326  29.599  32.848  1.00  0.00     0.049 A 
ATOM     51  C   UNL A   1      43.833  26.465  28.093  1.00  0.00     0.074 A 
ATOM     52  C   UNL A   1      44.470  30.953  32.608  1.00  0.00     0.029 A 
ATOM     53  N   UNL A   1      45.190  28.984  31.975  1.00  0.00    -0.354 N 
ATOM     54  N   UNL A   1      44.622  27.488  27.925  1.00  0.00    -0.248 NA
ATOM     55  C   UNL A   1      43.931  25.806  29.385  1.00  0.00     0.031 C 
ATOM     56  C   UNL A   1      44.995  31.036  31.283  1.00  0.00     0.029 A 
ATOM     57  C   UNL A   1      45.194  29.733  30.828  1.00  0.00     0.049 A 
ATOM     58  H   UNL A   1      45.707  28.162  32.142  1.00  0.00     0.167 HD
ATOM     59  C   UNL A   1      44.983  27.867  29.208  1.00  0.00     0.074 A 
ATOM     60  C   UNL A   1      44.615  26.735  30.056  1.00  0.00     0.031 C 
ATOM     61  C   UNL A   1      45.281  29.166  29.503  1.00  0.00     0.037 A 
BRANCH  48  62
ATOM     62  C   UNL A   1      43.751  27.625  34.409  1.00  0.00     0.057 A 
ATOM     63  C   UNL A   1      44.264  27.886  35.693  1.00  0.00     0.134 A 
ATOM     64  C   UNL A   1      43.937  26.304  33.953  1.00  0.00     0.134 A 
ATOM     65  F   UNL A   1      44.162  29.106  36.242  1.00  0.00    -0.206 F 
ATOM     66  C   UNL A   1      44.983  26.932  36.428  1.00  0.00     0.040 A 
ATOM     67  C   UNL A   1      44.606  25.329  34.699  1.00  0.00     0.040 A 
ATOM     68  F   UNL A   1      43.577  25.910  32.726  1.00  0.00    -0.206 F 
ATOM     69  C   UNL A   1      45.163  25.650  35.926  1.00  0.00     0.006 A 
ENDBRANCH  48  62
BRANCH  49  70
ATOM     70  C   UNL A   1      42.444  24.953  26.518  1.00  0.00     0.057 A 
ATOM     71  C   UNL A   1      43.270  24.652  25.426  1.00  0.00     0.134 A 
ATOM     72  C   UNL A   1      41.663  23.895  27.015  1.00  0.00     0.134 A 
ATOM     73  F   UNL A   1      44.071  25.589  24.900  1.00  0.00    -0.206 F 
ATOM     74  C   UNL A   1      43.350  23.363  24.886  1.00  0.00     0.040 A 
ATOM     75  C   UNL A   1      41.729  22.604  26.480  1.00  0.00     0.040 A 
ATOM     76  F   UNL A   1      40.882  24.056  28.093  1.00  0.00    -0.206 F 
ATOM     77  C   UNL A   1      42.589  22.330  25.424  1.00  0.00     0.006 A 
ENDBRANCH  49  70
BRANCH  61  78
ATOM     78  C   UNL A   1      45.461  30.126  28.357  1.00  0.00     0.057 A 
ATOM     79  C   UNL A   1      44.418  30.864  27.773  1.00  0.00     0.134 A 
ATOM     80  C   UNL A   1      46.756  30.408  27.912  1.00  0.00     0.134 A 
ATOM     81  F   UNL A   1      43.157  30.746  28.203  1.00  0.00    -0.206 F 
ATOM     82  C   UNL A   1      44.651  31.795  26.757  1.00  0.00     0.040 A 
ATOM     83  C   UNL A   1      47.006  31.361  26.923  1.00  0.00     0.040 A 
ATOM     84  F   UNL A   1      47.812  29.786  28.463  1.00  0.00    -0.206 F 
ATOM     85  C   UNL A   1      45.950  32.050  26.331  1.00  0.00     0.006 A 
ENDBRANCH  61  78
ENDBRANCH  35  36
ENDBRANCH  27  30
ENDBRANCH  25  26
ENDBRANCH  24  25
ENDBRANCH  23  24
ENDBRANCH   1  23
TORSDOF 15
ENDMDL
