MODEL 1
REMARK VINA RESULT:     -13.0      0.000      0.000
REMARK SMILES Cc1cc(C(=O)NCCCCNC(=O)c2ccc(-c3c4nc(c(-c5c(F)cccc5F)c5ccc([nH]5)c(-c5c(F)cccc5F)c5nc(c(-c6c(F)cccc6F)c6ccc3[nH]6)C=C5)C=C4)cc2)ccc1-c1ccc(C(=O)N2CCCCC2)cc1
REMARK SMILES IDX 9 1 8 2 7 3 5 4 6 5 4 7 1 8 2 9 3 10 71 11 70 12 69 13 72 14
REMARK SMILES IDX 73 15 85 16 74 17 84 18 75 19 76 20 77 21 78 22 79 23 83 24
REMARK SMILES IDX 80 25 82 26 81 27 10 28 11 29 12 30 13 31 14 33 15 34 16 35
REMARK SMILES IDX 68 36 17 37 67 38 18 39 19 40 20 41 61 42 21 43 66 44 60 45
REMARK SMILES IDX 62 46 22 47 65 48 59 49 58 50 23 52 49 53 32 54 48 55 33 56
REMARK SMILES IDX 36 57 47 58 63 59 34 60 35 61 46 63 64 64 37 65 24 66 25 67
REMARK SMILES IDX 30 68 26 69 27 70 29 71 31 72 28 73 50 74 51 75 56 76 52 77
REMARK SMILES IDX 53 78 55 79 57 80 54 81 38 82 39 83 44 84 40 85 41 86 43 87
REMARK SMILES IDX 45 88 42 89
REMARK H PARENT 7 6 12 32 62 51 36 62
REMARK Flexibility Score: inf
ROOT
ATOM      1  C   UNL A   1      33.010  36.188  30.018  1.00  0.00     0.023 C 
ENDROOT
BRANCH   1   2
ATOM      2  C   UNL A   1      33.311  34.813  29.397  1.00  0.00     0.116 C 
BRANCH   2   3
ATOM      3  N   UNL A   1      34.725  34.631  29.126  1.00  0.00    -0.352 N 
ATOM      4  C   UNL A   1      35.459  33.606  28.586  1.00  0.00     0.251 C 
ATOM      5  O   UNL A   1      36.668  33.811  28.451  1.00  0.00    -0.269 OA
ATOM      6  H   UNL A   1      35.273  35.407  29.385  1.00  0.00     0.163 HD
BRANCH   4   7
ATOM      7  C   UNL A   1      34.896  32.293  28.149  1.00  0.00     0.040 A 
ATOM      8  C   UNL A   1      31.625  31.270  26.476  1.00  0.00     0.045 C 
ATOM      9  C   UNL A   1      32.986  31.134  27.108  1.00  0.00    -0.042 A 
ATOM     10  C   UNL A   1      33.612  32.308  27.577  1.00  0.00     0.018 A 
ATOM     11  C   UNL A   1      33.669  29.905  27.201  1.00  0.00    -0.015 A 
ATOM     12  C   UNL A   1      34.951  29.897  27.765  1.00  0.00     0.010 A 
ATOM     13  C   UNL A   1      35.556  31.070  28.220  1.00  0.00     0.014 A 
BRANCH  11  14
ATOM     14  C   UNL A   1      33.118  28.631  26.725  1.00  0.00    -0.018 A 
ATOM     15  C   UNL A   1      31.964  28.093  27.307  1.00  0.00     0.009 A 
ATOM     16  C   UNL A   1      33.735  27.931  25.677  1.00  0.00     0.009 A 
ATOM     17  C   UNL A   1      31.469  26.855  26.892  1.00  0.00     0.014 A 
ATOM     18  C   UNL A   1      33.227  26.704  25.243  1.00  0.00     0.014 A 
ATOM     19  C   UNL A   1      32.093  26.155  25.851  1.00  0.00     0.040 A 
BRANCH  19  20
ATOM     20  C   UNL A   1      31.716  24.752  25.521  1.00  0.00     0.253 C 
ATOM     21  O   UNL A   1      30.625  24.555  24.987  1.00  0.00    -0.269 OA
ATOM     22  N   UNL A   1      32.650  23.737  25.691  1.00  0.00    -0.339 N 
ATOM     23  C   UNL A   1      32.706  22.681  24.691  1.00  0.00     0.120 C 
ATOM     24  C   UNL A   1      33.562  23.618  26.828  1.00  0.00     0.120 C 
ATOM     25  C   UNL A   1      32.589  21.298  25.313  1.00  0.00     0.022 C 
ATOM     26  C   UNL A   1      33.461  22.234  27.473  1.00  0.00     0.022 C 
ATOM     27  C   UNL A   1      33.608  21.122  26.434  1.00  0.00     0.004 C 
ENDBRANCH  19  20
ENDBRANCH  11  14
ENDBRANCH   4   7
ENDBRANCH   2   3
ENDBRANCH   1   2
BRANCH   1  28
ATOM     28  C   UNL A   1      33.492  36.357  31.461  1.00  0.00     0.023 C 
BRANCH  28  29
ATOM     29  C   UNL A   1      33.080  35.212  32.375  1.00  0.00     0.116 C 
BRANCH  29  30
ATOM     30  N   UNL A   1      33.872  35.089  33.592  1.00  0.00    -0.352 N 
ATOM     31  C   UNL A   1      34.998  34.316  33.849  1.00  0.00     0.251 C 
ATOM     32  H   UNL A   1      33.559  35.635  34.349  1.00  0.00     0.163 HD
ATOM     33  O   UNL A   1      35.470  34.287  34.967  1.00  0.00    -0.269 OA
BRANCH  31  34
ATOM     34  C   UNL A   1      35.715  33.661  32.720  1.00  0.00     0.039 A 
ATOM     35  C   UNL A   1      35.556  32.276  32.581  1.00  0.00     0.014 A 
ATOM     36  C   UNL A   1      36.709  34.320  32.005  1.00  0.00     0.014 A 
ATOM     37  C   UNL A   1      36.571  31.529  31.991  1.00  0.00     0.010 A 
ATOM     38  C   UNL A   1      37.771  33.579  31.524  1.00  0.00     0.010 A 
ATOM     39  C   UNL A   1      37.738  32.183  31.604  1.00  0.00    -0.014 A 
BRANCH  39  40
ATOM     40  C   UNL A   1      39.020  31.497  31.476  1.00  0.00     0.031 A 
ATOM     41  C   UNL A   1      39.163  30.292  30.636  1.00  0.00     0.074 A 
ATOM     42  C   UNL A   1      40.111  32.060  32.041  1.00  0.00     0.049 A 
ATOM     43  N   UNL A   1      40.129  29.443  30.733  1.00  0.00    -0.248 NA
ATOM     44  C   UNL A   1      38.171  29.919  29.637  1.00  0.00     0.031 C 
ATOM     45  C   UNL A   1      41.513  31.750  31.774  1.00  0.00     0.029 A 
ATOM     46  N   UNL A   1      40.151  32.920  33.149  1.00  0.00    -0.354 N 
ATOM     47  C   UNL A   1      40.061  28.600  29.645  1.00  0.00     0.074 A 
ATOM     48  C   UNL A   1      38.772  28.878  29.056  1.00  0.00     0.031 C 
ATOM     49  C   UNL A   1      42.254  32.162  32.814  1.00  0.00     0.029 A 
ATOM     50  C   UNL A   1      41.337  32.607  33.848  1.00  0.00     0.049 A 
ATOM     51  H   UNL A   1      39.487  33.604  33.391  1.00  0.00     0.167 HD
ATOM     52  C   UNL A   1      41.169  27.879  29.296  1.00  0.00     0.037 A 
ATOM     53  C   UNL A   1      41.299  32.110  35.118  1.00  0.00     0.037 A 
ATOM     54  C   UNL A   1      42.222  28.019  30.308  1.00  0.00     0.049 A 
ATOM     55  C   UNL A   1      41.914  30.736  35.263  1.00  0.00     0.074 A 
ATOM     56  C   UNL A   1      43.374  28.787  30.368  1.00  0.00     0.029 A 
ATOM     57  N   UNL A   1      42.014  27.528  31.594  1.00  0.00    -0.354 N 
ATOM     58  N   UNL A   1      42.160  29.942  34.258  1.00  0.00    -0.248 NA
ATOM     59  C   UNL A   1      42.265  30.133  36.546  1.00  0.00     0.031 C 
ATOM     60  C   UNL A   1      43.820  28.812  31.712  1.00  0.00     0.029 A 
ATOM     61  C   UNL A   1      42.952  28.043  32.468  1.00  0.00     0.049 A 
ATOM     62  H   UNL A   1      41.298  26.901  31.846  1.00  0.00     0.167 HD
ATOM     63  C   UNL A   1      42.642  28.748  34.724  1.00  0.00     0.074 A 
ATOM     64  C   UNL A   1      42.716  28.926  36.161  1.00  0.00     0.031 C 
ATOM     65  C   UNL A   1      42.918  27.707  33.884  1.00  0.00     0.037 A 
BRANCH  52  66
ATOM     66  C   UNL A   1      41.427  27.316  27.903  1.00  0.00     0.057 A 
ATOM     67  C   UNL A   1      41.614  25.930  27.712  1.00  0.00     0.134 A 
ATOM     68  C   UNL A   1      41.594  28.070  26.728  1.00  0.00     0.134 A 
ATOM     69  F   UNL A   1      41.364  25.042  28.682  1.00  0.00    -0.206 F 
ATOM     70  C   UNL A   1      42.066  25.372  26.506  1.00  0.00     0.040 A 
ATOM     71  C   UNL A   1      42.086  27.534  25.527  1.00  0.00     0.040 A 
ATOM     72  F   UNL A   1      41.227  29.351  26.648  1.00  0.00    -0.206 F 
ATOM     73  C   UNL A   1      42.346  26.180  25.418  1.00  0.00     0.006 A 
ENDBRANCH  52  66
BRANCH  53  74
ATOM     74  C   UNL A   1      40.156  32.619  35.918  1.00  0.00     0.057 A 
ATOM     75  C   UNL A   1      38.990  31.836  35.998  1.00  0.00     0.134 A 
ATOM     76  C   UNL A   1      40.312  33.628  36.873  1.00  0.00     0.134 A 
ATOM     77  F   UNL A   1      38.781  30.847  35.115  1.00  0.00    -0.206 F 
ATOM     78  C   UNL A   1      38.075  31.978  37.044  1.00  0.00     0.040 A 
ATOM     79  C   UNL A   1      39.397  33.784  37.921  1.00  0.00     0.040 A 
ATOM     80  F   UNL A   1      41.410  34.397  36.878  1.00  0.00    -0.206 F 
ATOM     81  C   UNL A   1      38.297  32.935  38.030  1.00  0.00     0.006 A 
ENDBRANCH  53  74
BRANCH  65  82
ATOM     82  C   UNL A   1      43.248  26.300  34.309  1.00  0.00     0.057 A 
ATOM     83  C   UNL A   1      44.535  25.745  34.260  1.00  0.00     0.134 A 
ATOM     84  C   UNL A   1      42.270  25.500  34.941  1.00  0.00     0.134 A 
ATOM     85  F   UNL A   1      45.578  26.436  33.779  1.00  0.00    -0.206 F 
ATOM     86  C   UNL A   1      44.819  24.467  34.759  1.00  0.00     0.040 A 
ATOM     87  C   UNL A   1      42.554  24.246  35.488  1.00  0.00     0.040 A 
ATOM     88  F   UNL A   1      41.001  25.915  35.073  1.00  0.00    -0.206 F 
ATOM     89  C   UNL A   1      43.831  23.718  35.387  1.00  0.00     0.006 A 
ENDBRANCH  65  82
ENDBRANCH  39  40
ENDBRANCH  31  34
ENDBRANCH  29  30
ENDBRANCH  28  29
ENDBRANCH   1  28
TORSDOF 13
ENDMDL
MODEL 2
REMARK VINA RESULT:     -12.9      3.084      5.280
REMARK SMILES Cc1cc(C(=O)NCCCCNC(=O)c2ccc(-c3c4nc(c(-c5c(F)cccc5F)c5ccc([nH]5)c(-c5c(F)cccc5F)c5nc(c(-c6c(F)cccc6F)c6ccc3[nH]6)C=C5)C=C4)cc2)ccc1-c1ccc(C(=O)N2CCCCC2)cc1
REMARK SMILES IDX 9 1 8 2 7 3 5 4 6 5 4 7 1 8 2 9 3 10 71 11 70 12 69 13 72 14
REMARK SMILES IDX 73 15 85 16 74 17 84 18 75 19 76 20 77 21 78 22 79 23 83 24
REMARK SMILES IDX 80 25 82 26 81 27 10 28 11 29 12 30 13 31 14 33 15 34 16 35
REMARK SMILES IDX 68 36 17 37 67 38 18 39 19 40 20 41 61 42 21 43 66 44 60 45
REMARK SMILES IDX 62 46 22 47 65 48 59 49 58 50 23 52 49 53 32 54 48 55 33 56
REMARK SMILES IDX 36 57 47 58 63 59 34 60 35 61 46 63 64 64 37 65 24 66 25 67
REMARK SMILES IDX 30 68 26 69 27 70 29 71 31 72 28 73 50 74 51 75 56 76 52 77
REMARK SMILES IDX 53 78 55 79 57 80 54 81 38 82 39 83 44 84 40 85 41 86 43 87
REMARK SMILES IDX 45 88 42 89
REMARK H PARENT 7 6 12 32 62 51 36 62
REMARK Flexibility Score: inf
ROOT
ATOM      1  C   UNL A   1      33.255  29.621  26.745  1.00  0.00     0.023 C 
ENDROOT
BRANCH   1   2
ATOM      2  C   UNL A   1      32.186  30.726  26.714  1.00  0.00     0.116 C 
BRANCH   2   3
ATOM      3  N   UNL A   1      31.379  30.675  25.509  1.00  0.00    -0.352 N 
ATOM      4  C   UNL A   1      31.088  29.682  24.608  1.00  0.00     0.251 C 
ATOM      5  O   UNL A   1      30.305  29.978  23.701  1.00  0.00    -0.269 OA
ATOM      6  H   UNL A   1      30.950  31.535  25.292  1.00  0.00     0.163 HD
BRANCH   4   7
ATOM      7  C   UNL A   1      31.637  28.294  24.663  1.00  0.00     0.040 A 
ATOM      8  C   UNL A   1      30.336  25.016  26.115  1.00  0.00     0.045 C 
ATOM      9  C   UNL A   1      31.265  25.978  25.421  1.00  0.00    -0.042 A 
ATOM     10  C   UNL A   1      30.860  27.326  25.323  1.00  0.00     0.018 A 
ATOM     11  C   UNL A   1      32.479  25.579  24.828  1.00  0.00    -0.015 A 
ATOM     12  C   UNL A   1      33.246  26.546  24.165  1.00  0.00     0.010 A 
ATOM     13  C   UNL A   1      32.827  27.875  24.076  1.00  0.00     0.014 A 
BRANCH  11  14
ATOM     14  C   UNL A   1      32.981  24.201  24.853  1.00  0.00    -0.018 A 
ATOM     15  C   UNL A   1      33.693  23.722  25.960  1.00  0.00     0.009 A 
ATOM     16  C   UNL A   1      32.756  23.337  23.770  1.00  0.00     0.009 A 
ATOM     17  C   UNL A   1      34.217  22.428  25.963  1.00  0.00     0.014 A 
ATOM     18  C   UNL A   1      33.257  22.033  23.782  1.00  0.00     0.014 A 
ATOM     19  C   UNL A   1      33.997  21.571  24.877  1.00  0.00     0.040 A 
BRANCH  19  20
ATOM     20  C   UNL A   1      34.705  20.265  24.758  1.00  0.00     0.253 C 
ATOM     21  O   UNL A   1      35.925  20.251  24.911  1.00  0.00    -0.269 OA
ATOM     22  N   UNL A   1      33.963  19.098  24.621  1.00  0.00    -0.339 N 
ATOM     23  C   UNL A   1      34.418  17.909  25.327  1.00  0.00     0.120 C 
ATOM     24  C   UNL A   1      32.773  18.953  23.783  1.00  0.00     0.120 C 
ATOM     25  C   UNL A   1      34.578  16.718  24.395  1.00  0.00     0.022 C 
ATOM     26  C   UNL A   1      32.911  17.761  22.833  1.00  0.00     0.022 C 
ATOM     27  C   UNL A   1      33.304  16.490  23.587  1.00  0.00     0.004 C 
ENDBRANCH  19  20
ENDBRANCH  11  14
ENDBRANCH   4   7
ENDBRANCH   2   3
ENDBRANCH   1   2
BRANCH   1  28
ATOM     28  C   UNL A   1      34.629  30.076  27.243  1.00  0.00     0.023 C 
BRANCH  28  29
ATOM     29  C   UNL A   1      34.565  30.955  28.483  1.00  0.00     0.116 C 
BRANCH  29  30
ATOM     30  N   UNL A   1      35.723  31.817  28.681  1.00  0.00    -0.352 N 
ATOM     31  C   UNL A   1      37.058  31.486  28.878  1.00  0.00     0.251 C 
ATOM     32  H   UNL A   1      35.529  32.782  28.677  1.00  0.00     0.163 HD
ATOM     33  O   UNL A   1      37.870  32.356  29.111  1.00  0.00    -0.269 OA
BRANCH  31  34
ATOM     34  C   UNL A   1      37.512  30.087  28.641  1.00  0.00     0.039 A 
ATOM     35  C   UNL A   1      37.574  29.239  29.754  1.00  0.00     0.014 A 
ATOM     36  C   UNL A   1      38.110  29.706  27.445  1.00  0.00     0.014 A 
ATOM     37  C   UNL A   1      38.485  28.187  29.760  1.00  0.00     0.010 A 
ATOM     38  C   UNL A   1      39.097  28.740  27.484  1.00  0.00     0.010 A 
ATOM     39  C   UNL A   1      39.344  28.046  28.673  1.00  0.00    -0.014 A 
BRANCH  39  40
ATOM     40  C   UNL A   1      40.633  27.366  28.770  1.00  0.00     0.031 A 
ATOM     41  C   UNL A   1      40.757  25.922  28.496  1.00  0.00     0.074 A 
ATOM     42  C   UNL A   1      41.739  28.111  28.990  1.00  0.00     0.049 A 
ATOM     43  N   UNL A   1      41.744  25.187  28.882  1.00  0.00    -0.248 NA
ATOM     44  C   UNL A   1      39.724  25.170  27.797  1.00  0.00     0.031 C 
ATOM     45  C   UNL A   1      43.131  27.715  28.798  1.00  0.00     0.029 A 
ATOM     46  N   UNL A   1      41.817  29.352  29.639  1.00  0.00    -0.354 N 
ATOM     47  C   UNL A   1      41.639  23.969  28.246  1.00  0.00     0.074 A 
ATOM     48  C   UNL A   1      40.316  23.981  27.667  1.00  0.00     0.031 C 
ATOM     49  C   UNL A   1      43.916  28.519  29.531  1.00  0.00     0.029 A 
ATOM     50  C   UNL A   1      43.043  29.354  30.338  1.00  0.00     0.049 A 
ATOM     51  H   UNL A   1      41.152  30.076  29.612  1.00  0.00     0.167 HD
ATOM     52  C   UNL A   1      42.742  23.166  28.165  1.00  0.00     0.037 A 
ATOM     53  C   UNL A   1      43.081  29.427  31.700  1.00  0.00     0.037 A 
ATOM     54  C   UNL A   1      43.843  23.711  28.969  1.00  0.00     0.049 A 
ATOM     55  C   UNL A   1      43.732  28.236  32.365  1.00  0.00     0.074 A 
ATOM     56  C   UNL A   1      44.979  24.432  28.641  1.00  0.00     0.029 A 
ATOM     57  N   UNL A   1      43.711  23.797  30.352  1.00  0.00    -0.354 N 
ATOM     58  N   UNL A   1      43.942  27.096  31.766  1.00  0.00    -0.248 NA
ATOM     59  C   UNL A   1      44.160  28.217  33.762  1.00  0.00     0.031 C 
ATOM     60  C   UNL A   1      45.493  25.011  29.828  1.00  0.00     0.029 A 
ATOM     61  C   UNL A   1      44.682  24.625  30.881  1.00  0.00     0.049 A 
ATOM     62  H   UNL A   1      43.022  23.331  30.879  1.00  0.00     0.167 HD
ATOM     63  C   UNL A   1      44.472  26.201  32.657  1.00  0.00     0.074 A 
ATOM     64  C   UNL A   1      44.616  26.958  33.886  1.00  0.00     0.031 C 
ATOM     65  C   UNL A   1      44.727  24.906  32.309  1.00  0.00     0.037 A 
BRANCH  52  66
ATOM     66  C   UNL A   1      42.941  22.077  27.117  1.00  0.00     0.057 A 
ATOM     67  C   UNL A   1      42.203  20.875  27.183  1.00  0.00     0.134 A 
ATOM     68  C   UNL A   1      43.890  22.095  26.080  1.00  0.00     0.134 A 
ATOM     69  F   UNL A   1      41.166  20.726  28.016  1.00  0.00    -0.206 F 
ATOM     70  C   UNL A   1      42.486  19.752  26.389  1.00  0.00     0.040 A 
ATOM     71  C   UNL A   1      44.213  20.968  25.306  1.00  0.00     0.040 A 
ATOM     72  F   UNL A   1      44.509  23.215  25.704  1.00  0.00    -0.206 F 
ATOM     73  C   UNL A   1      43.523  19.780  25.474  1.00  0.00     0.006 A 
ENDBRANCH  52  66
BRANCH  53  74
ATOM     74  C   UNL A   1      41.970  30.224  32.280  1.00  0.00     0.057 A 
ATOM     75  C   UNL A   1      40.834  29.546  32.756  1.00  0.00     0.134 A 
ATOM     76  C   UNL A   1      42.150  31.543  32.707  1.00  0.00     0.134 A 
ATOM     77  F   UNL A   1      40.604  28.275  32.388  1.00  0.00    -0.206 F 
ATOM     78  C   UNL A   1      39.975  30.115  33.699  1.00  0.00     0.040 A 
ATOM     79  C   UNL A   1      41.290  32.126  33.646  1.00  0.00     0.040 A 
ATOM     80  F   UNL A   1      43.223  32.245  32.318  1.00  0.00    -0.206 F 
ATOM     81  C   UNL A   1      40.223  31.400  34.172  1.00  0.00     0.006 A 
ENDBRANCH  53  74
BRANCH  65  82
ATOM     82  C   UNL A   1      45.109  23.800  33.259  1.00  0.00     0.057 A 
ATOM     83  C   UNL A   1      46.374  23.671  33.848  1.00  0.00     0.134 A 
ATOM     84  C   UNL A   1      44.128  22.900  33.732  1.00  0.00     0.134 A 
ATOM     85  F   UNL A   1      47.369  24.524  33.565  1.00  0.00    -0.206 F 
ATOM     86  C   UNL A   1      46.658  22.687  34.805  1.00  0.00     0.040 A 
ATOM     87  C   UNL A   1      44.388  21.948  34.722  1.00  0.00     0.040 A 
ATOM     88  F   UNL A   1      42.869  22.923  33.267  1.00  0.00    -0.206 F 
ATOM     89  C   UNL A   1      45.661  21.830  35.255  1.00  0.00     0.006 A 
ENDBRANCH  65  82
ENDBRANCH  39  40
ENDBRANCH  31  34
ENDBRANCH  29  30
ENDBRANCH  28  29
ENDBRANCH   1  28
TORSDOF 13
ENDMDL
MODEL 3
REMARK VINA RESULT:     -12.9      1.948      3.329
REMARK SMILES Cc1cc(C(=O)NCCCCNC(=O)c2ccc(-c3c4nc(c(-c5c(F)cccc5F)c5ccc([nH]5)c(-c5c(F)cccc5F)c5nc(c(-c6c(F)cccc6F)c6ccc3[nH]6)C=C5)C=C4)cc2)ccc1-c1ccc(C(=O)N2CCCCC2)cc1
REMARK SMILES IDX 9 1 8 2 7 3 5 4 6 5 4 7 1 8 2 9 3 10 71 11 70 12 69 13 72 14
REMARK SMILES IDX 73 15 85 16 74 17 84 18 75 19 76 20 77 21 78 22 79 23 83 24
REMARK SMILES IDX 80 25 82 26 81 27 10 28 11 29 12 30 13 31 14 33 15 34 16 35
REMARK SMILES IDX 68 36 17 37 67 38 18 39 19 40 20 41 61 42 21 43 66 44 60 45
REMARK SMILES IDX 62 46 22 47 65 48 59 49 58 50 23 52 49 53 32 54 48 55 33 56
REMARK SMILES IDX 36 57 47 58 63 59 34 60 35 61 46 63 64 64 37 65 24 66 25 67
REMARK SMILES IDX 30 68 26 69 27 70 29 71 31 72 28 73 50 74 51 75 56 76 52 77
REMARK SMILES IDX 53 78 55 79 57 80 54 81 38 82 39 83 44 84 40 85 41 86 43 87
REMARK SMILES IDX 45 88 42 89
REMARK H PARENT 7 6 12 32 62 51 36 62
REMARK Flexibility Score: inf
ROOT
ATOM      1  C   UNL A   1      34.972  31.920  28.601  1.00  0.00     0.023 C 
ENDROOT
BRANCH   1   2
ATOM      2  C   UNL A   1      34.688  30.758  27.634  1.00  0.00     0.116 C 
BRANCH   2   3
ATOM      3  N   UNL A   1      33.361  30.840  27.052  1.00  0.00    -0.352 N 
ATOM      4  C   UNL A   1      32.521  29.919  26.480  1.00  0.00     0.251 C 
ATOM      5  O   UNL A   1      31.414  30.333  26.126  1.00  0.00    -0.269 OA
ATOM      6  H   UNL A   1      32.984  31.750  27.072  1.00  0.00     0.163 HD
BRANCH   4   7
ATOM      7  C   UNL A   1      32.851  28.476  26.275  1.00  0.00     0.040 A 
ATOM      8  C   UNL A   1      30.744  25.300  26.133  1.00  0.00     0.045 C 
ATOM      9  C   UNL A   1      31.966  26.181  26.111  1.00  0.00    -0.042 A 
ATOM     10  C   UNL A   1      31.781  27.565  26.312  1.00  0.00     0.018 A 
ATOM     11  C   UNL A   1      33.261  25.691  25.850  1.00  0.00    -0.015 A 
ATOM     12  C   UNL A   1      34.323  26.604  25.807  1.00  0.00     0.010 A 
ATOM     13  C   UNL A   1      34.118  27.971  26.005  1.00  0.00     0.014 A 
BRANCH  11  14
ATOM     14  C   UNL A   1      33.560  24.276  25.606  1.00  0.00    -0.018 A 
ATOM     15  C   UNL A   1      33.714  23.385  26.676  1.00  0.00     0.009 A 
ATOM     16  C   UNL A   1      33.694  23.787  24.297  1.00  0.00     0.009 A 
ATOM     17  C   UNL A   1      34.052  22.050  26.447  1.00  0.00     0.014 A 
ATOM     18  C   UNL A   1      34.006  22.445  24.065  1.00  0.00     0.014 A 
ATOM     19  C   UNL A   1      34.192  21.569  25.140  1.00  0.00     0.040 A 
BRANCH  19  20
ATOM     20  C   UNL A   1      34.744  20.211  24.864  1.00  0.00     0.253 C 
ATOM     21  O   UNL A   1      35.957  20.044  24.983  1.00  0.00    -0.269 OA
ATOM     22  N   UNL A   1      33.871  19.157  24.623  1.00  0.00    -0.339 N 
ATOM     23  C   UNL A   1      34.196  17.855  25.186  1.00  0.00     0.120 C 
ATOM     24  C   UNL A   1      32.661  19.240  23.805  1.00  0.00     0.120 C 
ATOM     25  C   UNL A   1      34.205  16.762  24.128  1.00  0.00     0.022 C 
ATOM     26  C   UNL A   1      32.647  18.150  22.731  1.00  0.00     0.022 C 
ATOM     27  C   UNL A   1      32.902  16.769  23.334  1.00  0.00     0.004 C 
ENDBRANCH  19  20
ENDBRANCH  11  14
ENDBRANCH   4   7
ENDBRANCH   2   3
ENDBRANCH   1   2
BRANCH   1  28
ATOM     28  C   UNL A   1      34.780  33.314  27.999  1.00  0.00     0.023 C 
BRANCH  28  29
ATOM     29  C   UNL A   1      35.183  34.441  28.939  1.00  0.00     0.116 C 
BRANCH  29  30
ATOM     30  N   UNL A   1      34.098  34.972  29.755  1.00  0.00    -0.352 N 
ATOM     31  C   UNL A   1      33.797  34.749  31.093  1.00  0.00     0.251 C 
ATOM     32  H   UNL A   1      33.484  35.581  29.285  1.00  0.00     0.163 HD
ATOM     33  O   UNL A   1      32.790  35.224  31.575  1.00  0.00    -0.269 OA
BRANCH  31  34
ATOM     34  C   UNL A   1      34.792  34.068  31.968  1.00  0.00     0.039 A 
ATOM     35  C   UNL A   1      35.925  34.805  32.338  1.00  0.00     0.014 A 
ATOM     36  C   UNL A   1      34.756  32.696  32.186  1.00  0.00     0.014 A 
ATOM     37  C   UNL A   1      37.112  34.134  32.619  1.00  0.00     0.010 A 
ATOM     38  C   UNL A   1      35.953  32.026  32.349  1.00  0.00     0.010 A 
ATOM     39  C   UNL A   1      37.144  32.750  32.473  1.00  0.00    -0.014 A 
BRANCH  39  40
ATOM     40  C   UNL A   1      38.379  32.012  32.224  1.00  0.00     0.031 A 
ATOM     41  C   UNL A   1      38.372  30.742  31.472  1.00  0.00     0.074 A 
ATOM     42  C   UNL A   1      39.552  32.578  32.583  1.00  0.00     0.049 A 
ATOM     43  N   UNL A   1      39.321  29.869  31.503  1.00  0.00    -0.248 NA
ATOM     44  C   UNL A   1      37.240  30.327  30.655  1.00  0.00     0.031 C 
ATOM     45  C   UNL A   1      40.893  32.200  32.150  1.00  0.00     0.029 A 
ATOM     46  N   UNL A   1      39.768  33.519  33.601  1.00  0.00    -0.354 N 
ATOM     47  C   UNL A   1      39.080  28.947  30.507  1.00  0.00     0.074 A 
ATOM     48  C   UNL A   1      37.728  29.224  30.083  1.00  0.00     0.031 C 
ATOM     49  C   UNL A   1      41.784  32.665  33.039  1.00  0.00     0.029 A 
ATOM     50  C   UNL A   1      41.033  33.220  34.151  1.00  0.00     0.049 A 
ATOM     51  H   UNL A   1      39.161  34.243  33.876  1.00  0.00     0.167 HD
ATOM     52  C   UNL A   1      40.110  28.163  30.067  1.00  0.00     0.037 A 
ATOM     53  C   UNL A   1      41.164  32.824  35.451  1.00  0.00     0.037 A 
ATOM     54  C   UNL A   1      41.299  28.344  30.908  1.00  0.00     0.049 A 
ATOM     55  C   UNL A   1      41.760  31.445  35.619  1.00  0.00     0.074 A 
ATOM     56  C   UNL A   1      42.465  29.074  30.744  1.00  0.00     0.029 A 
ATOM     57  N   UNL A   1      41.263  27.962  32.246  1.00  0.00    -0.354 N 
ATOM     58  N   UNL A   1      41.842  30.568  34.658  1.00  0.00    -0.248 NA
ATOM     59  C   UNL A   1      42.275  30.931  36.886  1.00  0.00     0.031 C 
ATOM     60  C   UNL A   1      43.098  29.187  32.007  1.00  0.00     0.029 A 
ATOM     61  C   UNL A   1      42.328  28.509  32.935  1.00  0.00     0.049 A 
ATOM     62  H   UNL A   1      40.575  27.381  32.645  1.00  0.00     0.167 HD
ATOM     63  C   UNL A   1      42.357  29.397  35.148  1.00  0.00     0.074 A 
ATOM     64  C   UNL A   1      42.638  29.682  36.542  1.00  0.00     0.031 C 
ATOM     65  C   UNL A   1      42.487  28.285  34.366  1.00  0.00     0.037 A 
BRANCH  52  66
ATOM     66  C   UNL A   1      40.155  27.486  28.702  1.00  0.00     0.057 A 
ATOM     67  C   UNL A   1      39.637  26.184  28.530  1.00  0.00     0.134 A 
ATOM     68  C   UNL A   1      40.764  28.004  27.545  1.00  0.00     0.134 A 
ATOM     69  F   UNL A   1      38.906  25.582  29.476  1.00  0.00    -0.206 F 
ATOM     70  C   UNL A   1      39.838  25.422  27.368  1.00  0.00     0.040 A 
ATOM     71  C   UNL A   1      41.009  27.241  26.392  1.00  0.00     0.040 A 
ATOM     72  F   UNL A   1      41.093  29.292  27.433  1.00  0.00    -0.206 F 
ATOM     73  C   UNL A   1      40.564  25.934  26.307  1.00  0.00     0.006 A 
ENDBRANCH  52  66
BRANCH  53  74
ATOM     74  C   UNL A   1      40.157  33.433  36.358  1.00  0.00     0.057 A 
ATOM     75  C   UNL A   1      39.012  32.688  36.688  1.00  0.00     0.134 A 
ATOM     76  C   UNL A   1      40.464  34.526  37.174  1.00  0.00     0.134 A 
ATOM     77  F   UNL A   1      38.665  31.622  35.948  1.00  0.00    -0.206 F 
ATOM     78  C   UNL A   1      38.266  32.950  37.840  1.00  0.00     0.040 A 
ATOM     79  C   UNL A   1      39.718  34.803  38.326  1.00  0.00     0.040 A 
ATOM     80  F   UNL A   1      41.555  35.268  36.938  1.00  0.00    -0.206 F 
ATOM     81  C   UNL A   1      38.640  33.993  38.681  1.00  0.00     0.006 A 
ENDBRANCH  53  74
BRANCH  65  82
ATOM     82  C   UNL A   1      42.840  26.905  34.853  1.00  0.00     0.057 A 
ATOM     83  C   UNL A   1      41.900  25.903  35.128  1.00  0.00     0.134 A 
ATOM     84  C   UNL A   1      44.192  26.496  34.912  1.00  0.00     0.134 A 
ATOM     85  F   UNL A   1      40.583  26.127  35.012  1.00  0.00    -0.206 F 
ATOM     86  C   UNL A   1      42.274  24.599  35.483  1.00  0.00     0.040 A 
ATOM     87  C   UNL A   1      44.575  25.186  35.214  1.00  0.00     0.040 A 
ATOM     88  F   UNL A   1      45.196  27.348  34.654  1.00  0.00    -0.206 F 
ATOM     89  C   UNL A   1      43.615  24.234  35.514  1.00  0.00     0.006 A 
ENDBRANCH  65  82
ENDBRANCH  39  40
ENDBRANCH  31  34
ENDBRANCH  29  30
ENDBRANCH  28  29
ENDBRANCH   1  28
TORSDOF 13
ENDMDL
