MODEL 1
REMARK VINA RESULT:      -9.1      0.000      0.000
REMARK SMILES Nc1c(Br)cc(C(=O)NCCCCNC(=O)c2ccc(-c3c4nc(c(-c5c(F)cccc5F)c5ccc([nH]5)c(-c5c(F)cccc5F)c5nc(c(-c6c(F)cccc6F)c6ccc3[nH]6)C=C5)C=C4)cc2)cc1Br
REMARK SMILES IDX 12 1 11 2 10 3 9 4 7 5 8 6 6 8 2 9 3 10 72 11 4 12 5 13
REMARK SMILES IDX 71 14 73 15 1 16 13 19 14 20 15 21 16 23 17 24 18 25 70 26
REMARK SMILES IDX 19 27 69 28 20 29 21 30 22 31 63 32 23 33 68 34 62 35 64 36
REMARK SMILES IDX 24 37 67 38 61 39 60 40 25 42 51 43 34 44 50 45 35 46 38 47
REMARK SMILES IDX 49 48 65 49 36 50 37 51 48 53 66 54 39 55 26 56 27 57 32 58
REMARK SMILES IDX 28 59 29 60 31 61 33 62 30 63 52 64 53 65 58 66 54 67 55 68
REMARK SMILES IDX 57 69 59 70 56 71 40 72 41 73 46 74 42 75 43 76 45 77 47 78
REMARK SMILES IDX 44 79
REMARK H PARENT 9 7 1 17 1 18 14 22 64 41 38 52
REMARK Flexibility Score: inf
ROOT
ATOM      1  C   UNL A   1      33.726  34.980  32.398  1.00  0.00     0.023 C 
ENDROOT
BRANCH   1   2
ATOM      2  C   UNL A   1      35.131  34.970  33.013  1.00  0.00     0.023 C 
BRANCH   2   3
ATOM      3  C   UNL A   1      35.456  33.710  33.816  1.00  0.00     0.116 C 
BRANCH   3   4
ATOM      4  N   UNL A   1      36.362  34.018  34.903  1.00  0.00    -0.352 N 
ATOM      5  C   UNL A   1      37.469  33.386  35.405  1.00  0.00     0.251 C 
ATOM      6  O   UNL A   1      38.034  33.927  36.358  1.00  0.00    -0.269 OA
ATOM      7  H   UNL A   1      36.137  34.851  35.378  1.00  0.00     0.163 HD
BRANCH   5   8
ATOM      8  C   UNL A   1      38.048  32.127  34.852  1.00  0.00     0.042 A 
ATOM      9  C   UNL A   1      39.344  29.766  33.915  1.00  0.00     0.060 A 
ATOM     10  C   UNL A   1      38.074  30.142  33.450  1.00  0.00     0.042 A 
ATOM     11  C   UNL A   1      39.949  30.599  34.868  1.00  0.00     0.042 A 
ATOM     12  Br  UNL A   1      37.169  29.106  32.133  1.00  0.00    -0.049 Br
ATOM     13  C   UNL A   1      37.419  31.284  33.937  1.00  0.00     0.031 A 
ATOM     14  C   UNL A   1      39.315  31.758  35.330  1.00  0.00     0.031 A 
ATOM     15  Br  UNL A   1      41.659  30.178  35.589  1.00  0.00    -0.049 Br
BRANCH   9  16
ATOM     16  N   UNL A   1      40.013  28.667  33.382  1.00  0.00    -0.397 N 
ATOM     17  H   UNL A   1      40.991  28.599  33.462  1.00  0.00     0.156 HD
ATOM     18  H   UNL A   1      39.507  27.957  32.924  1.00  0.00     0.156 HD
ENDBRANCH   9  16
ENDBRANCH   5   8
ENDBRANCH   3   4
ENDBRANCH   2   3
ENDBRANCH   1   2
BRANCH   1  19
ATOM     19  C   UNL A   1      33.519  35.990  31.272  1.00  0.00     0.116 C 
BRANCH  19  20
ATOM     20  N   UNL A   1      32.798  35.444  30.133  1.00  0.00    -0.352 N 
ATOM     21  C   UNL A   1      33.207  34.488  29.233  1.00  0.00     0.251 C 
ATOM     22  H   UNL A   1      31.894  35.806  29.988  1.00  0.00     0.163 HD
ATOM     23  O   UNL A   1      32.511  34.206  28.269  1.00  0.00    -0.269 OA
BRANCH  21  24
ATOM     24  C   UNL A   1      34.520  33.836  29.419  1.00  0.00     0.039 A 
ATOM     25  C   UNL A   1      35.638  34.396  28.797  1.00  0.00     0.014 A 
ATOM     26  C   UNL A   1      34.649  32.700  30.223  1.00  0.00     0.014 A 
ATOM     27  C   UNL A   1      36.902  33.859  29.039  1.00  0.00     0.010 A 
ATOM     28  C   UNL A   1      35.917  32.203  30.512  1.00  0.00     0.010 A 
ATOM     29  C   UNL A   1      37.055  32.782  29.928  1.00  0.00    -0.014 A 
BRANCH  29  30
ATOM     30  C   UNL A   1      38.399  32.260  30.274  1.00  0.00     0.031 A 
ATOM     31  C   UNL A   1      38.875  30.957  29.699  1.00  0.00     0.074 A 
ATOM     32  C   UNL A   1      39.162  32.929  31.159  1.00  0.00     0.049 A 
ATOM     33  N   UNL A   1      39.989  30.309  29.932  1.00  0.00    -0.248 NA
ATOM     34  C   UNL A   1      37.969  30.277  28.760  1.00  0.00     0.031 C 
ATOM     35  C   UNL A   1      38.787  34.178  31.827  1.00  0.00     0.029 A 
ATOM     36  N   UNL A   1      40.407  32.645  31.661  1.00  0.00    -0.354 N 
ATOM     37  C   UNL A   1      39.911  29.144  29.182  1.00  0.00     0.074 A 
ATOM     38  C   UNL A   1      38.622  29.149  28.525  1.00  0.00     0.031 C 
ATOM     39  C   UNL A   1      39.789  34.563  32.633  1.00  0.00     0.029 A 
ATOM     40  C   UNL A   1      40.861  33.575  32.565  1.00  0.00     0.049 A 
ATOM     41  H   UNL A   1      40.926  31.852  31.397  1.00  0.00     0.167 HD
ATOM     42  C   UNL A   1      40.840  28.170  29.035  1.00  0.00     0.037 A 
ATOM     43  C   UNL A   1      42.011  33.621  33.264  1.00  0.00     0.037 A 
ATOM     44  C   UNL A   1      42.133  28.181  29.667  1.00  0.00     0.049 A 
ATOM     45  C   UNL A   1      43.026  32.528  33.081  1.00  0.00     0.074 A 
ATOM     46  C   UNL A   1      43.169  27.274  29.529  1.00  0.00     0.029 A 
ATOM     47  N   UNL A   1      42.564  29.149  30.562  1.00  0.00    -0.354 N 
ATOM     48  N   UNL A   1      42.970  31.468  32.312  1.00  0.00    -0.248 NA
ATOM     49  C   UNL A   1      44.268  32.642  33.859  1.00  0.00     0.031 C 
ATOM     50  C   UNL A   1      44.214  27.674  30.367  1.00  0.00     0.029 A 
ATOM     51  C   UNL A   1      43.845  28.851  30.999  1.00  0.00     0.049 A 
ATOM     52  H   UNL A   1      42.039  29.932  30.844  1.00  0.00     0.167 HD
ATOM     53  C   UNL A   1      44.173  30.801  32.495  1.00  0.00     0.074 A 
ATOM     54  C   UNL A   1      44.946  31.583  33.437  1.00  0.00     0.031 C 
ATOM     55  C   UNL A   1      44.600  29.643  31.934  1.00  0.00     0.037 A 
BRANCH  42  56
ATOM     56  C   UNL A   1      40.491  27.012  28.148  1.00  0.00     0.057 A 
ATOM     57  C   UNL A   1      39.619  25.998  28.568  1.00  0.00     0.134 A 
ATOM     58  C   UNL A   1      41.007  26.923  26.850  1.00  0.00     0.134 A 
ATOM     59  F   UNL A   1      39.102  26.018  29.806  1.00  0.00    -0.206 F 
ATOM     60  C   UNL A   1      39.294  24.925  27.738  1.00  0.00     0.040 A 
ATOM     61  C   UNL A   1      40.669  25.868  26.001  1.00  0.00     0.040 A 
ATOM     62  F   UNL A   1      41.843  27.862  26.382  1.00  0.00    -0.206 F 
ATOM     63  C   UNL A   1      39.815  24.861  26.446  1.00  0.00     0.006 A 
ENDBRANCH  42  56
BRANCH  43  64
ATOM     64  C   UNL A   1      42.275  34.754  34.184  1.00  0.00     0.057 A 
ATOM     65  C   UNL A   1      42.051  34.631  35.559  1.00  0.00     0.134 A 
ATOM     66  C   UNL A   1      42.750  35.984  33.713  1.00  0.00     0.134 A 
ATOM     67  F   UNL A   1      41.579  33.483  36.066  1.00  0.00    -0.206 F 
ATOM     68  C   UNL A   1      42.271  35.697  36.433  1.00  0.00     0.040 A 
ATOM     69  C   UNL A   1      42.996  37.051  34.578  1.00  0.00     0.040 A 
ATOM     70  F   UNL A   1      42.993  36.162  32.406  1.00  0.00    -0.206 F 
ATOM     71  C   UNL A   1      42.750  36.911  35.943  1.00  0.00     0.006 A 
ENDBRANCH  43  64
BRANCH  55  72
ATOM     72  C   UNL A   1      45.972  29.168  32.307  1.00  0.00     0.057 A 
ATOM     73  C   UNL A   1      47.107  29.548  31.580  1.00  0.00     0.134 A 
ATOM     74  C   UNL A   1      46.164  28.349  33.427  1.00  0.00     0.134 A 
ATOM     75  F   UNL A   1      46.988  30.319  30.488  1.00  0.00    -0.206 F 
ATOM     76  C   UNL A   1      48.384  29.117  31.943  1.00  0.00     0.040 A 
ATOM     77  C   UNL A   1      47.438  27.931  33.815  1.00  0.00     0.040 A 
ATOM     78  F   UNL A   1      45.119  27.955  34.171  1.00  0.00    -0.206 F 
ATOM     79  C   UNL A   1      48.552  28.312  33.068  1.00  0.00     0.006 A 
ENDBRANCH  55  72
ENDBRANCH  29  30
ENDBRANCH  21  24
ENDBRANCH  19  20
ENDBRANCH   1  19
TORSDOF 12
ENDMDL
MODEL 2
REMARK VINA RESULT:      -9.0      0.353      6.566
REMARK SMILES Nc1c(Br)cc(C(=O)NCCCCNC(=O)c2ccc(-c3c4nc(c(-c5c(F)cccc5F)c5ccc([nH]5)c(-c5c(F)cccc5F)c5nc(c(-c6c(F)cccc6F)c6ccc3[nH]6)C=C5)C=C4)cc2)cc1Br
REMARK SMILES IDX 12 1 11 2 10 3 9 4 7 5 8 6 6 8 2 9 3 10 72 11 4 12 5 13
REMARK SMILES IDX 71 14 73 15 1 16 13 19 14 20 15 21 16 23 17 24 18 25 70 26
REMARK SMILES IDX 19 27 69 28 20 29 21 30 22 31 63 32 23 33 68 34 62 35 64 36
REMARK SMILES IDX 24 37 67 38 61 39 60 40 25 42 51 43 34 44 50 45 35 46 38 47
REMARK SMILES IDX 49 48 65 49 36 50 37 51 48 53 66 54 39 55 26 56 27 57 32 58
REMARK SMILES IDX 28 59 29 60 31 61 33 62 30 63 52 64 53 65 58 66 54 67 55 68
REMARK SMILES IDX 57 69 59 70 56 71 40 72 41 73 46 74 42 75 43 76 45 77 47 78
REMARK SMILES IDX 44 79
REMARK H PARENT 9 7 1 17 1 18 14 22 64 41 38 52
REMARK Flexibility Score: inf
ROOT
ATOM      1  C   UNL A   1      33.928  34.905  32.586  1.00  0.00     0.023 C 
ENDROOT
BRANCH   1   2
ATOM      2  C   UNL A   1      35.345  34.918  33.172  1.00  0.00     0.023 C 
BRANCH   2   3
ATOM      3  C   UNL A   1      35.674  33.707  34.046  1.00  0.00     0.116 C 
BRANCH   3   4
ATOM      4  N   UNL A   1      36.643  34.061  35.063  1.00  0.00    -0.352 N 
ATOM      5  C   UNL A   1      37.783  33.455  35.519  1.00  0.00     0.251 C 
ATOM      6  O   UNL A   1      38.401  34.033  36.415  1.00  0.00    -0.269 OA
ATOM      7  H   UNL A   1      36.440  34.910  35.519  1.00  0.00     0.163 HD
BRANCH   5   8
ATOM      8  C   UNL A   1      38.337  32.178  34.979  1.00  0.00     0.042 A 
ATOM      9  C   UNL A   1      39.591  29.790  34.054  1.00  0.00     0.060 A 
ATOM     10  C   UNL A   1      38.293  30.143  33.652  1.00  0.00     0.042 A 
ATOM     11  C   UNL A   1      40.245  30.660  34.938  1.00  0.00     0.042 A 
ATOM     12  Br  UNL A   1      37.319  29.055  32.429  1.00  0.00    -0.049 Br
ATOM     13  C   UNL A   1      37.660  31.299  34.135  1.00  0.00     0.031 A 
ATOM     14  C   UNL A   1      39.632  31.833  35.394  1.00  0.00     0.031 A 
ATOM     15  Br  UNL A   1      41.998  30.274  35.572  1.00  0.00    -0.049 Br
BRANCH   9  16
ATOM     16  N   UNL A   1      40.235  28.675  33.522  1.00  0.00    -0.397 N 
ATOM     17  H   UNL A   1      40.976  28.253  34.013  1.00  0.00     0.156 HD
ATOM     18  H   UNL A   1      39.949  28.309  32.655  1.00  0.00     0.156 HD
ENDBRANCH   9  16
ENDBRANCH   5   8
ENDBRANCH   3   4
ENDBRANCH   2   3
ENDBRANCH   1   2
BRANCH   1  19
ATOM     19  C   UNL A   1      33.627  36.025  31.593  1.00  0.00     0.116 C 
BRANCH  19  20
ATOM     20  N   UNL A   1      32.872  35.579  30.433  1.00  0.00    -0.352 N 
ATOM     21  C   UNL A   1      33.226  34.652  29.480  1.00  0.00     0.251 C 
ATOM     22  H   UNL A   1      31.988  35.996  30.314  1.00  0.00     0.163 HD
ATOM     23  O   UNL A   1      32.511  34.460  28.508  1.00  0.00    -0.269 OA
BRANCH  21  24
ATOM     24  C   UNL A   1      34.503  33.924  29.620  1.00  0.00     0.039 A 
ATOM     25  C   UNL A   1      35.643  34.449  29.007  1.00  0.00     0.014 A 
ATOM     26  C   UNL A   1      34.580  32.750  30.373  1.00  0.00     0.014 A 
ATOM     27  C   UNL A   1      36.879  33.835  29.209  1.00  0.00     0.010 A 
ATOM     28  C   UNL A   1      35.822  32.173  30.624  1.00  0.00     0.010 A 
ATOM     29  C   UNL A   1      36.983  32.714  30.049  1.00  0.00    -0.014 A 
BRANCH  29  30
ATOM     30  C   UNL A   1      38.300  32.107  30.354  1.00  0.00     0.031 A 
ATOM     31  C   UNL A   1      39.277  32.823  31.241  1.00  0.00     0.074 A 
ATOM     32  C   UNL A   1      38.642  30.940  29.775  1.00  0.00     0.049 A 
ATOM     33  N   UNL A   1      40.497  32.483  31.571  1.00  0.00    -0.248 NA
ATOM     34  C   UNL A   1      38.835  34.105  31.812  1.00  0.00     0.031 C 
ATOM     35  C   UNL A   1      37.801  30.174  28.852  1.00  0.00     0.029 A 
ATOM     36  N   UNL A   1      39.794  30.199  29.866  1.00  0.00    -0.354 N 
ATOM     37  C   UNL A   1      40.972  33.513  32.374  1.00  0.00     0.074 A 
ATOM     38  C   UNL A   1      39.927  34.511  32.442  1.00  0.00     0.031 C 
ATOM     39  C   UNL A   1      38.456  29.063  28.479  1.00  0.00     0.029 A 
ATOM     40  C   UNL A   1      39.773  29.053  29.109  1.00  0.00     0.049 A 
ATOM     41  H   UNL A   1      40.562  30.464  30.422  1.00  0.00     0.167 HD
ATOM     42  C   UNL A   1      42.161  33.605  33.015  1.00  0.00     0.037 A 
ATOM     43  C   UNL A   1      40.712  28.104  28.939  1.00  0.00     0.037 A 
ATOM     44  C   UNL A   1      43.187  32.597  32.968  1.00  0.00     0.049 A 
ATOM     45  C   UNL A   1      42.023  28.229  29.664  1.00  0.00     0.074 A 
ATOM     46  C   UNL A   1      44.399  32.568  33.636  1.00  0.00     0.029 A 
ATOM     47  N   UNL A   1      43.122  31.441  32.205  1.00  0.00    -0.354 N 
ATOM     48  N   UNL A   1      42.430  29.172  30.479  1.00  0.00    -0.248 NA
ATOM     49  C   UNL A   1      43.002  27.154  29.451  1.00  0.00     0.031 C 
ATOM     50  C   UNL A   1      45.082  31.410  33.250  1.00  0.00     0.029 A 
ATOM     51  C   UNL A   1      44.280  30.700  32.371  1.00  0.00     0.049 A 
ATOM     52  H   UNL A   1      42.364  31.184  31.631  1.00  0.00     0.167 HD
ATOM     53  C   UNL A   1      43.700  28.796  30.892  1.00  0.00     0.074 A 
ATOM     54  C   UNL A   1      43.991  27.531  30.250  1.00  0.00     0.031 C 
ATOM     55  C   UNL A   1      44.551  29.440  31.727  1.00  0.00     0.037 A 
BRANCH  42  56
ATOM     56  C   UNL A   1      42.410  34.839  33.829  1.00  0.00     0.057 A 
ATOM     57  C   UNL A   1      42.854  36.032  33.243  1.00  0.00     0.134 A 
ATOM     58  C   UNL A   1      42.178  34.845  35.210  1.00  0.00     0.134 A 
ATOM     59  F   UNL A   1      43.108  36.088  31.927  1.00  0.00    -0.206 F 
ATOM     60  C   UNL A   1      43.081  37.179  34.004  1.00  0.00     0.040 A 
ATOM     61  C   UNL A   1      42.377  35.994  35.978  1.00  0.00     0.040 A 
ATOM     62  F   UNL A   1      41.748  33.739  35.834  1.00  0.00    -0.206 F 
ATOM     63  C   UNL A   1      42.837  37.164  35.376  1.00  0.00     0.006 A 
ENDBRANCH  42  56
BRANCH  43  64
ATOM     64  C   UNL A   1      40.440  26.938  28.064  1.00  0.00     0.057 A 
ATOM     65  C   UNL A   1      40.997  26.854  26.783  1.00  0.00     0.134 A 
ATOM     66  C   UNL A   1      39.614  25.887  28.480  1.00  0.00     0.134 A 
ATOM     67  F   UNL A   1      41.781  27.839  26.323  1.00  0.00    -0.206 F 
ATOM     68  C   UNL A   1      40.729  25.775  25.940  1.00  0.00     0.040 A 
ATOM     69  C   UNL A   1      39.355  24.791  27.655  1.00  0.00     0.040 A 
ATOM     70  F   UNL A   1      39.056  25.905  29.700  1.00  0.00    -0.206 F 
ATOM     71  C   UNL A   1      39.909  24.737  26.377  1.00  0.00     0.006 A 
ENDBRANCH  43  64
BRANCH  55  72
ATOM     72  C   UNL A   1      45.864  28.776  32.012  1.00  0.00     0.057 A 
ATOM     73  C   UNL A   1      47.004  29.035  31.240  1.00  0.00     0.134 A 
ATOM     74  C   UNL A   1      46.000  27.896  33.093  1.00  0.00     0.134 A 
ATOM     75  F   UNL A   1      46.936  29.858  30.182  1.00  0.00    -0.206 F 
ATOM     76  C   UNL A   1      48.228  28.428  31.522  1.00  0.00     0.040 A 
ATOM     77  C   UNL A   1      47.224  27.301  33.400  1.00  0.00     0.040 A 
ATOM     78  F   UNL A   1      44.948  27.612  33.876  1.00  0.00    -0.206 F 
ATOM     79  C   UNL A   1      48.342  27.563  32.609  1.00  0.00     0.006 A 
ENDBRANCH  55  72
ENDBRANCH  29  30
ENDBRANCH  21  24
ENDBRANCH  19  20
ENDBRANCH   1  19
TORSDOF 12
ENDMDL
MODEL 3
REMARK VINA RESULT:      -9.0      6.122     11.356
REMARK SMILES Nc1c(Br)cc(C(=O)NCCCCNC(=O)c2ccc(-c3c4nc(c(-c5c(F)cccc5F)c5ccc([nH]5)c(-c5c(F)cccc5F)c5nc(c(-c6c(F)cccc6F)c6ccc3[nH]6)C=C5)C=C4)cc2)cc1Br
REMARK SMILES IDX 12 1 11 2 10 3 9 4 7 5 8 6 6 8 2 9 3 10 72 11 4 12 5 13
REMARK SMILES IDX 71 14 73 15 1 16 13 19 14 20 15 21 16 23 17 24 18 25 70 26
REMARK SMILES IDX 19 27 69 28 20 29 21 30 22 31 63 32 23 33 68 34 62 35 64 36
REMARK SMILES IDX 24 37 67 38 61 39 60 40 25 42 51 43 34 44 50 45 35 46 38 47
REMARK SMILES IDX 49 48 65 49 36 50 37 51 48 53 66 54 39 55 26 56 27 57 32 58
REMARK SMILES IDX 28 59 29 60 31 61 33 62 30 63 52 64 53 65 58 66 54 67 55 68
REMARK SMILES IDX 57 69 59 70 56 71 40 72 41 73 46 74 42 75 43 76 45 77 47 78
REMARK SMILES IDX 44 79
REMARK H PARENT 9 7 1 17 1 18 14 22 64 41 38 52
REMARK Flexibility Score: inf
ROOT
ATOM      1  C   UNL A   1      37.932  19.955  24.971  1.00  0.00     0.023 C 
ENDROOT
BRANCH   1   2
ATOM      2  C   UNL A   1      37.119  21.165  24.496  1.00  0.00     0.023 C 
BRANCH   2   3
ATOM      3  C   UNL A   1      37.048  22.310  25.508  1.00  0.00     0.116 C 
BRANCH   3   4
ATOM      4  N   UNL A   1      36.090  22.009  26.551  1.00  0.00    -0.352 N 
ATOM      5  C   UNL A   1      34.769  21.644  26.531  1.00  0.00     0.251 C 
ATOM      6  O   UNL A   1      34.229  21.449  27.621  1.00  0.00    -0.269 OA
ATOM      7  H   UNL A   1      36.463  22.080  27.460  1.00  0.00     0.163 HD
BRANCH   5   8
ATOM      8  C   UNL A   1      33.970  21.430  25.289  1.00  0.00     0.042 A 
ATOM      9  C   UNL A   1      32.425  21.248  22.899  1.00  0.00     0.060 A 
ATOM     10  C   UNL A   1      32.819  20.103  23.610  1.00  0.00     0.042 A 
ATOM     11  C   UNL A   1      32.830  22.490  23.412  1.00  0.00     0.042 A 
ATOM     12  Br  UNL A   1      32.301  18.365  23.027  1.00  0.00    -0.049 Br
ATOM     13  C   UNL A   1      33.610  20.188  24.766  1.00  0.00     0.031 A 
ATOM     14  C   UNL A   1      33.588  22.581  24.584  1.00  0.00     0.031 A 
ATOM     15  Br  UNL A   1      32.377  24.109  22.522  1.00  0.00    -0.049 Br
BRANCH   9  16
ATOM     16  N   UNL A   1      31.588  21.159  21.789  1.00  0.00    -0.397 N 
ATOM     17  H   UNL A   1      31.852  21.577  20.939  1.00  0.00     0.156 HD
ATOM     18  H   UNL A   1      30.733  20.677  21.856  1.00  0.00     0.156 HD
ENDBRANCH   9  16
ENDBRANCH   5   8
ENDBRANCH   3   4
ENDBRANCH   2   3
ENDBRANCH   1   2
BRANCH   1  19
ATOM     19  C   UNL A   1      39.189  20.290  25.769  1.00  0.00     0.116 C 
BRANCH  19  20
ATOM     20  N   UNL A   1      40.137  19.191  25.840  1.00  0.00    -0.352 N 
ATOM     21  C   UNL A   1      41.477  19.228  26.147  1.00  0.00     0.251 C 
ATOM     22  H   UNL A   1      39.771  18.299  25.642  1.00  0.00     0.163 HD
ATOM     23  O   UNL A   1      42.159  18.217  26.069  1.00  0.00    -0.269 OA
BRANCH  21  24
ATOM     24  C   UNL A   1      42.095  20.514  26.528  1.00  0.00     0.039 A 
ATOM     25  C   UNL A   1      42.601  21.338  25.520  1.00  0.00     0.014 A 
ATOM     26  C   UNL A   1      42.148  20.916  27.865  1.00  0.00     0.014 A 
ATOM     27  C   UNL A   1      43.097  22.600  25.845  1.00  0.00     0.010 A 
ATOM     28  C   UNL A   1      42.586  22.199  28.181  1.00  0.00     0.010 A 
ATOM     29  C   UNL A   1      43.058  23.054  27.174  1.00  0.00    -0.014 A 
BRANCH  29  30
ATOM     30  C   UNL A   1      43.490  24.429  27.525  1.00  0.00     0.031 A 
ATOM     31  C   UNL A   1      42.475  25.463  27.920  1.00  0.00     0.074 A 
ATOM     32  C   UNL A   1      44.790  24.762  27.422  1.00  0.00     0.049 A 
ATOM     33  N   UNL A   1      42.652  26.730  28.199  1.00  0.00    -0.248 NA
ATOM     34  C   UNL A   1      41.072  25.023  27.982  1.00  0.00     0.031 C 
ATOM     35  C   UNL A   1      45.865  23.860  26.997  1.00  0.00     0.029 A 
ATOM     36  N   UNL A   1      45.430  25.954  27.654  1.00  0.00    -0.354 N 
ATOM     37  C   UNL A   1      41.386  27.239  28.456  1.00  0.00     0.074 A 
ATOM     38  C   UNL A   1      40.446  26.158  28.252  1.00  0.00     0.031 C 
ATOM     39  C   UNL A   1      47.031  24.525  27.020  1.00  0.00     0.029 A 
ATOM     40  C   UNL A   1      46.784  25.904  27.427  1.00  0.00     0.049 A 
ATOM     41  H   UNL A   1      44.962  26.766  27.955  1.00  0.00     0.167 HD
ATOM     42  C   UNL A   1      41.042  28.488  28.849  1.00  0.00     0.037 A 
ATOM     43  C   UNL A   1      47.720  26.867  27.532  1.00  0.00     0.037 A 
ATOM     44  C   UNL A   1      41.981  29.554  29.078  1.00  0.00     0.049 A 
ATOM     45  C   UNL A   1      47.312  28.244  27.973  1.00  0.00     0.074 A 
ATOM     46  C   UNL A   1      41.738  30.835  29.541  1.00  0.00     0.029 A 
ATOM     47  N   UNL A   1      43.347  29.461  28.856  1.00  0.00    -0.354 N 
ATOM     48  N   UNL A   1      46.120  28.693  28.283  1.00  0.00    -0.248 NA
ATOM     49  C   UNL A   1      48.380  29.247  28.084  1.00  0.00     0.031 C 
ATOM     50  C   UNL A   1      42.952  31.528  29.566  1.00  0.00     0.029 A 
ATOM     51  C   UNL A   1      43.957  30.668  29.155  1.00  0.00     0.049 A 
ATOM     52  H   UNL A   1      43.815  28.656  28.534  1.00  0.00     0.167 HD
ATOM     53  C   UNL A   1      46.297  30.021  28.647  1.00  0.00     0.074 A 
ATOM     54  C   UNL A   1      47.713  30.301  28.533  1.00  0.00     0.031 C 
ATOM     55  C   UNL A   1      45.369  30.928  29.039  1.00  0.00     0.037 A 
BRANCH  42  56
ATOM     56  C   UNL A   1      39.583  28.766  29.064  1.00  0.00     0.057 A 
ATOM     57  C   UNL A   1      38.975  28.584  30.313  1.00  0.00     0.134 A 
ATOM     58  C   UNL A   1      38.784  29.247  28.020  1.00  0.00     0.134 A 
ATOM     59  F   UNL A   1      39.683  28.112  31.351  1.00  0.00    -0.206 F 
ATOM     60  C   UNL A   1      37.619  28.847  30.510  1.00  0.00     0.040 A 
ATOM     61  C   UNL A   1      37.432  29.538  28.211  1.00  0.00     0.040 A 
ATOM     62  F   UNL A   1      39.304  29.448  26.800  1.00  0.00    -0.206 F 
ATOM     63  C   UNL A   1      36.844  29.331  29.457  1.00  0.00     0.006 A 
ENDBRANCH  42  56
BRANCH  43  64
ATOM     64  C   UNL A   1      49.140  26.556  27.238  1.00  0.00     0.057 A 
ATOM     65  C   UNL A   1      49.979  26.022  28.224  1.00  0.00     0.134 A 
ATOM     66  C   UNL A   1      49.695  26.790  25.975  1.00  0.00     0.134 A 
ATOM     67  F   UNL A   1      49.508  25.794  29.458  1.00  0.00    -0.206 F 
ATOM     68  C   UNL A   1      51.323  25.748  27.969  1.00  0.00     0.040 A 
ATOM     69  C   UNL A   1      51.033  26.500  25.700  1.00  0.00     0.040 A 
ATOM     70  F   UNL A   1      48.941  27.293  24.986  1.00  0.00    -0.206 F 
ATOM     71  C   UNL A   1      51.853  25.984  26.701  1.00  0.00     0.006 A 
ENDBRANCH  43  64
BRANCH  55  72
ATOM     72  C   UNL A   1      45.860  32.299  29.395  1.00  0.00     0.057 A 
ATOM     73  C   UNL A   1      45.923  33.328  28.448  1.00  0.00     0.134 A 
ATOM     74  C   UNL A   1      46.240  32.602  30.709  1.00  0.00     0.134 A 
ATOM     75  F   UNL A   1      45.587  33.097  27.169  1.00  0.00    -0.206 F 
ATOM     76  C   UNL A   1      46.364  34.608  28.790  1.00  0.00     0.040 A 
ATOM     77  C   UNL A   1      46.660  33.883  31.069  1.00  0.00     0.040 A 
ATOM     78  F   UNL A   1      46.196  31.662  31.665  1.00  0.00    -0.206 F 
ATOM     79  C   UNL A   1      46.727  34.889  30.106  1.00  0.00     0.006 A 
ENDBRANCH  55  72
ENDBRANCH  29  30
ENDBRANCH  21  24
ENDBRANCH  19  20
ENDBRANCH   1  19
TORSDOF 12
ENDMDL
