MODEL 1
REMARK VINA RESULT:     -10.2      0.000      0.000
REMARK SMILES CCC[NH2+][C@@H]1COC[C@@H]1C(=O)N[C@@](C)(CC)C(=O)NCCCCNC(=O)c1ccc(-c2c3nc(c(-c4c(F)cccc4F)c4ccc([nH]4)c(-c4c(F)cccc4F)c4nc(c(-c5c(F)cccc5F)c5ccc2[nH]5)C=C4)C=C3)cc1
REMARK SMILES IDX 20 1 19 2 17 3 18 4 13 6 14 7 12 8 10 9 11 10 9 12 5 13 6 14
REMARK SMILES IDX 7 15 8 16 4 17 3 20 2 21 1 22 15 23 16 24 21 25 22 26 23 27
REMARK SMILES IDX 24 28 25 29 26 31 27 32 28 33 80 34 29 35 79 36 30 37 31 38
REMARK SMILES IDX 32 39 73 40 33 41 78 42 72 43 74 44 34 45 77 46 71 47 70 48
REMARK SMILES IDX 35 50 61 51 44 52 60 53 45 54 48 55 59 56 75 57 46 58 47 59
REMARK SMILES IDX 58 61 76 62 49 63 36 64 37 65 42 66 38 67 39 68 41 69 43 70
REMARK SMILES IDX 40 71 62 72 63 73 68 74 64 75 65 76 67 77 69 78 66 79 50 80
REMARK SMILES IDX 51 81 56 82 52 83 53 84 55 85 57 86 54 87
REMARK H PARENT 19 5 12 11 4 18 4 19 24 30 74 49 48 60
REMARK Flexibility Score: inf
ROOT
ATOM      1  C   UNL A   1      35.503  22.253  25.618  1.00  0.00     0.116 C 
ENDROOT
BRANCH   1   2
ATOM      2  N   UNL A   1      34.556  22.302  26.711  1.00  0.00    -0.354 N 
ATOM      3  C   UNL A   1      33.210  22.379  26.826  1.00  0.00     0.245 C 
ATOM      4  O   UNL A   1      32.870  22.516  28.003  1.00  0.00    -0.272 OA
ATOM      5  H   UNL A   1      35.001  22.271  27.588  1.00  0.00     0.163 HD
BRANCH   3   6
ATOM      6  C   UNL A   1      32.191  22.268  25.636  1.00  0.00     0.116 C 
ATOM      7  C   UNL A   1      30.811  22.630  26.249  1.00  0.00     0.045 C 
BRANCH   6   8
ATOM      8  N   UNL A   1      32.279  23.223  24.475  1.00  0.00    -0.341 N 
ATOM      9  C   UNL A   1      32.607  24.519  24.234  1.00  0.00     0.232 C 
ATOM     10  O   UNL A   1      32.968  24.765  23.078  1.00  0.00    -0.274 OA
ATOM     11  H   UNL A   1      32.020  22.772  23.639  1.00  0.00     0.164 HD
BRANCH   9  12
ATOM     12  C   UNL A   1      32.464  25.616  25.274  1.00  0.00     0.164 C 
ATOM     13  C   UNL A   1      31.683  26.841  24.760  1.00  0.00     0.223 C 
ATOM     14  C   UNL A   1      32.792  27.699  24.166  1.00  0.00     0.225 C 
ATOM     15  O   UNL A   1      33.928  27.525  25.018  1.00  0.00    -0.374 OA
ATOM     16  C   UNL A   1      33.815  26.236  25.643  1.00  0.00     0.180 C 
BRANCH  13  17
ATOM     17  N   UNL A   1      30.551  26.538  23.875  1.00  0.00    -0.341 N 
ATOM     18  H   UNL A   1      30.667  25.583  23.534  1.00  0.00     0.346 HD
ATOM     19  H   UNL A   1      29.713  26.679  24.439  1.00  0.00     0.346 HD
BRANCH  17  20
ATOM     20  C   UNL A   1      30.400  27.409  22.718  1.00  0.00     0.260 C 
BRANCH  20  21
ATOM     21  C   UNL A   1      29.278  28.425  22.975  1.00  0.00     0.058 C 
ATOM     22  C   UNL A   1      29.770  29.809  23.382  1.00  0.00     0.010 C 
ENDBRANCH  20  21
ENDBRANCH  17  20
ENDBRANCH  13  17
ENDBRANCH   9  12
ENDBRANCH   6   8
BRANCH   6  23
ATOM     23  C   UNL A   1      32.124  20.830  25.065  1.00  0.00     0.035 C 
ATOM     24  C   UNL A   1      32.464  20.716  23.586  1.00  0.00     0.007 C 
ENDBRANCH   6  23
ENDBRANCH   3   6
ENDBRANCH   1   2
BRANCH   1  25
ATOM     25  C   UNL A   1      35.883  20.813  25.276  1.00  0.00     0.023 C 
BRANCH  25  26
ATOM     26  C   UNL A   1      37.294  20.618  24.709  1.00  0.00     0.023 C 
BRANCH  26  27
ATOM     27  C   UNL A   1      38.447  20.769  25.696  1.00  0.00     0.116 C 
BRANCH  27  28
ATOM     28  N   UNL A   1      39.429  19.706  25.599  1.00  0.00    -0.352 N 
ATOM     29  C   UNL A   1      40.761  19.725  25.950  1.00  0.00     0.251 C 
ATOM     30  H   UNL A   1      39.099  18.854  25.234  1.00  0.00     0.163 HD
ATOM     31  O   UNL A   1      41.472  18.760  25.728  1.00  0.00    -0.269 OA
BRANCH  29  32
ATOM     32  C   UNL A   1      41.332  20.946  26.559  1.00  0.00     0.039 A 
ATOM     33  C   UNL A   1      41.862  21.927  25.717  1.00  0.00     0.014 A 
ATOM     34  C   UNL A   1      41.325  21.131  27.944  1.00  0.00     0.014 A 
ATOM     35  C   UNL A   1      42.321  23.130  26.259  1.00  0.00     0.010 A 
ATOM     36  C   UNL A   1      41.734  22.350  28.478  1.00  0.00     0.010 A 
ATOM     37  C   UNL A   1      42.227  23.364  27.640  1.00  0.00    -0.014 A 
BRANCH  37  38
ATOM     38  C   UNL A   1      42.627  24.664  28.234  1.00  0.00     0.031 A 
ATOM     39  C   UNL A   1      41.595  25.727  28.473  1.00  0.00     0.074 A 
ATOM     40  C   UNL A   1      43.929  24.921  28.464  1.00  0.00     0.049 A 
ATOM     41  N   UNL A   1      41.759  26.973  28.840  1.00  0.00    -0.248 NA
ATOM     42  C   UNL A   1      40.191  25.348  28.242  1.00  0.00     0.031 C 
ATOM     43  C   UNL A   1      45.033  23.987  28.231  1.00  0.00     0.029 A 
ATOM     44  N   UNL A   1      44.549  26.058  28.918  1.00  0.00    -0.354 N 
ATOM     45  C   UNL A   1      40.490  27.534  28.848  1.00  0.00     0.074 A 
ATOM     46  C   UNL A   1      39.566  26.502  28.430  1.00  0.00     0.031 C 
ATOM     47  C   UNL A   1      46.192  24.590  28.539  1.00  0.00     0.029 A 
ATOM     48  C   UNL A   1      45.920  25.962  28.954  1.00  0.00     0.049 A 
ATOM     49  H   UNL A   1      44.058  26.867  29.191  1.00  0.00     0.167 HD
ATOM     50  C   UNL A   1      40.128  28.795  29.185  1.00  0.00     0.037 A 
ATOM     51  C   UNL A   1      46.852  26.883  29.265  1.00  0.00     0.037 A 
ATOM     52  C   UNL A   1      41.041  29.804  29.651  1.00  0.00     0.049 A 
ATOM     53  C   UNL A   1      46.419  28.267  29.664  1.00  0.00     0.074 A 
ATOM     54  C   UNL A   1      40.756  31.081  30.100  1.00  0.00     0.029 A 
ATOM     55  N   UNL A   1      42.416  29.648  29.728  1.00  0.00    -0.354 N 
ATOM     56  N   UNL A   1      45.207  28.763  29.736  1.00  0.00    -0.248 NA
ATOM     57  C   UNL A   1      47.479  29.217  30.029  1.00  0.00     0.031 C 
ATOM     58  C   UNL A   1      41.963  31.711  30.421  1.00  0.00     0.029 A 
ATOM     59  C   UNL A   1      42.994  30.813  30.202  1.00  0.00     0.049 A 
ATOM     60  H   UNL A   1      42.908  28.832  29.482  1.00  0.00     0.167 HD
ATOM     61  C   UNL A   1      45.358  30.071  30.176  1.00  0.00     0.074 A 
ATOM     62  C   UNL A   1      46.776  30.290  30.366  1.00  0.00     0.031 C 
ATOM     63  C   UNL A   1      44.406  31.007  30.405  1.00  0.00     0.037 A 
BRANCH  50  64
ATOM     64  C   UNL A   1      38.679  29.159  29.067  1.00  0.00     0.057 A 
ATOM     65  C   UNL A   1      37.820  29.138  30.173  1.00  0.00     0.134 A 
ATOM     66  C   UNL A   1      38.152  29.594  27.845  1.00  0.00     0.134 A 
ATOM     67  F   UNL A   1      38.262  28.721  31.370  1.00  0.00    -0.206 F 
ATOM     68  C   UNL A   1      36.483  29.523  30.063  1.00  0.00     0.040 A 
ATOM     69  C   UNL A   1      36.823  30.002  27.728  1.00  0.00     0.040 A 
ATOM     70  F   UNL A   1      38.924  29.642  26.749  1.00  0.00    -0.206 F 
ATOM     71  C   UNL A   1      35.984  29.964  28.840  1.00  0.00     0.006 A 
ENDBRANCH  50  64
BRANCH  51  72
ATOM     72  C   UNL A   1      48.293  26.534  29.210  1.00  0.00     0.057 A 
ATOM     73  C   UNL A   1      49.055  26.791  28.065  1.00  0.00     0.134 A 
ATOM     74  C   UNL A   1      48.935  25.915  30.289  1.00  0.00     0.134 A 
ATOM     75  F   UNL A   1      48.489  27.364  26.993  1.00  0.00    -0.206 F 
ATOM     76  C   UNL A   1      50.400  26.426  27.985  1.00  0.00     0.040 A 
ATOM     77  C   UNL A   1      50.286  25.565  30.231  1.00  0.00     0.040 A 
ATOM     78  F   UNL A   1      48.261  25.648  31.416  1.00  0.00    -0.206 F 
ATOM     79  C   UNL A   1      51.020  25.814  29.072  1.00  0.00     0.006 A 
ENDBRANCH  51  72
BRANCH  63  80
ATOM     80  C   UNL A   1      44.859  32.339  30.921  1.00  0.00     0.057 A 
ATOM     81  C   UNL A   1      45.162  33.398  30.060  1.00  0.00     0.134 A 
ATOM     82  C   UNL A   1      44.935  32.577  32.299  1.00  0.00     0.134 A 
ATOM     83  F   UNL A   1      45.120  33.227  28.729  1.00  0.00    -0.206 F 
ATOM     84  C   UNL A   1      45.537  34.650  30.551  1.00  0.00     0.040 A 
ATOM     85  C   UNL A   1      45.288  33.830  32.802  1.00  0.00     0.040 A 
ATOM     86  F   UNL A   1      44.649  31.603  33.176  1.00  0.00    -0.206 F 
ATOM     87  C   UNL A   1      45.593  34.869  31.926  1.00  0.00     0.006 A 
ENDBRANCH  63  80
ENDBRANCH  37  38
ENDBRANCH  29  32
ENDBRANCH  27  28
ENDBRANCH  26  27
ENDBRANCH  25  26
ENDBRANCH   1  25
TORSDOF 17
ENDMDL
MODEL 2
REMARK VINA RESULT:     -10.1      1.586      2.061
REMARK SMILES CCC[NH2+][C@@H]1COC[C@@H]1C(=O)N[C@@](C)(CC)C(=O)NCCCCNC(=O)c1ccc(-c2c3nc(c(-c4c(F)cccc4F)c4ccc([nH]4)c(-c4c(F)cccc4F)c4nc(c(-c5c(F)cccc5F)c5ccc2[nH]5)C=C4)C=C3)cc1
REMARK SMILES IDX 20 1 19 2 17 3 18 4 13 6 14 7 12 8 10 9 11 10 9 12 5 13 6 14
REMARK SMILES IDX 7 15 8 16 4 17 3 20 2 21 1 22 15 23 16 24 21 25 22 26 23 27
REMARK SMILES IDX 24 28 25 29 26 31 27 32 28 33 80 34 29 35 79 36 30 37 31 38
REMARK SMILES IDX 32 39 73 40 33 41 78 42 72 43 74 44 34 45 77 46 71 47 70 48
REMARK SMILES IDX 35 50 61 51 44 52 60 53 45 54 48 55 59 56 75 57 46 58 47 59
REMARK SMILES IDX 58 61 76 62 49 63 36 64 37 65 42 66 38 67 39 68 41 69 43 70
REMARK SMILES IDX 40 71 62 72 63 73 68 74 64 75 65 76 67 77 69 78 66 79 50 80
REMARK SMILES IDX 51 81 56 82 52 83 53 84 55 85 57 86 54 87
REMARK H PARENT 19 5 12 11 4 18 4 19 24 30 74 49 48 60
REMARK Flexibility Score: inf
ROOT
ATOM      1  C   UNL A   1      36.758  22.417  25.532  1.00  0.00     0.116 C 
ENDROOT
BRANCH   1   2
ATOM      2  N   UNL A   1      35.774  21.986  26.501  1.00  0.00    -0.354 N 
ATOM      3  C   UNL A   1      34.467  21.637  26.467  1.00  0.00     0.245 C 
ATOM      4  O   UNL A   1      34.024  21.453  27.603  1.00  0.00    -0.272 OA
ATOM      5  H   UNL A   1      36.147  21.933  27.410  1.00  0.00     0.163 HD
BRANCH   3   6
ATOM      6  C   UNL A   1      33.615  21.442  25.162  1.00  0.00     0.116 C 
ATOM      7  C   UNL A   1      32.149  21.727  25.589  1.00  0.00     0.045 C 
BRANCH   6   8
ATOM      8  N   UNL A   1      33.791  22.381  23.998  1.00  0.00    -0.341 N 
ATOM      9  C   UNL A   1      33.751  23.714  23.739  1.00  0.00     0.232 C 
ATOM     10  O   UNL A   1      34.393  24.077  22.747  1.00  0.00    -0.274 OA
ATOM     11  H   UNL A   1      33.997  21.877  23.178  1.00  0.00     0.164 HD
BRANCH   9  12
ATOM     12  C   UNL A   1      32.913  24.690  24.547  1.00  0.00     0.164 C 
ATOM     13  C   UNL A   1      32.754  26.062  23.863  1.00  0.00     0.223 C 
ATOM     14  C   UNL A   1      33.959  26.825  24.396  1.00  0.00     0.225 C 
ATOM     15  O   UNL A   1      34.132  26.398  25.751  1.00  0.00    -0.374 OA
ATOM     16  C   UNL A   1      33.590  25.071  25.865  1.00  0.00     0.180 C 
BRANCH  13  17
ATOM     17  N   UNL A   1      32.603  26.023  22.404  1.00  0.00    -0.341 N 
ATOM     18  H   UNL A   1      33.312  26.636  21.999  1.00  0.00     0.346 HD
ATOM     19  H   UNL A   1      32.703  25.042  22.141  1.00  0.00     0.346 HD
BRANCH  17  20
ATOM     20  C   UNL A   1      31.307  26.439  21.888  1.00  0.00     0.260 C 
BRANCH  20  21
ATOM     21  C   UNL A   1      30.915  27.794  22.495  1.00  0.00     0.058 C 
ATOM     22  C   UNL A   1      29.528  27.819  23.126  1.00  0.00     0.010 C 
ENDBRANCH  20  21
ENDBRANCH  17  20
ENDBRANCH  13  17
ENDBRANCH   9  12
ENDBRANCH   6   8
BRANCH   6  23
ATOM     23  C   UNL A   1      33.707  19.993  24.623  1.00  0.00     0.035 C 
ATOM     24  C   UNL A   1      32.529  19.559  23.762  1.00  0.00     0.007 C 
ENDBRANCH   6  23
ENDBRANCH   3   6
ENDBRANCH   1   2
BRANCH   1  25
ATOM     25  C   UNL A   1      37.028  21.331  24.493  1.00  0.00     0.023 C 
BRANCH  25  26
ATOM     26  C   UNL A   1      37.802  20.108  25.000  1.00  0.00     0.023 C 
BRANCH  26  27
ATOM     27  C   UNL A   1      39.089  20.392  25.767  1.00  0.00     0.116 C 
BRANCH  27  28
ATOM     28  N   UNL A   1      40.025  19.283  25.751  1.00  0.00    -0.352 N 
ATOM     29  C   UNL A   1      41.379  19.292  26.000  1.00  0.00     0.251 C 
ATOM     30  H   UNL A   1      39.638  18.404  25.535  1.00  0.00     0.163 HD
ATOM     31  O   UNL A   1      42.038  18.275  25.866  1.00  0.00    -0.269 OA
BRANCH  29  32
ATOM     32  C   UNL A   1      42.037  20.558  26.389  1.00  0.00     0.039 A 
ATOM     33  C   UNL A   1      42.488  21.413  25.380  1.00  0.00     0.014 A 
ATOM     34  C   UNL A   1      42.186  20.909  27.733  1.00  0.00     0.014 A 
ATOM     35  C   UNL A   1      43.026  22.658  25.716  1.00  0.00     0.010 A 
ATOM     36  C   UNL A   1      42.674  22.170  28.065  1.00  0.00     0.010 A 
ATOM     37  C   UNL A   1      43.090  23.059  27.060  1.00  0.00    -0.014 A 
BRANCH  37  38
ATOM     38  C   UNL A   1      43.577  24.408  27.442  1.00  0.00     0.031 A 
ATOM     39  C   UNL A   1      42.600  25.460  27.884  1.00  0.00     0.074 A 
ATOM     40  C   UNL A   1      44.881  24.714  27.297  1.00  0.00     0.049 A 
ATOM     41  N   UNL A   1      42.802  26.732  28.115  1.00  0.00    -0.248 NA
ATOM     42  C   UNL A   1      41.204  25.030  28.063  1.00  0.00     0.031 C 
ATOM     43  C   UNL A   1      45.922  23.794  26.834  1.00  0.00     0.029 A 
ATOM     44  N   UNL A   1      45.549  25.897  27.495  1.00  0.00    -0.354 N 
ATOM     45  C   UNL A   1      41.558  27.261  28.429  1.00  0.00     0.074 A 
ATOM     46  C   UNL A   1      40.602  26.178  28.341  1.00  0.00     0.031 C 
ATOM     47  C   UNL A   1      47.094  24.447  26.780  1.00  0.00     0.029 A 
ATOM     48  C   UNL A   1      46.883  25.838  27.166  1.00  0.00     0.049 A 
ATOM     49  H   UNL A   1      45.114  26.710  27.840  1.00  0.00     0.167 HD
ATOM     50  C   UNL A   1      41.245  28.532  28.772  1.00  0.00     0.037 A 
ATOM     51  C   UNL A   1      47.823  26.802  27.158  1.00  0.00     0.037 A 
ATOM     52  C   UNL A   1      42.204  29.595  28.912  1.00  0.00     0.049 A 
ATOM     53  C   UNL A   1      47.452  28.199  27.572  1.00  0.00     0.074 A 
ATOM     54  C   UNL A   1      41.993  30.893  29.341  1.00  0.00     0.029 A 
ATOM     55  N   UNL A   1      43.555  29.480  28.625  1.00  0.00    -0.354 N 
ATOM     56  N   UNL A   1      46.283  28.669  27.936  1.00  0.00    -0.248 NA
ATOM     57  C   UNL A   1      48.528  29.200  27.578  1.00  0.00     0.031 C 
ATOM     58  C   UNL A   1      43.213  31.575  29.285  1.00  0.00     0.029 A 
ATOM     59  C   UNL A   1      44.187  30.690  28.852  1.00  0.00     0.049 A 
ATOM     60  H   UNL A   1      43.998  28.661  28.307  1.00  0.00     0.167 HD
ATOM     61  C   UNL A   1      46.489  30.008  28.237  1.00  0.00     0.074 A 
ATOM     62  C   UNL A   1      47.895  30.276  28.025  1.00  0.00     0.031 C 
ATOM     63  C   UNL A   1      45.592  30.934  28.655  1.00  0.00     0.037 A 
BRANCH  50  64
ATOM     64  C   UNL A   1      39.802  28.850  29.027  1.00  0.00     0.057 A 
ATOM     65  C   UNL A   1      38.934  29.221  27.992  1.00  0.00     0.134 A 
ATOM     66  C   UNL A   1      39.263  28.726  30.313  1.00  0.00     0.134 A 
ATOM     67  F   UNL A   1      39.392  29.369  26.740  1.00  0.00    -0.206 F 
ATOM     68  C   UNL A   1      37.582  29.471  28.232  1.00  0.00     0.040 A 
ATOM     69  C   UNL A   1      37.908  28.952  30.560  1.00  0.00     0.040 A 
ATOM     70  F   UNL A   1      40.041  28.369  31.346  1.00  0.00    -0.206 F 
ATOM     71  C   UNL A   1      37.064  29.328  29.517  1.00  0.00     0.006 A 
ENDBRANCH  50  64
BRANCH  51  72
ATOM     72  C   UNL A   1      49.210  26.486  26.738  1.00  0.00     0.057 A 
ATOM     73  C   UNL A   1      49.623  26.666  25.413  1.00  0.00     0.134 A 
ATOM     74  C   UNL A   1      50.148  25.977  27.645  1.00  0.00     0.134 A 
ATOM     75  F   UNL A   1      48.763  27.132  24.496  1.00  0.00    -0.206 F 
ATOM     76  C   UNL A   1      50.913  26.330  24.998  1.00  0.00     0.040 A 
ATOM     77  C   UNL A   1      51.448  25.658  27.247  1.00  0.00     0.040 A 
ATOM     78  F   UNL A   1      49.816  25.789  28.929  1.00  0.00    -0.206 F 
ATOM     79  C   UNL A   1      51.830  25.827  25.917  1.00  0.00     0.006 A 
ENDBRANCH  51  72
BRANCH  63  80
ATOM     80  C   UNL A   1      46.108  32.310  28.946  1.00  0.00     0.057 A 
ATOM     81  C   UNL A   1      46.097  33.321  27.979  1.00  0.00     0.134 A 
ATOM     82  C   UNL A   1      46.565  32.640  30.228  1.00  0.00     0.134 A 
ATOM     83  F   UNL A   1      45.683  33.061  26.729  1.00  0.00    -0.206 F 
ATOM     84  C   UNL A   1      46.536  34.613  28.273  1.00  0.00     0.040 A 
ATOM     85  C   UNL A   1      46.986  33.933  30.541  1.00  0.00     0.040 A 
ATOM     86  F   UNL A   1      46.592  31.717  31.201  1.00  0.00    -0.206 F 
ATOM     87  C   UNL A   1      46.974  34.923  29.559  1.00  0.00     0.006 A 
ENDBRANCH  63  80
ENDBRANCH  37  38
ENDBRANCH  29  32
ENDBRANCH  27  28
ENDBRANCH  26  27
ENDBRANCH  25  26
ENDBRANCH   1  25
TORSDOF 17
ENDMDL
MODEL 3
REMARK VINA RESULT:     -10.1      1.792      2.526
REMARK SMILES CCC[NH2+][C@@H]1COC[C@@H]1C(=O)N[C@@](C)(CC)C(=O)NCCCCNC(=O)c1ccc(-c2c3nc(c(-c4c(F)cccc4F)c4ccc([nH]4)c(-c4c(F)cccc4F)c4nc(c(-c5c(F)cccc5F)c5ccc2[nH]5)C=C4)C=C3)cc1
REMARK SMILES IDX 20 1 19 2 17 3 18 4 13 6 14 7 12 8 10 9 11 10 9 12 5 13 6 14
REMARK SMILES IDX 7 15 8 16 4 17 3 20 2 21 1 22 15 23 16 24 21 25 22 26 23 27
REMARK SMILES IDX 24 28 25 29 26 31 27 32 28 33 80 34 29 35 79 36 30 37 31 38
REMARK SMILES IDX 32 39 73 40 33 41 78 42 72 43 74 44 34 45 77 46 71 47 70 48
REMARK SMILES IDX 35 50 61 51 44 52 60 53 45 54 48 55 59 56 75 57 46 58 47 59
REMARK SMILES IDX 58 61 76 62 49 63 36 64 37 65 42 66 38 67 39 68 41 69 43 70
REMARK SMILES IDX 40 71 62 72 63 73 68 74 64 75 65 76 67 77 69 78 66 79 50 80
REMARK SMILES IDX 51 81 56 82 52 83 53 84 55 85 57 86 54 87
REMARK H PARENT 19 5 12 11 4 18 4 19 24 30 74 49 48 60
REMARK Flexibility Score: inf
ROOT
ATOM      1  C   UNL A   1      35.806  21.242  25.741  1.00  0.00     0.116 C 
ENDROOT
BRANCH   1   2
ATOM      2  N   UNL A   1      34.546  20.772  25.206  1.00  0.00    -0.354 N 
ATOM      3  C   UNL A   1      33.422  21.348  24.721  1.00  0.00     0.245 C 
ATOM      4  O   UNL A   1      32.553  20.506  24.488  1.00  0.00    -0.272 OA
ATOM      5  H   UNL A   1      34.494  19.790  25.190  1.00  0.00     0.163 HD
BRANCH   3   6
ATOM      6  C   UNL A   1      33.240  22.884  24.439  1.00  0.00     0.116 C 
ATOM      7  C   UNL A   1      33.988  23.143  23.103  1.00  0.00     0.045 C 
BRANCH   6   8
ATOM      8  N   UNL A   1      31.871  23.439  24.146  1.00  0.00    -0.341 N 
ATOM      9  C   UNL A   1      31.308  24.494  23.502  1.00  0.00     0.232 C 
ATOM     10  O   UNL A   1      30.143  24.322  23.128  1.00  0.00    -0.274 OA
ATOM     11  H   UNL A   1      31.176  22.864  24.539  1.00  0.00     0.164 HD
BRANCH   9  12
ATOM     12  C   UNL A   1      32.012  25.827  23.323  1.00  0.00     0.164 C 
ATOM     13  C   UNL A   1      31.348  26.974  24.109  1.00  0.00     0.223 C 
ATOM     14  C   UNL A   1      30.331  27.501  23.106  1.00  0.00     0.225 C 
ATOM     15  O   UNL A   1      30.953  27.400  21.821  1.00  0.00    -0.374 OA
ATOM     16  C   UNL A   1      31.918  26.337  21.883  1.00  0.00     0.180 C 
BRANCH  13  17
ATOM     17  N   UNL A   1      30.826  26.610  25.432  1.00  0.00    -0.341 N 
ATOM     18  H   UNL A   1      29.821  26.785  25.431  1.00  0.00     0.346 HD
ATOM     19  H   UNL A   1      31.077  25.630  25.568  1.00  0.00     0.346 HD
BRANCH  17  20
ATOM     20  C   UNL A   1      31.403  27.325  26.561  1.00  0.00     0.260 C 
BRANCH  20  21
ATOM     21  C   UNL A   1      32.935  27.242  26.502  1.00  0.00     0.058 C 
ATOM     22  C   UNL A   1      33.627  28.588  26.319  1.00  0.00     0.010 C 
ENDBRANCH  20  21
ENDBRANCH  17  20
ENDBRANCH  13  17
ENDBRANCH   9  12
ENDBRANCH   6   8
BRANCH   6  23
ATOM     23  C   UNL A   1      33.880  23.754  25.549  1.00  0.00     0.035 C 
ATOM     24  C   UNL A   1      35.033  24.631  25.083  1.00  0.00     0.007 C 
ENDBRANCH   6  23
ENDBRANCH   3   6
ENDBRANCH   1   2
BRANCH   1  25
ATOM     25  C   UNL A   1      36.922  21.143  24.704  1.00  0.00     0.023 C 
BRANCH  25  26
ATOM     26  C   UNL A   1      37.890  19.967  24.884  1.00  0.00     0.023 C 
BRANCH  26  27
ATOM     27  C   UNL A   1      39.116  20.227  25.753  1.00  0.00     0.116 C 
BRANCH  27  28
ATOM     28  N   UNL A   1      40.066  19.130  25.751  1.00  0.00    -0.352 N 
ATOM     29  C   UNL A   1      41.418  19.157  26.006  1.00  0.00     0.251 C 
ATOM     30  H   UNL A   1      39.691  18.245  25.539  1.00  0.00     0.163 HD
ATOM     31  O   UNL A   1      42.091  18.148  25.884  1.00  0.00    -0.269 OA
BRANCH  29  32
ATOM     32  C   UNL A   1      42.058  20.435  26.388  1.00  0.00     0.039 A 
ATOM     33  C   UNL A   1      42.549  21.264  25.377  1.00  0.00     0.014 A 
ATOM     34  C   UNL A   1      42.154  20.821  27.728  1.00  0.00     0.014 A 
ATOM     35  C   UNL A   1      43.071  22.518  25.701  1.00  0.00     0.010 A 
ATOM     36  C   UNL A   1      42.627  22.091  28.046  1.00  0.00     0.010 A 
ATOM     37  C   UNL A   1      43.081  22.955  27.035  1.00  0.00    -0.014 A 
BRANCH  37  38
ATOM     38  C   UNL A   1      43.550  24.314  27.402  1.00  0.00     0.031 A 
ATOM     39  C   UNL A   1      42.559  25.362  27.820  1.00  0.00     0.074 A 
ATOM     40  C   UNL A   1      44.852  24.631  27.263  1.00  0.00     0.049 A 
ATOM     41  N   UNL A   1      42.745  26.640  28.033  1.00  0.00    -0.248 NA
ATOM     42  C   UNL A   1      41.165  24.920  27.993  1.00  0.00     0.031 C 
ATOM     43  C   UNL A   1      45.907  23.716  26.823  1.00  0.00     0.029 A 
ATOM     44  N   UNL A   1      45.506  25.824  27.450  1.00  0.00    -0.354 N 
ATOM     45  C   UNL A   1      41.493  27.160  28.329  1.00  0.00     0.074 A 
ATOM     46  C   UNL A   1      40.549  26.066  28.248  1.00  0.00     0.031 C 
ATOM     47  C   UNL A   1      47.072  24.381  26.769  1.00  0.00     0.029 A 
ATOM     48  C   UNL A   1      46.843  25.775  27.134  1.00  0.00     0.049 A 
ATOM     49  H   UNL A   1      45.060  26.638  27.779  1.00  0.00     0.167 HD
ATOM     50  C   UNL A   1      41.164  28.433  28.650  1.00  0.00     0.037 A 
ATOM     51  C   UNL A   1      47.773  26.748  27.119  1.00  0.00     0.037 A 
ATOM     52  C   UNL A   1      42.110  29.507  28.782  1.00  0.00     0.049 A 
ATOM     53  C   UNL A   1      47.384  28.147  27.509  1.00  0.00     0.074 A 
ATOM     54  C   UNL A   1      41.883  30.810  29.190  1.00  0.00     0.029 A 
ATOM     55  N   UNL A   1      43.465  29.403  28.508  1.00  0.00    -0.354 N 
ATOM     56  N   UNL A   1      46.207  28.610  27.855  1.00  0.00    -0.248 NA
ATOM     57  C   UNL A   1      48.450  29.160  27.509  1.00  0.00     0.031 C 
ATOM     58  C   UNL A   1      43.096  31.503  29.134  1.00  0.00     0.029 A 
ATOM     59  C   UNL A   1      44.083  30.623  28.723  1.00  0.00     0.049 A 
ATOM     60  H   UNL A   1      43.920  28.583  28.207  1.00  0.00     0.167 HD
ATOM     61  C   UNL A   1      46.397  29.956  28.139  1.00  0.00     0.074 A 
ATOM     62  C   UNL A   1      47.802  30.235  27.934  1.00  0.00     0.031 C 
ATOM     63  C   UNL A   1      45.487  30.878  28.535  1.00  0.00     0.037 A 
BRANCH  50  64
ATOM     64  C   UNL A   1      39.716  28.739  28.887  1.00  0.00     0.057 A 
ATOM     65  C   UNL A   1      39.134  28.620  30.155  1.00  0.00     0.134 A 
ATOM     66  C   UNL A   1      38.911  29.218  27.847  1.00  0.00     0.134 A 
ATOM     67  F   UNL A   1      39.850  28.157  31.192  1.00  0.00    -0.206 F 
ATOM     68  C   UNL A   1      37.796  28.952  30.376  1.00  0.00     0.040 A 
ATOM     69  C   UNL A   1      37.578  29.573  28.060  1.00  0.00     0.040 A 
ATOM     70  F   UNL A   1      39.410  29.360  26.610  1.00  0.00    -0.206 F 
ATOM     71  C   UNL A   1      37.017  29.438  29.328  1.00  0.00     0.006 A 
ENDBRANCH  50  64
BRANCH  51  72
ATOM     72  C   UNL A   1      49.168  26.441  26.716  1.00  0.00     0.057 A 
ATOM     73  C   UNL A   1      49.606  26.657  25.404  1.00  0.00     0.134 A 
ATOM     74  C   UNL A   1      50.088  25.904  27.625  1.00  0.00     0.134 A 
ATOM     75  F   UNL A   1      48.763  27.150  24.485  1.00  0.00    -0.206 F 
ATOM     76  C   UNL A   1      50.902  26.330  25.003  1.00  0.00     0.040 A 
ATOM     77  C   UNL A   1      51.394  25.593  27.242  1.00  0.00     0.040 A 
ATOM     78  F   UNL A   1      49.732  25.681  28.897  1.00  0.00    -0.206 F 
ATOM     79  C   UNL A   1      51.801  25.798  25.925  1.00  0.00     0.006 A 
ENDBRANCH  51  72
BRANCH  63  80
ATOM     80  C   UNL A   1      45.985  32.264  28.810  1.00  0.00     0.057 A 
ATOM     81  C   UNL A   1      46.447  32.643  30.075  1.00  0.00     0.134 A 
ATOM     82  C   UNL A   1      46.056  33.210  27.780  1.00  0.00     0.134 A 
ATOM     83  F   UNL A   1      46.392  31.784  31.105  1.00  0.00    -0.206 F 
ATOM     84  C   UNL A   1      46.954  33.922  30.311  1.00  0.00     0.040 A 
ATOM     85  C   UNL A   1      46.580  34.485  27.998  1.00  0.00     0.040 A 
ATOM     86  F   UNL A   1      45.636  32.905  26.543  1.00  0.00    -0.206 F 
ATOM     87  C   UNL A   1      47.028  34.843  29.268  1.00  0.00     0.006 A 
ENDBRANCH  63  80
ENDBRANCH  37  38
ENDBRANCH  29  32
ENDBRANCH  27  28
ENDBRANCH  26  27
ENDBRANCH  25  26
ENDBRANCH   1  25
TORSDOF 17
ENDMDL
