MODEL 1
REMARK VINA RESULT:     -11.6      0.000      0.000
REMARK SMILES C/C(=C(\C#N)C(=O)NCCCCNC(=O)c1ccc(-c2c3nc(c(-c4c(F)cccc4F)c4ccc([nH]4)c(-c4c(F)cccc4F)c4nc(c(-c5c(F)cccc5F)c5ccc2[nH]5)C=C4)C=C3)cc1)c1cccc2ccccc12
REMARK SMILES IDX 11 1 10 2 9 3 8 4 6 5 7 6 3 8 1 9 2 10 70 11 71 12 79 13
REMARK SMILES IDX 72 14 74 15 78 16 73 17 75 18 77 19 76 20 4 21 5 22 12 23
REMARK SMILES IDX 13 24 14 25 15 27 16 28 17 29 69 30 18 31 68 32 19 33 20 34
REMARK SMILES IDX 21 35 62 36 22 37 67 38 61 39 63 40 23 41 66 42 60 43 59 44
REMARK SMILES IDX 24 46 50 47 33 48 49 49 34 50 37 51 48 52 64 53 35 54 36 55
REMARK SMILES IDX 47 57 65 58 38 59 25 60 26 61 31 62 27 63 28 64 30 65 32 66
REMARK SMILES IDX 29 67 51 68 52 69 57 70 53 71 54 72 56 73 58 74 55 75 39 76
REMARK SMILES IDX 40 77 45 78 41 79 42 80 44 81 46 82 43 83
REMARK H PARENT 8 7 13 26 63 45 37 56
REMARK Flexibility Score: inf
ROOT
ATOM      1  C   UNL A   1      37.227  21.308  24.890  1.00  0.00     0.023 C 
ENDROOT
BRANCH   1   2
ATOM      2  C   UNL A   1      36.989  22.549  24.022  1.00  0.00     0.023 C 
BRANCH   2   3
ATOM      3  C   UNL A   1      35.787  23.385  24.450  1.00  0.00     0.116 C 
BRANCH   3   4
ATOM      4  N   UNL A   1      34.759  23.483  23.427  1.00  0.00    -0.351 N 
ATOM      5  C   UNL A   1      33.404  23.642  23.427  1.00  0.00     0.262 C 
ATOM      6  O   UNL A   1      32.966  24.044  22.348  1.00  0.00    -0.268 OA
ATOM      7  H   UNL A   1      35.130  23.418  22.517  1.00  0.00     0.163 HD
BRANCH   5   8
ATOM      8  C   UNL A   1      32.497  23.400  24.638  1.00  0.00     0.120 C 
ATOM      9  C   UNL A   1      31.477  24.036  26.841  1.00  0.00     0.046 C 
ATOM     10  C   UNL A   1      32.169  24.368  25.544  1.00  0.00    -0.020 C 
BRANCH  10  11
ATOM     11  C   UNL A   1      32.497  25.825  25.305  1.00  0.00    -0.013 A 
ATOM     12  C   UNL A   1      33.678  26.290  25.923  1.00  0.00     0.009 A 
ATOM     13  C   UNL A   1      31.653  26.780  24.640  1.00  0.00    -0.011 A 
ATOM     14  C   UNL A   1      33.903  27.649  26.120  1.00  0.00     0.001 A 
ATOM     15  C   UNL A   1      31.885  28.165  24.887  1.00  0.00    -0.018 A 
ATOM     16  C   UNL A   1      30.594  26.488  23.739  1.00  0.00     0.009 A 
ATOM     17  C   UNL A   1      32.978  28.573  25.658  1.00  0.00     0.009 A 
ATOM     18  C   UNL A   1      31.036  29.150  24.357  1.00  0.00     0.009 A 
ATOM     19  C   UNL A   1      29.812  27.488  23.144  1.00  0.00     0.001 A 
ATOM     20  C   UNL A   1      30.010  28.818  23.480  1.00  0.00     0.001 A 
ENDBRANCH  10  11
BRANCH   8  21
ATOM     21  C   UNL A   1      32.170  21.931  24.848  1.00  0.00     0.105 C 
ATOM     22  N   UNL A   1      31.898  20.712  25.021  1.00  0.00    -0.192 NA
ENDBRANCH   8  21
ENDBRANCH   5   8
ENDBRANCH   3   4
ENDBRANCH   2   3
ENDBRANCH   1   2
BRANCH   1  23
ATOM     23  C   UNL A   1      38.522  21.314  25.698  1.00  0.00     0.116 C 
BRANCH  23  24
ATOM     24  N   UNL A   1      39.313  20.099  25.566  1.00  0.00    -0.352 N 
ATOM     25  C   UNL A   1      40.634  19.916  25.925  1.00  0.00     0.251 C 
ATOM     26  H   UNL A   1      38.855  19.318  25.177  1.00  0.00     0.163 HD
ATOM     27  O   UNL A   1      41.220  18.875  25.704  1.00  0.00    -0.269 OA
BRANCH  25  28
ATOM     28  C   UNL A   1      41.332  21.058  26.550  1.00  0.00     0.039 A 
ATOM     29  C   UNL A   1      41.929  22.015  25.728  1.00  0.00     0.014 A 
ATOM     30  C   UNL A   1      41.276  21.230  27.934  1.00  0.00     0.014 A 
ATOM     31  C   UNL A   1      42.401  23.199  26.293  1.00  0.00     0.010 A 
ATOM     32  C   UNL A   1      41.688  22.435  28.485  1.00  0.00     0.010 A 
ATOM     33  C   UNL A   1      42.240  23.436  27.667  1.00  0.00    -0.014 A 
BRANCH  33  34
ATOM     34  C   UNL A   1      42.624  24.728  28.288  1.00  0.00     0.031 A 
ATOM     35  C   UNL A   1      41.585  25.792  28.485  1.00  0.00     0.074 A 
ATOM     36  C   UNL A   1      43.918  24.977  28.569  1.00  0.00     0.049 A 
ATOM     37  N   UNL A   1      41.735  27.037  28.855  1.00  0.00    -0.248 NA
ATOM     38  C   UNL A   1      40.193  25.412  28.195  1.00  0.00     0.031 C 
ATOM     39  C   UNL A   1      45.025  24.037  28.385  1.00  0.00     0.029 A 
ATOM     40  N   UNL A   1      44.524  26.112  29.049  1.00  0.00    -0.354 N 
ATOM     41  C   UNL A   1      40.465  27.595  28.816  1.00  0.00     0.074 A 
ATOM     42  C   UNL A   1      39.563  26.567  28.344  1.00  0.00     0.031 C 
ATOM     43  C   UNL A   1      46.172  24.629  28.756  1.00  0.00     0.029 A 
ATOM     44  C   UNL A   1      45.889  26.002  29.161  1.00  0.00     0.049 A 
ATOM     45  H   UNL A   1      44.027  26.927  29.289  1.00  0.00     0.167 HD
ATOM     46  C   UNL A   1      40.083  28.848  29.159  1.00  0.00     0.037 A 
ATOM     47  C   UNL A   1      46.808  26.914  29.532  1.00  0.00     0.037 A 
ATOM     48  C   UNL A   1      40.980  29.855  29.657  1.00  0.00     0.049 A 
ATOM     49  C   UNL A   1      46.360  28.300  29.905  1.00  0.00     0.074 A 
ATOM     50  C   UNL A   1      40.683  31.135  30.089  1.00  0.00     0.029 A 
ATOM     51  N   UNL A   1      42.351  29.692  29.792  1.00  0.00    -0.354 N 
ATOM     52  N   UNL A   1      45.149  28.801  29.915  1.00  0.00    -0.248 NA
ATOM     53  C   UNL A   1      47.404  29.249  30.318  1.00  0.00     0.031 C 
ATOM     54  C   UNL A   1      41.880  31.761  30.451  1.00  0.00     0.029 A 
ATOM     55  C   UNL A   1      42.915  30.856  30.287  1.00  0.00     0.049 A 
ATOM     56  H   UNL A   1      42.848  28.872  29.570  1.00  0.00     0.167 HD
ATOM     57  C   UNL A   1      45.280  30.107  30.368  1.00  0.00     0.074 A 
ATOM     58  C   UNL A   1      46.688  30.322  30.623  1.00  0.00     0.031 C 
ATOM     59  C   UNL A   1      44.318  31.042  30.558  1.00  0.00     0.037 A 
BRANCH  46  60
ATOM     60  C   UNL A   1      38.632  29.192  29.008  1.00  0.00     0.057 A 
ATOM     61  C   UNL A   1      37.746  29.147  30.092  1.00  0.00     0.134 A 
ATOM     62  C   UNL A   1      38.119  29.599  27.770  1.00  0.00     0.134 A 
ATOM     63  F   UNL A   1      38.171  28.752  31.301  1.00  0.00    -0.206 F 
ATOM     64  C   UNL A   1      36.395  29.467  29.945  1.00  0.00     0.040 A 
ATOM     65  C   UNL A   1      36.777  29.950  27.616  1.00  0.00     0.040 A 
ATOM     66  F   UNL A   1      38.915  29.670  26.692  1.00  0.00    -0.206 F 
ATOM     67  C   UNL A   1      35.908  29.877  28.705  1.00  0.00     0.006 A 
ENDBRANCH  46  60
BRANCH  47  68
ATOM     68  C   UNL A   1      48.246  26.542  29.585  1.00  0.00     0.057 A 
ATOM     69  C   UNL A   1      49.095  26.793  28.502  1.00  0.00     0.134 A 
ATOM     70  C   UNL A   1      48.802  25.925  30.712  1.00  0.00     0.134 A 
ATOM     71  F   UNL A   1      48.614  27.364  27.388  1.00  0.00    -0.206 F 
ATOM     72  C   UNL A   1      50.441  26.428  28.527  1.00  0.00     0.040 A 
ATOM     73  C   UNL A   1      50.154  25.577  30.760  1.00  0.00     0.040 A 
ATOM     74  F   UNL A   1      48.045  25.664  31.787  1.00  0.00    -0.206 F 
ATOM     75  C   UNL A   1      50.975  25.821  29.662  1.00  0.00     0.006 A 
ENDBRANCH  47  68
BRANCH  59  76
ATOM     76  C   UNL A   1      44.741  32.367  31.118  1.00  0.00     0.057 A 
ATOM     77  C   UNL A   1      45.071  33.448  30.292  1.00  0.00     0.134 A 
ATOM     78  C   UNL A   1      44.745  32.581  32.501  1.00  0.00     0.134 A 
ATOM     79  F   UNL A   1      45.097  33.302  28.958  1.00  0.00    -0.206 F 
ATOM     80  C   UNL A   1      45.398  34.696  30.824  1.00  0.00     0.040 A 
ATOM     81  C   UNL A   1      45.047  33.830  33.045  1.00  0.00     0.040 A 
ATOM     82  F   UNL A   1      44.430  31.587  33.345  1.00  0.00    -0.206 F 
ATOM     83  C   UNL A   1      45.378  34.891  32.205  1.00  0.00     0.006 A 
ENDBRANCH  59  76
ENDBRANCH  33  34
ENDBRANCH  25  28
ENDBRANCH  23  24
ENDBRANCH   1  23
TORSDOF 13
ENDMDL
MODEL 2
REMARK VINA RESULT:     -11.6      2.238      7.329
REMARK SMILES C/C(=C(\C#N)C(=O)NCCCCNC(=O)c1ccc(-c2c3nc(c(-c4c(F)cccc4F)c4ccc([nH]4)c(-c4c(F)cccc4F)c4nc(c(-c5c(F)cccc5F)c5ccc2[nH]5)C=C4)C=C3)cc1)c1cccc2ccccc12
REMARK SMILES IDX 11 1 10 2 9 3 8 4 6 5 7 6 3 8 1 9 2 10 70 11 71 12 79 13
REMARK SMILES IDX 72 14 74 15 78 16 73 17 75 18 77 19 76 20 4 21 5 22 12 23
REMARK SMILES IDX 13 24 14 25 15 27 16 28 17 29 69 30 18 31 68 32 19 33 20 34
REMARK SMILES IDX 21 35 62 36 22 37 67 38 61 39 63 40 23 41 66 42 60 43 59 44
REMARK SMILES IDX 24 46 50 47 33 48 49 49 34 50 37 51 48 52 64 53 35 54 36 55
REMARK SMILES IDX 47 57 65 58 38 59 25 60 26 61 31 62 27 63 28 64 30 65 32 66
REMARK SMILES IDX 29 67 51 68 52 69 57 70 53 71 54 72 56 73 58 74 55 75 39 76
REMARK SMILES IDX 40 77 45 78 41 79 42 80 44 81 46 82 43 83
REMARK H PARENT 8 7 13 26 63 45 37 56
REMARK Flexibility Score: inf
ROOT
ATOM      1  C   UNL A   1      33.789  28.654  25.604  1.00  0.00     0.023 C 
ENDROOT
BRANCH   1   2
ATOM      2  C   UNL A   1      33.139  27.448  24.918  1.00  0.00     0.023 C 
BRANCH   2   3
ATOM      3  C   UNL A   1      34.131  26.506  24.245  1.00  0.00     0.116 C 
BRANCH   3   4
ATOM      4  N   UNL A   1      33.502  25.343  23.639  1.00  0.00    -0.351 N 
ATOM      5  C   UNL A   1      32.660  24.362  24.073  1.00  0.00     0.262 C 
ATOM      6  O   UNL A   1      32.078  23.785  23.152  1.00  0.00    -0.268 OA
ATOM      7  H   UNL A   1      33.742  25.240  22.689  1.00  0.00     0.163 HD
BRANCH   5   8
ATOM      8  C   UNL A   1      32.404  24.018  25.544  1.00  0.00     0.120 C 
ATOM      9  C   UNL A   1      32.546  22.529  27.558  1.00  0.00     0.046 C 
ATOM     10  C   UNL A   1      33.002  22.976  26.193  1.00  0.00    -0.020 C 
BRANCH  10  11
ATOM     11  C   UNL A   1      34.142  22.201  25.572  1.00  0.00    -0.013 A 
ATOM     12  C   UNL A   1      33.785  20.971  24.975  1.00  0.00     0.009 A 
ATOM     13  C   UNL A   1      35.537  22.534  25.665  1.00  0.00    -0.011 A 
ATOM     14  C   UNL A   1      34.737  19.990  24.718  1.00  0.00     0.001 A 
ATOM     15  C   UNL A   1      36.490  21.500  25.429  1.00  0.00    -0.018 A 
ATOM     16  C   UNL A   1      36.081  23.811  25.966  1.00  0.00     0.009 A 
ATOM     17  C   UNL A   1      36.072  20.236  25.004  1.00  0.00     0.009 A 
ATOM     18  C   UNL A   1      37.865  21.726  25.606  1.00  0.00     0.009 A 
ATOM     19  C   UNL A   1      37.462  24.044  26.048  1.00  0.00     0.001 A 
ATOM     20  C   UNL A   1      38.353  22.993  25.902  1.00  0.00     0.001 A 
ENDBRANCH  10  11
BRANCH   8  21
ATOM     21  C   UNL A   1      31.265  24.821  26.149  1.00  0.00     0.105 C 
ATOM     22  N   UNL A   1      30.318  25.487  26.650  1.00  0.00    -0.192 NA
ENDBRANCH   8  21
ENDBRANCH   5   8
ENDBRANCH   3   4
ENDBRANCH   2   3
ENDBRANCH   1   2
BRANCH   1  23
ATOM     23  C   UNL A   1      33.583  28.737  27.115  1.00  0.00     0.116 C 
BRANCH  23  24
ATOM     24  N   UNL A   1      33.548  30.095  27.639  1.00  0.00    -0.352 N 
ATOM     25  C   UNL A   1      34.572  30.776  28.266  1.00  0.00     0.251 C 
ATOM     26  H   UNL A   1      32.699  30.582  27.535  1.00  0.00     0.163 HD
ATOM     27  O   UNL A   1      34.412  31.888  28.730  1.00  0.00    -0.269 OA
BRANCH  25  28
ATOM     28  C   UNL A   1      35.870  30.083  28.397  1.00  0.00     0.039 A 
ATOM     29  C   UNL A   1      36.779  30.149  27.340  1.00  0.00     0.014 A 
ATOM     30  C   UNL A   1      36.216  29.486  29.609  1.00  0.00     0.014 A 
ATOM     31  C   UNL A   1      38.081  29.685  27.531  1.00  0.00     0.010 A 
ATOM     32  C   UNL A   1      37.528  29.085  29.818  1.00  0.00     0.010 A 
ATOM     33  C   UNL A   1      38.476  29.195  28.785  1.00  0.00    -0.014 A 
BRANCH  33  34
ATOM     34  C   UNL A   1      39.878  28.799  29.063  1.00  0.00     0.031 A 
ATOM     35  C   UNL A   1      40.829  29.803  29.645  1.00  0.00     0.074 A 
ATOM     36  C   UNL A   1      40.316  27.580  28.694  1.00  0.00     0.049 A 
ATOM     37  N   UNL A   1      42.123  29.717  29.813  1.00  0.00    -0.248 NA
ATOM     38  C   UNL A   1      40.250  31.091  30.061  1.00  0.00     0.031 C 
ATOM     39  C   UNL A   1      39.496  26.531  28.084  1.00  0.00     0.029 A 
ATOM     40  N   UNL A   1      41.570  27.025  28.756  1.00  0.00    -0.354 N 
ATOM     41  C   UNL A   1      42.515  30.944  30.328  1.00  0.00     0.074 A 
ATOM     42  C   UNL A   1      41.333  31.773  30.403  1.00  0.00     0.031 C 
ATOM     43  C   UNL A   1      40.266  25.458  27.837  1.00  0.00     0.029 A 
ATOM     44  C   UNL A   1      41.639  25.758  28.229  1.00  0.00     0.049 A 
ATOM     45  H   UNL A   1      42.347  27.492  29.140  1.00  0.00     0.167 HD
ATOM     46  C   UNL A   1      43.750  31.339  30.720  1.00  0.00     0.037 A 
ATOM     47  C   UNL A   1      42.696  24.940  28.065  1.00  0.00     0.037 A 
ATOM     48  C   UNL A   1      44.916  30.499  30.671  1.00  0.00     0.049 A 
ATOM     49  C   UNL A   1      44.058  25.401  28.504  1.00  0.00     0.074 A 
ATOM     50  C   UNL A   1      46.201  30.783  31.100  1.00  0.00     0.029 A 
ATOM     51  N   UNL A   1      44.937  29.208  30.167  1.00  0.00    -0.354 N 
ATOM     52  N   UNL A   1      44.409  26.545  29.040  1.00  0.00    -0.248 NA
ATOM     53  C   UNL A   1      45.173  24.460  28.317  1.00  0.00     0.031 C 
ATOM     54  C   UNL A   1      47.009  29.677  30.820  1.00  0.00     0.029 A 
ATOM     55  C   UNL A   1      46.217  28.688  30.259  1.00  0.00     0.049 A 
ATOM     56  H   UNL A   1      44.159  28.731  29.798  1.00  0.00     0.167 HD
ATOM     57  C   UNL A   1      45.772  26.449  29.286  1.00  0.00     0.074 A 
ATOM     58  C   UNL A   1      46.186  25.134  28.843  1.00  0.00     0.031 C 
ATOM     59  C   UNL A   1      46.605  27.367  29.834  1.00  0.00     0.037 A 
BRANCH  46  60
ATOM     60  C   UNL A   1      43.896  32.738  31.236  1.00  0.00     0.057 A 
ATOM     61  C   UNL A   1      44.166  33.816  30.382  1.00  0.00     0.134 A 
ATOM     62  C   UNL A   1      43.739  33.017  32.599  1.00  0.00     0.134 A 
ATOM     63  F   UNL A   1      44.342  33.614  29.068  1.00  0.00    -0.206 F 
ATOM     64  C   UNL A   1      44.303  35.117  30.870  1.00  0.00     0.040 A 
ATOM     65  C   UNL A   1      43.845  34.317  33.095  1.00  0.00     0.040 A 
ATOM     66  F   UNL A   1      43.474  32.032  33.470  1.00  0.00    -0.206 F 
ATOM     67  C   UNL A   1      44.136  35.372  32.229  1.00  0.00     0.006 A 
ENDBRANCH  46  60
BRANCH  47  68
ATOM     68  C   UNL A   1      42.508  23.591  27.472  1.00  0.00     0.057 A 
ATOM     69  C   UNL A   1      42.259  22.477  28.282  1.00  0.00     0.134 A 
ATOM     70  C   UNL A   1      42.578  23.380  26.089  1.00  0.00     0.134 A 
ATOM     71  F   UNL A   1      42.200  22.613  29.614  1.00  0.00    -0.206 F 
ATOM     72  C   UNL A   1      42.104  21.200  27.742  1.00  0.00     0.040 A 
ATOM     73  C   UNL A   1      42.400  22.111  25.534  1.00  0.00     0.040 A 
ATOM     74  F   UNL A   1      42.805  24.406  25.258  1.00  0.00    -0.206 F 
ATOM     75  C   UNL A   1      42.170  21.015  26.363  1.00  0.00     0.006 A 
ENDBRANCH  47  68
BRANCH  59  76
ATOM     76  C   UNL A   1      48.036  26.969  30.038  1.00  0.00     0.057 A 
ATOM     77  C   UNL A   1      48.453  26.264  31.172  1.00  0.00     0.134 A 
ATOM     78  C   UNL A   1      48.991  27.232  29.048  1.00  0.00     0.134 A 
ATOM     79  F   UNL A   1      47.588  25.992  32.161  1.00  0.00    -0.206 F 
ATOM     80  C   UNL A   1      49.775  25.840  31.319  1.00  0.00     0.040 A 
ATOM     81  C   UNL A   1      50.309  26.793  29.172  1.00  0.00     0.040 A 
ATOM     82  F   UNL A   1      48.651  27.897  27.933  1.00  0.00    -0.206 F 
ATOM     83  C   UNL A   1      50.704  26.097  30.312  1.00  0.00     0.006 A 
ENDBRANCH  59  76
ENDBRANCH  33  34
ENDBRANCH  25  28
ENDBRANCH  23  24
ENDBRANCH   1  23
TORSDOF 13
ENDMDL
MODEL 3
REMARK VINA RESULT:     -11.6      2.211      7.233
REMARK SMILES C/C(=C(\C#N)C(=O)NCCCCNC(=O)c1ccc(-c2c3nc(c(-c4c(F)cccc4F)c4ccc([nH]4)c(-c4c(F)cccc4F)c4nc(c(-c5c(F)cccc5F)c5ccc2[nH]5)C=C4)C=C3)cc1)c1cccc2ccccc12
REMARK SMILES IDX 11 1 10 2 9 3 8 4 6 5 7 6 3 8 1 9 2 10 70 11 71 12 79 13
REMARK SMILES IDX 72 14 74 15 78 16 73 17 75 18 77 19 76 20 4 21 5 22 12 23
REMARK SMILES IDX 13 24 14 25 15 27 16 28 17 29 69 30 18 31 68 32 19 33 20 34
REMARK SMILES IDX 21 35 62 36 22 37 67 38 61 39 63 40 23 41 66 42 60 43 59 44
REMARK SMILES IDX 24 46 50 47 33 48 49 49 34 50 37 51 48 52 64 53 35 54 36 55
REMARK SMILES IDX 47 57 65 58 38 59 25 60 26 61 31 62 27 63 28 64 30 65 32 66
REMARK SMILES IDX 29 67 51 68 52 69 57 70 53 71 54 72 56 73 58 74 55 75 39 76
REMARK SMILES IDX 40 77 45 78 41 79 42 80 44 81 46 82 43 83
REMARK H PARENT 8 7 13 26 63 45 37 56
REMARK Flexibility Score: inf
ROOT
ATOM      1  C   UNL A   1      33.959  28.677  25.840  1.00  0.00     0.023 C 
ENDROOT
BRANCH   1   2
ATOM      2  C   UNL A   1      33.963  27.271  25.230  1.00  0.00     0.023 C 
BRANCH   2   3
ATOM      3  C   UNL A   1      33.151  27.149  23.945  1.00  0.00     0.116 C 
BRANCH   3   4
ATOM      4  N   UNL A   1      33.100  25.793  23.423  1.00  0.00    -0.351 N 
ATOM      5  C   UNL A   1      32.629  24.597  23.878  1.00  0.00     0.262 C 
ATOM      6  O   UNL A   1      32.451  23.775  22.978  1.00  0.00    -0.268 OA
ATOM      7  H   UNL A   1      33.502  25.722  22.526  1.00  0.00     0.163 HD
BRANCH   5   8
ATOM      8  C   UNL A   1      32.300  24.289  25.343  1.00  0.00     0.120 C 
ATOM      9  C   UNL A   1      32.272  22.819  27.376  1.00  0.00     0.046 C 
ATOM     10  C   UNL A   1      32.803  23.217  26.023  1.00  0.00    -0.020 C 
BRANCH  10  11
ATOM     11  C   UNL A   1      33.910  22.361  25.451  1.00  0.00    -0.013 A 
ATOM     12  C   UNL A   1      33.502  21.118  24.918  1.00  0.00     0.009 A 
ATOM     13  C   UNL A   1      35.319  22.637  25.535  1.00  0.00    -0.011 A 
ATOM     14  C   UNL A   1      34.410  20.083  24.720  1.00  0.00     0.001 A 
ATOM     15  C   UNL A   1      36.226  21.551  25.359  1.00  0.00    -0.018 A 
ATOM     16  C   UNL A   1      35.917  23.904  25.770  1.00  0.00     0.009 A 
ATOM     17  C   UNL A   1      35.754  20.285  25.000  1.00  0.00     0.009 A 
ATOM     18  C   UNL A   1      37.609  21.725  25.532  1.00  0.00     0.009 A 
ATOM     19  C   UNL A   1      37.307  24.079  25.848  1.00  0.00     0.001 A 
ATOM     20  C   UNL A   1      38.152  22.984  25.763  1.00  0.00     0.001 A 
ENDBRANCH  10  11
BRANCH   8  21
ATOM     21  C   UNL A   1      31.196  25.173  25.899  1.00  0.00     0.105 C 
ATOM     22  N   UNL A   1      30.280  25.908  26.358  1.00  0.00    -0.192 NA
ENDBRANCH   8  21
ENDBRANCH   5   8
ENDBRANCH   3   4
ENDBRANCH   2   3
ENDBRANCH   1   2
BRANCH   1  23
ATOM     23  C   UNL A   1      33.799  28.732  27.358  1.00  0.00     0.116 C 
BRANCH  23  24
ATOM     24  N   UNL A   1      33.820  30.078  27.912  1.00  0.00    -0.352 N 
ATOM     25  C   UNL A   1      34.890  30.727  28.495  1.00  0.00     0.251 C 
ATOM     26  H   UNL A   1      32.976  30.583  27.866  1.00  0.00     0.163 HD
ATOM     27  O   UNL A   1      34.777  31.831  28.991  1.00  0.00    -0.269 OA
BRANCH  25  28
ATOM     28  C   UNL A   1      36.179  30.008  28.539  1.00  0.00     0.039 A 
ATOM     29  C   UNL A   1      37.030  30.080  27.434  1.00  0.00     0.014 A 
ATOM     30  C   UNL A   1      36.580  29.378  29.718  1.00  0.00     0.014 A 
ATOM     31  C   UNL A   1      38.330  29.589  27.543  1.00  0.00     0.010 A 
ATOM     32  C   UNL A   1      37.894  28.948  29.844  1.00  0.00     0.010 A 
ATOM     33  C   UNL A   1      38.785  29.064  28.763  1.00  0.00    -0.014 A 
BRANCH  33  34
ATOM     34  C   UNL A   1      40.192  28.636  28.954  1.00  0.00     0.031 A 
ATOM     35  C   UNL A   1      41.205  29.626  29.450  1.00  0.00     0.074 A 
ATOM     36  C   UNL A   1      40.574  27.400  28.579  1.00  0.00     0.049 A 
ATOM     37  N   UNL A   1      42.505  29.509  29.533  1.00  0.00    -0.248 NA
ATOM     38  C   UNL A   1      40.688  30.936  29.879  1.00  0.00     0.031 C 
ATOM     39  C   UNL A   1      39.689  26.362  28.046  1.00  0.00     0.029 A 
ATOM     40  N   UNL A   1      41.815  26.814  28.567  1.00  0.00    -0.354 N 
ATOM     41  C   UNL A   1      42.962  30.735  29.996  1.00  0.00     0.074 A 
ATOM     42  C   UNL A   1      41.808  31.595  30.135  1.00  0.00     0.031 C 
ATOM     43  C   UNL A   1      40.414  25.265  27.769  1.00  0.00     0.029 A 
ATOM     44  C   UNL A   1      41.818  25.537  28.062  1.00  0.00     0.049 A 
ATOM     45  H   UNL A   1      42.628  27.267  28.889  1.00  0.00     0.167 HD
ATOM     46  C   UNL A   1      44.230  31.104  30.296  1.00  0.00     0.037 A 
ATOM     47  C   UNL A   1      42.840  24.688  27.843  1.00  0.00     0.037 A 
ATOM     48  C   UNL A   1      45.369  30.233  30.186  1.00  0.00     0.049 A 
ATOM     49  C   UNL A   1      44.240  25.122  28.181  1.00  0.00     0.074 A 
ATOM     50  C   UNL A   1      46.686  30.492  30.522  1.00  0.00     0.029 A 
ATOM     51  N   UNL A   1      45.324  28.933  29.706  1.00  0.00    -0.354 N 
ATOM     52  N   UNL A   1      44.654  26.265  28.670  1.00  0.00    -0.248 NA
ATOM     53  C   UNL A   1      45.316  24.149  27.938  1.00  0.00     0.031 C 
ATOM     54  C   UNL A   1      47.445  29.360  30.210  1.00  0.00     0.029 A 
ATOM     55  C   UNL A   1      46.594  28.382  29.722  1.00  0.00     0.049 A 
ATOM     56  H   UNL A   1      44.511  28.471  29.400  1.00  0.00     0.167 HD
ATOM     57  C   UNL A   1      46.028  26.138  28.825  1.00  0.00     0.074 A 
ATOM     58  C   UNL A   1      46.378  24.806  28.381  1.00  0.00     0.031 C 
ATOM     59  C   UNL A   1      46.918  27.044  29.298  1.00  0.00     0.037 A 
BRANCH  46  60
ATOM     60  C   UNL A   1      44.445  32.508  30.774  1.00  0.00     0.057 A 
ATOM     61  C   UNL A   1      44.399  32.841  32.134  1.00  0.00     0.134 A 
ATOM     62  C   UNL A   1      44.728  33.536  29.866  1.00  0.00     0.134 A 
ATOM     63  F   UNL A   1      44.119  31.905  33.053  1.00  0.00    -0.206 F 
ATOM     64  C   UNL A   1      44.598  34.151  32.572  1.00  0.00     0.040 A 
ATOM     65  C   UNL A   1      44.958  34.845  30.294  1.00  0.00     0.040 A 
ATOM     66  F   UNL A   1      44.793  33.285  28.550  1.00  0.00    -0.206 F 
ATOM     67  C   UNL A   1      44.886  35.157  31.651  1.00  0.00     0.006 A 
ENDBRANCH  46  60
BRANCH  47  68
ATOM     68  C   UNL A   1      42.579  23.334  27.290  1.00  0.00     0.057 A 
ATOM     69  C   UNL A   1      42.654  23.092  25.914  1.00  0.00     0.134 A 
ATOM     70  C   UNL A   1      42.244  22.256  28.118  1.00  0.00     0.134 A 
ATOM     71  F   UNL A   1      42.953  24.091  25.070  1.00  0.00    -0.206 F 
ATOM     72  C   UNL A   1      42.388  21.832  25.377  1.00  0.00     0.040 A 
ATOM     73  C   UNL A   1      41.999  20.984  27.596  1.00  0.00     0.040 A 
ATOM     74  F   UNL A   1      42.163  22.419  29.446  1.00  0.00    -0.206 F 
ATOM     75  C   UNL A   1      42.063  20.772  26.220  1.00  0.00     0.006 A 
ENDBRANCH  47  68
BRANCH  59  76
ATOM     76  C   UNL A   1      48.350  26.613  29.413  1.00  0.00     0.057 A 
ATOM     77  C   UNL A   1      49.293  26.909  28.423  1.00  0.00     0.134 A 
ATOM     78  C   UNL A   1      48.801  25.959  30.566  1.00  0.00     0.134 A 
ATOM     79  F   UNL A   1      48.920  27.523  27.289  1.00  0.00    -0.206 F 
ATOM     80  C   UNL A   1      50.637  26.561  28.572  1.00  0.00     0.040 A 
ATOM     81  C   UNL A   1      50.146  25.628  30.738  1.00  0.00     0.040 A 
ATOM     82  F   UNL A   1      47.947  25.656  31.556  1.00  0.00    -0.206 F 
ATOM     83  C   UNL A   1      51.067  25.927  29.737  1.00  0.00     0.006 A 
ENDBRANCH  59  76
ENDBRANCH  33  34
ENDBRANCH  25  28
ENDBRANCH  23  24
ENDBRANCH   1  23
TORSDOF 13
ENDMDL
