MODEL 1
REMARK VINA RESULT:     -12.3      0.000      0.000
REMARK SMILES Cc1oc(C)c(S(=O)(=O)Nn2c(C)ccc2C)c1C(=O)NCCCCNC(=O)c1ccc(-c2c3nc(c(-c4c(F)cccc4F)c4ccc([nH]4)c(-c4c(F)cccc4F)c4nc(c(-c5c(F)cccc5F)c5ccc2[nH]5)C=C4)C=C3)cc1
REMARK SMILES IDX 23 1 22 2 21 3 19 4 20 5 18 7 1 8 2 9 3 10 4 11 6 12 5 13
REMARK SMILES IDX 7 14 8 15 9 16 10 17 11 19 12 20 16 21 13 22 14 23 15 24
REMARK SMILES IDX 17 25 24 26 25 27 26 28 27 29 28 31 29 32 30 33 82 34 31 35
REMARK SMILES IDX 81 36 32 37 33 38 34 39 75 40 35 41 80 42 74 43 76 44 36 45
REMARK SMILES IDX 79 46 73 47 72 48 37 50 63 51 46 52 62 53 47 54 50 55 61 56
REMARK SMILES IDX 77 57 48 58 49 59 60 61 78 62 51 63 38 64 39 65 44 66 40 67
REMARK SMILES IDX 41 68 43 69 45 70 42 71 64 72 65 73 70 74 66 75 67 76 69 77
REMARK SMILES IDX 71 78 68 79 52 80 53 81 58 82 54 83 55 84 57 85 59 86 56 87
REMARK H PARENT 21 6 10 18 26 30 76 49 50 60
REMARK Flexibility Score: inf
ROOT
ATOM      1  C   UNL A   1      36.727  21.721  24.352  1.00  0.00     0.023 C 
ENDROOT
BRANCH   1   2
ATOM      2  C   UNL A   1      36.077  20.755  25.341  1.00  0.00     0.116 C 
BRANCH   2   3
ATOM      3  N   UNL A   1      35.330  21.309  26.453  1.00  0.00    -0.352 N 
ATOM      4  C   UNL A   1      34.006  21.654  26.572  1.00  0.00     0.256 C 
ATOM      5  O   UNL A   1      33.545  21.784  27.704  1.00  0.00    -0.269 OA
ATOM      6  H   UNL A   1      35.867  21.465  27.264  1.00  0.00     0.163 HD
BRANCH   4   7
ATOM      7  C   UNL A   1      33.176  21.940  25.421  1.00  0.00     0.101 A 
ATOM      8  C   UNL A   1      32.966  19.635  24.102  1.00  0.00     0.088 C 
ATOM      9  C   UNL A   1      32.749  21.061  24.432  1.00  0.00     0.115 A 
ATOM     10  O   UNL A   1      31.869  21.673  23.596  1.00  0.00    -0.464 OA
ATOM     11  C   UNL A   1      31.676  22.932  24.052  1.00  0.00     0.122 A 
ATOM     12  C   UNL A   1      32.489  23.174  25.144  1.00  0.00     0.143 A 
ATOM     13  C   UNL A   1      30.650  23.715  23.329  1.00  0.00     0.089 C 
BRANCH  12  14
ATOM     14  S   UNL A   1      32.489  24.701  25.936  1.00  0.00     0.279 S 
ATOM     15  O   UNL A   1      31.684  24.464  27.127  1.00  0.00    -0.200 OA
ATOM     16  O   UNL A   1      33.898  24.978  26.070  1.00  0.00    -0.200 OA
BRANCH  14  17
ATOM     17  N   UNL A   1      31.879  26.029  25.189  1.00  0.00    -0.216 N 
ATOM     18  H   UNL A   1      31.091  25.867  24.620  1.00  0.00     0.202 HD
BRANCH  17  19
ATOM     19  N   UNL A   1      32.309  27.345  25.241  1.00  0.00    -0.256 N 
ATOM     20  C   UNL A   1      32.176  28.285  26.237  1.00  0.00     0.038 A 
ATOM     21  C   UNL A   1      33.027  27.878  24.187  1.00  0.00     0.038 A 
ATOM     22  C   UNL A   1      31.617  28.074  27.596  1.00  0.00     0.067 C 
ATOM     23  C   UNL A   1      32.724  29.462  25.749  1.00  0.00     0.025 A 
ATOM     24  C   UNL A   1      33.235  29.215  24.462  1.00  0.00     0.025 A 
ATOM     25  C   UNL A   1      33.389  27.138  22.942  1.00  0.00     0.067 C 
ENDBRANCH  17  19
ENDBRANCH  14  17
ENDBRANCH  12  14
ENDBRANCH   4   7
ENDBRANCH   2   3
ENDBRANCH   1   2
BRANCH   1  26
ATOM     26  C   UNL A   1      36.901  23.216  24.659  1.00  0.00     0.023 C 
BRANCH  26  27
ATOM     27  C   UNL A   1      37.740  23.672  25.853  1.00  0.00     0.116 C 
BRANCH  27  28
ATOM     28  N   UNL A   1      38.831  22.799  26.214  1.00  0.00    -0.352 N 
ATOM     29  C   UNL A   1      39.863  23.114  27.082  1.00  0.00     0.251 C 
ATOM     30  H   UNL A   1      38.843  21.903  25.807  1.00  0.00     0.163 HD
ATOM     31  O   UNL A   1      40.699  22.258  27.357  1.00  0.00    -0.269 OA
BRANCH  29  32
ATOM     32  C   UNL A   1      40.029  24.527  27.573  1.00  0.00     0.039 A 
ATOM     33  C   UNL A   1      39.235  24.910  28.632  1.00  0.00     0.014 A 
ATOM     34  C   UNL A   1      40.864  25.512  27.012  1.00  0.00     0.014 A 
ATOM     35  C   UNL A   1      39.319  26.229  29.135  1.00  0.00     0.010 A 
ATOM     36  C   UNL A   1      40.857  26.899  27.470  1.00  0.00     0.010 A 
ATOM     37  C   UNL A   1      40.057  27.325  28.545  1.00  0.00    -0.014 A 
BRANCH  37  38
ATOM     38  C   UNL A   1      39.534  28.814  28.922  1.00  0.00     0.031 A 
ATOM     39  C   UNL A   1      40.815  29.540  29.177  1.00  0.00     0.074 A 
ATOM     40  C   UNL A   1      38.413  29.585  29.235  1.00  0.00     0.049 A 
ATOM     41  N   UNL A   1      41.618  29.070  30.092  1.00  0.00    -0.248 NA
ATOM     42  C   UNL A   1      41.449  30.435  28.206  1.00  0.00     0.031 C 
ATOM     43  C   UNL A   1      37.020  29.147  29.415  1.00  0.00     0.029 A 
ATOM     44  N   UNL A   1      38.248  30.990  29.483  1.00  0.00    -0.354 N 
ATOM     45  C   UNL A   1      42.787  29.776  29.988  1.00  0.00     0.074 A 
ATOM     46  C   UNL A   1      42.698  30.431  28.688  1.00  0.00     0.031 C 
ATOM     47  C   UNL A   1      36.168  30.204  29.585  1.00  0.00     0.029 A 
ATOM     48  C   UNL A   1      36.891  31.477  29.592  1.00  0.00     0.049 A 
ATOM     49  H   UNL A   1      39.021  31.592  29.573  1.00  0.00     0.167 HD
ATOM     50  C   UNL A   1      43.266  30.277  31.161  1.00  0.00     0.037 A 
ATOM     51  C   UNL A   1      36.384  32.770  29.753  1.00  0.00     0.037 A 
ATOM     52  C   UNL A   1      42.908  31.660  31.309  1.00  0.00     0.049 A 
ATOM     53  C   UNL A   1      37.463  33.543  30.373  1.00  0.00     0.074 A 
ATOM     54  C   UNL A   1      42.961  32.731  30.436  1.00  0.00     0.029 A 
ATOM     55  N   UNL A   1      41.944  31.957  32.245  1.00  0.00    -0.354 N 
ATOM     56  N   UNL A   1      37.693  33.466  31.646  1.00  0.00    -0.248 NA
ATOM     57  C   UNL A   1      38.263  34.513  29.637  1.00  0.00     0.031 C 
ATOM     58  C   UNL A   1      41.692  33.338  30.553  1.00  0.00     0.029 A 
ATOM     59  C   UNL A   1      41.108  32.930  31.743  1.00  0.00     0.049 A 
ATOM     60  H   UNL A   1      41.864  31.540  33.133  1.00  0.00     0.167 HD
ATOM     61  C   UNL A   1      38.955  33.944  31.752  1.00  0.00     0.074 A 
ATOM     62  C   UNL A   1      39.140  34.808  30.600  1.00  0.00     0.031 C 
ATOM     63  C   UNL A   1      39.836  33.135  32.383  1.00  0.00     0.037 A 
BRANCH  50  64
ATOM     64  C   UNL A   1      43.287  29.255  32.266  1.00  0.00     0.057 A 
ATOM     65  C   UNL A   1      44.473  28.565  32.517  1.00  0.00     0.134 A 
ATOM     66  C   UNL A   1      42.129  28.791  32.921  1.00  0.00     0.134 A 
ATOM     67  F   UNL A   1      45.628  28.982  31.977  1.00  0.00    -0.206 F 
ATOM     68  C   UNL A   1      44.493  27.412  33.309  1.00  0.00     0.040 A 
ATOM     69  C   UNL A   1      42.123  27.605  33.656  1.00  0.00     0.040 A 
ATOM     70  F   UNL A   1      40.970  29.464  32.834  1.00  0.00    -0.206 F 
ATOM     71  C   UNL A   1      43.308  26.903  33.840  1.00  0.00     0.006 A 
ENDBRANCH  50  64
BRANCH  51  72
ATOM     72  C   UNL A   1      35.115  33.672  29.724  1.00  0.00     0.057 A 
ATOM     73  C   UNL A   1      34.467  34.095  30.939  1.00  0.00     0.134 A 
ATOM     74  C   UNL A   1      34.784  34.479  28.630  1.00  0.00     0.134 A 
ATOM     75  F   UNL A   1      34.604  33.415  32.085  1.00  0.00    -0.206 F 
ATOM     76  C   UNL A   1      33.699  35.269  31.077  1.00  0.00     0.040 A 
ATOM     77  C   UNL A   1      33.972  35.643  28.751  1.00  0.00     0.040 A 
ATOM     78  F   UNL A   1      35.304  34.223  27.423  1.00  0.00    -0.206 F 
ATOM     79  C   UNL A   1      33.465  36.067  29.979  1.00  0.00     0.006 A 
ENDBRANCH  51  72
BRANCH  63  80
ATOM     80  C   UNL A   1      39.348  32.409  33.625  1.00  0.00     0.057 A 
ATOM     81  C   UNL A   1      38.570  31.231  33.685  1.00  0.00     0.134 A 
ATOM     82  C   UNL A   1      39.642  33.001  34.861  1.00  0.00     0.134 A 
ATOM     83  F   UNL A   1      38.303  30.484  32.604  1.00  0.00    -0.206 F 
ATOM     84  C   UNL A   1      38.046  30.743  34.892  1.00  0.00     0.040 A 
ATOM     85  C   UNL A   1      39.176  32.489  36.074  1.00  0.00     0.040 A 
ATOM     86  F   UNL A   1      40.408  34.101  34.913  1.00  0.00    -0.206 F 
ATOM     87  C   UNL A   1      38.351  31.371  36.091  1.00  0.00     0.006 A 
ENDBRANCH  63  80
ENDBRANCH  37  38
ENDBRANCH  29  32
ENDBRANCH  27  28
ENDBRANCH  26  27
ENDBRANCH   1  26
TORSDOF 14
ENDMDL
MODEL 2
REMARK VINA RESULT:     -12.0      3.703      9.112
REMARK SMILES Cc1oc(C)c(S(=O)(=O)Nn2c(C)ccc2C)c1C(=O)NCCCCNC(=O)c1ccc(-c2c3nc(c(-c4c(F)cccc4F)c4ccc([nH]4)c(-c4c(F)cccc4F)c4nc(c(-c5c(F)cccc5F)c5ccc2[nH]5)C=C4)C=C3)cc1
REMARK SMILES IDX 23 1 22 2 21 3 19 4 20 5 18 7 1 8 2 9 3 10 4 11 6 12 5 13
REMARK SMILES IDX 7 14 8 15 9 16 10 17 11 19 12 20 16 21 13 22 14 23 15 24
REMARK SMILES IDX 17 25 24 26 25 27 26 28 27 29 28 31 29 32 30 33 82 34 31 35
REMARK SMILES IDX 81 36 32 37 33 38 34 39 75 40 35 41 80 42 74 43 76 44 36 45
REMARK SMILES IDX 79 46 73 47 72 48 37 50 63 51 46 52 62 53 47 54 50 55 61 56
REMARK SMILES IDX 77 57 48 58 49 59 60 61 78 62 51 63 38 64 39 65 44 66 40 67
REMARK SMILES IDX 41 68 43 69 45 70 42 71 64 72 65 73 70 74 66 75 67 76 69 77
REMARK SMILES IDX 71 78 68 79 52 80 53 81 58 82 54 83 55 84 57 85 59 86 56 87
REMARK H PARENT 21 6 10 18 26 30 76 49 50 60
REMARK Flexibility Score: inf
ROOT
ATOM      1  C   UNL A   1      31.800  29.247  26.624  1.00  0.00     0.023 C 
ENDROOT
BRANCH   1   2
ATOM      2  C   UNL A   1      31.538  30.013  25.328  1.00  0.00     0.116 C 
BRANCH   2   3
ATOM      3  N   UNL A   1      32.360  29.712  24.173  1.00  0.00    -0.352 N 
ATOM      4  C   UNL A   1      32.225  28.763  23.188  1.00  0.00     0.256 C 
ATOM      5  O   UNL A   1      32.855  28.924  22.145  1.00  0.00    -0.269 OA
ATOM      6  H   UNL A   1      33.153  30.288  24.079  1.00  0.00     0.163 HD
BRANCH   4   7
ATOM      7  C   UNL A   1      31.437  27.564  23.375  1.00  0.00     0.101 A 
ATOM      8  C   UNL A   1      28.898  28.372  23.389  1.00  0.00     0.088 C 
ATOM      9  C   UNL A   1      30.052  27.447  23.427  1.00  0.00     0.115 A 
ATOM     10  O   UNL A   1      29.684  26.140  23.473  1.00  0.00    -0.464 OA
ATOM     11  C   UNL A   1      30.810  25.393  23.404  1.00  0.00     0.122 A 
ATOM     12  C   UNL A   1      31.924  26.210  23.391  1.00  0.00     0.143 A 
ATOM     13  C   UNL A   1      30.594  23.932  23.321  1.00  0.00     0.089 C 
BRANCH  12  14
ATOM     14  S   UNL A   1      33.513  25.552  23.330  1.00  0.00     0.279 S 
ATOM     15  O   UNL A   1      33.931  25.803  21.957  1.00  0.00    -0.200 OA
ATOM     16  O   UNL A   1      34.172  26.240  24.414  1.00  0.00    -0.200 OA
BRANCH  14  17
ATOM     17  N   UNL A   1      33.770  23.961  23.637  1.00  0.00    -0.216 N 
ATOM     18  H   UNL A   1      33.434  23.341  22.949  1.00  0.00     0.202 HD
BRANCH  17  19
ATOM     19  N   UNL A   1      34.390  23.361  24.721  1.00  0.00    -0.256 N 
ATOM     20  C   UNL A   1      33.931  23.148  26.001  1.00  0.00     0.038 A 
ATOM     21  C   UNL A   1      35.657  22.827  24.582  1.00  0.00     0.038 A 
ATOM     22  C   UNL A   1      32.567  23.420  26.518  1.00  0.00     0.067 C 
ATOM     23  C   UNL A   1      34.977  22.571  26.707  1.00  0.00     0.025 A 
ATOM     24  C   UNL A   1      36.060  22.390  25.828  1.00  0.00     0.025 A 
ATOM     25  C   UNL A   1      36.457  22.846  23.322  1.00  0.00     0.067 C 
ENDBRANCH  17  19
ENDBRANCH  14  17
ENDBRANCH  12  14
ENDBRANCH   4   7
ENDBRANCH   2   3
ENDBRANCH   1   2
BRANCH   1  26
ATOM     26  C   UNL A   1      33.163  28.613  26.940  1.00  0.00     0.023 C 
BRANCH  26  27
ATOM     27  C   UNL A   1      34.090  29.241  27.982  1.00  0.00     0.116 C 
BRANCH  27  28
ATOM     28  N   UNL A   1      34.299  30.663  27.850  1.00  0.00    -0.352 N 
ATOM     29  C   UNL A   1      35.528  31.300  27.844  1.00  0.00     0.251 C 
ATOM     30  H   UNL A   1      33.498  31.228  27.756  1.00  0.00     0.163 HD
ATOM     31  O   UNL A   1      35.575  32.513  27.659  1.00  0.00    -0.269 OA
BRANCH  29  32
ATOM     32  C   UNL A   1      36.776  30.534  28.193  1.00  0.00     0.039 A 
ATOM     33  C   UNL A   1      37.540  30.086  27.138  1.00  0.00     0.014 A 
ATOM     34  C   UNL A   1      37.198  30.173  29.487  1.00  0.00     0.014 A 
ATOM     35  C   UNL A   1      38.716  29.339  27.387  1.00  0.00     0.010 A 
ATOM     36  C   UNL A   1      38.350  29.307  29.721  1.00  0.00     0.010 A 
ATOM     37  C   UNL A   1      39.150  28.828  28.669  1.00  0.00    -0.014 A 
BRANCH  37  38
ATOM     38  C   UNL A   1      40.140  27.543  28.620  1.00  0.00     0.031 A 
ATOM     39  C   UNL A   1      41.113  27.857  29.710  1.00  0.00     0.074 A 
ATOM     40  C   UNL A   1      40.503  26.409  27.891  1.00  0.00     0.049 A 
ATOM     41  N   UNL A   1      41.780  28.976  29.638  1.00  0.00    -0.248 NA
ATOM     42  C   UNL A   1      41.052  27.264  31.049  1.00  0.00     0.031 C 
ATOM     43  C   UNL A   1      39.998  25.958  26.585  1.00  0.00     0.029 A 
ATOM     44  N   UNL A   1      41.446  25.357  28.151  1.00  0.00    -0.354 N 
ATOM     45  C   UNL A   1      42.432  29.121  30.834  1.00  0.00     0.074 A 
ATOM     46  C   UNL A   1      41.776  28.168  31.721  1.00  0.00     0.031 C 
ATOM     47  C   UNL A   1      40.489  24.727  26.243  1.00  0.00     0.029 A 
ATOM     48  C   UNL A   1      41.423  24.225  27.252  1.00  0.00     0.049 A 
ATOM     49  H   UNL A   1      42.077  25.405  28.904  1.00  0.00     0.167 HD
ATOM     50  C   UNL A   1      43.759  29.417  30.736  1.00  0.00     0.037 A 
ATOM     51  C   UNL A   1      42.139  23.024  27.262  1.00  0.00     0.037 A 
ATOM     52  C   UNL A   1      44.558  28.234  30.898  1.00  0.00     0.049 A 
ATOM     53  C   UNL A   1      43.363  23.300  28.017  1.00  0.00     0.074 A 
ATOM     54  C   UNL A   1      44.509  27.197  31.810  1.00  0.00     0.029 A 
ATOM     55  N   UNL A   1      45.176  27.742  29.770  1.00  0.00    -0.354 N 
ATOM     56  N   UNL A   1      44.368  23.904  27.465  1.00  0.00    -0.248 NA
ATOM     57  C   UNL A   1      43.573  22.828  29.379  1.00  0.00     0.031 C 
ATOM     58  C   UNL A   1      44.583  26.032  31.018  1.00  0.00     0.029 A 
ATOM     59  C   UNL A   1      45.105  26.367  29.777  1.00  0.00     0.049 A 
ATOM     60  H   UNL A   1      45.603  28.288  29.070  1.00  0.00     0.167 HD
ATOM     61  C   UNL A   1      45.079  24.340  28.531  1.00  0.00     0.074 A 
ATOM     62  C   UNL A   1      44.733  23.444  29.620  1.00  0.00     0.031 C 
ATOM     63  C   UNL A   1      45.355  25.664  28.548  1.00  0.00     0.037 A 
BRANCH  50  64
ATOM     64  C   UNL A   1      44.037  30.536  29.770  1.00  0.00     0.057 A 
ATOM     65  C   UNL A   1      44.159  31.835  30.265  1.00  0.00     0.134 A 
ATOM     66  C   UNL A   1      43.965  30.394  28.369  1.00  0.00     0.134 A 
ATOM     67  F   UNL A   1      44.292  32.047  31.583  1.00  0.00    -0.206 F 
ATOM     68  C   UNL A   1      44.119  32.947  29.418  1.00  0.00     0.040 A 
ATOM     69  C   UNL A   1      43.855  31.495  27.521  1.00  0.00     0.040 A 
ATOM     70  F   UNL A   1      43.968  29.178  27.798  1.00  0.00    -0.206 F 
ATOM     71  C   UNL A   1      43.918  32.780  28.048  1.00  0.00     0.006 A 
ENDBRANCH  50  64
BRANCH  51  72
ATOM     72  C   UNL A   1      42.270  21.595  26.658  1.00  0.00     0.057 A 
ATOM     73  C   UNL A   1      43.262  21.290  25.660  1.00  0.00     0.134 A 
ATOM     74  C   UNL A   1      41.793  20.452  27.308  1.00  0.00     0.134 A 
ATOM     75  F   UNL A   1      43.798  22.241  24.882  1.00  0.00    -0.206 F 
ATOM     76  C   UNL A   1      43.820  20.014  25.440  1.00  0.00     0.040 A 
ATOM     77  C   UNL A   1      42.319  19.151  27.061  1.00  0.00     0.040 A 
ATOM     78  F   UNL A   1      40.865  20.560  28.267  1.00  0.00    -0.206 F 
ATOM     79  C   UNL A   1      43.362  18.933  26.162  1.00  0.00     0.006 A 
ENDBRANCH  51  72
BRANCH  63  80
ATOM     80  C   UNL A   1      45.764  26.307  27.233  1.00  0.00     0.057 A 
ATOM     81  C   UNL A   1      44.919  26.733  26.184  1.00  0.00     0.134 A 
ATOM     82  C   UNL A   1      47.138  26.437  26.992  1.00  0.00     0.134 A 
ATOM     83  F   UNL A   1      43.585  26.781  26.303  1.00  0.00    -0.206 F 
ATOM     84  C   UNL A   1      45.424  27.168  24.949  1.00  0.00     0.040 A 
ATOM     85  C   UNL A   1      47.651  26.926  25.789  1.00  0.00     0.040 A 
ATOM     86  F   UNL A   1      48.022  26.097  27.943  1.00  0.00    -0.206 F 
ATOM     87  C   UNL A   1      46.794  27.267  24.749  1.00  0.00     0.006 A 
ENDBRANCH  63  80
ENDBRANCH  37  38
ENDBRANCH  29  32
ENDBRANCH  27  28
ENDBRANCH  26  27
ENDBRANCH   1  26
TORSDOF 14
ENDMDL
MODEL 3
REMARK VINA RESULT:     -11.8      3.525      8.878
REMARK SMILES Cc1oc(C)c(S(=O)(=O)Nn2c(C)ccc2C)c1C(=O)NCCCCNC(=O)c1ccc(-c2c3nc(c(-c4c(F)cccc4F)c4ccc([nH]4)c(-c4c(F)cccc4F)c4nc(c(-c5c(F)cccc5F)c5ccc2[nH]5)C=C4)C=C3)cc1
REMARK SMILES IDX 23 1 22 2 21 3 19 4 20 5 18 7 1 8 2 9 3 10 4 11 6 12 5 13
REMARK SMILES IDX 7 14 8 15 9 16 10 17 11 19 12 20 16 21 13 22 14 23 15 24
REMARK SMILES IDX 17 25 24 26 25 27 26 28 27 29 28 31 29 32 30 33 82 34 31 35
REMARK SMILES IDX 81 36 32 37 33 38 34 39 75 40 35 41 80 42 74 43 76 44 36 45
REMARK SMILES IDX 79 46 73 47 72 48 37 50 63 51 46 52 62 53 47 54 50 55 61 56
REMARK SMILES IDX 77 57 48 58 49 59 60 61 78 62 51 63 38 64 39 65 44 66 40 67
REMARK SMILES IDX 41 68 43 69 45 70 42 71 64 72 65 73 70 74 66 75 67 76 69 77
REMARK SMILES IDX 71 78 68 79 52 80 53 81 58 82 54 83 55 84 57 85 59 86 56 87
REMARK H PARENT 21 6 10 18 26 30 76 49 50 60
REMARK Flexibility Score: inf
ROOT
ATOM      1  C   UNL A   1      33.080  27.996  25.841  1.00  0.00     0.023 C 
ENDROOT
BRANCH   1   2
ATOM      2  C   UNL A   1      32.583  26.812  26.671  1.00  0.00     0.116 C 
BRANCH   2   3
ATOM      3  N   UNL A   1      31.156  26.568  26.733  1.00  0.00    -0.352 N 
ATOM      4  C   UNL A   1      30.369  25.633  26.106  1.00  0.00     0.256 C 
ATOM      5  O   UNL A   1      29.254  25.413  26.574  1.00  0.00    -0.269 OA
ATOM      6  H   UNL A   1      30.666  27.179  27.330  1.00  0.00     0.163 HD
BRANCH   4   7
ATOM      7  C   UNL A   1      30.781  24.972  24.886  1.00  0.00     0.101 A 
ATOM      8  C   UNL A   1      30.284  26.709  22.928  1.00  0.00     0.088 C 
ATOM      9  C   UNL A   1      30.750  25.469  23.588  1.00  0.00     0.115 A 
ATOM     10  O   UNL A   1      31.351  24.604  22.730  1.00  0.00    -0.464 OA
ATOM     11  C   UNL A   1      31.820  23.563  23.457  1.00  0.00     0.122 A 
ATOM     12  C   UNL A   1      31.459  23.707  24.783  1.00  0.00     0.143 A 
ATOM     13  C   UNL A   1      32.614  22.571  22.699  1.00  0.00     0.089 C 
BRANCH  12  14
ATOM     14  S   UNL A   1      31.891  22.526  25.958  1.00  0.00     0.279 S 
ATOM     15  O   UNL A   1      31.196  22.974  27.158  1.00  0.00    -0.200 OA
ATOM     16  O   UNL A   1      31.492  21.296  25.319  1.00  0.00    -0.200 OA
BRANCH  14  17
ATOM     17  N   UNL A   1      33.463  22.288  26.363  1.00  0.00    -0.216 N 
ATOM     18  H   UNL A   1      33.643  22.228  27.330  1.00  0.00     0.202 HD
BRANCH  17  19
ATOM     19  N   UNL A   1      34.574  22.158  25.545  1.00  0.00    -0.256 N 
ATOM     20  C   UNL A   1      35.102  21.044  24.935  1.00  0.00     0.038 A 
ATOM     21  C   UNL A   1      35.311  23.275  25.201  1.00  0.00     0.038 A 
ATOM     22  C   UNL A   1      34.523  19.677  24.912  1.00  0.00     0.067 C 
ATOM     23  C   UNL A   1      36.258  21.455  24.288  1.00  0.00     0.025 A 
ATOM     24  C   UNL A   1      36.401  22.843  24.472  1.00  0.00     0.025 A 
ATOM     25  C   UNL A   1      35.014  24.666  25.655  1.00  0.00     0.067 C 
ENDBRANCH  17  19
ENDBRANCH  14  17
ENDBRANCH  12  14
ENDBRANCH   4   7
ENDBRANCH   2   3
ENDBRANCH   1   2
BRANCH   1  26
ATOM     26  C   UNL A   1      34.184  28.940  26.339  1.00  0.00     0.023 C 
BRANCH  26  27
ATOM     27  C   UNL A   1      34.134  29.517  27.754  1.00  0.00     0.116 C 
BRANCH  27  28
ATOM     28  N   UNL A   1      34.338  30.942  27.851  1.00  0.00    -0.352 N 
ATOM     29  C   UNL A   1      35.553  31.571  28.064  1.00  0.00     0.251 C 
ATOM     30  H   UNL A   1      33.544  31.517  27.758  1.00  0.00     0.163 HD
ATOM     31  O   UNL A   1      35.604  32.798  28.061  1.00  0.00    -0.269 OA
BRANCH  29  32
ATOM     32  C   UNL A   1      36.768  30.759  28.424  1.00  0.00     0.039 A 
ATOM     33  C   UNL A   1      37.576  30.360  27.382  1.00  0.00     0.014 A 
ATOM     34  C   UNL A   1      37.120  30.312  29.712  1.00  0.00     0.014 A 
ATOM     35  C   UNL A   1      38.724  29.575  27.640  1.00  0.00     0.010 A 
ATOM     36  C   UNL A   1      38.244  29.410  29.948  1.00  0.00     0.010 A 
ATOM     37  C   UNL A   1      39.086  28.979  28.908  1.00  0.00    -0.014 A 
BRANCH  37  38
ATOM     38  C   UNL A   1      40.054  27.679  28.828  1.00  0.00     0.031 A 
ATOM     39  C   UNL A   1      41.055  27.969  29.899  1.00  0.00     0.074 A 
ATOM     40  C   UNL A   1      40.383  26.545  28.083  1.00  0.00     0.049 A 
ATOM     41  N   UNL A   1      41.737  29.078  29.820  1.00  0.00    -0.248 NA
ATOM     42  C   UNL A   1      41.013  27.367  31.234  1.00  0.00     0.031 C 
ATOM     43  C   UNL A   1      39.842  26.112  26.785  1.00  0.00     0.029 A 
ATOM     44  N   UNL A   1      41.315  25.477  28.314  1.00  0.00    -0.354 N 
ATOM     45  C   UNL A   1      42.418  29.203  31.003  1.00  0.00     0.074 A 
ATOM     46  C   UNL A   1      41.767  28.254  31.897  1.00  0.00     0.031 C 
ATOM     47  C   UNL A   1      40.306  24.877  26.423  1.00  0.00     0.029 A 
ATOM     48  C   UNL A   1      41.254  24.352  27.408  1.00  0.00     0.049 A 
ATOM     49  H   UNL A   1      41.962  25.509  29.054  1.00  0.00     0.167 HD
ATOM     50  C   UNL A   1      43.747  29.479  30.878  1.00  0.00     0.037 A 
ATOM     51  C   UNL A   1      41.951  23.140  27.392  1.00  0.00     0.037 A 
ATOM     52  C   UNL A   1      44.531  28.283  31.013  1.00  0.00     0.049 A 
ATOM     53  C   UNL A   1      43.195  23.391  28.123  1.00  0.00     0.074 A 
ATOM     54  C   UNL A   1      44.485  27.240  31.919  1.00  0.00     0.029 A 
ATOM     55  N   UNL A   1      45.117  27.790  29.869  1.00  0.00    -0.354 N 
ATOM     56  N   UNL A   1      44.197  23.983  27.554  1.00  0.00    -0.248 NA
ATOM     57  C   UNL A   1      43.427  22.905  29.477  1.00  0.00     0.031 C 
ATOM     58  C   UNL A   1      44.524  26.080  31.117  1.00  0.00     0.029 A 
ATOM     59  C   UNL A   1      45.024  26.416  29.867  1.00  0.00     0.049 A 
ATOM     60  H   UNL A   1      45.536  28.335  29.164  1.00  0.00     0.167 HD
ATOM     61  C   UNL A   1      44.938  24.400  28.607  1.00  0.00     0.074 A 
ATOM     62  C   UNL A   1      44.602  23.501  29.696  1.00  0.00     0.031 C 
ATOM     63  C   UNL A   1      45.236  25.719  28.628  1.00  0.00     0.037 A 
BRANCH  50  64
ATOM     64  C   UNL A   1      44.022  30.602  29.914  1.00  0.00     0.057 A 
ATOM     65  C   UNL A   1      44.167  31.895  30.416  1.00  0.00     0.134 A 
ATOM     66  C   UNL A   1      43.925  30.469  28.514  1.00  0.00     0.134 A 
ATOM     67  F   UNL A   1      44.324  32.098  31.733  1.00  0.00    -0.206 F 
ATOM     68  C   UNL A   1      44.125  33.014  29.577  1.00  0.00     0.040 A 
ATOM     69  C   UNL A   1      43.814  31.577  27.675  1.00  0.00     0.040 A 
ATOM     70  F   UNL A   1      43.904  29.257  27.936  1.00  0.00    -0.206 F 
ATOM     71  C   UNL A   1      43.900  32.857  28.209  1.00  0.00     0.006 A 
ENDBRANCH  50  64
BRANCH  51  72
ATOM     72  C   UNL A   1      42.046  21.714  26.776  1.00  0.00     0.057 A 
ATOM     73  C   UNL A   1      42.968  21.417  25.710  1.00  0.00     0.134 A 
ATOM     74  C   UNL A   1      41.620  20.566  27.453  1.00  0.00     0.134 A 
ATOM     75  F   UNL A   1      43.444  22.374  24.901  1.00  0.00    -0.206 F 
ATOM     76  C   UNL A   1      43.515  20.145  25.447  1.00  0.00     0.040 A 
ATOM     77  C   UNL A   1      42.134  19.268  27.164  1.00  0.00     0.040 A 
ATOM     78  F   UNL A   1      40.761  20.666  28.474  1.00  0.00    -0.206 F 
ATOM     79  C   UNL A   1      43.113  19.059  26.194  1.00  0.00     0.006 A 
ENDBRANCH  51  72
BRANCH  63  80
ATOM     80  C   UNL A   1      45.626  26.366  27.309  1.00  0.00     0.057 A 
ATOM     81  C   UNL A   1      44.766  26.798  26.274  1.00  0.00     0.134 A 
ATOM     82  C   UNL A   1      46.996  26.494  27.048  1.00  0.00     0.134 A 
ATOM     83  F   UNL A   1      43.434  26.849  26.414  1.00  0.00    -0.206 F 
ATOM     84  C   UNL A   1      45.253  27.236  25.033  1.00  0.00     0.040 A 
ATOM     85  C   UNL A   1      47.492  26.986  25.838  1.00  0.00     0.040 A 
ATOM     86  F   UNL A   1      47.894  26.148  27.983  1.00  0.00    -0.206 F 
ATOM     87  C   UNL A   1      46.620  27.333  24.813  1.00  0.00     0.006 A 
ENDBRANCH  63  80
ENDBRANCH  37  38
ENDBRANCH  29  32
ENDBRANCH  27  28
ENDBRANCH  26  27
ENDBRANCH   1  26
TORSDOF 14
ENDMDL
