MODEL 1
REMARK VINA RESULT:     -11.4      0.000      0.000
REMARK SMILES CC/C(C(=O)NCCCCNC(=O)c1ccc(-c2c3nc(c(-c4c(F)cccc4F)c4ccc([nH]4)c(-c4c(F)cccc4F)c4nc(c(-c5c(F)cccc5F)c5ccc2[nH]5)C=C4)C=C3)cc1)=C1\CCc2ccccc21
REMARK SMILES IDX 9 1 8 2 7 3 6 4 4 5 5 6 3 8 68 9 69 10 76 11 70 12 71 13
REMARK SMILES IDX 75 14 72 15 74 16 73 17 2 18 1 19 10 20 11 21 12 22 13 24
REMARK SMILES IDX 14 25 15 26 67 27 16 28 66 29 17 30 18 31 19 32 60 33 20 34
REMARK SMILES IDX 65 35 59 36 61 37 21 38 64 39 58 40 57 41 22 43 48 44 31 45
REMARK SMILES IDX 47 46 32 47 35 48 46 49 62 50 33 51 34 52 45 54 63 55 36 56
REMARK SMILES IDX 23 57 24 58 29 59 25 60 26 61 28 62 30 63 27 64 49 65 50 66
REMARK SMILES IDX 55 67 51 68 52 69 54 70 56 71 53 72 37 73 38 74 43 75 39 76
REMARK SMILES IDX 40 77 42 78 44 79 41 80
REMARK H PARENT 6 7 11 23 61 42 35 53
REMARK Flexibility Score: inf
ROOT
ATOM      1  C   UNL A   1      37.618  20.980  24.974  1.00  0.00     0.023 C 
ENDROOT
BRANCH   1   2
ATOM      2  C   UNL A   1      37.181  22.353  24.491  1.00  0.00     0.023 C 
BRANCH   2   3
ATOM      3  C   UNL A   1      36.901  23.397  25.585  1.00  0.00     0.116 C 
BRANCH   3   4
ATOM      4  N   UNL A   1      35.512  23.287  25.976  1.00  0.00    -0.352 N 
ATOM      5  C   UNL A   1      34.385  24.007  25.795  1.00  0.00     0.247 C 
ATOM      6  O   UNL A   1      33.479  23.708  26.585  1.00  0.00    -0.270 OA
ATOM      7  H   UNL A   1      35.346  22.478  26.512  1.00  0.00     0.163 HD
BRANCH   5   8
ATOM      8  C   UNL A   1      34.072  24.949  24.651  1.00  0.00     0.020 C 
ATOM      9  C   UNL A   1      33.586  26.213  24.592  1.00  0.00    -0.031 C 
ATOM     10  C   UNL A   1      33.569  27.056  23.312  1.00  0.00     0.041 C 
ATOM     11  C   UNL A   1      33.133  27.190  25.587  1.00  0.00    -0.019 A 
ATOM     12  C   UNL A   1      34.031  28.446  23.763  1.00  0.00     0.041 C 
ATOM     13  C   UNL A   1      33.475  28.478  25.149  1.00  0.00    -0.040 A 
ATOM     14  C   UNL A   1      32.362  27.051  26.723  1.00  0.00     0.009 A 
ATOM     15  C   UNL A   1      33.264  29.603  25.932  1.00  0.00     0.004 A 
ATOM     16  C   UNL A   1      32.116  28.181  27.517  1.00  0.00     0.001 A 
ATOM     17  C   UNL A   1      32.603  29.441  27.146  1.00  0.00     0.000 A 
BRANCH   8  18
ATOM     18  C   UNL A   1      34.317  24.217  23.317  1.00  0.00     0.038 C 
ATOM     19  C   UNL A   1      33.354  23.062  23.079  1.00  0.00     0.009 C 
ENDBRANCH   8  18
ENDBRANCH   5   8
ENDBRANCH   3   4
ENDBRANCH   2   3
ENDBRANCH   1   2
BRANCH   1  20
ATOM     20  C   UNL A   1      38.842  20.984  25.878  1.00  0.00     0.116 C 
BRANCH  20  21
ATOM     21  N   UNL A   1      39.727  19.834  25.726  1.00  0.00    -0.352 N 
ATOM     22  C   UNL A   1      41.070  19.738  26.025  1.00  0.00     0.251 C 
ATOM     23  H   UNL A   1      39.311  19.019  25.363  1.00  0.00     0.163 HD
ATOM     24  O   UNL A   1      41.694  18.706  25.804  1.00  0.00    -0.269 OA
BRANCH  22  25
ATOM     25  C   UNL A   1      41.762  20.931  26.560  1.00  0.00     0.039 A 
ATOM     26  C   UNL A   1      42.298  21.862  25.668  1.00  0.00     0.014 A 
ATOM     27  C   UNL A   1      41.756  21.187  27.932  1.00  0.00     0.014 A 
ATOM     28  C   UNL A   1      42.710  23.108  26.144  1.00  0.00     0.010 A 
ATOM     29  C   UNL A   1      42.064  22.462  28.386  1.00  0.00     0.010 A 
ATOM     30  C   UNL A   1      42.528  23.444  27.497  1.00  0.00    -0.014 A 
BRANCH  30  31
ATOM     31  C   UNL A   1      42.780  24.818  28.004  1.00  0.00     0.031 A 
ATOM     32  C   UNL A   1      44.160  25.208  28.460  1.00  0.00     0.074 A 
ATOM     33  C   UNL A   1      41.753  25.675  28.167  1.00  0.00     0.049 A 
ATOM     34  N   UNL A   1      44.555  26.301  29.062  1.00  0.00    -0.248 NA
ATOM     35  C   UNL A   1      45.230  24.218  28.255  1.00  0.00     0.031 C 
ATOM     36  C   UNL A   1      40.350  25.397  27.846  1.00  0.00     0.029 A 
ATOM     37  N   UNL A   1      41.726  26.956  28.663  1.00  0.00    -0.354 N 
ATOM     38  C   UNL A   1      45.901  26.110  29.345  1.00  0.00     0.074 A 
ATOM     39  C   UNL A   1      46.246  24.780  28.891  1.00  0.00     0.031 C 
ATOM     40  C   UNL A   1      39.607  26.480  28.130  1.00  0.00     0.029 A 
ATOM     41  C   UNL A   1      40.471  27.517  28.683  1.00  0.00     0.049 A 
ATOM     42  H   UNL A   1      42.531  27.429  28.974  1.00  0.00     0.167 HD
ATOM     43  C   UNL A   1      46.779  26.973  29.907  1.00  0.00     0.037 A 
ATOM     44  C   UNL A   1      40.061  28.728  29.107  1.00  0.00     0.037 A 
ATOM     45  C   UNL A   1      46.455  28.319  30.292  1.00  0.00     0.049 A 
ATOM     46  C   UNL A   1      41.071  29.695  29.657  1.00  0.00     0.074 A 
ATOM     47  C   UNL A   1      47.299  29.303  30.776  1.00  0.00     0.029 A 
ATOM     48  N   UNL A   1      45.187  28.876  30.222  1.00  0.00    -0.354 N 
ATOM     49  N   UNL A   1      42.358  29.528  29.843  1.00  0.00    -0.248 NA
ATOM     50  C   UNL A   1      40.575  31.023  30.048  1.00  0.00     0.031 C 
ATOM     51  C   UNL A   1      46.536  30.450  31.024  1.00  0.00     0.029 A 
ATOM     52  C   UNL A   1      45.224  30.187  30.663  1.00  0.00     0.049 A 
ATOM     53  H   UNL A   1      44.381  28.407  29.908  1.00  0.00     0.167 HD
ATOM     54  C   UNL A   1      42.828  30.733  30.348  1.00  0.00     0.074 A 
ATOM     55  C   UNL A   1      41.692  31.628  30.426  1.00  0.00     0.031 C 
ATOM     56  C   UNL A   1      44.088  31.068  30.716  1.00  0.00     0.037 A 
BRANCH  43  57
ATOM     57  C   UNL A   1      48.184  26.492  30.118  1.00  0.00     0.057 A 
ATOM     58  C   UNL A   1      49.183  26.693  29.158  1.00  0.00     0.134 A 
ATOM     59  C   UNL A   1      48.547  25.850  31.308  1.00  0.00     0.134 A 
ATOM     60  F   UNL A   1      48.896  27.288  27.991  1.00  0.00    -0.206 F 
ATOM     61  C   UNL A   1      50.491  26.251  29.364  1.00  0.00     0.040 A 
ATOM     62  C   UNL A   1      49.857  25.427  31.536  1.00  0.00     0.040 A 
ATOM     63  F   UNL A   1      47.638  25.631  32.270  1.00  0.00    -0.206 F 
ATOM     64  C   UNL A   1      50.832  25.622  30.560  1.00  0.00     0.006 A 
ENDBRANCH  43  57
BRANCH  44  65
ATOM     65  C   UNL A   1      38.631  29.113  29.001  1.00  0.00     0.057 A 
ATOM     66  C   UNL A   1      38.102  29.589  27.796  1.00  0.00     0.134 A 
ATOM     67  C   UNL A   1      37.768  29.039  30.100  1.00  0.00     0.134 A 
ATOM     68  F   UNL A   1      38.886  29.701  26.714  1.00  0.00    -0.206 F 
ATOM     69  C   UNL A   1      36.772  29.998  27.691  1.00  0.00     0.040 A 
ATOM     70  C   UNL A   1      36.430  29.424  30.004  1.00  0.00     0.040 A 
ATOM     71  F   UNL A   1      38.213  28.584  31.281  1.00  0.00    -0.206 F 
ATOM     72  C   UNL A   1      35.930  29.914  28.799  1.00  0.00     0.006 A 
ENDBRANCH  44  65
BRANCH  56  73
ATOM     73  C   UNL A   1      44.311  32.468  31.201  1.00  0.00     0.057 A 
ATOM     74  C   UNL A   1      44.602  33.515  30.320  1.00  0.00     0.134 A 
ATOM     75  C   UNL A   1      44.187  32.777  32.561  1.00  0.00     0.134 A 
ATOM     76  F   UNL A   1      44.747  33.279  29.007  1.00  0.00    -0.206 F 
ATOM     77  C   UNL A   1      44.779  34.822  30.777  1.00  0.00     0.040 A 
ATOM     78  C   UNL A   1      44.340  34.083  33.028  1.00  0.00     0.040 A 
ATOM     79  F   UNL A   1      43.902  31.818  33.456  1.00  0.00    -0.206 F 
ATOM     80  C   UNL A   1      44.641  35.109  32.134  1.00  0.00     0.006 A 
ENDBRANCH  56  73
ENDBRANCH  30  31
ENDBRANCH  22  25
ENDBRANCH  20  21
ENDBRANCH   1  20
TORSDOF 12
ENDMDL
MODEL 2
REMARK VINA RESULT:     -11.3      0.965      2.004
REMARK SMILES CC/C(C(=O)NCCCCNC(=O)c1ccc(-c2c3nc(c(-c4c(F)cccc4F)c4ccc([nH]4)c(-c4c(F)cccc4F)c4nc(c(-c5c(F)cccc5F)c5ccc2[nH]5)C=C4)C=C3)cc1)=C1\CCc2ccccc21
REMARK SMILES IDX 9 1 8 2 7 3 6 4 4 5 5 6 3 8 68 9 69 10 76 11 70 12 71 13
REMARK SMILES IDX 75 14 72 15 74 16 73 17 2 18 1 19 10 20 11 21 12 22 13 24
REMARK SMILES IDX 14 25 15 26 67 27 16 28 66 29 17 30 18 31 19 32 60 33 20 34
REMARK SMILES IDX 65 35 59 36 61 37 21 38 64 39 58 40 57 41 22 43 48 44 31 45
REMARK SMILES IDX 47 46 32 47 35 48 46 49 62 50 33 51 34 52 45 54 63 55 36 56
REMARK SMILES IDX 23 57 24 58 29 59 25 60 26 61 28 62 30 63 27 64 49 65 50 66
REMARK SMILES IDX 55 67 51 68 52 69 54 70 56 71 53 72 37 73 38 74 43 75 39 76
REMARK SMILES IDX 40 77 42 78 44 79 41 80
REMARK H PARENT 6 7 11 23 61 42 35 53
REMARK Flexibility Score: inf
ROOT
ATOM      1  C   UNL A   1      37.733  20.924  24.969  1.00  0.00     0.023 C 
ENDROOT
BRANCH   1   2
ATOM      2  C   UNL A   1      37.103  22.276  24.677  1.00  0.00     0.023 C 
BRANCH   2   3
ATOM      3  C   UNL A   1      36.585  23.057  25.897  1.00  0.00     0.116 C 
BRANCH   3   4
ATOM      4  N   UNL A   1      35.691  22.197  26.643  1.00  0.00    -0.352 N 
ATOM      5  C   UNL A   1      34.408  21.792  26.536  1.00  0.00     0.247 C 
ATOM      6  O   UNL A   1      33.957  21.307  27.583  1.00  0.00    -0.270 OA
ATOM      7  H   UNL A   1      36.134  21.804  27.430  1.00  0.00     0.163 HD
BRANCH   5   8
ATOM      8  C   UNL A   1      33.579  21.693  25.273  1.00  0.00     0.020 C 
ATOM      9  C   UNL A   1      33.144  22.606  24.370  1.00  0.00    -0.031 C 
ATOM     10  C   UNL A   1      32.503  22.235  23.028  1.00  0.00     0.041 C 
ATOM     11  C   UNL A   1      33.261  24.062  24.240  1.00  0.00    -0.019 A 
ATOM     12  C   UNL A   1      33.147  23.190  22.018  1.00  0.00     0.041 C 
ATOM     13  C   UNL A   1      33.356  24.392  22.880  1.00  0.00    -0.040 A 
ATOM     14  C   UNL A   1      33.157  25.076  25.170  1.00  0.00     0.009 A 
ATOM     15  C   UNL A   1      33.578  25.691  22.451  1.00  0.00     0.004 A 
ATOM     16  C   UNL A   1      33.354  26.401  24.752  1.00  0.00     0.001 A 
ATOM     17  C   UNL A   1      33.608  26.701  23.407  1.00  0.00     0.000 A 
BRANCH   8  18
ATOM     18  C   UNL A   1      33.117  20.234  25.089  1.00  0.00     0.038 C 
ATOM     19  C   UNL A   1      34.231  19.305  24.625  1.00  0.00     0.009 C 
ENDBRANCH   8  18
ENDBRANCH   5   8
ENDBRANCH   3   4
ENDBRANCH   2   3
ENDBRANCH   1   2
BRANCH   1  20
ATOM     20  C   UNL A   1      38.988  20.979  25.826  1.00  0.00     0.116 C 
BRANCH  20  21
ATOM     21  N   UNL A   1      39.868  19.819  25.712  1.00  0.00    -0.352 N 
ATOM     22  C   UNL A   1      41.205  19.720  26.033  1.00  0.00     0.251 C 
ATOM     23  H   UNL A   1      39.451  19.001  25.357  1.00  0.00     0.163 HD
ATOM     24  O   UNL A   1      41.825  18.679  25.843  1.00  0.00    -0.269 OA
BRANCH  22  25
ATOM     25  C   UNL A   1      41.897  20.918  26.556  1.00  0.00     0.039 A 
ATOM     26  C   UNL A   1      42.406  21.855  25.655  1.00  0.00     0.014 A 
ATOM     27  C   UNL A   1      41.917  21.171  27.928  1.00  0.00     0.014 A 
ATOM     28  C   UNL A   1      42.816  23.104  26.125  1.00  0.00     0.010 A 
ATOM     29  C   UNL A   1      42.223  22.449  28.378  1.00  0.00     0.010 A 
ATOM     30  C   UNL A   1      42.659  23.436  27.482  1.00  0.00    -0.014 A 
BRANCH  30  31
ATOM     31  C   UNL A   1      42.910  24.812  27.987  1.00  0.00     0.031 A 
ATOM     32  C   UNL A   1      44.294  25.211  28.422  1.00  0.00     0.074 A 
ATOM     33  C   UNL A   1      41.879  25.662  28.165  1.00  0.00     0.049 A 
ATOM     34  N   UNL A   1      44.690  26.306  29.018  1.00  0.00    -0.248 NA
ATOM     35  C   UNL A   1      45.367  24.228  28.199  1.00  0.00     0.031 C 
ATOM     36  C   UNL A   1      40.474  25.373  27.867  1.00  0.00     0.029 A 
ATOM     37  N   UNL A   1      41.851  26.942  28.663  1.00  0.00    -0.354 N 
ATOM     38  C   UNL A   1      46.042  26.125  29.280  1.00  0.00     0.074 A 
ATOM     39  C   UNL A   1      46.390  24.798  28.819  1.00  0.00     0.031 C 
ATOM     40  C   UNL A   1      39.728  26.451  28.162  1.00  0.00     0.029 A 
ATOM     41  C   UNL A   1      40.593  27.494  28.704  1.00  0.00     0.049 A 
ATOM     42  H   UNL A   1      42.658  27.420  28.962  1.00  0.00     0.167 HD
ATOM     43  C   UNL A   1      46.923  26.993  29.829  1.00  0.00     0.037 A 
ATOM     44  C   UNL A   1      40.181  28.702  29.134  1.00  0.00     0.037 A 
ATOM     45  C   UNL A   1      46.595  28.337  30.220  1.00  0.00     0.049 A 
ATOM     46  C   UNL A   1      41.193  29.676  29.669  1.00  0.00     0.074 A 
ATOM     47  C   UNL A   1      47.440  29.327  30.692  1.00  0.00     0.029 A 
ATOM     48  N   UNL A   1      45.323  28.884  30.171  1.00  0.00    -0.354 N 
ATOM     49  N   UNL A   1      42.483  29.518  29.835  1.00  0.00    -0.248 NA
ATOM     50  C   UNL A   1      40.693  31.000  30.070  1.00  0.00     0.031 C 
ATOM     51  C   UNL A   1      46.673  30.468  30.953  1.00  0.00     0.029 A 
ATOM     52  C   UNL A   1      45.358  30.196  30.611  1.00  0.00     0.049 A 
ATOM     53  H   UNL A   1      44.515  28.410  29.869  1.00  0.00     0.167 HD
ATOM     54  C   UNL A   1      42.953  30.725  30.334  1.00  0.00     0.074 A 
ATOM     55  C   UNL A   1      41.812  31.612  30.430  1.00  0.00     0.031 C 
ATOM     56  C   UNL A   1      44.216  31.069  30.683  1.00  0.00     0.037 A 
BRANCH  43  57
ATOM     57  C   UNL A   1      48.334  26.522  30.018  1.00  0.00     0.057 A 
ATOM     58  C   UNL A   1      49.323  26.752  29.054  1.00  0.00     0.134 A 
ATOM     59  C   UNL A   1      48.714  25.860  31.191  1.00  0.00     0.134 A 
ATOM     60  F   UNL A   1      49.019  27.368  27.901  1.00  0.00    -0.206 F 
ATOM     61  C   UNL A   1      50.636  26.319  29.239  1.00  0.00     0.040 A 
ATOM     62  C   UNL A   1      50.030  25.445  31.400  1.00  0.00     0.040 A 
ATOM     63  F   UNL A   1      47.816  25.612  32.157  1.00  0.00    -0.206 F 
ATOM     64  C   UNL A   1      50.994  25.669  30.419  1.00  0.00     0.006 A 
ENDBRANCH  43  57
BRANCH  44  65
ATOM     65  C   UNL A   1      38.747  29.077  29.051  1.00  0.00     0.057 A 
ATOM     66  C   UNL A   1      38.194  29.542  27.852  1.00  0.00     0.134 A 
ATOM     67  C   UNL A   1      37.904  29.003  30.165  1.00  0.00     0.134 A 
ATOM     68  F   UNL A   1      38.959  29.654  26.756  1.00  0.00    -0.206 F 
ATOM     69  C   UNL A   1      36.860  29.942  27.768  1.00  0.00     0.040 A 
ATOM     70  C   UNL A   1      36.561  29.379  30.090  1.00  0.00     0.040 A 
ATOM     71  F   UNL A   1      38.371  28.558  31.340  1.00  0.00    -0.206 F 
ATOM     72  C   UNL A   1      36.038  29.859  28.891  1.00  0.00     0.006 A 
ENDBRANCH  44  65
BRANCH  56  73
ATOM     73  C   UNL A   1      44.437  32.470  31.166  1.00  0.00     0.057 A 
ATOM     74  C   UNL A   1      44.386  32.797  32.526  1.00  0.00     0.134 A 
ATOM     75  C   UNL A   1      44.750  33.492  30.262  1.00  0.00     0.134 A 
ATOM     76  F   UNL A   1      44.078  31.863  33.439  1.00  0.00    -0.206 F 
ATOM     77  C   UNL A   1      44.624  34.098  32.970  1.00  0.00     0.040 A 
ATOM     78  C   UNL A   1      45.011  34.793  30.695  1.00  0.00     0.040 A 
ATOM     79  F   UNL A   1      44.822  33.241  28.946  1.00  0.00    -0.206 F 
ATOM     80  C   UNL A   1      44.944  35.098  32.054  1.00  0.00     0.006 A 
ENDBRANCH  56  73
ENDBRANCH  30  31
ENDBRANCH  22  25
ENDBRANCH  20  21
ENDBRANCH   1  20
TORSDOF 12
ENDMDL
MODEL 3
REMARK VINA RESULT:     -11.2      1.051      6.598
REMARK SMILES CC/C(C(=O)NCCCCNC(=O)c1ccc(-c2c3nc(c(-c4c(F)cccc4F)c4ccc([nH]4)c(-c4c(F)cccc4F)c4nc(c(-c5c(F)cccc5F)c5ccc2[nH]5)C=C4)C=C3)cc1)=C1\CCc2ccccc21
REMARK SMILES IDX 9 1 8 2 7 3 6 4 4 5 5 6 3 8 68 9 69 10 76 11 70 12 71 13
REMARK SMILES IDX 75 14 72 15 74 16 73 17 2 18 1 19 10 20 11 21 12 22 13 24
REMARK SMILES IDX 14 25 15 26 67 27 16 28 66 29 17 30 18 31 19 32 60 33 20 34
REMARK SMILES IDX 65 35 59 36 61 37 21 38 64 39 58 40 57 41 22 43 48 44 31 45
REMARK SMILES IDX 47 46 32 47 35 48 46 49 62 50 33 51 34 52 45 54 63 55 36 56
REMARK SMILES IDX 23 57 24 58 29 59 25 60 26 61 28 62 30 63 27 64 49 65 50 66
REMARK SMILES IDX 55 67 51 68 52 69 54 70 56 71 53 72 37 73 38 74 43 75 39 76
REMARK SMILES IDX 40 77 42 78 44 79 41 80
REMARK H PARENT 6 7 11 23 61 42 35 53
REMARK Flexibility Score: inf
ROOT
ATOM      1  C   UNL A   1      37.410  21.539  24.833  1.00  0.00     0.023 C 
ENDROOT
BRANCH   1   2
ATOM      2  C   UNL A   1      36.779  22.921  24.772  1.00  0.00     0.023 C 
BRANCH   2   3
ATOM      3  C   UNL A   1      36.305  23.506  26.114  1.00  0.00     0.116 C 
BRANCH   3   4
ATOM      4  N   UNL A   1      35.508  22.506  26.792  1.00  0.00    -0.352 N 
ATOM      5  C   UNL A   1      34.289  21.951  26.628  1.00  0.00     0.247 C 
ATOM      6  O   UNL A   1      33.878  21.363  27.638  1.00  0.00    -0.270 OA
ATOM      7  H   UNL A   1      35.978  22.133  27.573  1.00  0.00     0.163 HD
BRANCH   5   8
ATOM      8  C   UNL A   1      33.509  21.813  25.337  1.00  0.00     0.020 C 
ATOM      9  C   UNL A   1      33.105  22.699  24.394  1.00  0.00    -0.031 C 
ATOM     10  C   UNL A   1      32.518  22.288  23.039  1.00  0.00     0.041 C 
ATOM     11  C   UNL A   1      33.220  24.151  24.229  1.00  0.00    -0.019 A 
ATOM     12  C   UNL A   1      33.195  23.219  22.029  1.00  0.00     0.041 C 
ATOM     13  C   UNL A   1      33.365  24.445  22.866  1.00  0.00    -0.040 A 
ATOM     14  C   UNL A   1      33.075  25.189  25.127  1.00  0.00     0.009 A 
ATOM     15  C   UNL A   1      33.597  25.734  22.410  1.00  0.00     0.004 A 
ATOM     16  C   UNL A   1      33.282  26.504  24.681  1.00  0.00     0.001 A 
ATOM     17  C   UNL A   1      33.585  26.769  23.339  1.00  0.00     0.000 A 
BRANCH   8  18
ATOM     18  C   UNL A   1      33.062  20.347  25.175  1.00  0.00     0.038 C 
ATOM     19  C   UNL A   1      34.173  19.432  24.677  1.00  0.00     0.009 C 
ENDBRANCH   8  18
ENDBRANCH   5   8
ENDBRANCH   3   4
ENDBRANCH   2   3
ENDBRANCH   1   2
BRANCH   1  20
ATOM     20  C   UNL A   1      38.660  21.448  25.694  1.00  0.00     0.116 C 
BRANCH  20  21
ATOM     21  N   UNL A   1      39.415  20.205  25.560  1.00  0.00    -0.352 N 
ATOM     22  C   UNL A   1      40.714  19.945  25.938  1.00  0.00     0.251 C 
ATOM     23  H   UNL A   1      38.932  19.455  25.143  1.00  0.00     0.163 HD
ATOM     24  O   UNL A   1      41.228  18.852  25.723  1.00  0.00    -0.269 OA
BRANCH  22  25
ATOM     25  C   UNL A   1      41.503  21.033  26.556  1.00  0.00     0.039 A 
ATOM     26  C   UNL A   1      42.159  21.949  25.730  1.00  0.00     0.014 A 
ATOM     27  C   UNL A   1      41.476  21.219  27.939  1.00  0.00     0.014 A 
ATOM     28  C   UNL A   1      42.675  23.122  26.284  1.00  0.00     0.010 A 
ATOM     29  C   UNL A   1      41.893  22.433  28.469  1.00  0.00     0.010 A 
ATOM     30  C   UNL A   1      42.482  23.406  27.647  1.00  0.00    -0.014 A 
BRANCH  30  31
ATOM     31  C   UNL A   1      42.853  24.721  28.234  1.00  0.00     0.031 A 
ATOM     32  C   UNL A   1      41.794  25.763  28.470  1.00  0.00     0.074 A 
ATOM     33  C   UNL A   1      44.150  25.022  28.444  1.00  0.00     0.049 A 
ATOM     34  N   UNL A   1      41.929  27.011  28.837  1.00  0.00    -0.248 NA
ATOM     35  C   UNL A   1      40.401  25.362  28.213  1.00  0.00     0.031 C 
ATOM     36  C   UNL A   1      45.286  24.136  28.177  1.00  0.00     0.029 A 
ATOM     37  N   UNL A   1      44.736  26.172  28.915  1.00  0.00    -0.354 N 
ATOM     38  C   UNL A   1      40.650  27.552  28.811  1.00  0.00     0.074 A 
ATOM     39  C   UNL A   1      39.757  26.511  28.350  1.00  0.00     0.031 C 
ATOM     40  C   UNL A   1      46.426  24.764  28.512  1.00  0.00     0.029 A 
ATOM     41  C   UNL A   1      46.107  26.108  28.984  1.00  0.00     0.049 A 
ATOM     42  H   UNL A   1      44.221  26.968  29.181  1.00  0.00     0.167 HD
ATOM     43  C   UNL A   1      40.248  28.795  29.166  1.00  0.00     0.037 A 
ATOM     44  C   UNL A   1      47.008  27.029  29.375  1.00  0.00     0.037 A 
ATOM     45  C   UNL A   1      41.122  29.807  29.693  1.00  0.00     0.049 A 
ATOM     46  C   UNL A   1      46.528  28.376  29.837  1.00  0.00     0.074 A 
ATOM     47  C   UNL A   1      40.794  31.062  30.176  1.00  0.00     0.029 A 
ATOM     48  N   UNL A   1      42.496  29.673  29.821  1.00  0.00    -0.354 N 
ATOM     49  N   UNL A   1      45.304  28.845  29.884  1.00  0.00    -0.248 NA
ATOM     50  C   UNL A   1      47.551  29.321  30.308  1.00  0.00     0.031 C 
ATOM     51  C   UNL A   1      41.975  31.699  30.573  1.00  0.00     0.029 A 
ATOM     52  C   UNL A   1      43.032  30.826  30.367  1.00  0.00     0.049 A 
ATOM     53  H   UNL A   1      43.013  28.877  29.560  1.00  0.00     0.167 HD
ATOM     54  C   UNL A   1      45.408  30.125  30.411  1.00  0.00     0.074 A 
ATOM     55  C   UNL A   1      46.812  30.355  30.682  1.00  0.00     0.031 C 
ATOM     56  C   UNL A   1      44.428  31.031  30.647  1.00  0.00     0.037 A 
BRANCH  43  57
ATOM     57  C   UNL A   1      38.792  29.121  29.016  1.00  0.00     0.057 A 
ATOM     58  C   UNL A   1      37.907  29.057  30.100  1.00  0.00     0.134 A 
ATOM     59  C   UNL A   1      38.276  29.535  27.782  1.00  0.00     0.134 A 
ATOM     60  F   UNL A   1      38.336  28.654  31.305  1.00  0.00    -0.206 F 
ATOM     61  C   UNL A   1      36.555  29.371  29.956  1.00  0.00     0.040 A 
ATOM     62  C   UNL A   1      36.932  29.876  27.632  1.00  0.00     0.040 A 
ATOM     63  F   UNL A   1      39.072  29.622  26.705  1.00  0.00    -0.206 F 
ATOM     64  C   UNL A   1      36.066  29.788  28.720  1.00  0.00     0.006 A 
ENDBRANCH  43  57
BRANCH  44  65
ATOM     65  C   UNL A   1      48.456  26.706  29.381  1.00  0.00     0.057 A 
ATOM     66  C   UNL A   1      49.273  27.044  28.296  1.00  0.00     0.134 A 
ATOM     67  C   UNL A   1      49.054  26.034  30.454  1.00  0.00     0.134 A 
ATOM     68  F   UNL A   1      48.753  27.670  27.230  1.00  0.00    -0.206 F 
ATOM     69  C   UNL A   1      50.627  26.706  28.266  1.00  0.00     0.040 A 
ATOM     70  C   UNL A   1      50.411  25.710  30.447  1.00  0.00     0.040 A 
ATOM     71  F   UNL A   1      48.326  25.690  31.526  1.00  0.00    -0.206 F 
ATOM     72  C   UNL A   1      51.201  26.038  29.346  1.00  0.00     0.006 A 
ENDBRANCH  44  65
BRANCH  56  73
ATOM     73  C   UNL A   1      44.834  32.336  31.260  1.00  0.00     0.057 A 
ATOM     74  C   UNL A   1      45.166  33.447  30.476  1.00  0.00     0.134 A 
ATOM     75  C   UNL A   1      44.847  32.494  32.651  1.00  0.00     0.134 A 
ATOM     76  F   UNL A   1      45.184  33.353  29.138  1.00  0.00    -0.206 F 
ATOM     77  C   UNL A   1      45.513  34.668  31.055  1.00  0.00     0.040 A 
ATOM     78  C   UNL A   1      45.172  33.716  33.242  1.00  0.00     0.040 A 
ATOM     79  F   UNL A   1      44.531  31.470  33.458  1.00  0.00    -0.206 F 
ATOM     80  C   UNL A   1      45.510  34.806  32.442  1.00  0.00     0.006 A 
ENDBRANCH  56  73
ENDBRANCH  30  31
ENDBRANCH  22  25
ENDBRANCH  20  21
ENDBRANCH   1  20
TORSDOF 12
ENDMDL
