MODEL 1
REMARK VINA RESULT:     -14.4      0.000      0.000
REMARK SMILES Cc1cccc(C(=O)Nc2cc(C(=O)NCCCCNC(=O)c3ccc(-c4c5nc(c(-c6c(F)cccc6F)c6ccc([nH]6)c(-c6c(F)cccc6F)c6nc(c(-c7c(F)cccc7F)c7ccc4[nH]7)C=C6)C=C5)cc3)ccc2N2CC[NH+](CC(=O)NC(C)(C)C)CC2)c1
REMARK SMILES IDX 16 1 15 2 13 3 14 4 12 6 10 7 11 8 79 9 78 10 77 11 9 12
REMARK SMILES IDX 7 13 8 14 6 16 1 17 2 18 3 19 94 20 4 21 5 22 80 23 81 24
REMARK SMILES IDX 93 25 82 26 92 27 83 28 84 30 85 31 86 32 87 33 88 35 89 36
REMARK SMILES IDX 90 37 91 38 17 39 18 40 19 41 20 42 21 43 22 45 23 46 24 47
REMARK SMILES IDX 76 48 25 49 75 50 26 51 27 52 28 53 69 54 29 55 74 56 68 57
REMARK SMILES IDX 70 58 30 59 73 60 67 61 66 62 31 64 57 65 40 66 56 67 41 68
REMARK SMILES IDX 44 69 55 70 71 71 42 72 43 73 54 75 72 76 45 77 32 78 33 79
REMARK SMILES IDX 38 80 34 81 35 82 37 83 39 84 36 85 58 86 59 87 64 88 60 89
REMARK SMILES IDX 61 90 63 91 65 92 62 93 46 94 47 95 52 96 48 97 49 98 51 99
REMARK SMILES IDX 53 100 50 101
REMARK H PARENT 15 5 9 15 83 29 87 34 20 44 70 63 44 74
REMARK Flexibility Score: inf
ROOT
ATOM      1  C   UNL A   1      34.169  31.201  27.880  1.00  0.00     0.116 C 
ENDROOT
BRANCH   1   2
ATOM      2  N   UNL A   1      33.001  31.695  27.158  1.00  0.00    -0.352 N 
ATOM      3  C   UNL A   1      31.928  31.090  26.538  1.00  0.00     0.251 C 
ATOM      4  O   UNL A   1      31.029  31.832  26.139  1.00  0.00    -0.269 OA
ATOM      5  H   UNL A   1      32.972  32.677  27.102  1.00  0.00     0.163 HD
BRANCH   3   6
ATOM      6  C   UNL A   1      31.772  29.616  26.339  1.00  0.00     0.042 A 
ATOM      7  C   UNL A   1      31.584  27.654  24.941  1.00  0.00     0.065 A 
ATOM      8  C   UNL A   1      31.553  29.035  25.105  1.00  0.00     0.042 A 
ATOM      9  C   UNL A   1      31.681  26.763  26.031  1.00  0.00     0.061 A 
ATOM     10  C   UNL A   1      31.816  27.346  27.292  1.00  0.00     0.029 A 
ATOM     11  C   UNL A   1      31.896  28.750  27.439  1.00  0.00     0.016 A 
BRANCH   7  12
ATOM     12  N   UNL A   1      31.607  27.150  23.629  1.00  0.00    -0.320 N 
ATOM     13  C   UNL A   1      30.773  27.499  22.581  1.00  0.00     0.255 C 
ATOM     14  O   UNL A   1      31.028  27.079  21.452  1.00  0.00    -0.269 OA
ATOM     15  H   UNL A   1      32.294  26.471  23.435  1.00  0.00     0.170 HD
BRANCH  13  16
ATOM     16  C   UNL A   1      29.600  28.412  22.754  1.00  0.00     0.040 A 
ATOM     17  C   UNL A   1      28.624  32.100  23.059  1.00  0.00     0.044 C 
ATOM     18  C   UNL A   1      28.534  30.601  22.991  1.00  0.00    -0.050 A 
ATOM     19  C   UNL A   1      27.360  29.969  23.399  1.00  0.00     0.003 A 
ATOM     20  C   UNL A   1      29.630  29.811  22.605  1.00  0.00     0.017 A 
ATOM     21  C   UNL A   1      27.298  28.579  23.439  1.00  0.00     0.001 A 
ATOM     22  C   UNL A   1      28.406  27.800  23.126  1.00  0.00     0.014 A 
ENDBRANCH  13  16
ENDBRANCH   7  12
BRANCH   9  23
ATOM     23  N   UNL A   1      31.777  25.400  25.808  1.00  0.00    -0.359 N 
ATOM     24  C   UNL A   1      30.663  24.441  25.854  1.00  0.00     0.178 C 
ATOM     25  C   UNL A   1      33.051  24.767  26.150  1.00  0.00     0.178 C 
ATOM     26  C   UNL A   1      31.017  23.154  25.020  1.00  0.00     0.284 C 
ATOM     27  C   UNL A   1      33.373  23.733  25.058  1.00  0.00     0.284 C 
ATOM     28  N   UNL A   1      32.408  22.635  25.017  1.00  0.00    -0.324 N 
ATOM     29  H   UNL A   1      32.492  22.149  24.124  1.00  0.00     0.348 HD
BRANCH  28  30
ATOM     30  C   UNL A   1      32.726  21.548  25.963  1.00  0.00     0.363 C 
BRANCH  30  31
ATOM     31  C   UNL A   1      34.068  20.859  25.752  1.00  0.00     0.275 C 
ATOM     32  O   UNL A   1      35.108  21.424  26.118  1.00  0.00    -0.268 OA
ATOM     33  N   UNL A   1      34.229  19.640  25.167  1.00  0.00    -0.347 N 
ATOM     34  H   UNL A   1      35.165  19.346  25.251  1.00  0.00     0.164 HD
BRANCH  33  35
ATOM     35  C   UNL A   1      33.433  18.608  24.440  1.00  0.00     0.032 C 
ATOM     36  C   UNL A   1      34.335  17.492  23.875  1.00  0.00     0.034 C 
ATOM     37  C   UNL A   1      32.533  17.933  25.500  1.00  0.00     0.034 C 
ATOM     38  C   UNL A   1      32.519  19.149  23.338  1.00  0.00     0.034 C 
ENDBRANCH  33  35
ENDBRANCH  30  31
ENDBRANCH  28  30
ENDBRANCH   9  23
ENDBRANCH   3   6
ENDBRANCH   1   2
BRANCH   1  39
ATOM     39  C   UNL A   1      35.233  32.280  28.146  1.00  0.00     0.023 C 
BRANCH  39  40
ATOM     40  C   UNL A   1      34.810  33.690  27.746  1.00  0.00     0.023 C 
BRANCH  40  41
ATOM     41  C   UNL A   1      35.189  34.743  28.775  1.00  0.00     0.116 C 
BRANCH  41  42
ATOM     42  N   UNL A   1      34.098  35.189  29.633  1.00  0.00    -0.352 N 
ATOM     43  C   UNL A   1      33.801  34.832  30.941  1.00  0.00     0.251 C 
ATOM     44  H   UNL A   1      33.483  35.839  29.225  1.00  0.00     0.163 HD
ATOM     45  O   UNL A   1      32.801  35.272  31.481  1.00  0.00    -0.269 OA
BRANCH  43  46
ATOM     46  C   UNL A   1      34.779  34.038  31.735  1.00  0.00     0.039 A 
ATOM     47  C   UNL A   1      35.882  34.714  32.274  1.00  0.00     0.014 A 
ATOM     48  C   UNL A   1      34.748  32.648  31.752  1.00  0.00     0.014 A 
ATOM     49  C   UNL A   1      37.051  34.009  32.550  1.00  0.00     0.010 A 
ATOM     50  C   UNL A   1      35.935  31.963  31.893  1.00  0.00     0.010 A 
ATOM     51  C   UNL A   1      37.104  32.658  32.213  1.00  0.00    -0.014 A 
BRANCH  51  52
ATOM     52  C   UNL A   1      38.348  31.932  31.989  1.00  0.00     0.031 A 
ATOM     53  C   UNL A   1      38.372  30.702  31.179  1.00  0.00     0.074 A 
ATOM     54  C   UNL A   1      39.505  32.470  32.435  1.00  0.00     0.049 A 
ATOM     55  N   UNL A   1      39.310  29.818  31.230  1.00  0.00    -0.248 NA
ATOM     56  C   UNL A   1      37.292  30.345  30.270  1.00  0.00     0.031 C 
ATOM     57  C   UNL A   1      40.864  32.101  32.052  1.00  0.00     0.029 A 
ATOM     58  N   UNL A   1      39.681  33.324  33.523  1.00  0.00    -0.354 N 
ATOM     59  C   UNL A   1      39.121  28.947  30.181  1.00  0.00     0.074 A 
ATOM     60  C   UNL A   1      37.813  29.276  29.662  1.00  0.00     0.031 C 
ATOM     61  C   UNL A   1      41.694  32.445  33.049  1.00  0.00     0.029 A 
ATOM     62  C   UNL A   1      40.869  32.926  34.145  1.00  0.00     0.049 A 
ATOM     63  H   UNL A   1      39.087  34.059  33.799  1.00  0.00     0.167 HD
ATOM     64  C   UNL A   1      40.153  28.146  29.787  1.00  0.00     0.037 A 
ATOM     65  C   UNL A   1      40.981  32.554  35.451  1.00  0.00     0.037 A 
ATOM     66  C   UNL A   1      41.306  28.297  30.678  1.00  0.00     0.049 A 
ATOM     67  C   UNL A   1      41.598  31.186  35.574  1.00  0.00     0.074 A 
ATOM     68  C   UNL A   1      42.474  29.038  30.577  1.00  0.00     0.029 A 
ATOM     69  N   UNL A   1      41.218  27.887  32.006  1.00  0.00    -0.354 N 
ATOM     70  N   UNL A   1      41.588  30.313  34.603  1.00  0.00    -0.248 NA
ATOM     71  C   UNL A   1      42.266  30.690  36.770  1.00  0.00     0.031 C 
ATOM     72  C   UNL A   1      43.059  29.119  31.864  1.00  0.00     0.029 A 
ATOM     73  C   UNL A   1      42.263  28.407  32.747  1.00  0.00     0.049 A 
ATOM     74  H   UNL A   1      40.509  27.307  32.369  1.00  0.00     0.167 HD
ATOM     75  C   UNL A   1      42.247  29.184  35.001  1.00  0.00     0.074 A 
ATOM     76  C   UNL A   1      42.646  29.463  36.369  1.00  0.00     0.031 C 
ATOM     77  C   UNL A   1      42.413  28.117  34.168  1.00  0.00     0.037 A 
BRANCH  64  78
ATOM     78  C   UNL A   1      40.222  27.491  28.419  1.00  0.00     0.057 A 
ATOM     79  C   UNL A   1      39.679  26.210  28.196  1.00  0.00     0.134 A 
ATOM     80  C   UNL A   1      40.870  28.037  27.297  1.00  0.00     0.134 A 
ATOM     81  F   UNL A   1      38.918  25.597  29.110  1.00  0.00    -0.206 F 
ATOM     82  C   UNL A   1      39.886  25.484  27.014  1.00  0.00     0.040 A 
ATOM     83  C   UNL A   1      41.136  27.303  26.131  1.00  0.00     0.040 A 
ATOM     84  F   UNL A   1      41.218  29.329  27.250  1.00  0.00    -0.206 F 
ATOM     85  C   UNL A   1      40.658  26.011  25.992  1.00  0.00     0.006 A 
ENDBRANCH  64  78
BRANCH  65  86
ATOM     86  C   UNL A   1      39.951  33.131  36.349  1.00  0.00     0.057 A 
ATOM     87  C   UNL A   1      38.807  32.362  36.624  1.00  0.00     0.134 A 
ATOM     88  C   UNL A   1      40.253  34.161  37.246  1.00  0.00     0.134 A 
ATOM     89  F   UNL A   1      38.446  31.376  35.788  1.00  0.00    -0.206 F 
ATOM     90  C   UNL A   1      38.088  32.505  37.812  1.00  0.00     0.040 A 
ATOM     91  C   UNL A   1      39.527  34.327  38.432  1.00  0.00     0.040 A 
ATOM     92  F   UNL A   1      41.345  34.916  37.069  1.00  0.00    -0.206 F 
ATOM     93  C   UNL A   1      38.471  33.468  38.739  1.00  0.00     0.006 A 
ENDBRANCH  65  86
BRANCH  77  94
ATOM     94  C   UNL A   1      42.842  26.738  34.596  1.00  0.00     0.057 A 
ATOM     95  C   UNL A   1      41.995  25.824  35.240  1.00  0.00     0.134 A 
ATOM     96  C   UNL A   1      44.101  26.224  34.214  1.00  0.00     0.134 A 
ATOM     97  F   UNL A   1      40.733  26.140  35.560  1.00  0.00    -0.206 F 
ATOM     98  C   UNL A   1      42.390  24.513  35.533  1.00  0.00     0.040 A 
ATOM     99  C   UNL A   1      44.484  24.902  34.453  1.00  0.00     0.040 A 
ATOM    100  F   UNL A   1      45.003  26.976  33.565  1.00  0.00    -0.206 F 
ATOM    101  C   UNL A   1      43.632  24.044  35.128  1.00  0.00     0.006 A 
ENDBRANCH  77  94
ENDBRANCH  51  52
ENDBRANCH  43  46
ENDBRANCH  41  42
ENDBRANCH  40  41
ENDBRANCH  39  40
ENDBRANCH   1  39
TORSDOF 17
ENDMDL
MODEL 2
REMARK VINA RESULT:     -13.3      2.968      5.852
REMARK SMILES Cc1cccc(C(=O)Nc2cc(C(=O)NCCCCNC(=O)c3ccc(-c4c5nc(c(-c6c(F)cccc6F)c6ccc([nH]6)c(-c6c(F)cccc6F)c6nc(c(-c7c(F)cccc7F)c7ccc4[nH]7)C=C6)C=C5)cc3)ccc2N2CC[NH+](CC(=O)NC(C)(C)C)CC2)c1
REMARK SMILES IDX 16 1 15 2 13 3 14 4 12 6 10 7 11 8 79 9 78 10 77 11 9 12
REMARK SMILES IDX 7 13 8 14 6 16 1 17 2 18 3 19 94 20 4 21 5 22 80 23 81 24
REMARK SMILES IDX 93 25 82 26 92 27 83 28 84 30 85 31 86 32 87 33 88 35 89 36
REMARK SMILES IDX 90 37 91 38 17 39 18 40 19 41 20 42 21 43 22 45 23 46 24 47
REMARK SMILES IDX 76 48 25 49 75 50 26 51 27 52 28 53 69 54 29 55 74 56 68 57
REMARK SMILES IDX 70 58 30 59 73 60 67 61 66 62 31 64 57 65 40 66 56 67 41 68
REMARK SMILES IDX 44 69 55 70 71 71 42 72 43 73 54 75 72 76 45 77 32 78 33 79
REMARK SMILES IDX 38 80 34 81 35 82 37 83 39 84 36 85 58 86 59 87 64 88 60 89
REMARK SMILES IDX 61 90 63 91 65 92 62 93 46 94 47 95 52 96 48 97 49 98 51 99
REMARK SMILES IDX 53 100 50 101
REMARK H PARENT 15 5 9 15 83 29 87 34 20 44 70 63 44 74
REMARK Flexibility Score: inf
ROOT
ATOM      1  C   UNL A   1      31.449  28.943  24.569  1.00  0.00     0.116 C 
ENDROOT
BRANCH   1   2
ATOM      2  N   UNL A   1      30.612  27.791  24.253  1.00  0.00    -0.352 N 
ATOM      3  C   UNL A   1      30.813  26.427  24.260  1.00  0.00     0.251 C 
ATOM      4  O   UNL A   1      29.821  25.721  24.069  1.00  0.00    -0.269 OA
ATOM      5  H   UNL A   1      29.702  28.043  23.975  1.00  0.00     0.163 HD
BRANCH   3   6
ATOM      6  C   UNL A   1      32.126  25.755  24.502  1.00  0.00     0.042 A 
ATOM      7  C   UNL A   1      33.554  24.217  25.701  1.00  0.00     0.065 A 
ATOM      8  C   UNL A   1      32.381  24.958  25.601  1.00  0.00     0.042 A 
ATOM      9  C   UNL A   1      34.614  24.349  24.779  1.00  0.00     0.061 A 
ATOM     10  C   UNL A   1      34.396  25.220  23.710  1.00  0.00     0.029 A 
ATOM     11  C   UNL A   1      33.157  25.885  23.556  1.00  0.00     0.016 A 
BRANCH   7  12
ATOM     12  N   UNL A   1      33.632  23.243  26.711  1.00  0.00    -0.320 N 
ATOM     13  C   UNL A   1      33.403  21.884  26.584  1.00  0.00     0.255 C 
ATOM     14  O   UNL A   1      33.668  21.144  27.533  1.00  0.00    -0.269 OA
ATOM     15  H   UNL A   1      33.876  23.564  27.609  1.00  0.00     0.170 HD
BRANCH  13  16
ATOM     16  C   UNL A   1      32.895  21.266  25.320  1.00  0.00     0.040 A 
ATOM     17  C   UNL A   1      32.900  18.018  23.296  1.00  0.00     0.044 C 
ATOM     18  C   UNL A   1      32.635  19.435  23.717  1.00  0.00    -0.050 A 
ATOM     19  C   UNL A   1      32.146  20.346  22.780  1.00  0.00     0.003 A 
ATOM     20  C   UNL A   1      32.944  19.894  25.009  1.00  0.00     0.017 A 
ATOM     21  C   UNL A   1      31.994  21.685  23.127  1.00  0.00     0.001 A 
ATOM     22  C   UNL A   1      32.367  22.150  24.382  1.00  0.00     0.014 A 
ENDBRANCH  13  16
ENDBRANCH   7  12
BRANCH   9  23
ATOM     23  N   UNL A   1      35.732  23.538  24.884  1.00  0.00    -0.359 N 
ATOM     24  C   UNL A   1      35.884  22.203  24.288  1.00  0.00     0.178 C 
ATOM     25  C   UNL A   1      36.536  23.684  26.098  1.00  0.00     0.178 C 
ATOM     26  C   UNL A   1      37.409  21.849  24.127  1.00  0.00     0.284 C 
ATOM     27  C   UNL A   1      38.018  23.597  25.696  1.00  0.00     0.284 C 
ATOM     28  N   UNL A   1      38.382  22.286  25.160  1.00  0.00    -0.324 N 
ATOM     29  H   UNL A   1      39.264  22.364  24.655  1.00  0.00     0.348 HD
BRANCH  28  30
ATOM     30  C   UNL A   1      38.740  21.310  26.208  1.00  0.00     0.363 C 
BRANCH  30  31
ATOM     31  C   UNL A   1      39.661  20.178  25.769  1.00  0.00     0.275 C 
ATOM     32  O   UNL A   1      39.172  19.111  25.375  1.00  0.00    -0.268 OA
ATOM     33  N   UNL A   1      41.022  20.239  25.784  1.00  0.00    -0.347 N 
ATOM     34  H   UNL A   1      41.400  19.443  25.344  1.00  0.00     0.164 HD
BRANCH  33  35
ATOM     35  C   UNL A   1      42.120  21.131  26.256  1.00  0.00     0.032 C 
ATOM     36  C   UNL A   1      42.217  21.146  27.795  1.00  0.00     0.034 C 
ATOM     37  C   UNL A   1      43.436  20.498  25.752  1.00  0.00     0.034 C 
ATOM     38  C   UNL A   1      42.068  22.566  25.723  1.00  0.00     0.034 C 
ENDBRANCH  33  35
ENDBRANCH  30  31
ENDBRANCH  28  30
ENDBRANCH   9  23
ENDBRANCH   3   6
ENDBRANCH   1   2
BRANCH   1  39
ATOM     39  C   UNL A   1      31.683  29.143  26.077  1.00  0.00     0.023 C 
BRANCH  39  40
ATOM     40  C   UNL A   1      32.496  30.384  26.426  1.00  0.00     0.023 C 
BRANCH  40  41
ATOM     41  C   UNL A   1      33.634  30.103  27.395  1.00  0.00     0.116 C 
BRANCH  41  42
ATOM     42  N   UNL A   1      34.347  31.282  27.870  1.00  0.00    -0.352 N 
ATOM     43  C   UNL A   1      35.625  31.387  28.401  1.00  0.00     0.251 C 
ATOM     44  H   UNL A   1      33.850  32.128  27.803  1.00  0.00     0.163 HD
ATOM     45  O   UNL A   1      36.034  32.463  28.801  1.00  0.00    -0.269 OA
BRANCH  43  46
ATOM     46  C   UNL A   1      36.552  30.222  28.342  1.00  0.00     0.039 A 
ATOM     47  C   UNL A   1      36.641  29.403  29.477  1.00  0.00     0.014 A 
ATOM     48  C   UNL A   1      37.474  30.074  27.312  1.00  0.00     0.014 A 
ATOM     49  C   UNL A   1      37.801  28.663  29.698  1.00  0.00     0.010 A 
ATOM     50  C   UNL A   1      38.675  29.455  27.584  1.00  0.00     0.010 A 
ATOM     51  C   UNL A   1      38.864  28.819  28.813  1.00  0.00    -0.014 A 
BRANCH  51  52
ATOM     52  C   UNL A   1      40.249  28.516  29.156  1.00  0.00     0.031 A 
ATOM     53  C   UNL A   1      40.926  27.331  28.601  1.00  0.00     0.074 A 
ATOM     54  C   UNL A   1      40.945  29.406  29.897  1.00  0.00     0.049 A 
ATOM     55  N   UNL A   1      41.979  26.792  29.113  1.00  0.00    -0.248 NA
ATOM     56  C   UNL A   1      40.425  26.622  27.433  1.00  0.00     0.031 C 
ATOM     57  C   UNL A   1      42.391  29.474  30.082  1.00  0.00     0.029 A 
ATOM     58  N   UNL A   1      40.442  30.307  30.836  1.00  0.00    -0.354 N 
ATOM     59  C   UNL A   1      42.459  25.872  28.210  1.00  0.00     0.074 A 
ATOM     60  C   UNL A   1      41.416  25.754  27.217  1.00  0.00     0.031 C 
ATOM     61  C   UNL A   1      42.642  30.095  31.245  1.00  0.00     0.029 A 
ATOM     62  C   UNL A   1      41.361  30.325  31.892  1.00  0.00     0.049 A 
ATOM     63  H   UNL A   1      39.608  30.825  30.770  1.00  0.00     0.167 HD
ATOM     64  C   UNL A   1      43.744  25.426  28.332  1.00  0.00     0.037 A 
ATOM     65  C   UNL A   1      41.062  30.050  33.192  1.00  0.00     0.037 A 
ATOM     66  C   UNL A   1      44.374  25.963  29.541  1.00  0.00     0.049 A 
ATOM     67  C   UNL A   1      41.941  28.952  33.729  1.00  0.00     0.074 A 
ATOM     68  C   UNL A   1      45.232  27.032  29.751  1.00  0.00     0.029 A 
ATOM     69  N   UNL A   1      43.901  25.589  30.797  1.00  0.00    -0.354 N 
ATOM     70  N   UNL A   1      42.549  28.090  32.961  1.00  0.00    -0.248 NA
ATOM     71  C   UNL A   1      42.209  28.732  35.145  1.00  0.00     0.031 C 
ATOM     72  C   UNL A   1      45.230  27.335  31.134  1.00  0.00     0.029 A 
ATOM     73  C   UNL A   1      44.391  26.437  31.773  1.00  0.00     0.049 A 
ATOM     74  H   UNL A   1      43.301  24.827  30.966  1.00  0.00     0.167 HD
ATOM     75  C   UNL A   1      43.293  27.241  33.731  1.00  0.00     0.074 A 
ATOM     76  C   UNL A   1      43.041  27.676  35.094  1.00  0.00     0.031 C 
ATOM     77  C   UNL A   1      44.058  26.255  33.181  1.00  0.00     0.037 A 
BRANCH  64  78
ATOM     78  C   UNL A   1      44.513  24.783  27.192  1.00  0.00     0.057 A 
ATOM     79  C   UNL A   1      45.131  23.526  27.348  1.00  0.00     0.134 A 
ATOM     80  C   UNL A   1      44.743  25.378  25.939  1.00  0.00     0.134 A 
ATOM     81  F   UNL A   1      44.913  22.760  28.423  1.00  0.00    -0.206 F 
ATOM     82  C   UNL A   1      46.010  22.981  26.400  1.00  0.00     0.040 A 
ATOM     83  C   UNL A   1      45.664  24.876  25.007  1.00  0.00     0.040 A 
ATOM     84  F   UNL A   1      44.038  26.440  25.529  1.00  0.00    -0.206 F 
ATOM     85  C   UNL A   1      46.317  23.678  25.244  1.00  0.00     0.006 A 
ENDBRANCH  64  78
BRANCH  65  86
ATOM     86  C   UNL A   1      39.649  30.301  33.569  1.00  0.00     0.057 A 
ATOM     87  C   UNL A   1      39.278  31.614  33.906  1.00  0.00     0.134 A 
ATOM     88  C   UNL A   1      38.623  29.427  33.194  1.00  0.00     0.134 A 
ATOM     89  F   UNL A   1      40.211  32.493  34.301  1.00  0.00    -0.206 F 
ATOM     90  C   UNL A   1      37.975  32.083  33.727  1.00  0.00     0.040 A 
ATOM     91  C   UNL A   1      37.308  29.882  33.030  1.00  0.00     0.040 A 
ATOM     92  F   UNL A   1      38.902  28.170  32.827  1.00  0.00    -0.206 F 
ATOM     93  C   UNL A   1      36.991  31.222  33.252  1.00  0.00     0.006 A 
ENDBRANCH  65  86
BRANCH  77  94
ATOM     94  C   UNL A   1      44.658  25.097  33.935  1.00  0.00     0.057 A 
ATOM     95  C   UNL A   1      46.030  24.965  34.197  1.00  0.00     0.134 A 
ATOM     96  C   UNL A   1      43.831  24.149  34.576  1.00  0.00     0.134 A 
ATOM     97  F   UNL A   1      46.921  25.858  33.746  1.00  0.00    -0.206 F 
ATOM     98  C   UNL A   1      46.547  23.933  34.990  1.00  0.00     0.040 A 
ATOM     99  C   UNL A   1      44.331  23.149  35.413  1.00  0.00     0.040 A 
ATOM    100  F   UNL A   1      42.496  24.170  34.441  1.00  0.00    -0.206 F 
ATOM    101  C   UNL A   1      45.697  23.029  35.612  1.00  0.00     0.006 A 
ENDBRANCH  77  94
ENDBRANCH  51  52
ENDBRANCH  43  46
ENDBRANCH  41  42
ENDBRANCH  40  41
ENDBRANCH  39  40
ENDBRANCH   1  39
TORSDOF 17
ENDMDL
MODEL 3
REMARK VINA RESULT:     -13.3      2.464      3.979
REMARK SMILES Cc1cccc(C(=O)Nc2cc(C(=O)NCCCCNC(=O)c3ccc(-c4c5nc(c(-c6c(F)cccc6F)c6ccc([nH]6)c(-c6c(F)cccc6F)c6nc(c(-c7c(F)cccc7F)c7ccc4[nH]7)C=C6)C=C5)cc3)ccc2N2CC[NH+](CC(=O)NC(C)(C)C)CC2)c1
REMARK SMILES IDX 16 1 15 2 13 3 14 4 12 6 10 7 11 8 79 9 78 10 77 11 9 12
REMARK SMILES IDX 7 13 8 14 6 16 1 17 2 18 3 19 94 20 4 21 5 22 80 23 81 24
REMARK SMILES IDX 93 25 82 26 92 27 83 28 84 30 85 31 86 32 87 33 88 35 89 36
REMARK SMILES IDX 90 37 91 38 17 39 18 40 19 41 20 42 21 43 22 45 23 46 24 47
REMARK SMILES IDX 76 48 25 49 75 50 26 51 27 52 28 53 69 54 29 55 74 56 68 57
REMARK SMILES IDX 70 58 30 59 73 60 67 61 66 62 31 64 57 65 40 66 56 67 41 68
REMARK SMILES IDX 44 69 55 70 71 71 42 72 43 73 54 75 72 76 45 77 32 78 33 79
REMARK SMILES IDX 38 80 34 81 35 82 37 83 39 84 36 85 58 86 59 87 64 88 60 89
REMARK SMILES IDX 61 90 63 91 65 92 62 93 46 94 47 95 52 96 48 97 49 98 51 99
REMARK SMILES IDX 53 100 50 101
REMARK H PARENT 15 5 9 15 83 29 87 34 20 44 70 63 44 74
REMARK Flexibility Score: inf
ROOT
ATOM      1  C   UNL A   1      31.601  28.177  25.759  1.00  0.00     0.116 C 
ENDROOT
BRANCH   1   2
ATOM      2  N   UNL A   1      30.481  27.272  25.997  1.00  0.00    -0.352 N 
ATOM      3  C   UNL A   1      30.368  25.908  26.167  1.00  0.00     0.251 C 
ATOM      4  O   UNL A   1      29.260  25.482  26.498  1.00  0.00    -0.269 OA
ATOM      5  H   UNL A   1      29.616  27.738  26.048  1.00  0.00     0.163 HD
BRANCH   3   6
ATOM      6  C   UNL A   1      31.484  24.928  26.003  1.00  0.00     0.042 A 
ATOM      7  C   UNL A   1      32.887  23.488  24.660  1.00  0.00     0.065 A 
ATOM      8  C   UNL A   1      31.741  24.260  24.821  1.00  0.00     0.042 A 
ATOM      9  C   UNL A   1      33.770  23.212  25.727  1.00  0.00     0.061 A 
ATOM     10  C   UNL A   1      33.467  23.815  26.948  1.00  0.00     0.029 A 
ATOM     11  C   UNL A   1      32.362  24.688  27.074  1.00  0.00     0.016 A 
BRANCH   7  12
ATOM     12  N   UNL A   1      33.209  23.051  23.364  1.00  0.00    -0.320 N 
ATOM     13  C   UNL A   1      33.318  23.825  22.222  1.00  0.00     0.255 C 
ATOM     14  O   UNL A   1      33.763  23.311  21.194  1.00  0.00    -0.269 OA
ATOM     15  H   UNL A   1      33.374  22.086  23.258  1.00  0.00     0.170 HD
BRANCH  13  16
ATOM     16  C   UNL A   1      32.964  25.279  22.195  1.00  0.00     0.040 A 
ATOM     17  C   UNL A   1      34.272  28.752  23.128  1.00  0.00     0.044 C 
ATOM     18  C   UNL A   1      33.385  27.652  22.618  1.00  0.00    -0.050 A 
ATOM     19  C   UNL A   1      32.038  27.919  22.372  1.00  0.00     0.003 A 
ATOM     20  C   UNL A   1      33.854  26.336  22.462  1.00  0.00     0.017 A 
ATOM     21  C   UNL A   1      31.183  26.886  21.999  1.00  0.00     0.001 A 
ATOM     22  C   UNL A   1      31.632  25.574  21.915  1.00  0.00     0.014 A 
ENDBRANCH  13  16
ENDBRANCH   7  12
BRANCH   9  23
ATOM     23  N   UNL A   1      34.932  22.496  25.498  1.00  0.00    -0.359 N 
ATOM     24  C   UNL A   1      35.161  21.090  25.861  1.00  0.00     0.178 C 
ATOM     25  C   UNL A   1      36.180  23.259  25.479  1.00  0.00     0.178 C 
ATOM     26  C   UNL A   1      36.308  20.477  24.974  1.00  0.00     0.284 C 
ATOM     27  C   UNL A   1      37.061  22.698  24.350  1.00  0.00     0.284 C 
ATOM     28  N   UNL A   1      37.472  21.315  24.589  1.00  0.00    -0.324 N 
ATOM     29  H   UNL A   1      37.795  20.906  23.713  1.00  0.00     0.348 HD
BRANCH  28  30
ATOM     30  C   UNL A   1      38.687  21.206  25.420  1.00  0.00     0.363 C 
BRANCH  30  31
ATOM     31  C   UNL A   1      39.263  19.803  25.566  1.00  0.00     0.275 C 
ATOM     32  O   UNL A   1      38.600  18.828  25.188  1.00  0.00    -0.268 OA
ATOM     33  N   UNL A   1      40.483  19.520  26.104  1.00  0.00    -0.347 N 
ATOM     34  H   UNL A   1      40.692  18.566  25.981  1.00  0.00     0.164 HD
BRANCH  33  35
ATOM     35  C   UNL A   1      41.601  20.200  26.818  1.00  0.00     0.032 C 
ATOM     36  C   UNL A   1      41.078  21.232  27.838  1.00  0.00     0.034 C 
ATOM     37  C   UNL A   1      42.312  19.106  27.646  1.00  0.00     0.034 C 
ATOM     38  C   UNL A   1      42.653  20.848  25.914  1.00  0.00     0.034 C 
ENDBRANCH  33  35
ENDBRANCH  30  31
ENDBRANCH  28  30
ENDBRANCH   9  23
ENDBRANCH   3   6
ENDBRANCH   1   2
BRANCH   1  39
ATOM     39  C   UNL A   1      32.341  28.594  27.041  1.00  0.00     0.023 C 
BRANCH  39  40
ATOM     40  C   UNL A   1      33.861  28.536  26.935  1.00  0.00     0.023 C 
BRANCH  40  41
ATOM     41  C   UNL A   1      34.552  29.744  27.546  1.00  0.00     0.116 C 
BRANCH  41  42
ATOM     42  N   UNL A   1      33.789  30.986  27.488  1.00  0.00    -0.352 N 
ATOM     43  C   UNL A   1      34.000  32.183  28.159  1.00  0.00     0.251 C 
ATOM     44  H   UNL A   1      33.012  30.973  26.886  1.00  0.00     0.163 HD
ATOM     45  O   UNL A   1      33.212  33.104  28.024  1.00  0.00    -0.269 OA
BRANCH  43  46
ATOM     46  C   UNL A   1      35.263  32.398  28.918  1.00  0.00     0.039 A 
ATOM     47  C   UNL A   1      36.289  33.114  28.285  1.00  0.00     0.014 A 
ATOM     48  C   UNL A   1      35.525  31.724  30.105  1.00  0.00     0.014 A 
ATOM     49  C   UNL A   1      37.610  32.910  28.677  1.00  0.00     0.010 A 
ATOM     50  C   UNL A   1      36.831  31.413  30.413  1.00  0.00     0.010 A 
ATOM     51  C   UNL A   1      37.871  31.944  29.646  1.00  0.00    -0.014 A 
BRANCH  51  52
ATOM     52  C   UNL A   1      39.165  31.291  29.804  1.00  0.00     0.031 A 
ATOM     53  C   UNL A   1      39.433  29.980  29.190  1.00  0.00     0.074 A 
ATOM     54  C   UNL A   1      40.161  31.962  30.425  1.00  0.00     0.049 A 
ATOM     55  N   UNL A   1      40.372  29.180  29.566  1.00  0.00    -0.248 NA
ATOM     56  C   UNL A   1      38.612  29.439  28.116  1.00  0.00     0.031 C 
ATOM     57  C   UNL A   1      41.586  31.653  30.411  1.00  0.00     0.029 A 
ATOM     58  N   UNL A   1      40.038  32.949  31.403  1.00  0.00    -0.354 N 
ATOM     59  C   UNL A   1      40.473  28.181  28.627  1.00  0.00     0.074 A 
ATOM     60  C   UNL A   1      39.309  28.348  27.787  1.00  0.00     0.031 C 
ATOM     61  C   UNL A   1      42.145  32.173  31.514  1.00  0.00     0.029 A 
ATOM     62  C   UNL A   1      41.066  32.717  32.324  1.00  0.00     0.049 A 
ATOM     63  H   UNL A   1      39.364  33.665  31.439  1.00  0.00     0.167 HD
ATOM     64  C   UNL A   1      41.604  27.418  28.584  1.00  0.00     0.037 A 
ATOM     65  C   UNL A   1      40.887  32.510  33.658  1.00  0.00     0.037 A 
ATOM     66  C   UNL A   1      42.510  27.758  29.684  1.00  0.00     0.049 A 
ATOM     67  C   UNL A   1      41.521  31.216  34.096  1.00  0.00     0.074 A 
ATOM     68  C   UNL A   1      43.634  28.568  29.752  1.00  0.00     0.029 A 
ATOM     69  N   UNL A   1      42.133  27.502  31.000  1.00  0.00    -0.354 N 
ATOM     70  N   UNL A   1      41.776  30.237  33.271  1.00  0.00    -0.248 NA
ATOM     71  C   UNL A   1      41.914  30.915  35.467  1.00  0.00     0.031 C 
ATOM     72  C   UNL A   1      43.898  28.843  31.116  1.00  0.00     0.029 A 
ATOM     73  C   UNL A   1      42.952  28.182  31.882  1.00  0.00     0.049 A 
ATOM     74  H   UNL A   1      41.387  26.917  31.266  1.00  0.00     0.167 HD
ATOM     75  C   UNL A   1      42.376  29.214  33.952  1.00  0.00     0.074 A 
ATOM     76  C   UNL A   1      42.432  29.682  35.327  1.00  0.00     0.031 C 
ATOM     77  C   UNL A   1      42.780  28.073  33.326  1.00  0.00     0.037 A 
BRANCH  64  78
ATOM     78  C   UNL A   1      42.019  26.614  27.365  1.00  0.00     0.057 A 
ATOM     79  C   UNL A   1      42.172  25.215  27.432  1.00  0.00     0.134 A 
ATOM     80  C   UNL A   1      42.352  27.163  26.114  1.00  0.00     0.134 A 
ATOM     81  F   UNL A   1      41.779  24.512  28.501  1.00  0.00    -0.206 F 
ATOM     82  C   UNL A   1      42.738  24.454  26.398  1.00  0.00     0.040 A 
ATOM     83  C   UNL A   1      42.973  26.428  25.093  1.00  0.00     0.040 A 
ATOM     84  F   UNL A   1      42.031  28.423  25.795  1.00  0.00    -0.206 F 
ATOM     85  C   UNL A   1      43.185  25.067  25.239  1.00  0.00     0.006 A 
ENDBRANCH  64  78
BRANCH  65  86
ATOM     86  C   UNL A   1      39.651  33.110  34.218  1.00  0.00     0.057 A 
ATOM     87  C   UNL A   1      38.509  32.297  34.319  1.00  0.00     0.134 A 
ATOM     88  C   UNL A   1      39.690  34.254  35.021  1.00  0.00     0.134 A 
ATOM     89  F   UNL A   1      38.398  31.201  33.555  1.00  0.00    -0.206 F 
ATOM     90  C   UNL A   1      37.525  32.522  35.284  1.00  0.00     0.040 A 
ATOM     91  C   UNL A   1      38.698  34.501  35.980  1.00  0.00     0.040 A 
ATOM     92  F   UNL A   1      40.759  35.060  35.005  1.00  0.00    -0.206 F 
ATOM     93  C   UNL A   1      37.638  33.609  36.144  1.00  0.00     0.006 A 
ENDBRANCH  65  86
BRANCH  77  94
ATOM     94  C   UNL A   1      43.160  26.790  34.018  1.00  0.00     0.057 A 
ATOM     95  C   UNL A   1      42.268  26.024  34.783  1.00  0.00     0.134 A 
ATOM     96  C   UNL A   1      44.420  26.193  33.788  1.00  0.00     0.134 A 
ATOM     97  F   UNL A   1      41.003  26.414  34.987  1.00  0.00    -0.206 F 
ATOM     98  C   UNL A   1      42.620  24.783  35.328  1.00  0.00     0.040 A 
ATOM     99  C   UNL A   1      44.762  24.932  34.281  1.00  0.00     0.040 A 
ATOM    100  F   UNL A   1      45.363  26.797  33.050  1.00  0.00    -0.206 F 
ATOM    101  C   UNL A   1      43.865  24.227  35.067  1.00  0.00     0.006 A 
ENDBRANCH  77  94
ENDBRANCH  51  52
ENDBRANCH  43  46
ENDBRANCH  41  42
ENDBRANCH  40  41
ENDBRANCH  39  40
ENDBRANCH   1  39
TORSDOF 17
ENDMDL
