MODEL 1
REMARK VINA RESULT:     -12.1      0.000      0.000
REMARK SMILES CC(C)(C)[C@](O)(c1ccc(C(=O)NCCCCNC(=O)c2ccc(-c3c4nc(c(-c5c(F)cccc5F)c5ccc([nH]5)c(-c5c(F)cccc5F)c5nc(c(-c6c(F)cccc6F)c6ccc3[nH]6)C=C5)C=C4)cc2)cc1)c1ccc(C(F)(F)F)cc1
REMARK SMILES IDX 15 1 14 2 13 3 11 4 12 5 10 7 7 8 8 9 76 10 9 11 75 12 5 13
REMARK SMILES IDX 2 14 1 15 3 16 4 17 77 18 78 19 86 20 79 21 85 22 80 23
REMARK SMILES IDX 81 24 82 25 83 26 84 27 6 28 16 30 17 31 18 32 19 33 20 35
REMARK SMILES IDX 21 36 22 37 74 38 23 39 73 40 24 41 25 42 26 43 67 44 27 45
REMARK SMILES IDX 72 46 66 47 68 48 28 49 71 50 65 51 64 52 29 54 55 55 38 56
REMARK SMILES IDX 54 57 39 58 42 59 53 60 69 61 40 62 41 63 52 65 70 66 43 67
REMARK SMILES IDX 30 68 31 69 36 70 32 71 33 72 35 73 37 74 34 75 56 76 57 77
REMARK SMILES IDX 62 78 58 79 59 80 61 81 63 82 60 83 44 84 45 85 50 86 46 87
REMARK SMILES IDX 47 88 49 89 51 90 48 91
REMARK H PARENT 13 6 6 29 18 34 68 53 42 64
REMARK Flexibility Score: inf
ROOT
ATOM      1  C   UNL A   1      36.794  21.185  24.614  1.00  0.00     0.023 C 
ENDROOT
BRANCH   1   2
ATOM      2  C   UNL A   1      35.498  21.208  25.424  1.00  0.00     0.116 C 
BRANCH   2   3
ATOM      3  N   UNL A   1      34.404  20.615  24.678  1.00  0.00    -0.352 N 
ATOM      4  C   UNL A   1      33.218  21.176  24.276  1.00  0.00     0.251 C 
ATOM      5  O   UNL A   1      32.458  20.537  23.554  1.00  0.00    -0.269 OA
ATOM      6  H   UNL A   1      34.532  19.673  24.421  1.00  0.00     0.163 HD
BRANCH   4   7
ATOM      7  C   UNL A   1      32.872  22.567  24.643  1.00  0.00     0.039 A 
ATOM      8  C   UNL A   1      32.274  25.278  25.242  1.00  0.00    -0.011 A 
ATOM      9  C   UNL A   1      32.875  24.902  24.021  1.00  0.00     0.008 A 
ATOM     10  C   UNL A   1      31.954  24.242  26.139  1.00  0.00     0.008 A 
ATOM     11  C   UNL A   1      33.145  23.566  23.713  1.00  0.00     0.014 A 
ATOM     12  C   UNL A   1      32.256  22.905  25.848  1.00  0.00     0.014 A 
BRANCH   8  13
ATOM     13  C   UNL A   1      31.998  26.776  25.589  1.00  0.00     0.119 C 
BRANCH  13  14
ATOM     14  C   UNL A   1      33.368  27.611  25.821  1.00  0.00    -0.001 C 
ATOM     15  C   UNL A   1      33.176  28.638  26.967  1.00  0.00     0.014 C 
ATOM     16  C   UNL A   1      33.905  28.349  24.569  1.00  0.00     0.014 C 
ATOM     17  C   UNL A   1      34.555  26.712  26.277  1.00  0.00     0.014 C 
ENDBRANCH  13  14
BRANCH  13  18
ATOM     18  C   UNL A   1      30.907  27.355  24.629  1.00  0.00    -0.011 A 
ATOM     19  C   UNL A   1      30.994  28.715  24.242  1.00  0.00     0.008 A 
ATOM     20  C   UNL A   1      29.761  26.671  24.201  1.00  0.00     0.008 A 
ATOM     21  C   UNL A   1      29.955  29.368  23.566  1.00  0.00     0.013 A 
ATOM     22  C   UNL A   1      28.712  27.322  23.533  1.00  0.00     0.013 A 
ATOM     23  C   UNL A   1      28.782  28.684  23.237  1.00  0.00     0.056 A 
BRANCH  23  24
ATOM     24  C   UNL A   1      27.613  29.410  22.621  1.00  0.00     0.416 C 
ATOM     25  F   UNL A   1      26.468  28.670  22.664  1.00  0.00    -0.166 F 
ATOM     26  F   UNL A   1      27.325  30.584  23.245  1.00  0.00    -0.166 F 
ATOM     27  F   UNL A   1      27.797  29.721  21.305  1.00  0.00    -0.166 F 
ENDBRANCH  23  24
ENDBRANCH  13  18
BRANCH  13  28
ATOM     28  O   UNL A   1      31.289  26.758  26.855  1.00  0.00    -0.380 OA
ATOM     29  H   UNL A   1      31.092  27.667  27.128  1.00  0.00     0.212 HD
ENDBRANCH  13  28
ENDBRANCH   8  13
ENDBRANCH   4   7
ENDBRANCH   2   3
ENDBRANCH   1   2
BRANCH   1  30
ATOM     30  C   UNL A   1      37.739  20.033  24.960  1.00  0.00     0.023 C 
BRANCH  30  31
ATOM     31  C   UNL A   1      38.989  20.433  25.730  1.00  0.00     0.116 C 
BRANCH  31  32
ATOM     32  N   UNL A   1      40.017  19.405  25.733  1.00  0.00    -0.352 N 
ATOM     33  C   UNL A   1      41.345  19.522  26.081  1.00  0.00     0.251 C 
ATOM     34  H   UNL A   1      39.727  18.509  25.448  1.00  0.00     0.163 HD
ATOM     35  O   UNL A   1      42.114  18.591  25.934  1.00  0.00    -0.269 OA
BRANCH  33  36
ATOM     36  C   UNL A   1      41.828  20.819  26.600  1.00  0.00     0.039 A 
ATOM     37  C   UNL A   1      42.318  21.763  25.695  1.00  0.00     0.014 A 
ATOM     38  C   UNL A   1      41.749  21.115  27.963  1.00  0.00     0.014 A 
ATOM     39  C   UNL A   1      42.666  23.035  26.151  1.00  0.00     0.010 A 
ATOM     40  C   UNL A   1      42.026  22.404  28.403  1.00  0.00     0.010 A 
ATOM     41  C   UNL A   1      42.487  23.375  27.501  1.00  0.00    -0.014 A 
BRANCH  41  42
ATOM     42  C   UNL A   1      42.774  24.744  27.993  1.00  0.00     0.031 A 
ATOM     43  C   UNL A   1      44.177  25.128  28.370  1.00  0.00     0.074 A 
ATOM     44  C   UNL A   1      41.761  25.616  28.165  1.00  0.00     0.049 A 
ATOM     45  N   UNL A   1      44.618  26.249  28.881  1.00  0.00    -0.248 NA
ATOM     46  C   UNL A   1      45.218  24.107  28.172  1.00  0.00     0.031 C 
ATOM     47  C   UNL A   1      40.350  25.344  27.886  1.00  0.00     0.029 A 
ATOM     48  N   UNL A   1      41.764  26.908  28.628  1.00  0.00    -0.354 N 
ATOM     49  C   UNL A   1      45.978  26.061  29.082  1.00  0.00     0.074 A 
ATOM     50  C   UNL A   1      46.283  24.703  28.687  1.00  0.00     0.031 C 
ATOM     51  C   UNL A   1      39.628  26.442  28.160  1.00  0.00     0.029 A 
ATOM     52  C   UNL A   1      40.517  27.482  28.666  1.00  0.00     0.049 A 
ATOM     53  H   UNL A   1      42.583  27.379  28.907  1.00  0.00     0.167 HD
ATOM     54  C   UNL A   1      46.897  26.948  29.532  1.00  0.00     0.037 A 
ATOM     55  C   UNL A   1      40.135  28.709  29.068  1.00  0.00     0.037 A 
ATOM     56  C   UNL A   1      46.596  28.307  29.896  1.00  0.00     0.049 A 
ATOM     57  C   UNL A   1      41.174  29.676  29.561  1.00  0.00     0.074 A 
ATOM     58  C   UNL A   1      47.467  29.305  30.298  1.00  0.00     0.029 A 
ATOM     59  N   UNL A   1      45.324  28.859  29.899  1.00  0.00    -0.354 N 
ATOM     60  N   UNL A   1      42.470  29.510  29.675  1.00  0.00    -0.248 NA
ATOM     61  C   UNL A   1      40.701  31.005  29.973  1.00  0.00     0.031 C 
ATOM     62  C   UNL A   1      46.716  30.450  30.584  1.00  0.00     0.029 A 
ATOM     63  C   UNL A   1      45.383  30.178  30.316  1.00  0.00     0.049 A 
ATOM     64  H   UNL A   1      44.501  28.384  29.643  1.00  0.00     0.167 HD
ATOM     65  C   UNL A   1      42.969  30.718  30.144  1.00  0.00     0.074 A 
ATOM     66  C   UNL A   1      41.838  31.613  30.280  1.00  0.00     0.031 C 
ATOM     67  C   UNL A   1      44.248  31.057  30.435  1.00  0.00     0.037 A 
BRANCH  54  68
ATOM     68  C   UNL A   1      48.316  26.475  29.650  1.00  0.00     0.057 A 
ATOM     69  C   UNL A   1      48.793  25.857  30.814  1.00  0.00     0.134 A 
ATOM     70  C   UNL A   1      49.208  26.612  28.580  1.00  0.00     0.134 A 
ATOM     71  F   UNL A   1      47.995  25.708  31.881  1.00  0.00    -0.206 F 
ATOM     72  C   UNL A   1      50.114  25.414  30.917  1.00  0.00     0.040 A 
ATOM     73  C   UNL A   1      50.522  26.150  28.661  1.00  0.00     0.040 A 
ATOM     74  F   UNL A   1      48.815  27.190  27.435  1.00  0.00    -0.206 F 
ATOM     75  C   UNL A   1      50.980  25.554  29.835  1.00  0.00     0.006 A 
ENDBRANCH  54  68
BRANCH  55  76
ATOM     76  C   UNL A   1      38.706  29.105  28.998  1.00  0.00     0.057 A 
ATOM     77  C   UNL A   1      37.876  29.008  30.121  1.00  0.00     0.134 A 
ATOM     78  C   UNL A   1      38.132  29.577  27.811  1.00  0.00     0.134 A 
ATOM     79  F   UNL A   1      38.365  28.546  31.282  1.00  0.00    -0.206 F 
ATOM     80  C   UNL A   1      36.523  29.346  30.064  1.00  0.00     0.040 A 
ATOM     81  C   UNL A   1      36.787  29.941  27.745  1.00  0.00     0.040 A 
ATOM     82  F   UNL A   1      38.876  29.700  26.702  1.00  0.00    -0.206 F 
ATOM     83  C   UNL A   1      35.976  29.819  28.873  1.00  0.00     0.006 A 
ENDBRANCH  55  76
BRANCH  67  84
ATOM     84  C   UNL A   1      44.498  32.463  30.894  1.00  0.00     0.057 A 
ATOM     85  C   UNL A   1      44.734  33.505  29.988  1.00  0.00     0.134 A 
ATOM     86  C   UNL A   1      44.464  32.784  32.257  1.00  0.00     0.134 A 
ATOM     87  F   UNL A   1      44.792  33.260  28.671  1.00  0.00    -0.206 F 
ATOM     88  C   UNL A   1      44.946  34.814  30.424  1.00  0.00     0.040 A 
ATOM     89  C   UNL A   1      44.649  34.091  32.703  1.00  0.00     0.040 A 
ATOM     90  F   UNL A   1      44.235  31.832  33.175  1.00  0.00    -0.206 F 
ATOM     91  C   UNL A   1      44.897  35.111  31.785  1.00  0.00     0.006 A 
ENDBRANCH  67  84
ENDBRANCH  41  42
ENDBRANCH  33  36
ENDBRANCH  31  32
ENDBRANCH  30  31
ENDBRANCH   1  30
TORSDOF 16
ENDMDL
MODEL 2
REMARK VINA RESULT:     -12.0      2.267      3.134
REMARK SMILES CC(C)(C)[C@](O)(c1ccc(C(=O)NCCCCNC(=O)c2ccc(-c3c4nc(c(-c5c(F)cccc5F)c5ccc([nH]5)c(-c5c(F)cccc5F)c5nc(c(-c6c(F)cccc6F)c6ccc3[nH]6)C=C5)C=C4)cc2)cc1)c1ccc(C(F)(F)F)cc1
REMARK SMILES IDX 15 1 14 2 13 3 11 4 12 5 10 7 7 8 8 9 76 10 9 11 75 12 5 13
REMARK SMILES IDX 2 14 1 15 3 16 4 17 77 18 78 19 86 20 79 21 85 22 80 23
REMARK SMILES IDX 81 24 82 25 83 26 84 27 6 28 16 30 17 31 18 32 19 33 20 35
REMARK SMILES IDX 21 36 22 37 74 38 23 39 73 40 24 41 25 42 26 43 67 44 27 45
REMARK SMILES IDX 72 46 66 47 68 48 28 49 71 50 65 51 64 52 29 54 55 55 38 56
REMARK SMILES IDX 54 57 39 58 42 59 53 60 69 61 40 62 41 63 52 65 70 66 43 67
REMARK SMILES IDX 30 68 31 69 36 70 32 71 33 72 35 73 37 74 34 75 56 76 57 77
REMARK SMILES IDX 62 78 58 79 59 80 61 81 63 82 60 83 44 84 45 85 50 86 46 87
REMARK SMILES IDX 47 88 49 89 51 90 48 91
REMARK H PARENT 13 6 6 29 18 34 68 53 42 64
REMARK Flexibility Score: inf
ROOT
ATOM      1  C   UNL A   1      37.396  21.359  24.753  1.00  0.00     0.023 C 
ENDROOT
BRANCH   1   2
ATOM      2  C   UNL A   1      35.872  21.241  24.750  1.00  0.00     0.116 C 
BRANCH   2   3
ATOM      3  N   UNL A   1      35.356  21.084  26.096  1.00  0.00    -0.352 N 
ATOM      4  C   UNL A   1      34.497  21.889  26.800  1.00  0.00     0.251 C 
ATOM      5  O   UNL A   1      34.091  21.527  27.900  1.00  0.00    -0.269 OA
ATOM      6  H   UNL A   1      35.668  20.282  26.574  1.00  0.00     0.163 HD
BRANCH   4   7
ATOM      7  C   UNL A   1      33.997  23.156  26.221  1.00  0.00     0.039 A 
ATOM      8  C   UNL A   1      33.156  25.607  25.059  1.00  0.00    -0.011 A 
ATOM      9  C   UNL A   1      34.405  25.026  24.747  1.00  0.00     0.008 A 
ATOM     10  C   UNL A   1      32.330  24.898  25.951  1.00  0.00     0.008 A 
ATOM     11  C   UNL A   1      34.809  23.807  25.297  1.00  0.00     0.014 A 
ATOM     12  C   UNL A   1      32.747  23.692  26.530  1.00  0.00     0.014 A 
BRANCH   8  13
ATOM     13  C   UNL A   1      32.723  26.983  24.458  1.00  0.00     0.119 C 
BRANCH  13  14
ATOM     14  C   UNL A   1      31.294  26.894  23.697  1.00  0.00    -0.001 C 
ATOM     15  C   UNL A   1      31.127  28.102  22.740  1.00  0.00     0.014 C 
ATOM     16  C   UNL A   1      30.059  26.816  24.629  1.00  0.00     0.014 C 
ATOM     17  C   UNL A   1      31.170  25.636  22.787  1.00  0.00     0.014 C 
ENDBRANCH  13  14
BRANCH  13  18
ATOM     18  C   UNL A   1      32.959  28.121  25.504  1.00  0.00    -0.011 A 
ATOM     19  C   UNL A   1      32.200  29.312  25.396  1.00  0.00     0.008 A 
ATOM     20  C   UNL A   1      33.955  28.120  26.491  1.00  0.00     0.008 A 
ATOM     21  C   UNL A   1      32.492  30.456  26.150  1.00  0.00     0.013 A 
ATOM     22  C   UNL A   1      34.260  29.265  27.242  1.00  0.00     0.013 A 
ATOM     23  C   UNL A   1      33.554  30.456  27.057  1.00  0.00     0.056 A 
BRANCH  23  24
ATOM     24  C   UNL A   1      33.951  31.718  27.781  1.00  0.00     0.416 C 
ATOM     25  F   UNL A   1      34.059  31.527  29.127  1.00  0.00    -0.166 F 
ATOM     26  F   UNL A   1      35.153  32.209  27.375  1.00  0.00    -0.166 F 
ATOM     27  F   UNL A   1      33.059  32.738  27.627  1.00  0.00    -0.166 F 
ENDBRANCH  23  24
ENDBRANCH  13  18
BRANCH  13  28
ATOM     28  O   UNL A   1      33.722  27.300  23.455  1.00  0.00    -0.380 OA
ATOM     29  H   UNL A   1      34.562  26.879  23.691  1.00  0.00     0.212 HD
ENDBRANCH  13  28
ENDBRANCH   8  13
ENDBRANCH   4   7
ENDBRANCH   2   3
ENDBRANCH   1   2
BRANCH   1  30
ATOM     30  C   UNL A   1      38.135  20.043  25.000  1.00  0.00     0.023 C 
BRANCH  30  31
ATOM     31  C   UNL A   1      39.181  20.089  26.105  1.00  0.00     0.116 C 
BRANCH  31  32
ATOM     32  N   UNL A   1      40.198  19.058  25.977  1.00  0.00    -0.352 N 
ATOM     33  C   UNL A   1      41.567  19.190  26.064  1.00  0.00     0.251 C 
ATOM     34  H   UNL A   1      39.867  18.148  25.805  1.00  0.00     0.163 HD
ATOM     35  O   UNL A   1      42.302  18.248  25.830  1.00  0.00    -0.269 OA
BRANCH  33  36
ATOM     36  C   UNL A   1      42.130  20.514  26.405  1.00  0.00     0.039 A 
ATOM     37  C   UNL A   1      42.513  21.368  25.369  1.00  0.00     0.014 A 
ATOM     38  C   UNL A   1      42.229  20.923  27.738  1.00  0.00     0.014 A 
ATOM     39  C   UNL A   1      42.933  22.664  25.668  1.00  0.00     0.010 A 
ATOM     40  C   UNL A   1      42.577  22.236  28.028  1.00  0.00     0.010 A 
ATOM     41  C   UNL A   1      42.932  23.119  26.997  1.00  0.00    -0.014 A 
BRANCH  41  42
ATOM     42  C   UNL A   1      43.298  24.516  27.330  1.00  0.00     0.031 A 
ATOM     43  C   UNL A   1      44.736  24.948  27.284  1.00  0.00     0.074 A 
ATOM     44  C   UNL A   1      42.343  25.374  27.741  1.00  0.00     0.049 A 
ATOM     45  N   UNL A   1      45.263  26.102  27.605  1.00  0.00    -0.248 NA
ATOM     46  C   UNL A   1      45.715  23.940  26.847  1.00  0.00     0.031 C 
ATOM     47  C   UNL A   1      40.920  25.059  27.879  1.00  0.00     0.029 A 
ATOM     48  N   UNL A   1      42.430  26.688  28.130  1.00  0.00    -0.354 N 
ATOM     49  C   UNL A   1      46.632  25.952  27.426  1.00  0.00     0.074 A 
ATOM     50  C   UNL A   1      46.861  24.584  27.019  1.00  0.00     0.031 C 
ATOM     51  C   UNL A   1      40.265  26.153  28.296  1.00  0.00     0.029 A 
ATOM     52  C   UNL A   1      41.224  27.237  28.491  1.00  0.00     0.049 A 
ATOM     53  H   UNL A   1      43.278  27.188  28.150  1.00  0.00     0.167 HD
ATOM     54  C   UNL A   1      47.608  26.880  27.564  1.00  0.00     0.037 A 
ATOM     55  C   UNL A   1      40.927  28.473  28.931  1.00  0.00     0.037 A 
ATOM     56  C   UNL A   1      47.374  28.249  27.939  1.00  0.00     0.049 A 
ATOM     57  C   UNL A   1      42.029  29.486  29.072  1.00  0.00     0.074 A 
ATOM     58  C   UNL A   1      48.287  29.284  28.040  1.00  0.00     0.029 A 
ATOM     59  N   UNL A   1      46.135  28.774  28.274  1.00  0.00    -0.354 N 
ATOM     60  N   UNL A   1      43.310  29.352  28.828  1.00  0.00    -0.248 NA
ATOM     61  C   UNL A   1      41.643  30.824  29.544  1.00  0.00     0.031 C 
ATOM     62  C   UNL A   1      47.607  30.426  28.476  1.00  0.00     0.029 A 
ATOM     63  C   UNL A   1      46.262  30.113  28.602  1.00  0.00     0.049 A 
ATOM     64  H   UNL A   1      45.290  28.270  28.278  1.00  0.00     0.167 HD
ATOM     65  C   UNL A   1      43.878  30.593  29.088  1.00  0.00     0.074 A 
ATOM     66  C   UNL A   1      42.800  31.469  29.496  1.00  0.00     0.031 C 
ATOM     67  C   UNL A   1      45.176  30.973  28.996  1.00  0.00     0.037 A 
BRANCH  54  68
ATOM     68  C   UNL A   1      49.019  26.444  27.302  1.00  0.00     0.057 A 
ATOM     69  C   UNL A   1      49.855  25.988  28.331  1.00  0.00     0.134 A 
ATOM     70  C   UNL A   1      49.541  26.450  26.002  1.00  0.00     0.134 A 
ATOM     71  F   UNL A   1      49.422  25.971  29.600  1.00  0.00    -0.206 F 
ATOM     72  C   UNL A   1      51.166  25.579  28.080  1.00  0.00     0.040 A 
ATOM     73  C   UNL A   1      50.841  26.018  25.735  1.00  0.00     0.040 A 
ATOM     74  F   UNL A   1      48.794  26.869  24.969  1.00  0.00    -0.206 F 
ATOM     75  C   UNL A   1      51.660  25.586  26.777  1.00  0.00     0.006 A 
ENDBRANCH  54  68
BRANCH  55  76
ATOM     76  C   UNL A   1      39.522  28.836  29.245  1.00  0.00     0.057 A 
ATOM     77  C   UNL A   1      38.697  29.420  28.277  1.00  0.00     0.134 A 
ATOM     78  C   UNL A   1      38.974  28.620  30.515  1.00  0.00     0.134 A 
ATOM     79  F   UNL A   1      39.171  29.668  27.047  1.00  0.00    -0.206 F 
ATOM     80  C   UNL A   1      37.384  29.797  28.565  1.00  0.00     0.040 A 
ATOM     81  C   UNL A   1      37.656  28.969  30.811  1.00  0.00     0.040 A 
ATOM     82  F   UNL A   1      39.712  28.056  31.484  1.00  0.00    -0.206 F 
ATOM     83  C   UNL A   1      36.859  29.566  29.836  1.00  0.00     0.006 A 
ENDBRANCH  55  76
BRANCH  67  84
ATOM     84  C   UNL A   1      45.495  32.405  29.307  1.00  0.00     0.057 A 
ATOM     85  C   UNL A   1      45.430  33.406  28.329  1.00  0.00     0.134 A 
ATOM     86  C   UNL A   1      45.834  32.792  30.610  1.00  0.00     0.134 A 
ATOM     87  F   UNL A   1      45.124  33.098  27.060  1.00  0.00    -0.206 F 
ATOM     88  C   UNL A   1      45.710  34.739  28.633  1.00  0.00     0.040 A 
ATOM     89  C   UNL A   1      46.091  34.124  30.931  1.00  0.00     0.040 A 
ATOM     90  F   UNL A   1      45.906  31.882  31.593  1.00  0.00    -0.206 F 
ATOM     91  C   UNL A   1      46.035  35.102  29.939  1.00  0.00     0.006 A 
ENDBRANCH  67  84
ENDBRANCH  41  42
ENDBRANCH  33  36
ENDBRANCH  31  32
ENDBRANCH  30  31
ENDBRANCH   1  30
TORSDOF 16
ENDMDL
MODEL 3
REMARK VINA RESULT:     -11.9      4.360      8.376
REMARK SMILES CC(C)(C)[C@](O)(c1ccc(C(=O)NCCCCNC(=O)c2ccc(-c3c4nc(c(-c5c(F)cccc5F)c5ccc([nH]5)c(-c5c(F)cccc5F)c5nc(c(-c6c(F)cccc6F)c6ccc3[nH]6)C=C5)C=C4)cc2)cc1)c1ccc(C(F)(F)F)cc1
REMARK SMILES IDX 15 1 14 2 13 3 11 4 12 5 10 7 7 8 8 9 76 10 9 11 75 12 5 13
REMARK SMILES IDX 2 14 1 15 3 16 4 17 77 18 78 19 86 20 79 21 85 22 80 23
REMARK SMILES IDX 81 24 82 25 83 26 84 27 6 28 16 30 17 31 18 32 19 33 20 35
REMARK SMILES IDX 21 36 22 37 74 38 23 39 73 40 24 41 25 42 26 43 67 44 27 45
REMARK SMILES IDX 72 46 66 47 68 48 28 49 71 50 65 51 64 52 29 54 55 55 38 56
REMARK SMILES IDX 54 57 39 58 42 59 53 60 69 61 40 62 41 63 52 65 70 66 43 67
REMARK SMILES IDX 30 68 31 69 36 70 32 71 33 72 35 73 37 74 34 75 56 76 57 77
REMARK SMILES IDX 62 78 58 79 59 80 61 81 63 82 60 83 44 84 45 85 50 86 46 87
REMARK SMILES IDX 47 88 49 89 51 90 48 91
REMARK H PARENT 13 6 6 29 18 34 68 53 42 64
REMARK Flexibility Score: inf
ROOT
ATOM      1  C   UNL A   1      39.375  22.130  25.910  1.00  0.00     0.023 C 
ENDROOT
BRANCH   1   2
ATOM      2  C   UNL A   1      37.897  22.517  25.956  1.00  0.00     0.116 C 
BRANCH   2   3
ATOM      3  N   UNL A   1      37.048  21.364  25.726  1.00  0.00    -0.352 N 
ATOM      4  C   UNL A   1      35.770  21.308  25.231  1.00  0.00     0.251 C 
ATOM      5  O   UNL A   1      35.252  20.218  25.009  1.00  0.00    -0.269 OA
ATOM      6  H   UNL A   1      37.447  20.495  25.958  1.00  0.00     0.163 HD
BRANCH   4   7
ATOM      7  C   UNL A   1      35.030  22.545  24.896  1.00  0.00     0.039 A 
ATOM      8  C   UNL A   1      33.549  24.911  24.368  1.00  0.00    -0.011 A 
ATOM      9  C   UNL A   1      33.530  24.288  25.636  1.00  0.00     0.008 A 
ATOM     10  C   UNL A   1      34.363  24.321  23.384  1.00  0.00     0.008 A 
ATOM     11  C   UNL A   1      34.279  23.140  25.905  1.00  0.00     0.014 A 
ATOM     12  C   UNL A   1      35.089  23.150  23.641  1.00  0.00     0.014 A 
BRANCH   8  13
ATOM     13  C   UNL A   1      32.689  26.180  24.069  1.00  0.00     0.119 C 
BRANCH  13  14
ATOM     14  C   UNL A   1      31.099  25.871  24.142  1.00  0.00    -0.001 C 
ATOM     15  C   UNL A   1      30.559  26.200  25.558  1.00  0.00     0.014 C 
ATOM     16  C   UNL A   1      30.696  24.421  23.775  1.00  0.00     0.014 C 
ATOM     17  C   UNL A   1      30.264  26.760  23.173  1.00  0.00     0.014 C 
ENDBRANCH  13  14
BRANCH  13  18
ATOM     18  C   UNL A   1      33.262  27.410  24.847  1.00  0.00    -0.011 A 
ATOM     19  C   UNL A   1      34.024  27.179  26.017  1.00  0.00     0.008 A 
ATOM     20  C   UNL A   1      32.987  28.753  24.553  1.00  0.00     0.008 A 
ATOM     21  C   UNL A   1      34.391  28.214  26.888  1.00  0.00     0.013 A 
ATOM     22  C   UNL A   1      33.342  29.794  25.425  1.00  0.00     0.013 A 
ATOM     23  C   UNL A   1      34.019  29.534  26.617  1.00  0.00     0.056 A 
BRANCH  23  24
ATOM     24  C   UNL A   1      34.303  30.634  27.609  1.00  0.00     0.416 C 
ATOM     25  F   UNL A   1      33.179  31.331  27.939  1.00  0.00    -0.166 F 
ATOM     26  F   UNL A   1      34.819  30.174  28.781  1.00  0.00    -0.166 F 
ATOM     27  F   UNL A   1      35.189  31.564  27.150  1.00  0.00    -0.166 F 
ENDBRANCH  23  24
ENDBRANCH  13  18
BRANCH  13  28
ATOM     28  O   UNL A   1      32.991  26.540  22.696  1.00  0.00    -0.380 OA
ATOM     29  H   UNL A   1      33.039  27.505  22.617  1.00  0.00     0.212 HD
ENDBRANCH  13  28
ENDBRANCH   8  13
ENDBRANCH   4   7
ENDBRANCH   2   3
ENDBRANCH   1   2
BRANCH   1  30
ATOM     30  C   UNL A   1      40.098  22.221  27.256  1.00  0.00     0.023 C 
BRANCH  30  31
ATOM     31  C   UNL A   1      41.270  23.191  27.294  1.00  0.00     0.116 C 
BRANCH  31  32
ATOM     32  N   UNL A   1      41.355  24.037  26.114  1.00  0.00    -0.352 N 
ATOM     33  C   UNL A   1      41.276  25.410  26.037  1.00  0.00     0.251 C 
ATOM     34  H   UNL A   1      41.485  23.567  25.259  1.00  0.00     0.163 HD
ATOM     35  O   UNL A   1      41.261  25.975  24.959  1.00  0.00    -0.269 OA
BRANCH  33  36
ATOM     36  C   UNL A   1      41.167  26.185  27.291  1.00  0.00     0.039 A 
ATOM     37  C   UNL A   1      42.151  27.132  27.582  1.00  0.00     0.014 A 
ATOM     38  C   UNL A   1      40.074  26.009  28.143  1.00  0.00     0.014 A 
ATOM     39  C   UNL A   1      42.001  27.955  28.699  1.00  0.00     0.010 A 
ATOM     40  C   UNL A   1      39.890  26.877  29.212  1.00  0.00     0.010 A 
ATOM     41  C   UNL A   1      40.852  27.859  29.499  1.00  0.00    -0.014 A 
BRANCH  41  42
ATOM     42  C   UNL A   1      40.634  28.776  30.643  1.00  0.00     0.031 A 
ATOM     43  C   UNL A   1      39.562  29.827  30.570  1.00  0.00     0.074 A 
ATOM     44  C   UNL A   1      41.446  28.707  31.716  1.00  0.00     0.049 A 
ATOM     45  N   UNL A   1      39.263  30.763  31.434  1.00  0.00    -0.248 NA
ATOM     46  C   UNL A   1      38.738  29.847  29.352  1.00  0.00     0.031 C 
ATOM     47  C   UNL A   1      42.555  27.765  31.882  1.00  0.00     0.029 A 
ATOM     48  N   UNL A   1      41.469  29.452  32.869  1.00  0.00    -0.354 N 
ATOM     49  C   UNL A   1      38.231  31.491  30.857  1.00  0.00     0.074 A 
ATOM     50  C   UNL A   1      37.990  30.923  29.549  1.00  0.00     0.031 C 
ATOM     51  C   UNL A   1      43.134  27.973  33.075  1.00  0.00     0.029 A 
ATOM     52  C   UNL A   1      42.462  29.083  33.744  1.00  0.00     0.049 A 
ATOM     53  H   UNL A   1      40.834  30.183  33.050  1.00  0.00     0.167 HD
ATOM     54  C   UNL A   1      37.530  32.524  31.380  1.00  0.00     0.037 A 
ATOM     55  C   UNL A   1      42.793  29.587  34.947  1.00  0.00     0.037 A 
ATOM     56  C   UNL A   1      37.752  33.067  32.694  1.00  0.00     0.049 A 
ATOM     57  C   UNL A   1      41.997  30.732  35.507  1.00  0.00     0.074 A 
ATOM     58  C   UNL A   1      37.051  34.068  33.344  1.00  0.00     0.029 A 
ATOM     59  N   UNL A   1      38.752  32.651  33.560  1.00  0.00    -0.354 N 
ATOM     60  N   UNL A   1      40.974  31.363  34.982  1.00  0.00    -0.248 NA
ATOM     61  C   UNL A   1      42.396  31.232  36.831  1.00  0.00     0.031 C 
ATOM     62  C   UNL A   1      37.653  34.286  34.587  1.00  0.00     0.029 A 
ATOM     63  C   UNL A   1      38.700  33.390  34.730  1.00  0.00     0.049 A 
ATOM     64  H   UNL A   1      39.403  31.938  33.372  1.00  0.00     0.167 HD
ATOM     65  C   UNL A   1      40.590  32.312  35.921  1.00  0.00     0.074 A 
ATOM     66  C   UNL A   1      41.481  32.165  37.052  1.00  0.00     0.031 C 
ATOM     67  C   UNL A   1      39.589  33.223  35.851  1.00  0.00     0.037 A 
BRANCH  54  68
ATOM     68  C   UNL A   1      36.452  33.130  30.531  1.00  0.00     0.057 A 
ATOM     69  C   UNL A   1      35.094  32.878  30.771  1.00  0.00     0.134 A 
ATOM     70  C   UNL A   1      36.772  33.997  29.479  1.00  0.00     0.134 A 
ATOM     71  F   UNL A   1      34.721  32.046  31.753  1.00  0.00    -0.206 F 
ATOM     72  C   UNL A   1      34.095  33.448  29.980  1.00  0.00     0.040 A 
ATOM     73  C   UNL A   1      35.781  34.594  28.698  1.00  0.00     0.040 A 
ATOM     74  F   UNL A   1      38.052  34.285  29.198  1.00  0.00    -0.206 F 
ATOM     75  C   UNL A   1      34.438  34.316  28.944  1.00  0.00     0.006 A 
ENDBRANCH  54  68
BRANCH  55  76
ATOM     76  C   UNL A   1      43.915  28.996  35.719  1.00  0.00     0.057 A 
ATOM     77  C   UNL A   1      45.216  29.498  35.595  1.00  0.00     0.134 A 
ATOM     78  C   UNL A   1      43.721  27.915  36.586  1.00  0.00     0.134 A 
ATOM     79  F   UNL A   1      45.468  30.522  34.765  1.00  0.00    -0.206 F 
ATOM     80  C   UNL A   1      46.288  28.934  36.289  1.00  0.00     0.040 A 
ATOM     81  C   UNL A   1      44.778  27.356  37.304  1.00  0.00     0.040 A 
ATOM     82  F   UNL A   1      42.496  27.394  36.754  1.00  0.00    -0.206 F 
ATOM     83  C   UNL A   1      46.068  27.862  37.151  1.00  0.00     0.006 A 
ENDBRANCH  55  76
BRANCH  67  84
ATOM     84  C   UNL A   1      39.381  34.105  37.046  1.00  0.00     0.057 A 
ATOM     85  C   UNL A   1      38.681  33.666  38.177  1.00  0.00     0.134 A 
ATOM     86  C   UNL A   1      39.922  35.397  37.080  1.00  0.00     0.134 A 
ATOM     87  F   UNL A   1      38.127  32.444  38.202  1.00  0.00    -0.206 F 
ATOM     88  C   UNL A   1      38.509  34.488  39.292  1.00  0.00     0.040 A 
ATOM     89  C   UNL A   1      39.779  36.218  38.197  1.00  0.00     0.040 A 
ATOM     90  F   UNL A   1      40.609  35.875  36.031  1.00  0.00    -0.206 F 
ATOM     91  C   UNL A   1      39.065  35.766  39.306  1.00  0.00     0.006 A 
ENDBRANCH  67  84
ENDBRANCH  41  42
ENDBRANCH  33  36
ENDBRANCH  31  32
ENDBRANCH  30  31
ENDBRANCH   1  30
TORSDOF 16
ENDMDL
