MODEL 1
REMARK VINA RESULT:     -12.3      0.000      0.000
REMARK SMILES CCc1[nH]nc(-n2cccc2)c1C(=O)NCCCCNC(=O)c1ccc(-c2c3nc(c(-c4c(F)cccc4F)c4ccc([nH]4)c(-c4c(F)cccc4F)c4nc(c(-c5c(F)cccc5F)c5ccc2[nH]5)C=C4)C=C3)cc1
REMARK SMILES IDX 18 1 17 2 16 3 15 4 13 5 14 6 12 8 3 9 4 10 5 11 6 13 2 14
REMARK SMILES IDX 1 15 7 16 8 17 11 18 9 19 10 20 19 21 20 22 21 23 22 25
REMARK SMILES IDX 23 26 24 27 76 28 25 29 75 30 26 31 27 32 28 33 69 34 29 35
REMARK SMILES IDX 74 36 68 37 70 38 30 39 73 40 67 41 66 42 31 44 57 45 40 46
REMARK SMILES IDX 56 47 41 48 44 49 55 50 71 51 42 52 43 53 54 55 72 56 45 57
REMARK SMILES IDX 32 58 33 59 38 60 34 61 35 62 37 63 39 64 36 65 58 66 59 67
REMARK SMILES IDX 64 68 60 69 61 70 63 71 65 72 62 73 46 74 47 75 52 76 48 77
REMARK SMILES IDX 49 78 51 79 53 80 50 81
REMARK H PARENT 15 7 4 12 20 24 70 43 44 54
REMARK Flexibility Score: inf
ROOT
ATOM      1  C   UNL A   1      33.482  28.935  26.249  1.00  0.00     0.023 C 
ENDROOT
BRANCH   1   2
ATOM      2  C   UNL A   1      32.381  29.907  26.698  1.00  0.00     0.023 C 
BRANCH   2   3
ATOM      3  C   UNL A   1      31.395  30.254  25.588  1.00  0.00     0.116 C 
BRANCH   3   4
ATOM      4  N   UNL A   1      31.796  29.702  24.324  1.00  0.00    -0.352 N 
ATOM      5  C   UNL A   1      31.184  29.040  23.300  1.00  0.00     0.256 C 
ATOM      6  O   UNL A   1      31.900  29.028  22.295  1.00  0.00    -0.269 OA
ATOM      7  H   UNL A   1      32.756  29.837  24.152  1.00  0.00     0.163 HD
BRANCH   5   8
ATOM      8  C   UNL A   1      29.849  28.422  23.288  1.00  0.00     0.105 A 
ATOM      9  C   UNL A   1      29.326  27.169  23.661  1.00  0.00     0.050 A 
ATOM     10  N   UNL A   1      27.963  27.265  23.501  1.00  0.00    -0.280 N 
ATOM     11  N   UNL A   1      27.527  28.466  23.149  1.00  0.00    -0.156 NA
ATOM     12  H   UNL A   1      27.358  26.500  23.637  1.00  0.00     0.190 HD
ATOM     13  C   UNL A   1      28.653  29.146  22.919  1.00  0.00     0.171 A 
BRANCH   9  14
ATOM     14  C   UNL A   1      29.890  25.889  24.197  1.00  0.00     0.053 C 
ATOM     15  C   UNL A   1      30.452  25.929  25.615  1.00  0.00     0.011 C 
ENDBRANCH   9  14
BRANCH  13  16
ATOM     16  N   UNL A   1      28.490  30.465  22.382  1.00  0.00    -0.307 N 
ATOM     17  C   UNL A   1      28.084  30.818  21.110  1.00  0.00     0.093 A 
ATOM     18  C   UNL A   1      28.649  31.642  23.097  1.00  0.00     0.093 A 
ATOM     19  C   UNL A   1      28.107  32.192  20.991  1.00  0.00     0.020 A 
ATOM     20  C   UNL A   1      28.486  32.712  22.247  1.00  0.00     0.020 A 
ENDBRANCH  13  16
ENDBRANCH   5   8
ENDBRANCH   3   4
ENDBRANCH   2   3
ENDBRANCH   1   2
BRANCH   1  21
ATOM     21  C   UNL A   1      34.736  28.954  27.134  1.00  0.00     0.116 C 
BRANCH  21  22
ATOM     22  N   UNL A   1      35.238  30.304  27.322  1.00  0.00    -0.352 N 
ATOM     23  C   UNL A   1      36.353  30.724  28.001  1.00  0.00     0.251 C 
ATOM     24  H   UNL A   1      34.703  31.017  26.904  1.00  0.00     0.163 HD
ATOM     25  O   UNL A   1      36.423  31.883  28.393  1.00  0.00    -0.269 OA
BRANCH  23  26
ATOM     26  C   UNL A   1      37.471  29.800  28.279  1.00  0.00     0.039 A 
ATOM     27  C   UNL A   1      38.504  29.717  27.340  1.00  0.00     0.014 A 
ATOM     28  C   UNL A   1      37.458  28.952  29.395  1.00  0.00     0.014 A 
ATOM     29  C   UNL A   1      39.560  28.836  27.553  1.00  0.00     0.010 A 
ATOM     30  C   UNL A   1      38.515  28.067  29.610  1.00  0.00     0.010 A 
ATOM     31  C   UNL A   1      39.583  28.031  28.702  1.00  0.00    -0.014 A 
BRANCH  31  32
ATOM     32  C   UNL A   1      40.870  27.373  29.049  1.00  0.00     0.031 A 
ATOM     33  C   UNL A   1      41.103  26.144  28.144  1.00  0.00     0.074 A 
ATOM     34  C   UNL A   1      41.598  27.870  30.099  1.00  0.00     0.049 A 
ATOM     35  N   UNL A   1      41.661  25.004  28.408  1.00  0.00    -0.248 NA
ATOM     36  C   UNL A   1      40.547  26.152  26.760  1.00  0.00     0.031 C 
ATOM     37  C   UNL A   1      41.274  29.117  30.820  1.00  0.00     0.029 A 
ATOM     38  N   UNL A   1      42.735  27.455  30.778  1.00  0.00    -0.354 N 
ATOM     39  C   UNL A   1      41.724  24.269  27.199  1.00  0.00     0.074 A 
ATOM     40  C   UNL A   1      40.886  24.958  26.269  1.00  0.00     0.031 C 
ATOM     41  C   UNL A   1      42.115  29.310  31.861  1.00  0.00     0.029 A 
ATOM     42  C   UNL A   1      43.075  28.225  31.929  1.00  0.00     0.049 A 
ATOM     43  H   UNL A   1      43.269  26.683  30.485  1.00  0.00     0.167 HD
ATOM     44  C   UNL A   1      42.611  23.248  26.993  1.00  0.00     0.037 A 
ATOM     45  C   UNL A   1      44.029  27.990  32.893  1.00  0.00     0.037 A 
ATOM     46  C   UNL A   1      43.375  23.043  28.177  1.00  0.00     0.049 A 
ATOM     47  C   UNL A   1      44.808  26.850  32.402  1.00  0.00     0.074 A 
ATOM     48  C   UNL A   1      43.049  22.578  29.422  1.00  0.00     0.029 A 
ATOM     49  N   UNL A   1      44.572  23.715  28.236  1.00  0.00    -0.354 N 
ATOM     50  N   UNL A   1      45.685  26.919  31.447  1.00  0.00    -0.248 NA
ATOM     51  C   UNL A   1      44.552  25.517  32.961  1.00  0.00     0.031 C 
ATOM     52  C   UNL A   1      43.797  23.415  30.273  1.00  0.00     0.029 A 
ATOM     53  C   UNL A   1      44.724  24.151  29.523  1.00  0.00     0.049 A 
ATOM     54  H   UNL A   1      45.202  23.855  27.493  1.00  0.00     0.167 HD
ATOM     55  C   UNL A   1      45.786  25.605  31.065  1.00  0.00     0.074 A 
ATOM     56  C   UNL A   1      45.384  24.807  32.203  1.00  0.00     0.031 C 
ATOM     57  C   UNL A   1      45.577  25.291  29.761  1.00  0.00     0.037 A 
BRANCH  44  58
ATOM     58  C   UNL A   1      43.137  22.587  25.744  1.00  0.00     0.057 A 
ATOM     59  C   UNL A   1      43.269  21.174  25.750  1.00  0.00     0.134 A 
ATOM     60  C   UNL A   1      43.860  23.254  24.752  1.00  0.00     0.134 A 
ATOM     61  F   UNL A   1      42.580  20.418  26.622  1.00  0.00    -0.206 F 
ATOM     62  C   UNL A   1      44.185  20.497  24.943  1.00  0.00     0.040 A 
ATOM     63  C   UNL A   1      44.744  22.576  23.899  1.00  0.00     0.040 A 
ATOM     64  F   UNL A   1      43.822  24.586  24.629  1.00  0.00    -0.206 F 
ATOM     65  C   UNL A   1      44.947  21.206  24.027  1.00  0.00     0.006 A 
ENDBRANCH  44  58
BRANCH  45  66
ATOM     66  C   UNL A   1      44.448  28.512  34.258  1.00  0.00     0.057 A 
ATOM     67  C   UNL A   1      45.446  29.454  34.515  1.00  0.00     0.134 A 
ATOM     68  C   UNL A   1      43.766  28.083  35.437  1.00  0.00     0.134 A 
ATOM     69  F   UNL A   1      46.276  29.870  33.552  1.00  0.00    -0.206 F 
ATOM     70  C   UNL A   1      45.661  30.003  35.801  1.00  0.00     0.040 A 
ATOM     71  C   UNL A   1      43.936  28.647  36.705  1.00  0.00     0.040 A 
ATOM     72  F   UNL A   1      42.887  27.072  35.428  1.00  0.00    -0.206 F 
ATOM     73  C   UNL A   1      44.880  29.632  36.890  1.00  0.00     0.006 A 
ENDBRANCH  45  66
BRANCH  57  74
ATOM     74  C   UNL A   1      45.898  26.413  28.786  1.00  0.00     0.057 A 
ATOM     75  C   UNL A   1      47.203  26.922  28.707  1.00  0.00     0.134 A 
ATOM     76  C   UNL A   1      44.942  27.096  28.021  1.00  0.00     0.134 A 
ATOM     77  F   UNL A   1      48.200  26.325  29.378  1.00  0.00    -0.206 F 
ATOM     78  C   UNL A   1      47.522  28.059  27.950  1.00  0.00     0.040 A 
ATOM     79  C   UNL A   1      45.243  28.230  27.253  1.00  0.00     0.040 A 
ATOM     80  F   UNL A   1      43.674  26.692  27.996  1.00  0.00    -0.206 F 
ATOM     81  C   UNL A   1      46.540  28.724  27.225  1.00  0.00     0.006 A 
ENDBRANCH  57  74
ENDBRANCH  31  32
ENDBRANCH  23  26
ENDBRANCH  21  22
ENDBRANCH   1  21
TORSDOF 13
ENDMDL
MODEL 2
REMARK VINA RESULT:     -12.0      5.561     10.053
REMARK SMILES CCc1[nH]nc(-n2cccc2)c1C(=O)NCCCCNC(=O)c1ccc(-c2c3nc(c(-c4c(F)cccc4F)c4ccc([nH]4)c(-c4c(F)cccc4F)c4nc(c(-c5c(F)cccc5F)c5ccc2[nH]5)C=C4)C=C3)cc1
REMARK SMILES IDX 18 1 17 2 16 3 15 4 13 5 14 6 12 8 3 9 4 10 5 11 6 13 2 14
REMARK SMILES IDX 1 15 7 16 8 17 11 18 9 19 10 20 19 21 20 22 21 23 22 25
REMARK SMILES IDX 23 26 24 27 76 28 25 29 75 30 26 31 27 32 28 33 69 34 29 35
REMARK SMILES IDX 74 36 68 37 70 38 30 39 73 40 67 41 66 42 31 44 57 45 40 46
REMARK SMILES IDX 56 47 41 48 44 49 55 50 71 51 42 52 43 53 54 55 72 56 45 57
REMARK SMILES IDX 32 58 33 59 38 60 34 61 35 62 37 63 39 64 36 65 58 66 59 67
REMARK SMILES IDX 64 68 60 69 61 70 63 71 65 72 62 73 46 74 47 75 52 76 48 77
REMARK SMILES IDX 49 78 51 79 53 80 50 81
REMARK H PARENT 15 7 4 12 20 24 70 43 44 54
REMARK Flexibility Score: inf
ROOT
ATOM      1  C   UNL A   1      36.914  23.141  25.051  1.00  0.00     0.023 C 
ENDROOT
BRANCH   1   2
ATOM      2  C   UNL A   1      37.500  21.723  24.981  1.00  0.00     0.023 C 
BRANCH   2   3
ATOM      3  C   UNL A   1      36.436  20.630  24.991  1.00  0.00     0.116 C 
BRANCH   3   4
ATOM      4  N   UNL A   1      35.301  20.996  25.792  1.00  0.00    -0.352 N 
ATOM      5  C   UNL A   1      33.945  20.923  25.669  1.00  0.00     0.256 C 
ATOM      6  O   UNL A   1      33.394  21.106  26.758  1.00  0.00    -0.269 OA
ATOM      7  H   UNL A   1      35.571  21.400  26.648  1.00  0.00     0.163 HD
BRANCH   5   8
ATOM      8  C   UNL A   1      33.156  20.640  24.459  1.00  0.00     0.105 A 
ATOM      9  C   UNL A   1      32.530  21.422  23.471  1.00  0.00     0.050 A 
ATOM     10  N   UNL A   1      32.046  20.536  22.536  1.00  0.00    -0.280 N 
ATOM     11  N   UNL A   1      32.362  19.267  22.757  1.00  0.00    -0.156 NA
ATOM     12  H   UNL A   1      31.507  20.821  21.764  1.00  0.00     0.190 HD
ATOM     13  C   UNL A   1      32.941  19.300  23.959  1.00  0.00     0.171 A 
BRANCH   9  14
ATOM     14  C   UNL A   1      32.345  22.888  23.222  1.00  0.00     0.053 C 
ATOM     15  C   UNL A   1      33.606  23.702  22.955  1.00  0.00     0.011 C 
ENDBRANCH   9  14
BRANCH  13  16
ATOM     16  N   UNL A   1      33.274  18.028  24.530  1.00  0.00    -0.307 N 
ATOM     17  C   UNL A   1      34.400  17.263  24.297  1.00  0.00     0.093 A 
ATOM     18  C   UNL A   1      32.531  17.369  25.496  1.00  0.00     0.093 A 
ATOM     19  C   UNL A   1      34.305  16.087  25.009  1.00  0.00     0.020 A 
ATOM     20  C   UNL A   1      33.108  16.146  25.754  1.00  0.00     0.020 A 
ENDBRANCH  13  16
ENDBRANCH   5   8
ENDBRANCH   3   4
ENDBRANCH   2   3
ENDBRANCH   1   2
BRANCH   1  21
ATOM     21  C   UNL A   1      37.466  23.992  26.203  1.00  0.00     0.116 C 
BRANCH  21  22
ATOM     22  N   UNL A   1      38.627  23.374  26.816  1.00  0.00    -0.352 N 
ATOM     23  C   UNL A   1      39.749  23.969  27.337  1.00  0.00     0.251 C 
ATOM     24  H   UNL A   1      38.609  22.391  26.864  1.00  0.00     0.163 HD
ATOM     25  O   UNL A   1      40.781  23.319  27.453  1.00  0.00    -0.269 OA
BRANCH  23  26
ATOM     26  C   UNL A   1      39.738  25.386  27.753  1.00  0.00     0.039 A 
ATOM     27  C   UNL A   1      39.311  25.687  29.050  1.00  0.00     0.014 A 
ATOM     28  C   UNL A   1      40.046  26.413  26.851  1.00  0.00     0.014 A 
ATOM     29  C   UNL A   1      39.258  27.014  29.468  1.00  0.00     0.010 A 
ATOM     30  C   UNL A   1      39.994  27.745  27.268  1.00  0.00     0.010 A 
ATOM     31  C   UNL A   1      39.628  28.043  28.587  1.00  0.00    -0.014 A 
BRANCH  31  32
ATOM     32  C   UNL A   1      39.881  29.386  29.175  1.00  0.00     0.031 A 
ATOM     33  C   UNL A   1      38.545  30.123  29.415  1.00  0.00     0.074 A 
ATOM     34  C   UNL A   1      41.178  29.790  29.352  1.00  0.00     0.049 A 
ATOM     35  N   UNL A   1      38.256  31.383  29.316  1.00  0.00    -0.248 NA
ATOM     36  C   UNL A   1      37.324  29.323  29.721  1.00  0.00     0.031 C 
ATOM     37  C   UNL A   1      42.355  28.923  29.146  1.00  0.00     0.029 A 
ATOM     38  N   UNL A   1      41.784  30.980  29.730  1.00  0.00    -0.354 N 
ATOM     39  C   UNL A   1      36.920  31.549  29.754  1.00  0.00     0.074 A 
ATOM     40  C   UNL A   1      36.359  30.238  29.836  1.00  0.00     0.031 C 
ATOM     41  C   UNL A   1      43.505  29.616  29.311  1.00  0.00     0.029 A 
ATOM     42  C   UNL A   1      43.208  30.996  29.646  1.00  0.00     0.049 A 
ATOM     43  H   UNL A   1      41.266  31.759  30.035  1.00  0.00     0.167 HD
ATOM     44  C   UNL A   1      36.427  32.745  30.201  1.00  0.00     0.037 A 
ATOM     45  C   UNL A   1      44.085  32.045  29.792  1.00  0.00     0.037 A 
ATOM     46  C   UNL A   1      37.439  33.741  30.093  1.00  0.00     0.049 A 
ATOM     47  C   UNL A   1      43.273  33.170  30.266  1.00  0.00     0.074 A 
ATOM     48  C   UNL A   1      38.046  34.334  29.020  1.00  0.00     0.029 A 
ATOM     49  N   UNL A   1      38.200  33.939  31.220  1.00  0.00    -0.354 N 
ATOM     50  N   UNL A   1      42.817  33.286  31.477  1.00  0.00    -0.248 NA
ATOM     51  C   UNL A   1      42.875  34.214  29.313  1.00  0.00     0.031 C 
ATOM     52  C   UNL A   1      39.389  34.427  29.435  1.00  0.00     0.029 A 
ATOM     53  C   UNL A   1      39.486  34.144  30.804  1.00  0.00     0.049 A 
ATOM     54  H   UNL A   1      37.880  33.936  32.150  1.00  0.00     0.167 HD
ATOM     55  C   UNL A   1      41.802  34.194  31.307  1.00  0.00     0.074 A 
ATOM     56  C   UNL A   1      42.117  34.955  30.117  1.00  0.00     0.031 C 
ATOM     57  C   UNL A   1      40.556  33.859  31.729  1.00  0.00     0.037 A 
BRANCH  44  58
ATOM     58  C   UNL A   1      35.230  33.106  31.045  1.00  0.00     0.057 A 
ATOM     59  C   UNL A   1      34.428  34.197  30.621  1.00  0.00     0.134 A 
ATOM     60  C   UNL A   1      35.073  32.728  32.380  1.00  0.00     0.134 A 
ATOM     61  F   UNL A   1      34.450  34.619  29.345  1.00  0.00    -0.206 F 
ATOM     62  C   UNL A   1      33.662  34.960  31.505  1.00  0.00     0.040 A 
ATOM     63  C   UNL A   1      34.263  33.455  33.265  1.00  0.00     0.040 A 
ATOM     64  F   UNL A   1      35.765  31.711  32.909  1.00  0.00    -0.206 F 
ATOM     65  C   UNL A   1      33.598  34.602  32.842  1.00  0.00     0.006 A 
ENDBRANCH  44  58
BRANCH  45  66
ATOM     66  C   UNL A   1      45.555  32.365  29.572  1.00  0.00     0.057 A 
ATOM     67  C   UNL A   1      46.547  32.427  30.552  1.00  0.00     0.134 A 
ATOM     68  C   UNL A   1      46.056  32.584  28.253  1.00  0.00     0.134 A 
ATOM     69  F   UNL A   1      46.244  32.378  31.854  1.00  0.00    -0.206 F 
ATOM     70  C   UNL A   1      47.918  32.572  30.239  1.00  0.00     0.040 A 
ATOM     71  C   UNL A   1      47.412  32.684  27.923  1.00  0.00     0.040 A 
ATOM     72  F   UNL A   1      45.249  32.723  27.193  1.00  0.00    -0.206 F 
ATOM     73  C   UNL A   1      48.358  32.659  28.923  1.00  0.00     0.006 A 
ENDBRANCH  45  66
BRANCH  57  74
ATOM     74  C   UNL A   1      40.530  32.866  32.881  1.00  0.00     0.057 A 
ATOM     75  C   UNL A   1      41.124  33.198  34.107  1.00  0.00     0.134 A 
ATOM     76  C   UNL A   1      40.058  31.549  32.781  1.00  0.00     0.134 A 
ATOM     77  F   UNL A   1      41.584  34.440  34.318  1.00  0.00    -0.206 F 
ATOM     78  C   UNL A   1      41.275  32.268  35.146  1.00  0.00     0.040 A 
ATOM     79  C   UNL A   1      40.193  30.607  33.812  1.00  0.00     0.040 A 
ATOM     80  F   UNL A   1      39.453  31.123  31.675  1.00  0.00    -0.206 F 
ATOM     81  C   UNL A   1      40.816  30.964  34.999  1.00  0.00     0.006 A 
ENDBRANCH  57  74
ENDBRANCH  31  32
ENDBRANCH  23  26
ENDBRANCH  21  22
ENDBRANCH   1  21
TORSDOF 13
ENDMDL
MODEL 3
REMARK VINA RESULT:     -12.0      1.419      1.961
REMARK SMILES CCc1[nH]nc(-n2cccc2)c1C(=O)NCCCCNC(=O)c1ccc(-c2c3nc(c(-c4c(F)cccc4F)c4ccc([nH]4)c(-c4c(F)cccc4F)c4nc(c(-c5c(F)cccc5F)c5ccc2[nH]5)C=C4)C=C3)cc1
REMARK SMILES IDX 18 1 17 2 16 3 15 4 13 5 14 6 12 8 3 9 4 10 5 11 6 13 2 14
REMARK SMILES IDX 1 15 7 16 8 17 11 18 9 19 10 20 19 21 20 22 21 23 22 25
REMARK SMILES IDX 23 26 24 27 76 28 25 29 75 30 26 31 27 32 28 33 69 34 29 35
REMARK SMILES IDX 74 36 68 37 70 38 30 39 73 40 67 41 66 42 31 44 57 45 40 46
REMARK SMILES IDX 56 47 41 48 44 49 55 50 71 51 42 52 43 53 54 55 72 56 45 57
REMARK SMILES IDX 32 58 33 59 38 60 34 61 35 62 37 63 39 64 36 65 58 66 59 67
REMARK SMILES IDX 64 68 60 69 61 70 63 71 65 72 62 73 46 74 47 75 52 76 48 77
REMARK SMILES IDX 49 78 51 79 53 80 50 81
REMARK H PARENT 15 7 4 12 20 24 70 43 44 54
REMARK Flexibility Score: inf
ROOT
ATOM      1  C   UNL A   1      33.662  29.003  26.134  1.00  0.00     0.023 C 
ENDROOT
BRANCH   1   2
ATOM      2  C   UNL A   1      32.509  29.922  26.567  1.00  0.00     0.023 C 
BRANCH   2   3
ATOM      3  C   UNL A   1      31.459  30.124  25.479  1.00  0.00     0.116 C 
BRANCH   3   4
ATOM      4  N   UNL A   1      31.836  29.489  24.247  1.00  0.00    -0.352 N 
ATOM      5  C   UNL A   1      31.203  28.762  23.281  1.00  0.00     0.256 C 
ATOM      6  O   UNL A   1      31.900  28.681  22.265  1.00  0.00    -0.269 OA
ATOM      7  H   UNL A   1      32.792  29.609  24.049  1.00  0.00     0.163 HD
BRANCH   5   8
ATOM      8  C   UNL A   1      29.867  28.148  23.335  1.00  0.00     0.105 A 
ATOM      9  C   UNL A   1      29.364  26.887  23.706  1.00  0.00     0.050 A 
ATOM     10  N   UNL A   1      27.994  26.990  23.634  1.00  0.00    -0.280 N 
ATOM     11  N   UNL A   1      27.541  28.202  23.342  1.00  0.00    -0.156 NA
ATOM     12  H   UNL A   1      27.395  26.224  23.786  1.00  0.00     0.190 HD
ATOM     13  C   UNL A   1      28.654  28.884  23.061  1.00  0.00     0.171 A 
BRANCH   9  14
ATOM     14  C   UNL A   1      29.954  25.591  24.172  1.00  0.00     0.053 C 
ATOM     15  C   UNL A   1      30.701  24.765  23.129  1.00  0.00     0.011 C 
ENDBRANCH   9  14
BRANCH  13  16
ATOM     16  N   UNL A   1      28.464  30.218  22.571  1.00  0.00    -0.307 N 
ATOM     17  C   UNL A   1      28.372  30.634  21.257  1.00  0.00     0.093 A 
ATOM     18  C   UNL A   1      28.261  31.337  23.363  1.00  0.00     0.093 A 
ATOM     19  C   UNL A   1      28.239  32.005  21.222  1.00  0.00     0.020 A 
ATOM     20  C   UNL A   1      28.190  32.453  22.559  1.00  0.00     0.020 A 
ENDBRANCH  13  16
ENDBRANCH   5   8
ENDBRANCH   3   4
ENDBRANCH   2   3
ENDBRANCH   1   2
BRANCH   1  21
ATOM     21  C   UNL A   1      34.852  28.989  27.103  1.00  0.00     0.116 C 
BRANCH  21  22
ATOM     22  N   UNL A   1      35.285  30.333  27.438  1.00  0.00    -0.352 N 
ATOM     23  C   UNL A   1      36.389  30.733  28.149  1.00  0.00     0.251 C 
ATOM     24  H   UNL A   1      34.707  31.059  27.110  1.00  0.00     0.163 HD
ATOM     25  O   UNL A   1      36.404  31.842  28.670  1.00  0.00    -0.269 OA
BRANCH  23  26
ATOM     26  C   UNL A   1      37.558  29.845  28.307  1.00  0.00     0.039 A 
ATOM     27  C   UNL A   1      38.475  29.773  27.254  1.00  0.00     0.014 A 
ATOM     28  C   UNL A   1      37.700  29.019  29.429  1.00  0.00     0.014 A 
ATOM     29  C   UNL A   1      39.574  28.924  27.354  1.00  0.00     0.010 A 
ATOM     30  C   UNL A   1      38.801  28.166  29.532  1.00  0.00     0.010 A 
ATOM     31  C   UNL A   1      39.755  28.142  28.506  1.00  0.00    -0.014 A 
BRANCH  31  32
ATOM     32  C   UNL A   1      41.094  27.526  28.708  1.00  0.00     0.031 A 
ATOM     33  C   UNL A   1      41.079  26.054  28.243  1.00  0.00     0.074 A 
ATOM     34  C   UNL A   1      42.076  28.274  29.302  1.00  0.00     0.049 A 
ATOM     35  N   UNL A   1      41.697  25.019  28.722  1.00  0.00    -0.248 NA
ATOM     36  C   UNL A   1      40.167  25.657  27.132  1.00  0.00     0.031 C 
ATOM     37  C   UNL A   1      41.951  29.711  29.618  1.00  0.00     0.029 A 
ATOM     38  N   UNL A   1      43.358  28.009  29.763  1.00  0.00    -0.354 N 
ATOM     39  C   UNL A   1      41.433  23.928  27.859  1.00  0.00     0.074 A 
ATOM     40  C   UNL A   1      40.369  24.344  27.002  1.00  0.00     0.031 C 
ATOM     41  C   UNL A   1      43.043  30.161  30.277  1.00  0.00     0.029 A 
ATOM     42  C   UNL A   1      43.994  29.080  30.457  1.00  0.00     0.049 A 
ATOM     43  H   UNL A   1      43.798  27.140  29.619  1.00  0.00     0.167 HD
ATOM     44  C   UNL A   1      42.238  22.824  27.788  1.00  0.00     0.037 A 
ATOM     45  C   UNL A   1      45.175  29.092  31.162  1.00  0.00     0.037 A 
ATOM     46  C   UNL A   1      43.297  22.952  28.731  1.00  0.00     0.049 A 
ATOM     47  C   UNL A   1      45.799  27.792  30.900  1.00  0.00     0.074 A 
ATOM     48  C   UNL A   1      43.326  22.948  30.099  1.00  0.00     0.029 A 
ATOM     49  N   UNL A   1      44.460  23.501  28.248  1.00  0.00    -0.354 N 
ATOM     50  N   UNL A   1      46.382  27.471  29.785  1.00  0.00    -0.248 NA
ATOM     51  C   UNL A   1      45.715  26.741  31.922  1.00  0.00     0.031 C 
ATOM     52  C   UNL A   1      44.272  23.949  30.393  1.00  0.00     0.029 A 
ATOM     53  C   UNL A   1      44.953  24.319  29.226  1.00  0.00     0.049 A 
ATOM     54  H   UNL A   1      44.862  23.336  27.366  1.00  0.00     0.167 HD
ATOM     55  C   UNL A   1      46.385  26.100  29.857  1.00  0.00     0.074 A 
ATOM     56  C   UNL A   1      46.314  25.755  31.260  1.00  0.00     0.031 C 
ATOM     57  C   UNL A   1      45.831  25.396  28.836  1.00  0.00     0.037 A 
BRANCH  44  58
ATOM     58  C   UNL A   1      42.408  21.748  26.744  1.00  0.00     0.057 A 
ATOM     59  C   UNL A   1      41.894  20.458  27.035  1.00  0.00     0.134 A 
ATOM     60  C   UNL A   1      43.350  21.802  25.714  1.00  0.00     0.134 A 
ATOM     61  F   UNL A   1      40.944  20.285  27.969  1.00  0.00    -0.206 F 
ATOM     62  C   UNL A   1      42.409  19.293  26.463  1.00  0.00     0.040 A 
ATOM     63  C   UNL A   1      43.835  20.641  25.093  1.00  0.00     0.040 A 
ATOM     64  F   UNL A   1      43.911  22.956  25.333  1.00  0.00    -0.206 F 
ATOM     65  C   UNL A   1      43.404  19.383  25.502  1.00  0.00     0.006 A 
ENDBRANCH  44  58
BRANCH  45  66
ATOM     66  C   UNL A   1      45.947  29.993  32.112  1.00  0.00     0.057 A 
ATOM     67  C   UNL A   1      47.105  30.714  31.816  1.00  0.00     0.134 A 
ATOM     68  C   UNL A   1      45.474  30.216  33.441  1.00  0.00     0.134 A 
ATOM     69  F   UNL A   1      47.765  30.530  30.667  1.00  0.00    -0.206 F 
ATOM     70  C   UNL A   1      47.667  31.653  32.711  1.00  0.00     0.040 A 
ATOM     71  C   UNL A   1      45.990  31.172  34.320  1.00  0.00     0.040 A 
ATOM     72  F   UNL A   1      44.472  29.503  33.974  1.00  0.00    -0.206 F 
ATOM     73  C   UNL A   1      47.088  31.916  33.948  1.00  0.00     0.006 A 
ENDBRANCH  45  66
BRANCH  57  74
ATOM     74  C   UNL A   1      45.866  26.107  27.492  1.00  0.00     0.057 A 
ATOM     75  C   UNL A   1      44.668  26.415  26.829  1.00  0.00     0.134 A 
ATOM     76  C   UNL A   1      47.037  26.378  26.769  1.00  0.00     0.134 A 
ATOM     77  F   UNL A   1      43.491  26.220  27.442  1.00  0.00    -0.206 F 
ATOM     78  C   UNL A   1      44.641  26.919  25.521  1.00  0.00     0.040 A 
ATOM     79  C   UNL A   1      47.029  26.888  25.463  1.00  0.00     0.040 A 
ATOM     80  F   UNL A   1      48.235  26.151  27.302  1.00  0.00    -0.206 F 
ATOM     81  C   UNL A   1      45.824  27.150  24.828  1.00  0.00     0.006 A 
ENDBRANCH  57  74
ENDBRANCH  31  32
ENDBRANCH  23  26
ENDBRANCH  21  22
ENDBRANCH   1  21
TORSDOF 13
ENDMDL
