MODEL 1
REMARK VINA RESULT:     -13.0      0.000      0.000
REMARK SMILES Cc1cccc(-c2cccc(O)c2)c1C(=O)NCCCCNC(=O)c1ccc(-c2c3nc(c(-c4c(F)cccc4F)c4ccc([nH]4)c(-c4c(F)cccc4F)c4nc(c(-c5c(F)cccc5F)c5ccc2[nH]5)C=C4)C=C3)cc1
REMARK SMILES IDX 19 1 18 2 17 3 15 4 16 5 14 7 1 8 2 9 3 10 4 11 6 12 5 13
REMARK SMILES IDX 7 14 8 15 13 16 9 17 11 18 10 19 12 20 20 22 21 23 22 24
REMARK SMILES IDX 23 25 24 27 25 28 26 29 78 30 27 31 77 32 28 33 29 34 30 35
REMARK SMILES IDX 71 36 31 37 76 38 70 39 72 40 32 41 75 42 69 43 68 44 33 46
REMARK SMILES IDX 59 47 42 48 58 49 43 50 46 51 57 52 73 53 44 54 45 55 56 57
REMARK SMILES IDX 74 58 47 59 34 60 35 61 40 62 36 63 37 64 39 65 41 66 38 67
REMARK SMILES IDX 60 68 61 69 66 70 62 71 63 72 65 73 67 74 64 75 48 76 49 77
REMARK SMILES IDX 54 78 50 79 51 80 53 81 55 82 52 83
REMARK H PARENT 17 6 12 21 22 26 72 45 46 56
REMARK Flexibility Score: inf
ROOT
ATOM      1  C   UNL A   1      33.594  29.089  27.218  1.00  0.00     0.023 C 
ENDROOT
BRANCH   1   2
ATOM      2  C   UNL A   1      32.086  29.356  27.075  1.00  0.00     0.116 C 
BRANCH   2   3
ATOM      3  N   UNL A   1      31.348  28.119  26.954  1.00  0.00    -0.352 N 
ATOM      4  C   UNL A   1      31.124  27.101  26.067  1.00  0.00     0.252 C 
ATOM      5  O   UNL A   1      30.296  26.325  26.555  1.00  0.00    -0.269 OA
ATOM      6  H   UNL A   1      30.842  27.953  27.781  1.00  0.00     0.163 HD
BRANCH   4   7
ATOM      7  C   UNL A   1      31.751  26.807  24.701  1.00  0.00     0.050 A 
ATOM      8  C   UNL A   1      33.916  25.534  25.433  1.00  0.00     0.045 C 
ATOM      9  C   UNL A   1      32.910  26.019  24.440  1.00  0.00    -0.038 A 
ATOM     10  C   UNL A   1      33.289  25.706  23.109  1.00  0.00     0.004 A 
ATOM     11  C   UNL A   1      32.638  26.238  22.018  1.00  0.00     0.001 A 
ATOM     12  C   UNL A   1      31.119  27.410  23.547  1.00  0.00    -0.005 A 
ATOM     13  C   UNL A   1      31.590  27.105  22.240  1.00  0.00     0.009 A 
BRANCH  12  14
ATOM     14  C   UNL A   1      30.013  28.405  23.549  1.00  0.00    -0.014 A 
ATOM     15  C   UNL A   1      30.263  29.780  23.710  1.00  0.00     0.009 A 
ATOM     16  C   UNL A   1      28.696  28.011  23.254  1.00  0.00     0.055 A 
ATOM     17  C   UNL A   1      29.228  30.718  23.650  1.00  0.00     0.004 A 
ATOM     18  C   UNL A   1      27.678  28.956  23.151  1.00  0.00     0.116 A 
ATOM     19  C   UNL A   1      27.929  30.306  23.364  1.00  0.00     0.046 A 
BRANCH  18  20
ATOM     20  O   UNL A   1      26.431  28.511  22.819  1.00  0.00    -0.508 OA
ATOM     21  H   UNL A   1      26.283  27.597  22.674  1.00  0.00     0.293 HD
ENDBRANCH  18  20
ENDBRANCH  12  14
ENDBRANCH   4   7
ENDBRANCH   2   3
ENDBRANCH   1   2
BRANCH   1  22
ATOM     22  C   UNL A   1      34.483  30.333  27.218  1.00  0.00     0.023 C 
BRANCH  22  23
ATOM     23  C   UNL A   1      34.605  30.992  28.578  1.00  0.00     0.116 C 
BRANCH  23  24
ATOM     24  N   UNL A   1      35.795  31.819  28.755  1.00  0.00    -0.352 N 
ATOM     25  C   UNL A   1      37.118  31.432  28.898  1.00  0.00     0.251 C 
ATOM     26  H   UNL A   1      35.635  32.790  28.776  1.00  0.00     0.163 HD
ATOM     27  O   UNL A   1      37.988  32.279  29.089  1.00  0.00    -0.269 OA
BRANCH  25  28
ATOM     28  C   UNL A   1      37.504  30.019  28.650  1.00  0.00     0.039 A 
ATOM     29  C   UNL A   1      37.588  29.174  29.762  1.00  0.00     0.014 A 
ATOM     30  C   UNL A   1      38.078  29.639  27.443  1.00  0.00     0.014 A 
ATOM     31  C   UNL A   1      38.515  28.138  29.756  1.00  0.00     0.010 A 
ATOM     32  C   UNL A   1      39.096  28.709  27.478  1.00  0.00     0.010 A 
ATOM     33  C   UNL A   1      39.371  28.023  28.664  1.00  0.00    -0.014 A 
BRANCH  33  34
ATOM     34  C   UNL A   1      40.666  27.354  28.740  1.00  0.00     0.031 A 
ATOM     35  C   UNL A   1      40.778  25.906  28.481  1.00  0.00     0.074 A 
ATOM     36  C   UNL A   1      41.778  28.099  28.931  1.00  0.00     0.049 A 
ATOM     37  N   UNL A   1      41.767  25.169  28.859  1.00  0.00    -0.248 NA
ATOM     38  C   UNL A   1      39.726  25.152  27.815  1.00  0.00     0.031 C 
ATOM     39  C   UNL A   1      43.165  27.694  28.731  1.00  0.00     0.029 A 
ATOM     40  N   UNL A   1      41.870  29.354  29.554  1.00  0.00    -0.354 N 
ATOM     41  C   UNL A   1      41.638  23.942  28.244  1.00  0.00     0.074 A 
ATOM     42  C   UNL A   1      40.305  23.955  27.692  1.00  0.00     0.031 C 
ATOM     43  C   UNL A   1      43.962  28.505  29.444  1.00  0.00     0.029 A 
ATOM     44  C   UNL A   1      43.102  29.360  30.243  1.00  0.00     0.049 A 
ATOM     45  H   UNL A   1      41.208  30.082  29.518  1.00  0.00     0.167 HD
ATOM     46  C   UNL A   1      42.733  23.130  28.158  1.00  0.00     0.037 A 
ATOM     47  C   UNL A   1      43.152  29.458  31.604  1.00  0.00     0.037 A 
ATOM     48  C   UNL A   1      43.843  23.674  28.951  1.00  0.00     0.049 A 
ATOM     49  C   UNL A   1      43.785  28.265  32.284  1.00  0.00     0.074 A 
ATOM     50  C   UNL A   1      44.983  24.385  28.612  1.00  0.00     0.029 A 
ATOM     51  N   UNL A   1      43.714  23.779  30.333  1.00  0.00    -0.354 N 
ATOM     52  N   UNL A   1      43.981  27.116  31.701  1.00  0.00    -0.248 NA
ATOM     53  C   UNL A   1      44.211  28.258  33.682  1.00  0.00     0.031 C 
ATOM     54  C   UNL A   1      45.497  24.982  29.790  1.00  0.00     0.029 A 
ATOM     55  C   UNL A   1      44.685  24.616  30.850  1.00  0.00     0.049 A 
ATOM     56  H   UNL A   1      43.027  23.321  30.868  1.00  0.00     0.167 HD
ATOM     57  C   UNL A   1      44.495  26.223  32.603  1.00  0.00     0.074 A 
ATOM     58  C   UNL A   1      44.648  26.994  33.823  1.00  0.00     0.031 C 
ATOM     59  C   UNL A   1      44.729  24.919  32.274  1.00  0.00     0.037 A 
BRANCH  46  60
ATOM     60  C   UNL A   1      42.913  22.031  27.119  1.00  0.00     0.057 A 
ATOM     61  C   UNL A   1      42.168  20.835  27.205  1.00  0.00     0.134 A 
ATOM     62  C   UNL A   1      43.851  22.028  26.071  1.00  0.00     0.134 A 
ATOM     63  F   UNL A   1      41.142  20.702  28.056  1.00  0.00    -0.206 F 
ATOM     64  C   UNL A   1      42.430  19.702  26.417  1.00  0.00     0.040 A 
ATOM     65  C   UNL A   1      44.153  20.894  25.301  1.00  0.00     0.040 A 
ATOM     66  F   UNL A   1      44.484  23.135  25.679  1.00  0.00    -0.206 F 
ATOM     67  C   UNL A   1      43.454  19.715  25.486  1.00  0.00     0.006 A 
ENDBRANCH  46  60
BRANCH  47  68
ATOM     68  C   UNL A   1      42.059  30.289  32.172  1.00  0.00     0.057 A 
ATOM     69  C   UNL A   1      42.184  31.688  32.123  1.00  0.00     0.134 A 
ATOM     70  C   UNL A   1      40.780  29.772  32.398  1.00  0.00     0.134 A 
ATOM     71  F   UNL A   1      43.386  32.249  31.909  1.00  0.00    -0.206 F 
ATOM     72  C   UNL A   1      41.073  32.532  32.177  1.00  0.00     0.040 A 
ATOM     73  C   UNL A   1      39.659  30.610  32.463  1.00  0.00     0.040 A 
ATOM     74  F   UNL A   1      40.575  28.447  32.432  1.00  0.00    -0.206 F 
ATOM     75  C   UNL A   1      39.800  31.989  32.313  1.00  0.00     0.006 A 
ENDBRANCH  47  68
BRANCH  59  76
ATOM     76  C   UNL A   1      45.085  23.819  33.241  1.00  0.00     0.057 A 
ATOM     77  C   UNL A   1      46.342  23.682  33.849  1.00  0.00     0.134 A 
ATOM     78  C   UNL A   1      44.089  22.936  33.713  1.00  0.00     0.134 A 
ATOM     79  F   UNL A   1      47.350  24.518  33.569  1.00  0.00    -0.206 F 
ATOM     80  C   UNL A   1      46.602  22.705  34.820  1.00  0.00     0.040 A 
ATOM     81  C   UNL A   1      44.323  21.993  34.718  1.00  0.00     0.040 A 
ATOM     82  F   UNL A   1      42.837  22.968  33.231  1.00  0.00    -0.206 F 
ATOM     83  C   UNL A   1      45.590  21.866  35.268  1.00  0.00     0.006 A 
ENDBRANCH  59  76
ENDBRANCH  33  34
ENDBRANCH  25  28
ENDBRANCH  23  24
ENDBRANCH  22  23
ENDBRANCH   1  22
TORSDOF 13
ENDMDL
MODEL 2
REMARK VINA RESULT:     -12.6      4.599      9.799
REMARK SMILES Cc1cccc(-c2cccc(O)c2)c1C(=O)NCCCCNC(=O)c1ccc(-c2c3nc(c(-c4c(F)cccc4F)c4ccc([nH]4)c(-c4c(F)cccc4F)c4nc(c(-c5c(F)cccc5F)c5ccc2[nH]5)C=C4)C=C3)cc1
REMARK SMILES IDX 19 1 18 2 17 3 15 4 16 5 14 7 1 8 2 9 3 10 4 11 6 12 5 13
REMARK SMILES IDX 7 14 8 15 13 16 9 17 11 18 10 19 12 20 20 22 21 23 22 24
REMARK SMILES IDX 23 25 24 27 25 28 26 29 78 30 27 31 77 32 28 33 29 34 30 35
REMARK SMILES IDX 71 36 31 37 76 38 70 39 72 40 32 41 75 42 69 43 68 44 33 46
REMARK SMILES IDX 59 47 42 48 58 49 43 50 46 51 57 52 73 53 44 54 45 55 56 57
REMARK SMILES IDX 74 58 47 59 34 60 35 61 40 62 36 63 37 64 39 65 41 66 38 67
REMARK SMILES IDX 60 68 61 69 66 70 62 71 63 72 65 73 67 74 64 75 48 76 49 77
REMARK SMILES IDX 54 78 50 79 51 80 53 81 55 82 52 83
REMARK H PARENT 17 6 12 21 22 26 72 45 46 56
REMARK Flexibility Score: inf
ROOT
ATOM      1  C   UNL A   1      37.769  21.377  24.820  1.00  0.00     0.023 C 
ENDROOT
BRANCH   1   2
ATOM      2  C   UNL A   1      36.767  22.507  25.113  1.00  0.00     0.116 C 
BRANCH   2   3
ATOM      3  N   UNL A   1      35.918  22.758  23.970  1.00  0.00    -0.352 N 
ATOM      4  C   UNL A   1      34.598  22.907  23.643  1.00  0.00     0.252 C 
ATOM      5  O   UNL A   1      34.507  23.046  22.418  1.00  0.00    -0.269 OA
ATOM      6  H   UNL A   1      36.472  22.856  23.162  1.00  0.00     0.163 HD
BRANCH   4   7
ATOM      7  C   UNL A   1      33.348  22.968  24.525  1.00  0.00     0.050 A 
ATOM      8  C   UNL A   1      33.537  25.408  25.451  1.00  0.00     0.045 C 
ATOM      9  C   UNL A   1      32.838  24.107  25.214  1.00  0.00    -0.038 A 
ATOM     10  C   UNL A   1      31.583  24.055  25.873  1.00  0.00     0.004 A 
ATOM     11  C   UNL A   1      30.862  22.886  25.982  1.00  0.00     0.001 A 
ATOM     12  C   UNL A   1      32.612  21.735  24.705  1.00  0.00    -0.005 A 
ATOM     13  C   UNL A   1      31.391  21.737  25.434  1.00  0.00     0.009 A 
BRANCH  12  14
ATOM     14  C   UNL A   1      33.013  20.378  24.248  1.00  0.00    -0.014 A 
ATOM     15  C   UNL A   1      34.065  19.676  24.865  1.00  0.00     0.009 A 
ATOM     16  C   UNL A   1      32.263  19.701  23.270  1.00  0.00     0.055 A 
ATOM     17  C   UNL A   1      34.399  18.376  24.474  1.00  0.00     0.004 A 
ATOM     18  C   UNL A   1      32.573  18.390  22.917  1.00  0.00     0.116 A 
ATOM     19  C   UNL A   1      33.647  17.726  23.498  1.00  0.00     0.046 A 
BRANCH  18  20
ATOM     20  O   UNL A   1      31.778  17.777  21.993  1.00  0.00    -0.508 OA
ATOM     21  H   UNL A   1      31.728  18.113  21.120  1.00  0.00     0.293 HD
ENDBRANCH  18  20
ENDBRANCH  12  14
ENDBRANCH   4   7
ENDBRANCH   2   3
ENDBRANCH   1   2
BRANCH   1  22
ATOM     22  C   UNL A   1      38.996  21.334  25.731  1.00  0.00     0.023 C 
BRANCH  22  23
ATOM     23  C   UNL A   1      39.265  22.642  26.449  1.00  0.00     0.116 C 
BRANCH  23  24
ATOM     24  N   UNL A   1      40.675  22.999  26.567  1.00  0.00    -0.352 N 
ATOM     25  C   UNL A   1      41.253  24.250  26.711  1.00  0.00     0.251 C 
ATOM     26  H   UNL A   1      41.305  22.244  26.541  1.00  0.00     0.163 HD
ATOM     27  O   UNL A   1      42.477  24.361  26.745  1.00  0.00    -0.269 OA
BRANCH  25  28
ATOM     28  C   UNL A   1      40.396  25.430  26.995  1.00  0.00     0.039 A 
ATOM     29  C   UNL A   1      40.642  26.593  26.256  1.00  0.00     0.014 A 
ATOM     30  C   UNL A   1      39.629  25.491  28.152  1.00  0.00     0.014 A 
ATOM     31  C   UNL A   1      40.415  27.830  26.847  1.00  0.00     0.010 A 
ATOM     32  C   UNL A   1      39.534  26.705  28.800  1.00  0.00     0.010 A 
ATOM     33  C   UNL A   1      40.011  27.864  28.179  1.00  0.00    -0.014 A 
BRANCH  33  34
ATOM     34  C   UNL A   1      40.225  29.019  29.044  1.00  0.00     0.031 A 
ATOM     35  C   UNL A   1      39.165  30.030  29.221  1.00  0.00     0.074 A 
ATOM     36  C   UNL A   1      41.362  29.090  29.773  1.00  0.00     0.049 A 
ATOM     37  N   UNL A   1      39.362  31.230  29.653  1.00  0.00    -0.248 NA
ATOM     38  C   UNL A   1      37.779  29.775  28.855  1.00  0.00     0.031 C 
ATOM     39  C   UNL A   1      41.637  29.967  30.907  1.00  0.00     0.029 A 
ATOM     40  N   UNL A   1      42.599  28.491  29.489  1.00  0.00    -0.354 N 
ATOM     41  C   UNL A   1      38.129  31.794  29.905  1.00  0.00     0.074 A 
ATOM     42  C   UNL A   1      37.187  30.886  29.298  1.00  0.00     0.031 C 
ATOM     43  C   UNL A   1      42.966  30.079  31.056  1.00  0.00     0.029 A 
ATOM     44  C   UNL A   1      43.584  29.400  29.931  1.00  0.00     0.049 A 
ATOM     45  H   UNL A   1      42.749  27.615  29.067  1.00  0.00     0.167 HD
ATOM     46  C   UNL A   1      38.060  32.885  30.724  1.00  0.00     0.037 A 
ATOM     47  C   UNL A   1      44.454  29.983  29.054  1.00  0.00     0.037 A 
ATOM     48  C   UNL A   1      39.406  33.383  31.035  1.00  0.00     0.049 A 
ATOM     49  C   UNL A   1      44.350  31.490  28.995  1.00  0.00     0.074 A 
ATOM     50  C   UNL A   1      40.229  33.247  32.142  1.00  0.00     0.029 A 
ATOM     51  N   UNL A   1      40.207  33.885  30.013  1.00  0.00    -0.354 N 
ATOM     52  N   UNL A   1      43.343  32.168  29.470  1.00  0.00    -0.248 NA
ATOM     53  C   UNL A   1      45.350  32.350  28.364  1.00  0.00     0.031 C 
ATOM     54  C   UNL A   1      41.547  33.598  31.757  1.00  0.00     0.029 A 
ATOM     55  C   UNL A   1      41.524  33.970  30.424  1.00  0.00     0.049 A 
ATOM     56  H   UNL A   1      39.882  34.143  29.121  1.00  0.00     0.167 HD
ATOM     57  C   UNL A   1      43.510  33.498  29.189  1.00  0.00     0.074 A 
ATOM     58  C   UNL A   1      44.796  33.565  28.521  1.00  0.00     0.031 C 
ATOM     59  C   UNL A   1      42.563  34.427  29.511  1.00  0.00     0.037 A 
BRANCH  46  60
ATOM     60  C   UNL A   1      36.817  33.307  31.497  1.00  0.00     0.057 A 
ATOM     61  C   UNL A   1      35.751  33.956  30.840  1.00  0.00     0.134 A 
ATOM     62  C   UNL A   1      36.630  33.197  32.887  1.00  0.00     0.134 A 
ATOM     63  F   UNL A   1      35.690  34.040  29.504  1.00  0.00    -0.206 F 
ATOM     64  C   UNL A   1      34.678  34.559  31.517  1.00  0.00     0.040 A 
ATOM     65  C   UNL A   1      35.587  33.826  33.583  1.00  0.00     0.040 A 
ATOM     66  F   UNL A   1      37.402  32.421  33.651  1.00  0.00    -0.206 F 
ATOM     67  C   UNL A   1      34.613  34.530  32.899  1.00  0.00     0.006 A 
ENDBRANCH  46  60
BRANCH  47  68
ATOM     68  C   UNL A   1      44.813  29.103  27.912  1.00  0.00     0.057 A 
ATOM     69  C   UNL A   1      45.767  28.091  28.119  1.00  0.00     0.134 A 
ATOM     70  C   UNL A   1      43.995  28.985  26.785  1.00  0.00     0.134 A 
ATOM     71  F   UNL A   1      46.585  28.144  29.183  1.00  0.00    -0.206 F 
ATOM     72  C   UNL A   1      45.827  26.955  27.309  1.00  0.00     0.040 A 
ATOM     73  C   UNL A   1      44.053  27.854  25.960  1.00  0.00     0.040 A 
ATOM     74  F   UNL A   1      43.043  29.896  26.534  1.00  0.00    -0.206 F 
ATOM     75  C   UNL A   1      44.943  26.819  26.244  1.00  0.00     0.006 A 
ENDBRANCH  47  68
BRANCH  59  76
ATOM     76  C   UNL A   1      42.554  35.865  29.060  1.00  0.00     0.057 A 
ATOM     77  C   UNL A   1      43.328  36.878  29.645  1.00  0.00     0.134 A 
ATOM     78  C   UNL A   1      41.858  36.239  27.889  1.00  0.00     0.134 A 
ATOM     79  F   UNL A   1      44.116  36.637  30.701  1.00  0.00    -0.206 F 
ATOM     80  C   UNL A   1      43.368  38.182  29.131  1.00  0.00     0.040 A 
ATOM     81  C   UNL A   1      41.932  37.521  27.339  1.00  0.00     0.040 A 
ATOM     82  F   UNL A   1      41.093  35.365  27.218  1.00  0.00    -0.206 F 
ATOM     83  C   UNL A   1      42.680  38.505  27.968  1.00  0.00     0.006 A 
ENDBRANCH  59  76
ENDBRANCH  33  34
ENDBRANCH  25  28
ENDBRANCH  23  24
ENDBRANCH  22  23
ENDBRANCH   1  22
TORSDOF 13
ENDMDL
MODEL 3
REMARK VINA RESULT:     -12.5      4.501      9.696
REMARK SMILES Cc1cccc(-c2cccc(O)c2)c1C(=O)NCCCCNC(=O)c1ccc(-c2c3nc(c(-c4c(F)cccc4F)c4ccc([nH]4)c(-c4c(F)cccc4F)c4nc(c(-c5c(F)cccc5F)c5ccc2[nH]5)C=C4)C=C3)cc1
REMARK SMILES IDX 19 1 18 2 17 3 15 4 16 5 14 7 1 8 2 9 3 10 4 11 6 12 5 13
REMARK SMILES IDX 7 14 8 15 13 16 9 17 11 18 10 19 12 20 20 22 21 23 22 24
REMARK SMILES IDX 23 25 24 27 25 28 26 29 78 30 27 31 77 32 28 33 29 34 30 35
REMARK SMILES IDX 71 36 31 37 76 38 70 39 72 40 32 41 75 42 69 43 68 44 33 46
REMARK SMILES IDX 59 47 42 48 58 49 43 50 46 51 57 52 73 53 44 54 45 55 56 57
REMARK SMILES IDX 74 58 47 59 34 60 35 61 40 62 36 63 37 64 39 65 41 66 38 67
REMARK SMILES IDX 60 68 61 69 66 70 62 71 63 72 65 73 67 74 64 75 48 76 49 77
REMARK SMILES IDX 54 78 50 79 51 80 53 81 55 82 52 83
REMARK H PARENT 17 6 12 21 22 26 72 45 46 56
REMARK Flexibility Score: inf
ROOT
ATOM      1  C   UNL A   1      37.351  21.421  24.610  1.00  0.00     0.023 C 
ENDROOT
BRANCH   1   2
ATOM      2  C   UNL A   1      36.714  22.822  24.610  1.00  0.00     0.116 C 
BRANCH   2   3
ATOM      3  N   UNL A   1      35.726  22.943  23.563  1.00  0.00    -0.352 N 
ATOM      4  C   UNL A   1      34.370  22.985  23.385  1.00  0.00     0.252 C 
ATOM      5  O   UNL A   1      34.131  23.038  22.174  1.00  0.00    -0.269 OA
ATOM      6  H   UNL A   1      36.176  23.024  22.692  1.00  0.00     0.163 HD
BRANCH   4   7
ATOM      7  C   UNL A   1      33.227  23.024  24.402  1.00  0.00     0.050 A 
ATOM      8  C   UNL A   1      33.399  25.503  25.221  1.00  0.00     0.045 C 
ATOM      9  C   UNL A   1      32.743  24.164  25.108  1.00  0.00    -0.038 A 
ATOM     10  C   UNL A   1      31.574  24.080  25.909  1.00  0.00     0.004 A 
ATOM     11  C   UNL A   1      30.929  22.885  26.138  1.00  0.00     0.001 A 
ATOM     12  C   UNL A   1      32.577  21.767  24.707  1.00  0.00    -0.005 A 
ATOM     13  C   UNL A   1      31.449  21.741  25.571  1.00  0.00     0.009 A 
BRANCH  12  14
ATOM     14  C   UNL A   1      32.991  20.412  24.250  1.00  0.00    -0.014 A 
ATOM     15  C   UNL A   1      34.037  19.712  24.881  1.00  0.00     0.009 A 
ATOM     16  C   UNL A   1      32.256  19.736  23.261  1.00  0.00     0.055 A 
ATOM     17  C   UNL A   1      34.382  18.415  24.490  1.00  0.00     0.004 A 
ATOM     18  C   UNL A   1      32.577  18.427  22.908  1.00  0.00     0.116 A 
ATOM     19  C   UNL A   1      33.645  17.765  23.502  1.00  0.00     0.046 A 
BRANCH  18  20
ATOM     20  O   UNL A   1      31.797  17.813  21.971  1.00  0.00    -0.508 OA
ATOM     21  H   UNL A   1      31.551  16.916  22.081  1.00  0.00     0.293 HD
ENDBRANCH  18  20
ENDBRANCH  12  14
ENDBRANCH   4   7
ENDBRANCH   2   3
ENDBRANCH   1   2
BRANCH   1  22
ATOM     22  C   UNL A   1      38.671  21.300  25.371  1.00  0.00     0.023 C 
BRANCH  22  23
ATOM     23  C   UNL A   1      38.968  22.487  26.266  1.00  0.00     0.116 C 
BRANCH  23  24
ATOM     24  N   UNL A   1      40.385  22.730  26.514  1.00  0.00    -0.352 N 
ATOM     25  C   UNL A   1      41.043  23.929  26.741  1.00  0.00     0.251 C 
ATOM     26  H   UNL A   1      40.956  21.928  26.522  1.00  0.00     0.163 HD
ATOM     27  O   UNL A   1      42.264  23.942  26.883  1.00  0.00    -0.269 OA
BRANCH  25  28
ATOM     28  C   UNL A   1      40.257  25.166  26.982  1.00  0.00     0.039 A 
ATOM     29  C   UNL A   1      40.607  26.302  26.241  1.00  0.00     0.014 A 
ATOM     30  C   UNL A   1      39.454  25.292  28.109  1.00  0.00     0.014 A 
ATOM     31  C   UNL A   1      40.442  27.558  26.812  1.00  0.00     0.010 A 
ATOM     32  C   UNL A   1      39.417  26.518  28.741  1.00  0.00     0.010 A 
ATOM     33  C   UNL A   1      39.992  27.635  28.127  1.00  0.00    -0.014 A 
BRANCH  33  34
ATOM     34  C   UNL A   1      40.252  28.783  28.988  1.00  0.00     0.031 A 
ATOM     35  C   UNL A   1      39.218  29.816  29.193  1.00  0.00     0.074 A 
ATOM     36  C   UNL A   1      41.408  28.829  29.689  1.00  0.00     0.049 A 
ATOM     37  N   UNL A   1      39.450  31.010  29.622  1.00  0.00    -0.248 NA
ATOM     38  C   UNL A   1      37.819  29.590  28.862  1.00  0.00     0.031 C 
ATOM     39  C   UNL A   1      41.729  29.697  30.817  1.00  0.00     0.029 A 
ATOM     40  N   UNL A   1      42.625  28.205  29.374  1.00  0.00    -0.354 N 
ATOM     41  C   UNL A   1      38.237  31.599  29.905  1.00  0.00     0.074 A 
ATOM     42  C   UNL A   1      37.261  30.712  29.321  1.00  0.00     0.031 C 
ATOM     43  C   UNL A   1      43.064  29.782  30.933  1.00  0.00     0.029 A 
ATOM     44  C   UNL A   1      43.640  29.092  29.793  1.00  0.00     0.049 A 
ATOM     45  H   UNL A   1      42.746  27.327  28.947  1.00  0.00     0.167 HD
ATOM     46  C   UNL A   1      38.211  32.690  30.728  1.00  0.00     0.037 A 
ATOM     47  C   UNL A   1      44.499  29.659  28.895  1.00  0.00     0.037 A 
ATOM     48  C   UNL A   1      39.574  33.159  31.006  1.00  0.00     0.049 A 
ATOM     49  C   UNL A   1      44.426  31.168  28.841  1.00  0.00     0.074 A 
ATOM     50  C   UNL A   1      40.421  33.004  32.092  1.00  0.00     0.029 A 
ATOM     51  N   UNL A   1      40.359  33.646  29.965  1.00  0.00    -0.354 N 
ATOM     52  N   UNL A   1      43.444  31.866  29.342  1.00  0.00    -0.248 NA
ATOM     53  C   UNL A   1      45.426  32.008  28.187  1.00  0.00     0.031 C 
ATOM     54  C   UNL A   1      41.736  33.327  31.675  1.00  0.00     0.029 A 
ATOM     55  C   UNL A   1      41.687  33.704  30.344  1.00  0.00     0.049 A 
ATOM     56  H   UNL A   1      40.017  33.912  29.082  1.00  0.00     0.167 HD
ATOM     57  C   UNL A   1      43.632  33.192  29.059  1.00  0.00     0.074 A 
ATOM     58  C   UNL A   1      44.902  33.234  28.359  1.00  0.00     0.031 C 
ATOM     59  C   UNL A   1      42.713  34.141  29.406  1.00  0.00     0.037 A 
BRANCH  46  60
ATOM     60  C   UNL A   1      36.996  33.135  31.532  1.00  0.00     0.057 A 
ATOM     61  C   UNL A   1      36.865  32.774  32.890  1.00  0.00     0.134 A 
ATOM     62  C   UNL A   1      35.881  33.832  31.031  1.00  0.00     0.134 A 
ATOM     63  F   UNL A   1      37.874  32.220  33.574  1.00  0.00    -0.206 F 
ATOM     64  C   UNL A   1      35.686  32.963  33.630  1.00  0.00     0.040 A 
ATOM     65  C   UNL A   1      34.682  33.995  31.742  1.00  0.00     0.040 A 
ATOM     66  F   UNL A   1      35.903  34.457  29.852  1.00  0.00    -0.206 F 
ATOM     67  C   UNL A   1      34.573  33.541  33.044  1.00  0.00     0.006 A 
ENDBRANCH  46  60
BRANCH  47  68
ATOM     68  C   UNL A   1      44.811  28.774  27.743  1.00  0.00     0.057 A 
ATOM     69  C   UNL A   1      45.724  27.722  27.933  1.00  0.00     0.134 A 
ATOM     70  C   UNL A   1      43.979  28.700  26.622  1.00  0.00     0.134 A 
ATOM     71  F   UNL A   1      46.553  27.732  28.991  1.00  0.00    -0.206 F 
ATOM     72  C   UNL A   1      45.730  26.591  27.114  1.00  0.00     0.040 A 
ATOM     73  C   UNL A   1      43.983  27.574  25.788  1.00  0.00     0.040 A 
ATOM     74  F   UNL A   1      43.064  29.652  26.387  1.00  0.00    -0.206 F 
ATOM     75  C   UNL A   1      44.832  26.500  26.057  1.00  0.00     0.006 A 
ENDBRANCH  47  68
BRANCH  59  76
ATOM     76  C   UNL A   1      42.723  35.580  28.958  1.00  0.00     0.057 A 
ATOM     77  C   UNL A   1      41.883  36.099  27.962  1.00  0.00     0.134 A 
ATOM     78  C   UNL A   1      43.498  36.536  29.651  1.00  0.00     0.134 A 
ATOM     79  F   UNL A   1      41.023  35.320  27.294  1.00  0.00    -0.206 F 
ATOM     80  C   UNL A   1      41.852  37.465  27.645  1.00  0.00     0.040 A 
ATOM     81  C   UNL A   1      43.436  37.905  29.379  1.00  0.00     0.040 A 
ATOM     82  F   UNL A   1      44.332  36.180  30.640  1.00  0.00    -0.206 F 
ATOM     83  C   UNL A   1      42.619  38.374  28.362  1.00  0.00     0.006 A 
ENDBRANCH  59  76
ENDBRANCH  33  34
ENDBRANCH  25  28
ENDBRANCH  23  24
ENDBRANCH  22  23
ENDBRANCH   1  22
TORSDOF 13
ENDMDL
