MODEL 1
REMARK VINA RESULT:     -13.0      0.000      0.000
REMARK SMILES Cc1ccc(S(=O)(=O)n2cc(C(=O)C(=O)NCC(=O)NCCCCNC(=O)c3ccc(-c4c5nc(c(-c6c(F)cccc6F)c6ccc([nH]6)c(-c6c(F)cccc6F)c6nc(c(-c7c(F)cccc7F)c7ccc4[nH]7)C=C6)C=C5)cc3)c3ccccc32)cc1
REMARK SMILES IDX 21 1 20 2 18 3 19 4 17 6 16 7 14 8 15 9 12 11 13 12 11 13
REMARK SMILES IDX 9 14 10 15 87 16 82 17 86 18 83 19 85 20 84 21 6 22 7 23
REMARK SMILES IDX 8 24 5 25 1 26 2 27 3 28 89 29 4 30 88 31 22 32 23 33 24 34
REMARK SMILES IDX 25 35 26 36 27 38 28 39 29 40 81 41 30 42 80 43 31 44 32 45
REMARK SMILES IDX 33 46 74 47 34 48 79 49 73 50 75 51 35 52 78 53 72 54 71 55
REMARK SMILES IDX 36 57 62 58 45 59 61 60 46 61 49 62 60 63 76 64 47 65 48 66
REMARK SMILES IDX 59 68 77 69 50 70 37 71 38 72 43 73 39 74 40 75 42 76 44 77
REMARK SMILES IDX 41 78 63 79 64 80 69 81 65 82 66 83 68 84 70 85 67 86 51 87
REMARK SMILES IDX 52 88 57 89 53 90 54 91 56 92 58 93 55 94
REMARK H PARENT 20 5 16 10 25 37 75 56 49 67
REMARK Flexibility Score: inf
ROOT
ATOM      1  C   UNL A   1      37.937  22.319  25.719  1.00  0.00     0.116 C 
ENDROOT
BRANCH   1   2
ATOM      2  N   UNL A   1      36.642  22.596  26.309  1.00  0.00    -0.355 N 
ATOM      3  C   UNL A   1      35.434  22.009  26.072  1.00  0.00     0.239 C 
ATOM      4  O   UNL A   1      34.474  22.369  26.756  1.00  0.00    -0.273 OA
ATOM      5  H   UNL A   1      36.634  23.316  26.982  1.00  0.00     0.163 HD
BRANCH   3   6
ATOM      6  C   UNL A   1      35.308  20.844  25.084  1.00  0.00     0.216 C 
BRANCH   6   7
ATOM      7  N   UNL A   1      34.193  19.948  25.371  1.00  0.00    -0.340 N 
ATOM      8  C   UNL A   1      32.944  19.833  24.798  1.00  0.00     0.292 C 
ATOM      9  O   UNL A   1      32.182  18.976  25.236  1.00  0.00    -0.265 OA
ATOM     10  H   UNL A   1      34.362  19.312  26.103  1.00  0.00     0.164 HD
BRANCH   8  11
ATOM     11  C   UNL A   1      32.487  20.780  23.658  1.00  0.00     0.252 C 
ATOM     12  O   UNL A   1      32.248  20.289  22.558  1.00  0.00    -0.283 OA
BRANCH  11  13
ATOM     13  C   UNL A   1      32.351  22.233  23.859  1.00  0.00     0.054 A 
ATOM     14  N   UNL A   1      32.627  24.446  23.718  1.00  0.00    -0.240 N 
ATOM     15  C   UNL A   1      32.982  23.245  23.158  1.00  0.00     0.117 A 
ATOM     16  C   UNL A   1      31.738  24.271  24.755  1.00  0.00     0.065 A 
ATOM     17  C   UNL A   1      31.552  22.886  24.870  1.00  0.00     0.012 A 
ATOM     18  C   UNL A   1      31.113  25.182  25.627  1.00  0.00     0.028 A 
ATOM     19  C   UNL A   1      30.696  22.411  25.888  1.00  0.00     0.011 A 
ATOM     20  C   UNL A   1      30.294  24.675  26.640  1.00  0.00     0.002 A 
ATOM     21  C   UNL A   1      30.082  23.309  26.767  1.00  0.00     0.001 A 
BRANCH  14  22
ATOM     22  S   UNL A   1      33.309  25.936  23.250  1.00  0.00     0.268 S 
ATOM     23  O   UNL A   1      33.703  25.746  21.858  1.00  0.00    -0.201 OA
ATOM     24  O   UNL A   1      34.267  26.275  24.274  1.00  0.00    -0.201 OA
BRANCH  22  25
ATOM     25  C   UNL A   1      32.028  27.164  23.284  1.00  0.00     0.088 A 
ATOM     26  C   UNL A   1      29.179  30.387  23.396  1.00  0.00     0.044 C 
ATOM     27  C   UNL A   1      30.158  29.250  23.367  1.00  0.00    -0.051 A 
ATOM     28  C   UNL A   1      31.251  29.247  24.242  1.00  0.00     0.005 A 
ATOM     29  C   UNL A   1      29.995  28.184  22.474  1.00  0.00     0.005 A 
ATOM     30  C   UNL A   1      32.186  28.211  24.199  1.00  0.00     0.022 A 
ATOM     31  C   UNL A   1      30.918  27.135  22.439  1.00  0.00     0.022 A 
ENDBRANCH  22  25
ENDBRANCH  14  22
ENDBRANCH  11  13
ENDBRANCH   8  11
ENDBRANCH   6   7
ENDBRANCH   3   6
ENDBRANCH   1   2
BRANCH   1  32
ATOM     32  C   UNL A   1      39.064  23.105  26.399  1.00  0.00     0.023 C 
BRANCH  32  33
ATOM     33  C   UNL A   1      40.296  22.270  26.743  1.00  0.00     0.023 C 
BRANCH  33  34
ATOM     34  C   UNL A   1      41.615  22.874  26.290  1.00  0.00     0.116 C 
BRANCH  34  35
ATOM     35  N   UNL A   1      42.398  22.022  25.403  1.00  0.00    -0.352 N 
ATOM     36  C   UNL A   1      43.710  22.144  24.970  1.00  0.00     0.251 C 
ATOM     37  H   UNL A   1      41.919  21.236  25.056  1.00  0.00     0.163 HD
ATOM     38  O   UNL A   1      44.151  21.341  24.150  1.00  0.00    -0.269 OA
BRANCH  36  39
ATOM     39  C   UNL A   1      44.645  23.091  25.637  1.00  0.00     0.039 A 
ATOM     40  C   UNL A   1      44.805  22.914  27.019  1.00  0.00     0.014 A 
ATOM     41  C   UNL A   1      44.931  24.316  25.058  1.00  0.00     0.014 A 
ATOM     42  C   UNL A   1      44.842  24.032  27.836  1.00  0.00     0.010 A 
ATOM     43  C   UNL A   1      44.789  25.424  25.848  1.00  0.00     0.010 A 
ATOM     44  C   UNL A   1      44.658  25.264  27.228  1.00  0.00    -0.014 A 
BRANCH  44  45
ATOM     45  C   UNL A   1      44.381  26.492  27.934  1.00  0.00     0.031 A 
ATOM     46  C   UNL A   1      43.015  27.007  27.840  1.00  0.00     0.074 A 
ATOM     47  C   UNL A   1      45.310  26.961  28.794  1.00  0.00     0.049 A 
ATOM     48  N   UNL A   1      42.658  28.179  28.209  1.00  0.00    -0.248 NA
ATOM     49  C   UNL A   1      41.927  26.226  27.258  1.00  0.00     0.031 C 
ATOM     50  C   UNL A   1      45.159  27.938  29.864  1.00  0.00     0.029 A 
ATOM     51  N   UNL A   1      46.694  26.762  28.707  1.00  0.00    -0.354 N 
ATOM     52  C   UNL A   1      41.282  28.208  28.211  1.00  0.00     0.074 A 
ATOM     53  C   UNL A   1      40.883  27.019  27.502  1.00  0.00     0.031 C 
ATOM     54  C   UNL A   1      46.363  28.481  30.125  1.00  0.00     0.029 A 
ATOM     55  C   UNL A   1      47.276  27.991  29.106  1.00  0.00     0.049 A 
ATOM     56  H   UNL A   1      47.164  25.943  28.429  1.00  0.00     0.167 HD
ATOM     57  C   UNL A   1      40.677  29.179  28.950  1.00  0.00     0.037 A 
ATOM     58  C   UNL A   1      47.897  28.767  28.166  1.00  0.00     0.037 A 
ATOM     59  C   UNL A   1      41.692  30.114  29.454  1.00  0.00     0.049 A 
ATOM     60  C   UNL A   1      47.189  30.089  27.907  1.00  0.00     0.074 A 
ATOM     61  C   UNL A   1      42.371  30.257  30.652  1.00  0.00     0.029 A 
ATOM     62  N   UNL A   1      42.418  30.836  28.525  1.00  0.00    -0.354 N 
ATOM     63  N   UNL A   1      46.012  30.405  28.377  1.00  0.00    -0.248 NA
ATOM     64  C   UNL A   1      47.730  31.132  27.038  1.00  0.00     0.031 C 
ATOM     65  C   UNL A   1      43.530  31.060  30.411  1.00  0.00     0.029 A 
ATOM     66  C   UNL A   1      43.534  31.428  29.076  1.00  0.00     0.049 A 
ATOM     67  H   UNL A   1      42.167  30.917  27.577  1.00  0.00     0.167 HD
ATOM     68  C   UNL A   1      45.618  31.624  27.886  1.00  0.00     0.074 A 
ATOM     69  C   UNL A   1      46.723  32.024  27.029  1.00  0.00     0.031 C 
ATOM     70  C   UNL A   1      44.410  32.193  28.196  1.00  0.00     0.037 A 
BRANCH  57  71
ATOM     71  C   UNL A   1      39.234  29.181  29.407  1.00  0.00     0.057 A 
ATOM     72  C   UNL A   1      38.217  29.531  28.497  1.00  0.00     0.134 A 
ATOM     73  C   UNL A   1      38.766  28.919  30.708  1.00  0.00     0.134 A 
ATOM     74  F   UNL A   1      38.476  29.745  27.199  1.00  0.00    -0.206 F 
ATOM     75  C   UNL A   1      36.873  29.684  28.866  1.00  0.00     0.040 A 
ATOM     76  C   UNL A   1      37.429  29.092  31.099  1.00  0.00     0.040 A 
ATOM     77  F   UNL A   1      39.549  28.440  31.675  1.00  0.00    -0.206 F 
ATOM     78  C   UNL A   1      36.476  29.486  30.178  1.00  0.00     0.006 A 
ENDBRANCH  57  71
BRANCH  58  79
ATOM     79  C   UNL A   1      48.585  27.926  27.133  1.00  0.00     0.057 A 
ATOM     80  C   UNL A   1      49.748  27.226  27.520  1.00  0.00     0.134 A 
ATOM     81  C   UNL A   1      47.907  27.446  26.011  1.00  0.00     0.134 A 
ATOM     82  F   UNL A   1      50.457  27.639  28.583  1.00  0.00    -0.206 F 
ATOM     83  C   UNL A   1      50.102  26.002  26.946  1.00  0.00     0.040 A 
ATOM     84  C   UNL A   1      48.278  26.238  25.403  1.00  0.00     0.040 A 
ATOM     85  F   UNL A   1      46.799  28.055  25.567  1.00  0.00    -0.206 F 
ATOM     86  C   UNL A   1      49.334  25.482  25.912  1.00  0.00     0.006 A 
ENDBRANCH  58  79
BRANCH  70  87
ATOM     87  C   UNL A   1      43.919  33.516  27.644  1.00  0.00     0.057 A 
ATOM     88  C   UNL A   1      43.556  34.598  28.454  1.00  0.00     0.134 A 
ATOM     89  C   UNL A   1      43.713  33.726  26.258  1.00  0.00     0.134 A 
ATOM     90  F   UNL A   1      43.538  34.490  29.790  1.00  0.00    -0.206 F 
ATOM     91  C   UNL A   1      43.155  35.833  27.924  1.00  0.00     0.040 A 
ATOM     92  C   UNL A   1      43.260  34.932  25.722  1.00  0.00     0.040 A 
ATOM     93  F   UNL A   1      43.954  32.783  25.339  1.00  0.00    -0.206 F 
ATOM     94  C   UNL A   1      43.013  36.006  26.553  1.00  0.00     0.006 A 
ENDBRANCH  70  87
ENDBRANCH  44  45
ENDBRANCH  36  39
ENDBRANCH  34  35
ENDBRANCH  33  34
ENDBRANCH  32  33
ENDBRANCH   1  32
TORSDOF 16
ENDMDL
MODEL 2
REMARK VINA RESULT:     -12.9      3.657      8.641
REMARK SMILES Cc1ccc(S(=O)(=O)n2cc(C(=O)C(=O)NCC(=O)NCCCCNC(=O)c3ccc(-c4c5nc(c(-c6c(F)cccc6F)c6ccc([nH]6)c(-c6c(F)cccc6F)c6nc(c(-c7c(F)cccc7F)c7ccc4[nH]7)C=C6)C=C5)cc3)c3ccccc32)cc1
REMARK SMILES IDX 21 1 20 2 18 3 19 4 17 6 16 7 14 8 15 9 12 11 13 12 11 13
REMARK SMILES IDX 9 14 10 15 87 16 82 17 86 18 83 19 85 20 84 21 6 22 7 23
REMARK SMILES IDX 8 24 5 25 1 26 2 27 3 28 89 29 4 30 88 31 22 32 23 33 24 34
REMARK SMILES IDX 25 35 26 36 27 38 28 39 29 40 81 41 30 42 80 43 31 44 32 45
REMARK SMILES IDX 33 46 74 47 34 48 79 49 73 50 75 51 35 52 78 53 72 54 71 55
REMARK SMILES IDX 36 57 62 58 45 59 61 60 46 61 49 62 60 63 76 64 47 65 48 66
REMARK SMILES IDX 59 68 77 69 50 70 37 71 38 72 43 73 39 74 40 75 42 76 44 77
REMARK SMILES IDX 41 78 63 79 64 80 69 81 65 82 66 83 68 84 70 85 67 86 51 87
REMARK SMILES IDX 52 88 57 89 53 90 54 91 56 92 58 93 55 94
REMARK H PARENT 20 5 16 10 25 37 75 56 49 67
REMARK Flexibility Score: inf
ROOT
ATOM      1  C   UNL A   1      33.582  28.422  27.023  1.00  0.00     0.116 C 
ENDROOT
BRANCH   1   2
ATOM      2  N   UNL A   1      33.875  28.209  25.619  1.00  0.00    -0.355 N 
ATOM      3  C   UNL A   1      33.152  28.555  24.515  1.00  0.00     0.239 C 
ATOM      4  O   UNL A   1      33.646  28.330  23.408  1.00  0.00    -0.273 OA
ATOM      5  H   UNL A   1      34.725  27.745  25.435  1.00  0.00     0.163 HD
BRANCH   3   6
ATOM      6  C   UNL A   1      31.833  29.323  24.651  1.00  0.00     0.216 C 
BRANCH   6   7
ATOM      7  N   UNL A   1      31.200  29.636  23.375  1.00  0.00    -0.340 N 
ATOM      8  C   UNL A   1      30.222  28.983  22.656  1.00  0.00     0.292 C 
ATOM      9  O   UNL A   1      29.862  29.472  21.590  1.00  0.00    -0.265 OA
ATOM     10  H   UNL A   1      31.531  30.462  22.951  1.00  0.00     0.164 HD
BRANCH   8  11
ATOM     11  C   UNL A   1      29.614  27.644  23.150  1.00  0.00     0.252 C 
ATOM     12  O   UNL A   1      28.400  27.588  23.322  1.00  0.00    -0.283 OA
BRANCH  11  13
ATOM     13  C   UNL A   1      30.451  26.463  23.425  1.00  0.00     0.054 A 
ATOM     14  N   UNL A   1      31.927  24.797  23.230  1.00  0.00    -0.240 N 
ATOM     15  C   UNL A   1      31.456  25.938  22.631  1.00  0.00     0.117 A 
ATOM     16  C   UNL A   1      31.292  24.561  24.428  1.00  0.00     0.065 A 
ATOM     17  C   UNL A   1      30.353  25.592  24.573  1.00  0.00     0.012 A 
ATOM     18  C   UNL A   1      31.417  23.529  25.377  1.00  0.00     0.028 A 
ATOM     19  C   UNL A   1      29.528  25.586  25.719  1.00  0.00     0.011 A 
ATOM     20  C   UNL A   1      30.566  23.540  26.485  1.00  0.00     0.002 A 
ATOM     21  C   UNL A   1      29.637  24.556  26.659  1.00  0.00     0.001 A 
BRANCH  14  22
ATOM     22  S   UNL A   1      33.064  23.758  22.499  1.00  0.00     0.268 S 
ATOM     23  O   UNL A   1      33.481  24.453  21.287  1.00  0.00    -0.201 OA
ATOM     24  O   UNL A   1      32.444  22.456  22.457  1.00  0.00    -0.201 OA
BRANCH  22  25
ATOM     25  C   UNL A   1      34.476  23.647  23.569  1.00  0.00     0.088 A 
ATOM     26  C   UNL A   1      38.101  23.349  25.868  1.00  0.00     0.044 C 
ATOM     27  C   UNL A   1      36.826  23.444  25.083  1.00  0.00    -0.051 A 
ATOM     28  C   UNL A   1      36.618  22.600  23.985  1.00  0.00     0.005 A 
ATOM     29  C   UNL A   1      35.832  24.366  25.432  1.00  0.00     0.005 A 
ATOM     30  C   UNL A   1      35.451  22.703  23.227  1.00  0.00     0.022 A 
ATOM     31  C   UNL A   1      34.653  24.461  24.688  1.00  0.00     0.022 A 
ENDBRANCH  22  25
ENDBRANCH  14  22
ENDBRANCH  11  13
ENDBRANCH   8  11
ENDBRANCH   6   7
ENDBRANCH   3   6
ENDBRANCH   1   2
BRANCH   1  32
ATOM     32  C   UNL A   1      34.708  29.170  27.744  1.00  0.00     0.023 C 
BRANCH  32  33
ATOM     33  C   UNL A   1      34.698  30.683  27.529  1.00  0.00     0.023 C 
BRANCH  33  34
ATOM     34  C   UNL A   1      34.885  31.502  28.795  1.00  0.00     0.116 C 
BRANCH  34  35
ATOM     35  N   UNL A   1      36.136  32.249  28.853  1.00  0.00    -0.352 N 
ATOM     36  C   UNL A   1      37.439  31.805  29.028  1.00  0.00     0.251 C 
ATOM     37  H   UNL A   1      36.041  33.223  28.753  1.00  0.00     0.163 HD
ATOM     38  O   UNL A   1      38.347  32.626  29.125  1.00  0.00    -0.269 OA
BRANCH  36  39
ATOM     39  C   UNL A   1      37.773  30.362  28.887  1.00  0.00     0.039 A 
ATOM     40  C   UNL A   1      37.808  29.627  30.081  1.00  0.00     0.014 A 
ATOM     41  C   UNL A   1      38.463  29.909  27.774  1.00  0.00     0.014 A 
ATOM     42  C   UNL A   1      38.829  28.710  30.271  1.00  0.00     0.010 A 
ATOM     43  C   UNL A   1      39.575  29.143  28.002  1.00  0.00     0.010 A 
ATOM     44  C   UNL A   1      39.792  28.621  29.278  1.00  0.00    -0.014 A 
BRANCH  44  45
ATOM     45  C   UNL A   1      41.061  27.949  29.425  1.00  0.00     0.031 A 
ATOM     46  C   UNL A   1      41.101  26.538  29.040  1.00  0.00     0.074 A 
ATOM     47  C   UNL A   1      42.154  28.694  29.690  1.00  0.00     0.049 A 
ATOM     48  N   UNL A   1      42.066  25.743  29.312  1.00  0.00    -0.248 NA
ATOM     49  C   UNL A   1      39.997  25.890  28.339  1.00  0.00     0.031 C 
ATOM     50  C   UNL A   1      43.560  28.344  29.540  1.00  0.00     0.029 A 
ATOM     51  N   UNL A   1      42.179  29.914  30.378  1.00  0.00    -0.354 N 
ATOM     52  C   UNL A   1      41.872  24.595  28.580  1.00  0.00     0.074 A 
ATOM     53  C   UNL A   1      40.521  24.689  28.089  1.00  0.00     0.031 C 
ATOM     54  C   UNL A   1      44.289  29.128  30.357  1.00  0.00     0.029 A 
ATOM     55  C   UNL A   1      43.348  29.872  31.177  1.00  0.00     0.049 A 
ATOM     56  H   UNL A   1      41.523  30.645  30.320  1.00  0.00     0.167 HD
ATOM     57  C   UNL A   1      42.953  23.790  28.377  1.00  0.00     0.037 A 
ATOM     58  C   UNL A   1      43.221  29.753  32.534  1.00  0.00     0.037 A 
ATOM     59  C   UNL A   1      44.084  24.280  29.176  1.00  0.00     0.049 A 
ATOM     60  C   UNL A   1      43.749  28.434  33.080  1.00  0.00     0.074 A 
ATOM     61  C   UNL A   1      45.190  25.070  28.911  1.00  0.00     0.029 A 
ATOM     62  N   UNL A   1      43.947  24.278  30.551  1.00  0.00    -0.354 N 
ATOM     63  N   UNL A   1      44.122  27.422  32.343  1.00  0.00    -0.248 NA
ATOM     64  C   UNL A   1      43.832  28.133  34.507  1.00  0.00     0.031 C 
ATOM     65  C   UNL A   1      45.694  25.558  30.158  1.00  0.00     0.029 A 
ATOM     66  C   UNL A   1      44.913  25.038  31.176  1.00  0.00     0.049 A 
ATOM     67  H   UNL A   1      43.239  23.791  31.031  1.00  0.00     0.167 HD
ATOM     68  C   UNL A   1      44.458  26.356  33.139  1.00  0.00     0.074 A 
ATOM     69  C   UNL A   1      44.232  26.848  34.488  1.00  0.00     0.031 C 
ATOM     70  C   UNL A   1      44.865  25.150  32.629  1.00  0.00     0.037 A 
BRANCH  57  71
ATOM     71  C   UNL A   1      43.076  22.715  27.319  1.00  0.00     0.057 A 
ATOM     72  C   UNL A   1      42.244  21.579  27.381  1.00  0.00     0.134 A 
ATOM     73  C   UNL A   1      44.004  22.681  26.261  1.00  0.00     0.134 A 
ATOM     74  F   UNL A   1      41.258  21.477  28.283  1.00  0.00    -0.206 F 
ATOM     75  C   UNL A   1      42.379  20.479  26.522  1.00  0.00     0.040 A 
ATOM     76  C   UNL A   1      44.167  21.578  25.409  1.00  0.00     0.040 A 
ATOM     77  F   UNL A   1      44.782  23.718  25.950  1.00  0.00    -0.206 F 
ATOM     78  C   UNL A   1      43.358  20.465  25.543  1.00  0.00     0.006 A 
ENDBRANCH  57  71
BRANCH  58  79
ATOM     79  C   UNL A   1      42.012  30.486  33.035  1.00  0.00     0.057 A 
ATOM     80  C   UNL A   1      40.884  29.722  33.404  1.00  0.00     0.134 A 
ATOM     81  C   UNL A   1      42.107  31.769  33.578  1.00  0.00     0.134 A 
ATOM     82  F   UNL A   1      40.722  28.484  32.911  1.00  0.00    -0.206 F 
ATOM     83  C   UNL A   1      40.008  30.134  34.411  1.00  0.00     0.040 A 
ATOM     84  C   UNL A   1      41.210  32.206  34.561  1.00  0.00     0.040 A 
ATOM     85  F   UNL A   1      43.140  32.566  33.274  1.00  0.00    -0.206 F 
ATOM     86  C   UNL A   1      40.200  31.364  35.026  1.00  0.00     0.006 A 
ENDBRANCH  58  79
BRANCH  70  87
ATOM     87  C   UNL A   1      45.204  23.935  33.469  1.00  0.00     0.057 A 
ATOM     88  C   UNL A   1      44.249  23.001  33.886  1.00  0.00     0.134 A 
ATOM     89  C   UNL A   1      46.510  23.701  33.965  1.00  0.00     0.134 A 
ATOM     90  F   UNL A   1      42.945  23.182  33.635  1.00  0.00    -0.206 F 
ATOM     91  C   UNL A   1      44.589  21.853  34.618  1.00  0.00     0.040 A 
ATOM     92  C   UNL A   1      46.850  22.592  34.742  1.00  0.00     0.040 A 
ATOM     93  F   UNL A   1      47.539  24.520  33.713  1.00  0.00    -0.206 F 
ATOM     94  C   UNL A   1      45.894  21.642  35.042  1.00  0.00     0.006 A 
ENDBRANCH  70  87
ENDBRANCH  44  45
ENDBRANCH  36  39
ENDBRANCH  34  35
ENDBRANCH  33  34
ENDBRANCH  32  33
ENDBRANCH   1  32
TORSDOF 16
ENDMDL
MODEL 3
REMARK VINA RESULT:     -12.9      4.282      9.587
REMARK SMILES Cc1ccc(S(=O)(=O)n2cc(C(=O)C(=O)NCC(=O)NCCCCNC(=O)c3ccc(-c4c5nc(c(-c6c(F)cccc6F)c6ccc([nH]6)c(-c6c(F)cccc6F)c6nc(c(-c7c(F)cccc7F)c7ccc4[nH]7)C=C6)C=C5)cc3)c3ccccc32)cc1
REMARK SMILES IDX 21 1 20 2 18 3 19 4 17 6 16 7 14 8 15 9 12 11 13 12 11 13
REMARK SMILES IDX 9 14 10 15 87 16 82 17 86 18 83 19 85 20 84 21 6 22 7 23
REMARK SMILES IDX 8 24 5 25 1 26 2 27 3 28 89 29 4 30 88 31 22 32 23 33 24 34
REMARK SMILES IDX 25 35 26 36 27 38 28 39 29 40 81 41 30 42 80 43 31 44 32 45
REMARK SMILES IDX 33 46 74 47 34 48 79 49 73 50 75 51 35 52 78 53 72 54 71 55
REMARK SMILES IDX 36 57 62 58 45 59 61 60 46 61 49 62 60 63 76 64 47 65 48 66
REMARK SMILES IDX 59 68 77 69 50 70 37 71 38 72 43 73 39 74 40 75 42 76 44 77
REMARK SMILES IDX 41 78 63 79 64 80 69 81 65 82 66 83 68 84 70 85 67 86 51 87
REMARK SMILES IDX 52 88 57 89 53 90 54 91 56 92 58 93 55 94
REMARK H PARENT 20 5 16 10 25 37 75 56 49 67
REMARK Flexibility Score: inf
ROOT
ATOM      1  C   UNL A   1      33.523  29.639  27.122  1.00  0.00     0.116 C 
ENDROOT
BRANCH   1   2
ATOM      2  N   UNL A   1      33.794  29.406  25.717  1.00  0.00    -0.355 N 
ATOM      3  C   UNL A   1      32.928  29.305  24.668  1.00  0.00     0.239 C 
ATOM      4  O   UNL A   1      33.403  29.174  23.538  1.00  0.00    -0.273 OA
ATOM      5  H   UNL A   1      34.747  29.305  25.485  1.00  0.00     0.163 HD
BRANCH   3   6
ATOM      6  C   UNL A   1      31.420  29.487  24.875  1.00  0.00     0.216 C 
BRANCH   6   7
ATOM      7  N   UNL A   1      30.674  29.670  23.635  1.00  0.00    -0.340 N 
ATOM      8  C   UNL A   1      29.762  28.861  22.990  1.00  0.00     0.292 C 
ATOM      9  O   UNL A   1      29.271  29.265  21.941  1.00  0.00    -0.265 OA
ATOM     10  H   UNL A   1      30.854  30.523  23.178  1.00  0.00     0.164 HD
BRANCH   8  11
ATOM     11  C   UNL A   1      29.389  27.462  23.545  1.00  0.00     0.252 C 
ATOM     12  O   UNL A   1      28.206  27.226  23.771  1.00  0.00    -0.283 OA
BRANCH  11  13
ATOM     13  C   UNL A   1      30.409  26.434  23.814  1.00  0.00     0.054 A 
ATOM     14  N   UNL A   1      31.753  24.973  24.841  1.00  0.00    -0.240 N 
ATOM     15  C   UNL A   1      30.681  25.810  25.020  1.00  0.00     0.117 A 
ATOM     16  C   UNL A   1      32.186  24.986  23.534  1.00  0.00     0.065 A 
ATOM     17  C   UNL A   1      31.360  25.902  22.866  1.00  0.00     0.012 A 
ATOM     18  C   UNL A   1      33.239  24.318  22.881  1.00  0.00     0.028 A 
ATOM     19  C   UNL A   1      31.599  26.137  21.494  1.00  0.00     0.011 A 
ATOM     20  C   UNL A   1      33.464  24.596  21.531  1.00  0.00     0.002 A 
ATOM     21  C   UNL A   1      32.653  25.489  20.843  1.00  0.00     0.001 A 
BRANCH  14  22
ATOM     22  S   UNL A   1      32.509  24.134  26.118  1.00  0.00     0.268 S 
ATOM     23  O   UNL A   1      31.486  24.027  27.152  1.00  0.00    -0.201 OA
ATOM     24  O   UNL A   1      33.762  24.810  26.352  1.00  0.00    -0.201 OA
BRANCH  22  25
ATOM     25  C   UNL A   1      32.880  22.493  25.555  1.00  0.00     0.088 A 
ATOM     26  C   UNL A   1      34.006  18.484  24.466  1.00  0.00     0.044 C 
ATOM     27  C   UNL A   1      33.610  19.887  24.825  1.00  0.00    -0.051 A 
ATOM     28  C   UNL A   1      34.586  20.807  25.225  1.00  0.00     0.005 A 
ATOM     29  C   UNL A   1      32.272  20.294  24.764  1.00  0.00     0.005 A 
ATOM     30  C   UNL A   1      34.224  22.104  25.594  1.00  0.00     0.022 A 
ATOM     31  C   UNL A   1      31.905  21.596  25.115  1.00  0.00     0.022 A 
ENDBRANCH  22  25
ENDBRANCH  14  22
ENDBRANCH  11  13
ENDBRANCH   8  11
ENDBRANCH   6   7
ENDBRANCH   3   6
ENDBRANCH   1   2
BRANCH   1  32
ATOM     32  C   UNL A   1      33.660  31.118  27.501  1.00  0.00     0.023 C 
BRANCH  32  33
ATOM     33  C   UNL A   1      35.058  31.523  27.966  1.00  0.00     0.023 C 
BRANCH  33  34
ATOM     34  C   UNL A   1      35.182  31.760  29.462  1.00  0.00     0.116 C 
BRANCH  34  35
ATOM     35  N   UNL A   1      34.297  32.792  29.987  1.00  0.00    -0.352 N 
ATOM     36  C   UNL A   1      34.403  33.569  31.132  1.00  0.00     0.251 C 
ATOM     37  H   UNL A   1      33.495  32.965  29.443  1.00  0.00     0.163 HD
ATOM     38  O   UNL A   1      33.489  34.335  31.427  1.00  0.00    -0.269 OA
BRANCH  36  39
ATOM     39  C   UNL A   1      35.686  33.642  31.882  1.00  0.00     0.039 A 
ATOM     40  C   UNL A   1      36.718  34.354  31.252  1.00  0.00     0.014 A 
ATOM     41  C   UNL A   1      35.987  32.697  32.849  1.00  0.00     0.014 A 
ATOM     42  C   UNL A   1      38.003  33.838  31.288  1.00  0.00     0.010 A 
ATOM     43  C   UNL A   1      37.203  32.077  32.754  1.00  0.00     0.010 A 
ATOM     44  C   UNL A   1      38.174  32.608  31.903  1.00  0.00    -0.014 A 
BRANCH  44  45
ATOM     45  C   UNL A   1      39.359  31.792  31.789  1.00  0.00     0.031 A 
ATOM     46  C   UNL A   1      39.230  30.556  31.016  1.00  0.00     0.074 A 
ATOM     47  C   UNL A   1      40.535  32.310  32.200  1.00  0.00     0.049 A 
ATOM     48  N   UNL A   1      40.102  29.620  31.002  1.00  0.00    -0.248 NA
ATOM     49  C   UNL A   1      38.047  30.259  30.215  1.00  0.00     0.031 C 
ATOM     50  C   UNL A   1      41.889  31.872  31.886  1.00  0.00     0.029 A 
ATOM     51  N   UNL A   1      40.712  33.269  33.206  1.00  0.00    -0.354 N 
ATOM     52  C   UNL A   1      39.763  28.759  29.983  1.00  0.00     0.074 A 
ATOM     53  C   UNL A   1      38.424  29.133  29.609  1.00  0.00     0.031 C 
ATOM     54  C   UNL A   1      42.717  32.304  32.856  1.00  0.00     0.029 A 
ATOM     55  C   UNL A   1      41.883  32.875  33.899  1.00  0.00     0.049 A 
ATOM     56  H   UNL A   1      40.144  34.051  33.391  1.00  0.00     0.167 HD
ATOM     57  C   UNL A   1      40.740  27.938  29.506  1.00  0.00     0.037 A 
ATOM     58  C   UNL A   1      41.766  32.384  35.171  1.00  0.00     0.037 A 
ATOM     59  C   UNL A   1      41.934  28.054  30.354  1.00  0.00     0.049 A 
ATOM     60  C   UNL A   1      42.149  30.915  35.292  1.00  0.00     0.074 A 
ATOM     61  C   UNL A   1      43.119  28.766  30.270  1.00  0.00     0.029 A 
ATOM     62  N   UNL A   1      41.822  27.670  31.677  1.00  0.00    -0.354 N 
ATOM     63  N   UNL A   1      42.390  30.126  34.279  1.00  0.00    -0.248 NA
ATOM     64  C   UNL A   1      42.221  30.208  36.568  1.00  0.00     0.031 C 
ATOM     65  C   UNL A   1      43.698  28.817  31.577  1.00  0.00     0.029 A 
ATOM     66  C   UNL A   1      42.881  28.111  32.443  1.00  0.00     0.049 A 
ATOM     67  H   UNL A   1      41.071  27.142  32.032  1.00  0.00     0.167 HD
ATOM     68  C   UNL A   1      42.614  28.846  34.721  1.00  0.00     0.074 A 
ATOM     69  C   UNL A   1      42.470  28.948  36.164  1.00  0.00     0.031 C 
ATOM     70  C   UNL A   1      42.871  27.803  33.869  1.00  0.00     0.037 A 
BRANCH  57  71
ATOM     71  C   UNL A   1      40.721  27.207  28.181  1.00  0.00     0.057 A 
ATOM     72  C   UNL A   1      40.016  25.993  28.067  1.00  0.00     0.134 A 
ATOM     73  C   UNL A   1      41.401  27.581  27.006  1.00  0.00     0.134 A 
ATOM     74  F   UNL A   1      39.257  25.522  29.067  1.00  0.00    -0.206 F 
ATOM     75  C   UNL A   1      40.051  25.187  26.920  1.00  0.00     0.040 A 
ATOM     76  C   UNL A   1      41.466  26.774  25.859  1.00  0.00     0.040 A 
ATOM     77  F   UNL A   1      42.008  28.760  26.868  1.00  0.00    -0.206 F 
ATOM     78  C   UNL A   1      40.796  25.566  25.815  1.00  0.00     0.006 A 
ENDBRANCH  57  71
BRANCH  58  79
ATOM     79  C   UNL A   1      40.659  33.064  35.920  1.00  0.00     0.057 A 
ATOM     80  C   UNL A   1      39.454  32.352  36.105  1.00  0.00     0.134 A 
ATOM     81  C   UNL A   1      40.912  34.113  36.806  1.00  0.00     0.134 A 
ATOM     82  F   UNL A   1      39.141  31.339  35.282  1.00  0.00    -0.206 F 
ATOM     83  C   UNL A   1      38.646  32.543  37.228  1.00  0.00     0.040 A 
ATOM     84  C   UNL A   1      40.085  34.337  37.915  1.00  0.00     0.040 A 
ATOM     85  F   UNL A   1      42.027  34.847  36.698  1.00  0.00    -0.206 F 
ATOM     86  C   UNL A   1      38.990  33.510  38.164  1.00  0.00     0.006 A 
ENDBRANCH  58  79
BRANCH  70  87
ATOM     87  C   UNL A   1      43.082  26.369  34.310  1.00  0.00     0.057 A 
ATOM     88  C   UNL A   1      44.257  25.653  34.052  1.00  0.00     0.134 A 
ATOM     89  C   UNL A   1      42.066  25.618  34.950  1.00  0.00     0.134 A 
ATOM     90  F   UNL A   1      45.241  26.177  33.308  1.00  0.00    -0.206 F 
ATOM     91  C   UNL A   1      44.457  24.344  34.514  1.00  0.00     0.040 A 
ATOM     92  C   UNL A   1      42.232  24.296  35.365  1.00  0.00     0.040 A 
ATOM     93  F   UNL A   1      40.857  26.123  35.227  1.00  0.00    -0.206 F 
ATOM     94  C   UNL A   1      43.446  23.663  35.180  1.00  0.00     0.006 A 
ENDBRANCH  70  87
ENDBRANCH  44  45
ENDBRANCH  36  39
ENDBRANCH  34  35
ENDBRANCH  33  34
ENDBRANCH  32  33
ENDBRANCH   1  32
TORSDOF 16
ENDMDL
