MODEL 1
REMARK VINA RESULT:     -11.7      0.000      0.000
REMARK SMILES O=C(Cc1cccn1-c1ccccc1F)NCCCCNC(=O)c1ccc(-c2c3nc(c(-c4c(F)cccc4F)c4ccc([nH]4)c(-c4c(F)cccc4F)c4nc(c(-c5c(F)cccc5F)c5ccc2[nH]5)C=C4)C=C3)cc1
REMARK SMILES IDX 18 1 17 2 16 3 1 4 2 5 3 7 4 8 5 9 8 10 6 11 7 12 9 13 10 14
REMARK SMILES IDX 14 15 11 16 13 17 15 18 12 19 19 20 20 21 21 22 22 23 23 25
REMARK SMILES IDX 24 26 25 27 77 28 26 29 76 30 27 31 28 32 29 33 70 34 30 35
REMARK SMILES IDX 75 36 69 37 71 38 31 39 74 40 68 41 67 42 32 44 58 45 41 46
REMARK SMILES IDX 57 47 42 48 45 49 56 50 72 51 43 52 44 53 55 55 73 56 46 57
REMARK SMILES IDX 33 58 34 59 39 60 35 61 36 62 38 63 40 64 37 65 59 66 60 67
REMARK SMILES IDX 65 68 61 69 62 70 64 71 66 72 63 73 47 74 48 75 53 76 49 77
REMARK SMILES IDX 50 78 52 79 54 80 51 81
REMARK H PARENT 16 6 21 24 71 43 45 54
REMARK Flexibility Score: inf
ROOT
ATOM      1  C   UNL A   1      32.246  27.749  27.159  1.00  0.00     0.023 C 
ENDROOT
BRANCH   1   2
ATOM      2  C   UNL A   1      31.494  26.608  26.469  1.00  0.00     0.116 C 
BRANCH   2   3
ATOM      3  N   UNL A   1      32.302  25.412  26.331  1.00  0.00    -0.356 N 
ATOM      4  O   UNL A   1      30.742  23.965  27.196  1.00  0.00    -0.275 OA
ATOM      5  C   UNL A   1      31.845  24.157  26.689  1.00  0.00     0.225 C 
ATOM      6  H   UNL A   1      33.213  25.496  25.968  1.00  0.00     0.163 HD
BRANCH   5   7
ATOM      7  C   UNL A   1      32.828  23.024  26.412  1.00  0.00     0.154 C 
BRANCH   7   8
ATOM      8  C   UNL A   1      33.002  22.822  24.932  1.00  0.00     0.032 A 
ATOM      9  C   UNL A   1      31.996  22.751  23.979  1.00  0.00     0.024 A 
ATOM     10  N   UNL A   1      34.218  22.780  24.257  1.00  0.00    -0.318 N 
ATOM     11  C   UNL A   1      32.595  22.768  22.705  1.00  0.00     0.020 A 
ATOM     12  C   UNL A   1      33.953  22.846  22.901  1.00  0.00     0.091 A 
BRANCH  10  13
ATOM     13  C   UNL A   1      35.527  22.731  24.793  1.00  0.00     0.081 A 
ATOM     14  C   UNL A   1      36.252  21.534  24.726  1.00  0.00     0.030 A 
ATOM     15  C   UNL A   1      36.095  23.848  25.407  1.00  0.00     0.147 A 
ATOM     16  C   UNL A   1      37.554  21.487  25.227  1.00  0.00     0.002 A 
ATOM     17  C   UNL A   1      37.394  23.798  25.906  1.00  0.00     0.041 A 
ATOM     18  F   UNL A   1      35.397  24.977  25.586  1.00  0.00    -0.205 F 
ATOM     19  C   UNL A   1      38.128  22.618  25.810  1.00  0.00     0.003 A 
ENDBRANCH  10  13
ENDBRANCH   7   8
ENDBRANCH   5   7
ENDBRANCH   2   3
ENDBRANCH   1   2
BRANCH   1  20
ATOM     20  C   UNL A   1      33.228  28.532  26.275  1.00  0.00     0.023 C 
BRANCH  20  21
ATOM     21  C   UNL A   1      34.630  28.703  26.861  1.00  0.00     0.116 C 
BRANCH  21  22
ATOM     22  N   UNL A   1      35.012  30.096  26.980  1.00  0.00    -0.352 N 
ATOM     23  C   UNL A   1      36.040  30.645  27.712  1.00  0.00     0.251 C 
ATOM     24  H   UNL A   1      34.464  30.735  26.470  1.00  0.00     0.163 HD
ATOM     25  O   UNL A   1      35.966  31.823  28.046  1.00  0.00    -0.269 OA
BRANCH  23  26
ATOM     26  C   UNL A   1      37.227  29.851  28.114  1.00  0.00     0.039 A 
ATOM     27  C   UNL A   1      38.330  29.834  27.248  1.00  0.00     0.014 A 
ATOM     28  C   UNL A   1      37.230  29.037  29.253  1.00  0.00     0.014 A 
ATOM     29  C   UNL A   1      39.443  29.049  27.544  1.00  0.00     0.010 A 
ATOM     30  C   UNL A   1      38.351  28.267  29.567  1.00  0.00     0.010 A 
ATOM     31  C   UNL A   1      39.463  28.280  28.717  1.00  0.00    -0.014 A 
BRANCH  31  32
ATOM     32  C   UNL A   1      40.744  27.641  29.119  1.00  0.00     0.031 A 
ATOM     33  C   UNL A   1      41.063  26.407  28.243  1.00  0.00     0.074 A 
ATOM     34  C   UNL A   1      41.416  28.187  30.178  1.00  0.00     0.049 A 
ATOM     35  N   UNL A   1      41.766  25.346  28.497  1.00  0.00    -0.248 NA
ATOM     36  C   UNL A   1      40.446  26.319  26.890  1.00  0.00     0.031 C 
ATOM     37  C   UNL A   1      41.009  29.420  30.884  1.00  0.00     0.029 A 
ATOM     38  N   UNL A   1      42.557  27.840  30.881  1.00  0.00    -0.354 N 
ATOM     39  C   UNL A   1      41.827  24.573  27.312  1.00  0.00     0.074 A 
ATOM     40  C   UNL A   1      40.911  25.172  26.393  1.00  0.00     0.031 C 
ATOM     41  C   UNL A   1      41.818  29.665  31.937  1.00  0.00     0.029 A 
ATOM     42  C   UNL A   1      42.831  28.632  32.032  1.00  0.00     0.049 A 
ATOM     43  H   UNL A   1      43.139  27.095  30.605  1.00  0.00     0.167 HD
ATOM     44  C   UNL A   1      42.716  23.550  27.124  1.00  0.00     0.037 A 
ATOM     45  C   UNL A   1      43.767  28.440  33.017  1.00  0.00     0.037 A 
ATOM     46  C   UNL A   1      43.464  23.336  28.313  1.00  0.00     0.049 A 
ATOM     47  C   UNL A   1      44.574  27.299  32.566  1.00  0.00     0.074 A 
ATOM     48  C   UNL A   1      43.132  22.811  29.533  1.00  0.00     0.029 A 
ATOM     49  N   UNL A   1      44.644  24.023  28.424  1.00  0.00    -0.354 N 
ATOM     50  N   UNL A   1      45.457  27.337  31.613  1.00  0.00    -0.248 NA
ATOM     51  C   UNL A   1      44.316  25.985  33.172  1.00  0.00     0.031 C 
ATOM     52  C   UNL A   1      43.859  23.611  30.439  1.00  0.00     0.029 A 
ATOM     53  C   UNL A   1      44.750  24.425  29.730  1.00  0.00     0.049 A 
ATOM     54  H   UNL A   1      45.293  24.196  27.703  1.00  0.00     0.167 HD
ATOM     55  C   UNL A   1      45.595  26.007  31.298  1.00  0.00     0.074 A 
ATOM     56  C   UNL A   1      45.157  25.252  32.449  1.00  0.00     0.031 C 
ATOM     57  C   UNL A   1      45.515  25.615  30.004  1.00  0.00     0.037 A 
BRANCH  44  58
ATOM     58  C   UNL A   1      43.180  22.823  25.889  1.00  0.00     0.057 A 
ATOM     59  C   UNL A   1      43.833  23.442  24.818  1.00  0.00     0.134 A 
ATOM     60  C   UNL A   1      43.290  21.411  25.935  1.00  0.00     0.134 A 
ATOM     61  F   UNL A   1      43.823  24.774  24.671  1.00  0.00    -0.206 F 
ATOM     62  C   UNL A   1      44.609  22.716  23.903  1.00  0.00     0.040 A 
ATOM     63  C   UNL A   1      44.098  20.684  25.057  1.00  0.00     0.040 A 
ATOM     64  F   UNL A   1      42.673  20.697  26.892  1.00  0.00    -0.206 F 
ATOM     65  C   UNL A   1      44.777  21.341  24.044  1.00  0.00     0.006 A 
ENDBRANCH  44  58
BRANCH  45  66
ATOM     66  C   UNL A   1      44.093  28.973  34.401  1.00  0.00     0.057 A 
ATOM     67  C   UNL A   1      43.125  28.890  35.448  1.00  0.00     0.134 A 
ATOM     68  C   UNL A   1      45.256  29.647  34.780  1.00  0.00     0.134 A 
ATOM     69  F   UNL A   1      42.020  28.141  35.337  1.00  0.00    -0.206 F 
ATOM     70  C   UNL A   1      43.219  29.567  36.668  1.00  0.00     0.040 A 
ATOM     71  C   UNL A   1      45.387  30.294  36.030  1.00  0.00     0.040 A 
ATOM     72  F   UNL A   1      46.326  29.698  33.981  1.00  0.00    -0.206 F 
ATOM     73  C   UNL A   1      44.351  30.297  36.958  1.00  0.00     0.006 A 
ENDBRANCH  45  66
BRANCH  57  74
ATOM     74  C   UNL A   1      45.910  26.663  28.991  1.00  0.00     0.057 A 
ATOM     75  C   UNL A   1      45.004  27.387  28.201  1.00  0.00     0.134 A 
ATOM     76  C   UNL A   1      47.257  27.015  28.855  1.00  0.00     0.134 A 
ATOM     77  F   UNL A   1      43.695  27.154  28.274  1.00  0.00    -0.206 F 
ATOM     78  C   UNL A   1      45.409  28.388  27.310  1.00  0.00     0.040 A 
ATOM     79  C   UNL A   1      47.679  28.020  27.974  1.00  0.00     0.040 A 
ATOM     80  F   UNL A   1      48.194  26.379  29.573  1.00  0.00    -0.206 F 
ATOM     81  C   UNL A   1      46.754  28.708  27.194  1.00  0.00     0.006 A 
ENDBRANCH  57  74
ENDBRANCH  31  32
ENDBRANCH  23  26
ENDBRANCH  21  22
ENDBRANCH  20  21
ENDBRANCH   1  20
TORSDOF 13
ENDMDL
MODEL 2
REMARK VINA RESULT:     -11.6      2.050      2.468
REMARK SMILES O=C(Cc1cccn1-c1ccccc1F)NCCCCNC(=O)c1ccc(-c2c3nc(c(-c4c(F)cccc4F)c4ccc([nH]4)c(-c4c(F)cccc4F)c4nc(c(-c5c(F)cccc5F)c5ccc2[nH]5)C=C4)C=C3)cc1
REMARK SMILES IDX 18 1 17 2 16 3 1 4 2 5 3 7 4 8 5 9 8 10 6 11 7 12 9 13 10 14
REMARK SMILES IDX 14 15 11 16 13 17 15 18 12 19 19 20 20 21 21 22 22 23 23 25
REMARK SMILES IDX 24 26 25 27 77 28 26 29 76 30 27 31 28 32 29 33 70 34 30 35
REMARK SMILES IDX 75 36 69 37 71 38 31 39 74 40 68 41 67 42 32 44 58 45 41 46
REMARK SMILES IDX 57 47 42 48 45 49 56 50 72 51 43 52 44 53 55 55 73 56 46 57
REMARK SMILES IDX 33 58 34 59 39 60 35 61 36 62 38 63 40 64 37 65 59 66 60 67
REMARK SMILES IDX 65 68 61 69 62 70 64 71 66 72 63 73 47 74 48 75 53 76 49 77
REMARK SMILES IDX 50 78 52 79 54 80 51 81
REMARK H PARENT 16 6 21 24 71 43 45 54
REMARK Flexibility Score: inf
ROOT
ATOM      1  C   UNL A   1      32.280  29.194  26.728  1.00  0.00     0.023 C 
ENDROOT
BRANCH   1   2
ATOM      2  C   UNL A   1      32.039  29.228  25.217  1.00  0.00     0.116 C 
BRANCH   2   3
ATOM      3  N   UNL A   1      32.530  28.040  24.547  1.00  0.00    -0.356 N 
ATOM      4  O   UNL A   1      32.299  28.854  22.412  1.00  0.00    -0.275 OA
ATOM      5  C   UNL A   1      32.647  27.954  23.172  1.00  0.00     0.225 C 
ATOM      6  H   UNL A   1      32.791  27.264  25.092  1.00  0.00     0.163 HD
BRANCH   5   7
ATOM      7  C   UNL A   1      33.238  26.639  22.669  1.00  0.00     0.154 C 
BRANCH   7   8
ATOM      8  C   UNL A   1      32.405  25.474  23.128  1.00  0.00     0.032 A 
ATOM      9  C   UNL A   1      31.028  25.345  23.024  1.00  0.00     0.024 A 
ATOM     10  N   UNL A   1      32.898  24.278  23.640  1.00  0.00    -0.318 N 
ATOM     11  C   UNL A   1      30.682  24.027  23.378  1.00  0.00     0.020 A 
ATOM     12  C   UNL A   1      31.850  23.377  23.694  1.00  0.00     0.091 A 
BRANCH  10  13
ATOM     13  C   UNL A   1      34.225  23.953  24.011  1.00  0.00     0.081 A 
ATOM     14  C   UNL A   1      35.007  23.175  23.148  1.00  0.00     0.030 A 
ATOM     15  C   UNL A   1      34.755  24.378  25.229  1.00  0.00     0.147 A 
ATOM     16  C   UNL A   1      36.326  22.876  23.493  1.00  0.00     0.002 A 
ATOM     17  C   UNL A   1      36.071  24.077  25.572  1.00  0.00     0.041 A 
ATOM     18  F   UNL A   1      34.006  25.032  26.127  1.00  0.00    -0.205 F 
ATOM     19  C   UNL A   1      36.861  23.331  24.700  1.00  0.00     0.003 A 
ENDBRANCH  10  13
ENDBRANCH   7   8
ENDBRANCH   5   7
ENDBRANCH   2   3
ENDBRANCH   1   2
BRANCH   1  20
ATOM     20  C   UNL A   1      33.377  28.231  27.208  1.00  0.00     0.023 C 
BRANCH  20  21
ATOM     21  C   UNL A   1      34.805  28.657  26.864  1.00  0.00     0.116 C 
BRANCH  21  22
ATOM     22  N   UNL A   1      35.087  30.020  27.271  1.00  0.00    -0.352 N 
ATOM     23  C   UNL A   1      36.096  30.482  28.083  1.00  0.00     0.251 C 
ATOM     24  H   UNL A   1      34.476  30.706  26.918  1.00  0.00     0.163 HD
ATOM     25  O   UNL A   1      35.947  31.553  28.662  1.00  0.00    -0.269 OA
BRANCH  23  26
ATOM     26  C   UNL A   1      37.352  29.718  28.286  1.00  0.00     0.039 A 
ATOM     27  C   UNL A   1      38.291  29.711  27.245  1.00  0.00     0.014 A 
ATOM     28  C   UNL A   1      37.566  28.921  29.417  1.00  0.00     0.014 A 
ATOM     29  C   UNL A   1      39.455  28.953  27.355  1.00  0.00     0.010 A 
ATOM     30  C   UNL A   1      38.741  28.178  29.543  1.00  0.00     0.010 A 
ATOM     31  C   UNL A   1      39.693  28.202  28.515  1.00  0.00    -0.014 A 
BRANCH  31  32
ATOM     32  C   UNL A   1      41.037  27.594  28.701  1.00  0.00     0.031 A 
ATOM     33  C   UNL A   1      41.050  26.106  28.280  1.00  0.00     0.074 A 
ATOM     34  C   UNL A   1      42.022  28.388  29.222  1.00  0.00     0.049 A 
ATOM     35  N   UNL A   1      41.802  25.122  28.668  1.00  0.00    -0.248 NA
ATOM     36  C   UNL A   1      40.018  25.631  27.317  1.00  0.00     0.031 C 
ATOM     37  C   UNL A   1      41.868  29.827  29.521  1.00  0.00     0.029 A 
ATOM     38  N   UNL A   1      43.333  28.172  29.608  1.00  0.00    -0.354 N 
ATOM     39  C   UNL A   1      41.468  23.987  27.889  1.00  0.00     0.074 A 
ATOM     40  C   UNL A   1      40.295  24.337  27.150  1.00  0.00     0.031 C 
ATOM     41  C   UNL A   1      42.981  30.322  30.104  1.00  0.00     0.029 A 
ATOM     42  C   UNL A   1      43.972  29.273  30.246  1.00  0.00     0.049 A 
ATOM     43  H   UNL A   1      43.793  27.315  29.454  1.00  0.00     0.167 HD
ATOM     44  C   UNL A   1      42.247  22.865  27.817  1.00  0.00     0.037 A 
ATOM     45  C   UNL A   1      45.184  29.323  30.887  1.00  0.00     0.037 A 
ATOM     46  C   UNL A   1      43.350  22.987  28.705  1.00  0.00     0.049 A 
ATOM     47  C   UNL A   1      45.799  28.009  30.653  1.00  0.00     0.074 A 
ATOM     48  C   UNL A   1      43.448  22.955  30.070  1.00  0.00     0.029 A 
ATOM     49  N   UNL A   1      44.497  23.527  28.184  1.00  0.00    -0.354 N 
ATOM     50  N   UNL A   1      46.314  27.614  29.527  1.00  0.00    -0.248 NA
ATOM     51  C   UNL A   1      45.763  27.024  31.743  1.00  0.00     0.031 C 
ATOM     52  C   UNL A   1      44.431  23.927  30.348  1.00  0.00     0.029 A 
ATOM     53  C   UNL A   1      45.031  24.337  29.152  1.00  0.00     0.049 A 
ATOM     54  H   UNL A   1      44.867  23.365  27.286  1.00  0.00     0.167 HD
ATOM     55  C   UNL A   1      46.343  26.251  29.690  1.00  0.00     0.074 A 
ATOM     56  C   UNL A   1      46.318  25.994  31.111  1.00  0.00     0.031 C 
ATOM     57  C   UNL A   1      45.838  25.450  28.722  1.00  0.00     0.037 A 
BRANCH  44  58
ATOM     58  C   UNL A   1      42.276  21.709  26.851  1.00  0.00     0.057 A 
ATOM     59  C   UNL A   1      43.142  21.629  25.757  1.00  0.00     0.134 A 
ATOM     60  C   UNL A   1      41.665  20.490  27.236  1.00  0.00     0.134 A 
ATOM     61  F   UNL A   1      43.799  22.705  25.306  1.00  0.00    -0.206 F 
ATOM     62  C   UNL A   1      43.444  20.406  25.139  1.00  0.00     0.040 A 
ATOM     63  C   UNL A   1      41.993  19.261  26.658  1.00  0.00     0.040 A 
ATOM     64  F   UNL A   1      40.781  20.445  28.248  1.00  0.00    -0.206 F 
ATOM     65  C   UNL A   1      42.903  19.214  25.614  1.00  0.00     0.006 A 
ENDBRANCH  44  58
BRANCH  45  66
ATOM     66  C   UNL A   1      45.951  30.256  31.807  1.00  0.00     0.057 A 
ATOM     67  C   UNL A   1      45.557  30.403  33.172  1.00  0.00     0.134 A 
ATOM     68  C   UNL A   1      47.002  31.102  31.446  1.00  0.00     0.134 A 
ATOM     69  F   UNL A   1      44.685  29.568  33.754  1.00  0.00    -0.206 F 
ATOM     70  C   UNL A   1      46.020  31.408  34.026  1.00  0.00     0.040 A 
ATOM     71  C   UNL A   1      47.517  32.090  32.315  1.00  0.00     0.040 A 
ATOM     72  F   UNL A   1      47.598  31.005  30.254  1.00  0.00    -0.206 F 
ATOM     73  C   UNL A   1      46.995  32.278  33.590  1.00  0.00     0.006 A 
ENDBRANCH  45  66
BRANCH  57  74
ATOM     74  C   UNL A   1      45.868  26.033  27.329  1.00  0.00     0.057 A 
ATOM     75  C   UNL A   1      44.745  26.529  26.650  1.00  0.00     0.134 A 
ATOM     76  C   UNL A   1      47.092  26.171  26.666  1.00  0.00     0.134 A 
ATOM     77  F   UNL A   1      43.534  26.477  27.202  1.00  0.00    -0.206 F 
ATOM     78  C   UNL A   1      44.823  27.109  25.378  1.00  0.00     0.040 A 
ATOM     79  C   UNL A   1      47.191  26.755  25.397  1.00  0.00     0.040 A 
ATOM     80  F   UNL A   1      48.220  25.727  27.240  1.00  0.00    -0.206 F 
ATOM     81  C   UNL A   1      46.053  27.224  24.745  1.00  0.00     0.006 A 
ENDBRANCH  57  74
ENDBRANCH  31  32
ENDBRANCH  23  26
ENDBRANCH  21  22
ENDBRANCH  20  21
ENDBRANCH   1  20
TORSDOF 13
ENDMDL
MODEL 3
REMARK VINA RESULT:     -11.5      2.764      7.545
REMARK SMILES O=C(Cc1cccn1-c1ccccc1F)NCCCCNC(=O)c1ccc(-c2c3nc(c(-c4c(F)cccc4F)c4ccc([nH]4)c(-c4c(F)cccc4F)c4nc(c(-c5c(F)cccc5F)c5ccc2[nH]5)C=C4)C=C3)cc1
REMARK SMILES IDX 18 1 17 2 16 3 1 4 2 5 3 7 4 8 5 9 8 10 6 11 7 12 9 13 10 14
REMARK SMILES IDX 14 15 11 16 13 17 15 18 12 19 19 20 20 21 21 22 22 23 23 25
REMARK SMILES IDX 24 26 25 27 77 28 26 29 76 30 27 31 28 32 29 33 70 34 30 35
REMARK SMILES IDX 75 36 69 37 71 38 31 39 74 40 68 41 67 42 32 44 58 45 41 46
REMARK SMILES IDX 57 47 42 48 45 49 56 50 72 51 43 52 44 53 55 55 73 56 46 57
REMARK SMILES IDX 33 58 34 59 39 60 35 61 36 62 38 63 40 64 37 65 59 66 60 67
REMARK SMILES IDX 65 68 61 69 62 70 64 71 66 72 63 73 47 74 48 75 53 76 49 77
REMARK SMILES IDX 50 78 52 79 54 80 51 81
REMARK H PARENT 16 6 21 24 71 43 45 54
REMARK Flexibility Score: inf
ROOT
ATOM      1  C   UNL A   1      36.340  20.546  25.013  1.00  0.00     0.023 C 
ENDROOT
BRANCH   1   2
ATOM      2  C   UNL A   1      36.445  21.736  25.970  1.00  0.00     0.116 C 
BRANCH   2   3
ATOM      3  N   UNL A   1      35.149  22.218  26.405  1.00  0.00    -0.356 N 
ATOM      4  O   UNL A   1      35.147  24.111  25.104  1.00  0.00    -0.275 OA
ATOM      5  C   UNL A   1      34.579  23.378  25.910  1.00  0.00     0.225 C 
ATOM      6  H   UNL A   1      34.653  21.700  27.079  1.00  0.00     0.163 HD
BRANCH   5   7
ATOM      7  C   UNL A   1      33.186  23.679  26.454  1.00  0.00     0.154 C 
BRANCH   7   8
ATOM      8  C   UNL A   1      32.283  24.171  25.357  1.00  0.00     0.032 A 
ATOM      9  C   UNL A   1      31.638  23.397  24.402  1.00  0.00     0.024 A 
ATOM     10  N   UNL A   1      31.858  25.484  25.183  1.00  0.00    -0.318 N 
ATOM     11  C   UNL A   1      30.735  24.221  23.705  1.00  0.00     0.020 A 
ATOM     12  C   UNL A   1      30.846  25.481  24.241  1.00  0.00     0.091 A 
BRANCH  10  13
ATOM     13  C   UNL A   1      32.298  26.652  25.851  1.00  0.00     0.081 A 
ATOM     14  C   UNL A   1      31.512  27.194  26.875  1.00  0.00     0.030 A 
ATOM     15  C   UNL A   1      33.489  27.281  25.489  1.00  0.00     0.147 A 
ATOM     16  C   UNL A   1      31.954  28.329  27.558  1.00  0.00     0.002 A 
ATOM     17  C   UNL A   1      33.928  28.413  26.171  1.00  0.00     0.041 A 
ATOM     18  F   UNL A   1      34.215  26.857  24.446  1.00  0.00    -0.205 F 
ATOM     19  C   UNL A   1      33.163  28.935  27.212  1.00  0.00     0.003 A 
ENDBRANCH  10  13
ENDBRANCH   7   8
ENDBRANCH   5   7
ENDBRANCH   2   3
ENDBRANCH   1   2
BRANCH   1  20
ATOM     20  C   UNL A   1      37.565  19.621  24.962  1.00  0.00     0.023 C 
BRANCH  20  21
ATOM     21  C   UNL A   1      38.864  20.241  25.477  1.00  0.00     0.116 C 
BRANCH  21  22
ATOM     22  N   UNL A   1      39.857  19.240  25.814  1.00  0.00    -0.352 N 
ATOM     23  C   UNL A   1      41.202  19.410  26.052  1.00  0.00     0.251 C 
ATOM     24  H   UNL A   1      39.526  18.315  25.881  1.00  0.00     0.163 HD
ATOM     25  O   UNL A   1      41.956  18.455  25.897  1.00  0.00    -0.269 OA
BRANCH  23  26
ATOM     26  C   UNL A   1      41.763  20.715  26.480  1.00  0.00     0.039 A 
ATOM     27  C   UNL A   1      42.259  21.572  25.487  1.00  0.00     0.014 A 
ATOM     28  C   UNL A   1      41.919  21.055  27.829  1.00  0.00     0.014 A 
ATOM     29  C   UNL A   1      42.861  22.779  25.839  1.00  0.00     0.010 A 
ATOM     30  C   UNL A   1      42.499  22.273  28.186  1.00  0.00     0.010 A 
ATOM     31  C   UNL A   1      42.962  23.142  27.190  1.00  0.00    -0.014 A 
BRANCH  31  32
ATOM     32  C   UNL A   1      43.394  24.526  27.519  1.00  0.00     0.031 A 
ATOM     33  C   UNL A   1      42.184  25.475  27.680  1.00  0.00     0.074 A 
ATOM     34  C   UNL A   1      44.739  24.764  27.602  1.00  0.00     0.049 A 
ATOM     35  N   UNL A   1      42.087  26.759  27.516  1.00  0.00    -0.248 NA
ATOM     36  C   UNL A   1      40.858  24.886  28.016  1.00  0.00     0.031 C 
ATOM     37  C   UNL A   1      45.783  23.726  27.482  1.00  0.00     0.029 A 
ATOM     38  N   UNL A   1      45.509  25.898  27.796  1.00  0.00    -0.354 N 
ATOM     39  C   UNL A   1      40.778  27.147  27.895  1.00  0.00     0.074 A 
ATOM     40  C   UNL A   1      40.042  25.938  28.094  1.00  0.00     0.031 C 
ATOM     41  C   UNL A   1      47.018  24.273  27.521  1.00  0.00     0.029 A 
ATOM     42  C   UNL A   1      46.914  25.711  27.670  1.00  0.00     0.049 A 
ATOM     43  H   UNL A   1      45.111  26.774  28.007  1.00  0.00     0.167 HD
ATOM     44  C   UNL A   1      40.414  28.444  28.132  1.00  0.00     0.037 A 
ATOM     45  C   UNL A   1      47.916  26.649  27.634  1.00  0.00     0.037 A 
ATOM     46  C   UNL A   1      41.502  29.311  27.840  1.00  0.00     0.049 A 
ATOM     47  C   UNL A   1      47.256  27.930  27.915  1.00  0.00     0.074 A 
ATOM     48  C   UNL A   1      42.087  29.700  26.665  1.00  0.00     0.029 A 
ATOM     49  N   UNL A   1      42.343  29.607  28.881  1.00  0.00    -0.354 N 
ATOM     50  N   UNL A   1      46.825  28.310  29.081  1.00  0.00    -0.248 NA
ATOM     51  C   UNL A   1      46.980  28.830  26.786  1.00  0.00     0.031 C 
ATOM     52  C   UNL A   1      43.458  29.760  26.989  1.00  0.00     0.029 A 
ATOM     53  C   UNL A   1      43.615  29.624  28.373  1.00  0.00     0.049 A 
ATOM     54  H   UNL A   1      42.083  29.776  29.816  1.00  0.00     0.167 HD
ATOM     55  C   UNL A   1      45.947  29.313  28.748  1.00  0.00     0.074 A 
ATOM     56  C   UNL A   1      46.324  29.786  27.436  1.00  0.00     0.031 C 
ATOM     57  C   UNL A   1      44.698  29.310  29.271  1.00  0.00     0.037 A 
BRANCH  44  58
ATOM     58  C   UNL A   1      39.227  29.054  28.831  1.00  0.00     0.057 A 
ATOM     59  C   UNL A   1      38.117  29.581  28.166  1.00  0.00     0.134 A 
ATOM     60  C   UNL A   1      39.041  28.783  30.210  1.00  0.00     0.134 A 
ATOM     61  F   UNL A   1      38.155  29.862  26.857  1.00  0.00    -0.206 F 
ATOM     62  C   UNL A   1      36.880  29.751  28.808  1.00  0.00     0.040 A 
ATOM     63  C   UNL A   1      37.803  28.905  30.846  1.00  0.00     0.040 A 
ATOM     64  F   UNL A   1      40.047  28.313  30.967  1.00  0.00    -0.206 F 
ATOM     65  C   UNL A   1      36.709  29.375  30.137  1.00  0.00     0.006 A 
ENDBRANCH  44  58
BRANCH  45  66
ATOM     66  C   UNL A   1      49.393  26.728  27.288  1.00  0.00     0.057 A 
ATOM     67  C   UNL A   1      49.862  26.238  26.032  1.00  0.00     0.134 A 
ATOM     68  C   UNL A   1      50.420  27.170  28.124  1.00  0.00     0.134 A 
ATOM     69  F   UNL A   1      49.026  25.928  25.032  1.00  0.00    -0.206 F 
ATOM     70  C   UNL A   1      51.209  26.029  25.717  1.00  0.00     0.040 A 
ATOM     71  C   UNL A   1      51.786  27.012  27.799  1.00  0.00     0.040 A 
ATOM     72  F   UNL A   1      50.163  27.792  29.279  1.00  0.00    -0.206 F 
ATOM     73  C   UNL A   1      52.185  26.398  26.617  1.00  0.00     0.006 A 
ENDBRANCH  45  66
BRANCH  57  74
ATOM     74  C   UNL A   1      44.565  28.620  30.607  1.00  0.00     0.057 A 
ATOM     75  C   UNL A   1      43.989  27.354  30.795  1.00  0.00     0.134 A 
ATOM     76  C   UNL A   1      45.105  29.220  31.749  1.00  0.00     0.134 A 
ATOM     77  F   UNL A   1      43.472  26.678  29.769  1.00  0.00    -0.206 F 
ATOM     78  C   UNL A   1      43.931  26.726  32.045  1.00  0.00     0.040 A 
ATOM     79  C   UNL A   1      45.063  28.604  33.006  1.00  0.00     0.040 A 
ATOM     80  F   UNL A   1      45.677  30.430  31.664  1.00  0.00    -0.206 F 
ATOM     81  C   UNL A   1      44.471  27.353  33.159  1.00  0.00     0.006 A 
ENDBRANCH  57  74
ENDBRANCH  31  32
ENDBRANCH  23  26
ENDBRANCH  21  22
ENDBRANCH  20  21
ENDBRANCH   1  20
TORSDOF 13
ENDMDL
