MODEL 1
REMARK VINA RESULT:     -11.5      0.000      0.000
REMARK SMILES CC(=O)N1CCC(C(=O)NC[C@@H]2CC[C@@H](C(=O)NCCCCNC(=O)c3ccc(-c4c5nc(c(-c6c(F)cccc6F)c6ccc([nH]6)c(-c6c(F)cccc6F)c6nc(c(-c7c(F)cccc7F)c7ccc4[nH]7)C=C6)C=C5)cc3)O2)CC1
REMARK SMILES IDX 20 1 19 2 18 3 16 4 17 5 15 7 12 8 13 9 80 10 14 11 11 12
REMARK SMILES IDX 10 13 8 14 9 15 7 17 1 18 2 19 3 20 4 21 5 22 82 23 6 24
REMARK SMILES IDX 81 25 21 26 22 27 23 28 24 29 25 31 26 32 27 33 79 34 28 35
REMARK SMILES IDX 78 36 29 37 30 38 31 39 72 40 32 41 77 42 71 43 73 44 33 45
REMARK SMILES IDX 76 46 70 47 69 48 34 50 60 51 43 52 59 53 44 54 47 55 58 56
REMARK SMILES IDX 74 57 45 58 46 59 57 61 75 62 48 63 35 64 36 65 41 66 37 67
REMARK SMILES IDX 38 68 40 69 42 70 39 71 61 72 62 73 67 74 63 75 64 76 66 77
REMARK SMILES IDX 68 78 65 79 49 80 50 81 55 82 51 83 52 84 54 85 56 86 53 87
REMARK H PARENT 18 6 10 16 23 30 73 49 47 60
REMARK Flexibility Score: inf
ROOT
ATOM      1  C   UNL A   1      39.213  22.569  26.490  1.00  0.00     0.023 C 
ENDROOT
BRANCH   1   2
ATOM      2  C   UNL A   1      37.929  23.296  26.082  1.00  0.00     0.116 C 
BRANCH   2   3
ATOM      3  N   UNL A   1      37.719  23.272  24.648  1.00  0.00    -0.354 N 
ATOM      4  C   UNL A   1      36.624  22.834  23.947  1.00  0.00     0.249 C 
ATOM      5  O   UNL A   1      36.658  22.905  22.717  1.00  0.00    -0.272 OA
ATOM      6  H   UNL A   1      38.463  23.616  24.103  1.00  0.00     0.163 HD
BRANCH   4   7
ATOM      7  C   UNL A   1      35.407  22.296  24.727  1.00  0.00     0.207 C 
ATOM      8  C   UNL A   1      33.449  21.158  24.117  1.00  0.00     0.138 C 
ATOM      9  C   UNL A   1      34.159  20.353  25.190  1.00  0.00     0.037 C 
ATOM     10  O   UNL A   1      34.151  22.413  24.038  1.00  0.00    -0.363 OA
ATOM     11  C   UNL A   1      35.572  20.823  25.056  1.00  0.00     0.045 C 
BRANCH   8  12
ATOM     12  C   UNL A   1      31.976  21.387  24.481  1.00  0.00     0.147 C 
BRANCH  12  13
ATOM     13  N   UNL A   1      31.761  21.701  25.889  1.00  0.00    -0.353 N 
ATOM     14  C   UNL A   1      31.641  22.890  26.541  1.00  0.00     0.223 C 
ATOM     15  O   UNL A   1      31.395  22.859  27.750  1.00  0.00    -0.275 OA
ATOM     16  H   UNL A   1      31.690  20.911  26.472  1.00  0.00     0.163 HD
BRANCH  14  17
ATOM     17  C   UNL A   1      31.816  24.237  25.839  1.00  0.00     0.082 C 
ATOM     18  C   UNL A   1      33.602  28.713  27.307  1.00  0.00     0.114 C 
ATOM     19  C   UNL A   1      32.249  28.087  27.080  1.00  0.00     0.219 C 
ATOM     20  O   UNL A   1      31.267  28.503  27.695  1.00  0.00    -0.275 OA
ATOM     21  N   UNL A   1      32.171  27.065  26.148  1.00  0.00    -0.343 N 
ATOM     22  C   UNL A   1      30.866  26.598  25.702  1.00  0.00     0.120 C 
ATOM     23  C   UNL A   1      33.296  26.311  25.608  1.00  0.00     0.120 C 
ATOM     24  C   UNL A   1      30.632  25.164  26.141  1.00  0.00     0.035 C 
ATOM     25  C   UNL A   1      33.214  24.849  26.048  1.00  0.00     0.035 C 
ENDBRANCH  14  17
ENDBRANCH  12  13
ENDBRANCH   8  12
ENDBRANCH   4   7
ENDBRANCH   2   3
ENDBRANCH   1   2
BRANCH   1  26
ATOM     26  C   UNL A   1      39.436  21.223  25.809  1.00  0.00     0.023 C 
BRANCH  26  27
ATOM     27  C   UNL A   1      39.992  20.135  26.711  1.00  0.00     0.116 C 
BRANCH  27  28
ATOM     28  N   UNL A   1      41.049  19.354  26.085  1.00  0.00    -0.352 N 
ATOM     29  C   UNL A   1      42.329  19.749  25.778  1.00  0.00     0.251 C 
ATOM     30  H   UNL A   1      40.818  18.426  25.851  1.00  0.00     0.163 HD
ATOM     31  O   UNL A   1      43.082  19.011  25.151  1.00  0.00    -0.269 OA
BRANCH  29  32
ATOM     32  C   UNL A   1      42.772  21.097  26.183  1.00  0.00     0.039 A 
ATOM     33  C   UNL A   1      43.048  22.045  25.195  1.00  0.00     0.014 A 
ATOM     34  C   UNL A   1      42.840  21.436  27.536  1.00  0.00     0.014 A 
ATOM     35  C   UNL A   1      43.322  23.362  25.566  1.00  0.00     0.010 A 
ATOM     36  C   UNL A   1      43.038  22.761  27.899  1.00  0.00     0.010 A 
ATOM     37  C   UNL A   1      43.279  23.736  26.918  1.00  0.00    -0.014 A 
BRANCH  37  38
ATOM     38  C   UNL A   1      43.494  25.139  27.348  1.00  0.00     0.031 A 
ATOM     39  C   UNL A   1      44.895  25.659  27.504  1.00  0.00     0.074 A 
ATOM     40  C   UNL A   1      42.441  25.906  27.691  1.00  0.00     0.049 A 
ATOM     41  N   UNL A   1      45.305  26.792  28.010  1.00  0.00    -0.248 NA
ATOM     42  C   UNL A   1      45.979  24.767  27.061  1.00  0.00     0.031 C 
ATOM     43  C   UNL A   1      41.036  25.502  27.621  1.00  0.00     0.029 A 
ATOM     44  N   UNL A   1      42.395  27.184  28.191  1.00  0.00    -0.354 N 
ATOM     45  C   UNL A   1      46.692  26.738  27.973  1.00  0.00     0.074 A 
ATOM     46  C   UNL A   1      47.053  25.444  27.436  1.00  0.00     0.031 C 
ATOM     47  C   UNL A   1      40.265  26.515  28.050  1.00  0.00     0.029 A 
ATOM     48  C   UNL A   1      41.122  27.621  28.465  1.00  0.00     0.049 A 
ATOM     49  H   UNL A   1      43.198  27.733  28.340  1.00  0.00     0.167 HD
ATOM     50  C   UNL A   1      47.584  27.689  28.337  1.00  0.00     0.037 A 
ATOM     51  C   UNL A   1      40.697  28.779  29.005  1.00  0.00     0.037 A 
ATOM     52  C   UNL A   1      47.219  28.988  28.834  1.00  0.00     0.049 A 
ATOM     53  C   UNL A   1      41.707  29.821  29.400  1.00  0.00     0.074 A 
ATOM     54  C   UNL A   1      48.046  30.044  29.172  1.00  0.00     0.029 A 
ATOM     55  N   UNL A   1      45.918  29.407  29.062  1.00  0.00    -0.354 N 
ATOM     56  N   UNL A   1      43.014  29.780  29.310  1.00  0.00    -0.248 NA
ATOM     57  C   UNL A   1      41.184  31.072  29.967  1.00  0.00     0.031 C 
ATOM     58  C   UNL A   1      47.245  31.093  29.636  1.00  0.00     0.029 A 
ATOM     59  C   UNL A   1      45.919  30.703  29.549  1.00  0.00     0.049 A 
ATOM     60  H   UNL A   1      45.112  28.864  28.902  1.00  0.00     0.167 HD
ATOM     61  C   UNL A   1      43.467  31.005  29.779  1.00  0.00     0.074 A 
ATOM     62  C   UNL A   1      42.295  31.772  30.149  1.00  0.00     0.031 C 
ATOM     63  C   UNL A   1      44.740  31.456  29.890  1.00  0.00     0.037 A 
BRANCH  50  64
ATOM     64  C   UNL A   1      49.040  27.357  28.202  1.00  0.00     0.057 A 
ATOM     65  C   UNL A   1      49.770  26.801  29.261  1.00  0.00     0.134 A 
ATOM     66  C   UNL A   1      49.714  27.572  26.994  1.00  0.00     0.134 A 
ATOM     67  F   UNL A   1      49.186  26.584  30.450  1.00  0.00    -0.206 F 
ATOM     68  C   UNL A   1      51.126  26.494  29.131  1.00  0.00     0.040 A 
ATOM     69  C   UNL A   1      51.062  27.245  26.844  1.00  0.00     0.040 A 
ATOM     70  F   UNL A   1      49.072  28.097  25.940  1.00  0.00    -0.206 F 
ATOM     71  C   UNL A   1      51.774  26.711  27.916  1.00  0.00     0.006 A 
ENDBRANCH  50  64
BRANCH  51  72
ATOM     72  C   UNL A   1      39.245  29.024  29.190  1.00  0.00     0.057 A 
ATOM     73  C   UNL A   1      38.456  29.494  28.133  1.00  0.00     0.134 A 
ATOM     74  C   UNL A   1      38.613  28.800  30.418  1.00  0.00     0.134 A 
ATOM     75  F   UNL A   1      39.010  29.746  26.938  1.00  0.00    -0.206 F 
ATOM     76  C   UNL A   1      37.093  29.748  28.296  1.00  0.00     0.040 A 
ATOM     77  C   UNL A   1      37.246  29.028  30.588  1.00  0.00     0.040 A 
ATOM     78  F   UNL A   1      39.313  28.342  31.467  1.00  0.00    -0.206 F 
ATOM     79  C   UNL A   1      36.484  29.511  29.526  1.00  0.00     0.006 A 
ENDBRANCH  51  72
BRANCH  63  80
ATOM     80  C   UNL A   1      44.935  32.858  30.386  1.00  0.00     0.057 A 
ATOM     81  C   UNL A   1      44.917  33.957  29.519  1.00  0.00     0.134 A 
ATOM     82  C   UNL A   1      45.076  33.111  31.756  1.00  0.00     0.134 A 
ATOM     83  F   UNL A   1      44.798  33.777  28.195  1.00  0.00    -0.206 F 
ATOM     84  C   UNL A   1      45.044  35.261  29.999  1.00  0.00     0.040 A 
ATOM     85  C   UNL A   1      45.180  34.412  32.249  1.00  0.00     0.040 A 
ATOM     86  F   UNL A   1      45.093  32.100  32.637  1.00  0.00    -0.206 F 
ATOM     87  C   UNL A   1      45.166  35.491  31.369  1.00  0.00     0.006 A 
ENDBRANCH  63  80
ENDBRANCH  37  38
ENDBRANCH  29  32
ENDBRANCH  27  28
ENDBRANCH  26  27
ENDBRANCH   1  26
TORSDOF 14
ENDMDL
MODEL 2
REMARK VINA RESULT:     -11.5      0.511      6.144
REMARK SMILES CC(=O)N1CCC(C(=O)NC[C@@H]2CC[C@@H](C(=O)NCCCCNC(=O)c3ccc(-c4c5nc(c(-c6c(F)cccc6F)c6ccc([nH]6)c(-c6c(F)cccc6F)c6nc(c(-c7c(F)cccc7F)c7ccc4[nH]7)C=C6)C=C5)cc3)O2)CC1
REMARK SMILES IDX 20 1 19 2 18 3 16 4 17 5 15 7 12 8 13 9 80 10 14 11 11 12
REMARK SMILES IDX 10 13 8 14 9 15 7 17 1 18 2 19 3 20 4 21 5 22 82 23 6 24
REMARK SMILES IDX 81 25 21 26 22 27 23 28 24 29 25 31 26 32 27 33 79 34 28 35
REMARK SMILES IDX 78 36 29 37 30 38 31 39 72 40 32 41 77 42 71 43 73 44 33 45
REMARK SMILES IDX 76 46 70 47 69 48 34 50 60 51 43 52 59 53 44 54 47 55 58 56
REMARK SMILES IDX 74 57 45 58 46 59 57 61 75 62 48 63 35 64 36 65 41 66 37 67
REMARK SMILES IDX 38 68 40 69 42 70 39 71 61 72 62 73 67 74 63 75 64 76 66 77
REMARK SMILES IDX 68 78 65 79 49 80 50 81 55 82 51 83 52 84 54 85 56 86 53 87
REMARK H PARENT 18 6 10 16 23 30 73 49 47 60
REMARK Flexibility Score: inf
ROOT
ATOM      1  C   UNL A   1      39.068  22.821  26.452  1.00  0.00     0.023 C 
ENDROOT
BRANCH   1   2
ATOM      2  C   UNL A   1      37.841  23.599  25.971  1.00  0.00     0.116 C 
BRANCH   2   3
ATOM      3  N   UNL A   1      37.643  23.479  24.540  1.00  0.00    -0.354 N 
ATOM      4  C   UNL A   1      36.576  22.948  23.861  1.00  0.00     0.249 C 
ATOM      5  O   UNL A   1      36.616  22.947  22.630  1.00  0.00    -0.272 OA
ATOM      6  H   UNL A   1      38.374  23.825  23.979  1.00  0.00     0.163 HD
BRANCH   4   7
ATOM      7  C   UNL A   1      35.380  22.401  24.666  1.00  0.00     0.207 C 
ATOM      8  C   UNL A   1      33.444  21.202  24.104  1.00  0.00     0.138 C 
ATOM      9  C   UNL A   1      34.183  20.441  25.190  1.00  0.00     0.037 C 
ATOM     10  O   UNL A   1      34.114  22.471  23.986  1.00  0.00    -0.363 OA
ATOM     11  C   UNL A   1      35.583  20.941  25.030  1.00  0.00     0.045 C 
BRANCH   8  12
ATOM     12  C   UNL A   1      31.969  21.404  24.476  1.00  0.00     0.147 C 
BRANCH  12  13
ATOM     13  N   UNL A   1      31.757  21.715  25.885  1.00  0.00    -0.353 N 
ATOM     14  C   UNL A   1      31.643  22.903  26.540  1.00  0.00     0.223 C 
ATOM     15  O   UNL A   1      31.397  22.869  27.749  1.00  0.00    -0.275 OA
ATOM     16  H   UNL A   1      31.683  20.923  26.466  1.00  0.00     0.163 HD
BRANCH  14  17
ATOM     17  C   UNL A   1      31.823  24.250  25.842  1.00  0.00     0.082 C 
ATOM     18  C   UNL A   1      33.625  28.716  27.321  1.00  0.00     0.114 C 
ATOM     19  C   UNL A   1      32.270  28.096  27.093  1.00  0.00     0.219 C 
ATOM     20  O   UNL A   1      31.289  28.513  27.709  1.00  0.00    -0.275 OA
ATOM     21  N   UNL A   1      32.188  27.076  26.158  1.00  0.00    -0.343 N 
ATOM     22  C   UNL A   1      30.881  26.616  25.711  1.00  0.00     0.120 C 
ATOM     23  C   UNL A   1      33.310  26.320  25.616  1.00  0.00     0.120 C 
ATOM     24  C   UNL A   1      30.642  25.181  26.147  1.00  0.00     0.035 C 
ATOM     25  C   UNL A   1      33.222  24.857  26.053  1.00  0.00     0.035 C 
ENDBRANCH  14  17
ENDBRANCH  12  13
ENDBRANCH   8  12
ENDBRANCH   4   7
ENDBRANCH   2   3
ENDBRANCH   1   2
BRANCH   1  26
ATOM     26  C   UNL A   1      39.313  21.497  25.737  1.00  0.00     0.023 C 
BRANCH  26  27
ATOM     27  C   UNL A   1      39.675  20.337  26.647  1.00  0.00     0.116 C 
BRANCH  27  28
ATOM     28  N   UNL A   1      40.675  19.447  26.075  1.00  0.00    -0.352 N 
ATOM     29  C   UNL A   1      42.021  19.673  25.914  1.00  0.00     0.251 C 
ATOM     30  H   UNL A   1      40.346  18.574  25.762  1.00  0.00     0.163 HD
ATOM     31  O   UNL A   1      42.727  18.869  25.315  1.00  0.00    -0.269 OA
BRANCH  29  32
ATOM     32  C   UNL A   1      42.598  20.924  26.442  1.00  0.00     0.039 A 
ATOM     33  C   UNL A   1      43.068  21.886  25.545  1.00  0.00     0.014 A 
ATOM     34  C   UNL A   1      42.603  21.168  27.817  1.00  0.00     0.014 A 
ATOM     35  C   UNL A   1      43.477  23.130  26.026  1.00  0.00     0.010 A 
ATOM     36  C   UNL A   1      42.939  22.431  28.286  1.00  0.00     0.010 A 
ATOM     37  C   UNL A   1      43.377  23.424  27.395  1.00  0.00    -0.014 A 
BRANCH  37  38
ATOM     38  C   UNL A   1      43.734  24.758  27.936  1.00  0.00     0.031 A 
ATOM     39  C   UNL A   1      42.647  25.748  28.240  1.00  0.00     0.074 A 
ATOM     40  C   UNL A   1      45.029  25.110  28.058  1.00  0.00     0.049 A 
ATOM     41  N   UNL A   1      42.745  27.009  28.569  1.00  0.00    -0.248 NA
ATOM     42  C   UNL A   1      41.263  25.260  28.122  1.00  0.00     0.031 C 
ATOM     43  C   UNL A   1      46.175  24.250  27.759  1.00  0.00     0.029 A 
ATOM     44  N   UNL A   1      45.597  26.297  28.447  1.00  0.00    -0.354 N 
ATOM     45  C   UNL A   1      41.440  27.473  28.671  1.00  0.00     0.074 A 
ATOM     46  C   UNL A   1      40.569  26.370  28.325  1.00  0.00     0.031 C 
ATOM     47  C   UNL A   1      47.308  24.934  27.985  1.00  0.00     0.029 A 
ATOM     48  C   UNL A   1      46.970  26.290  28.404  1.00  0.00     0.049 A 
ATOM     49  H   UNL A   1      45.069  27.079  28.729  1.00  0.00     0.167 HD
ATOM     50  C   UNL A   1      41.006  28.702  29.038  1.00  0.00     0.037 A 
ATOM     51  C   UNL A   1      47.853  27.274  28.660  1.00  0.00     0.037 A 
ATOM     52  C   UNL A   1      41.874  29.783  29.417  1.00  0.00     0.049 A 
ATOM     53  C   UNL A   1      47.347  28.630  29.067  1.00  0.00     0.074 A 
ATOM     54  C   UNL A   1      41.532  31.046  29.864  1.00  0.00     0.029 A 
ATOM     55  N   UNL A   1      43.259  29.725  29.396  1.00  0.00    -0.354 N 
ATOM     56  N   UNL A   1      46.110  29.041  29.211  1.00  0.00    -0.248 NA
ATOM     57  C   UNL A   1      48.358  29.659  29.350  1.00  0.00     0.031 C 
ATOM     58  C   UNL A   1      42.712  31.765  30.083  1.00  0.00     0.029 A 
ATOM     59  C   UNL A   1      43.787  30.935  29.811  1.00  0.00     0.049 A 
ATOM     60  H   UNL A   1      43.789  28.939  29.128  1.00  0.00     0.167 HD
ATOM     61  C   UNL A   1      46.194  30.361  29.630  1.00  0.00     0.074 A 
ATOM     62  C   UNL A   1      47.603  30.684  29.722  1.00  0.00     0.031 C 
ATOM     63  C   UNL A   1      45.193  31.228  29.917  1.00  0.00     0.037 A 
BRANCH  50  64
ATOM     64  C   UNL A   1      39.524  28.935  29.049  1.00  0.00     0.057 A 
ATOM     65  C   UNL A   1      38.762  28.773  30.213  1.00  0.00     0.134 A 
ATOM     66  C   UNL A   1      38.858  29.349  27.890  1.00  0.00     0.134 A 
ATOM     67  F   UNL A   1      39.339  28.364  31.353  1.00  0.00    -0.206 F 
ATOM     68  C   UNL A   1      37.383  28.990  30.218  1.00  0.00     0.040 A 
ATOM     69  C   UNL A   1      37.483  29.595  27.889  1.00  0.00     0.040 A 
ATOM     70  F   UNL A   1      39.529  29.526  26.743  1.00  0.00    -0.206 F 
ATOM     71  C   UNL A   1      36.741  29.409  29.054  1.00  0.00     0.006 A 
ENDBRANCH  50  64
BRANCH  51  72
ATOM     72  C   UNL A   1      49.310  27.010  28.555  1.00  0.00     0.057 A 
ATOM     73  C   UNL A   1      49.985  27.181  27.342  1.00  0.00     0.134 A 
ATOM     74  C   UNL A   1      50.059  26.580  29.657  1.00  0.00     0.134 A 
ATOM     75  F   UNL A   1      49.316  27.573  26.247  1.00  0.00    -0.206 F 
ATOM     76  C   UNL A   1      51.351  26.918  27.222  1.00  0.00     0.040 A 
ATOM     77  C   UNL A   1      51.430  26.335  29.556  1.00  0.00     0.040 A 
ATOM     78  F   UNL A   1      49.471  26.404  30.849  1.00  0.00    -0.206 F 
ATOM     79  C   UNL A   1      52.078  26.497  28.333  1.00  0.00     0.006 A 
ENDBRANCH  51  72
BRANCH  63  80
ATOM     80  C   UNL A   1      45.579  32.593  30.404  1.00  0.00     0.057 A 
ATOM     81  C   UNL A   1      45.808  32.856  31.759  1.00  0.00     0.134 A 
ATOM     82  C   UNL A   1      45.790  33.636  29.493  1.00  0.00     0.134 A 
ATOM     83  F   UNL A   1      45.611  31.901  32.680  1.00  0.00    -0.206 F 
ATOM     84  C   UNL A   1      46.222  34.116  32.194  1.00  0.00     0.040 A 
ATOM     85  C   UNL A   1      46.225  34.893  29.914  1.00  0.00     0.040 A 
ATOM     86  F   UNL A   1      45.595  33.444  28.180  1.00  0.00    -0.206 F 
ATOM     87  C   UNL A   1      46.440  35.135  31.268  1.00  0.00     0.006 A 
ENDBRANCH  63  80
ENDBRANCH  37  38
ENDBRANCH  29  32
ENDBRANCH  27  28
ENDBRANCH  26  27
ENDBRANCH   1  26
TORSDOF 14
ENDMDL
MODEL 3
REMARK VINA RESULT:     -11.3      1.399      2.079
REMARK SMILES CC(=O)N1CCC(C(=O)NC[C@@H]2CC[C@@H](C(=O)NCCCCNC(=O)c3ccc(-c4c5nc(c(-c6c(F)cccc6F)c6ccc([nH]6)c(-c6c(F)cccc6F)c6nc(c(-c7c(F)cccc7F)c7ccc4[nH]7)C=C6)C=C5)cc3)O2)CC1
REMARK SMILES IDX 20 1 19 2 18 3 16 4 17 5 15 7 12 8 13 9 80 10 14 11 11 12
REMARK SMILES IDX 10 13 8 14 9 15 7 17 1 18 2 19 3 20 4 21 5 22 82 23 6 24
REMARK SMILES IDX 81 25 21 26 22 27 23 28 24 29 25 31 26 32 27 33 79 34 28 35
REMARK SMILES IDX 78 36 29 37 30 38 31 39 72 40 32 41 77 42 71 43 73 44 33 45
REMARK SMILES IDX 76 46 70 47 69 48 34 50 60 51 43 52 59 53 44 54 47 55 58 56
REMARK SMILES IDX 74 57 45 58 46 59 57 61 75 62 48 63 35 64 36 65 41 66 37 67
REMARK SMILES IDX 38 68 40 69 42 70 39 71 61 72 62 73 67 74 63 75 64 76 66 77
REMARK SMILES IDX 68 78 65 79 49 80 50 81 55 82 51 83 52 84 54 85 56 86 53 87
REMARK H PARENT 18 6 10 16 23 30 73 49 47 60
REMARK Flexibility Score: inf
ROOT
ATOM      1  C   UNL A   1      38.975  22.702  26.407  1.00  0.00     0.023 C 
ENDROOT
BRANCH   1   2
ATOM      2  C   UNL A   1      37.829  23.589  25.914  1.00  0.00     0.116 C 
BRANCH   2   3
ATOM      3  N   UNL A   1      37.616  23.466  24.485  1.00  0.00    -0.354 N 
ATOM      4  C   UNL A   1      36.521  22.979  23.818  1.00  0.00     0.249 C 
ATOM      5  O   UNL A   1      36.553  22.965  22.587  1.00  0.00    -0.272 OA
ATOM      6  H   UNL A   1      38.359  23.771  23.917  1.00  0.00     0.163 HD
BRANCH   4   7
ATOM      7  C   UNL A   1      35.306  22.496  24.635  1.00  0.00     0.207 C 
ATOM      8  C   UNL A   1      33.351  21.311  24.111  1.00  0.00     0.138 C 
ATOM      9  C   UNL A   1      34.063  20.589  25.240  1.00  0.00     0.037 C 
ATOM     10  O   UNL A   1      34.049  22.559  23.939  1.00  0.00    -0.363 OA
ATOM     11  C   UNL A   1      35.474  21.052  25.072  1.00  0.00     0.045 C 
BRANCH   8  12
ATOM     12  C   UNL A   1      31.877  21.561  24.457  1.00  0.00     0.147 C 
BRANCH  12  13
ATOM     13  N   UNL A   1      31.658  21.947  25.846  1.00  0.00    -0.353 N 
ATOM     14  C   UNL A   1      31.392  23.154  26.416  1.00  0.00     0.223 C 
ATOM     15  O   UNL A   1      31.183  23.180  27.633  1.00  0.00    -0.275 OA
ATOM     16  H   UNL A   1      31.711  21.200  26.485  1.00  0.00     0.163 HD
BRANCH  14  17
ATOM     17  C   UNL A   1      31.361  24.455  25.615  1.00  0.00     0.082 C 
ATOM     18  C   UNL A   1      32.334  25.600  20.807  1.00  0.00     0.114 C 
ATOM     19  C   UNL A   1      33.039  25.726  22.134  1.00  0.00     0.219 C 
ATOM     20  O   UNL A   1      34.269  25.749  22.178  1.00  0.00    -0.275 OA
ATOM     21  N   UNL A   1      32.247  25.837  23.265  1.00  0.00    -0.343 N 
ATOM     22  C   UNL A   1      32.856  26.214  24.533  1.00  0.00     0.120 C 
ATOM     23  C   UNL A   1      30.827  25.519  23.350  1.00  0.00     0.120 C 
ATOM     24  C   UNL A   1      32.763  25.073  25.530  1.00  0.00     0.035 C 
ATOM     25  C   UNL A   1      30.607  24.324  24.279  1.00  0.00     0.035 C 
ENDBRANCH  14  17
ENDBRANCH  12  13
ENDBRANCH   8  12
ENDBRANCH   4   7
ENDBRANCH   2   3
ENDBRANCH   1   2
BRANCH   1  26
ATOM     26  C   UNL A   1      39.142  21.388  25.653  1.00  0.00     0.023 C 
BRANCH  26  27
ATOM     27  C   UNL A   1      39.533  20.201  26.517  1.00  0.00     0.116 C 
BRANCH  27  28
ATOM     28  N   UNL A   1      40.627  19.419  25.959  1.00  0.00    -0.352 N 
ATOM     29  C   UNL A   1      41.947  19.778  25.827  1.00  0.00     0.251 C 
ATOM     30  H   UNL A   1      40.391  18.520  25.634  1.00  0.00     0.163 HD
ATOM     31  O   UNL A   1      42.741  19.053  25.237  1.00  0.00    -0.269 OA
BRANCH  29  32
ATOM     32  C   UNL A   1      42.387  21.075  26.375  1.00  0.00     0.039 A 
ATOM     33  C   UNL A   1      42.731  22.102  25.494  1.00  0.00     0.014 A 
ATOM     34  C   UNL A   1      42.387  21.290  27.755  1.00  0.00     0.014 A 
ATOM     35  C   UNL A   1      43.004  23.375  25.997  1.00  0.00     0.010 A 
ATOM     36  C   UNL A   1      42.585  22.573  28.248  1.00  0.00     0.010 A 
ATOM     37  C   UNL A   1      42.893  23.627  27.373  1.00  0.00    -0.014 A 
BRANCH  37  38
ATOM     38  C   UNL A   1      43.106  24.981  27.939  1.00  0.00     0.031 A 
ATOM     39  C   UNL A   1      44.469  25.371  28.435  1.00  0.00     0.074 A 
ATOM     40  C   UNL A   1      42.060  25.816  28.097  1.00  0.00     0.049 A 
ATOM     41  N   UNL A   1      44.835  26.435  29.099  1.00  0.00    -0.248 NA
ATOM     42  C   UNL A   1      45.558  24.415  28.178  1.00  0.00     0.031 C 
ATOM     43  C   UNL A   1      40.681  25.537  27.691  1.00  0.00     0.029 A 
ATOM     44  N   UNL A   1      41.993  27.064  28.665  1.00  0.00    -0.354 N 
ATOM     45  C   UNL A   1      46.187  26.266  29.363  1.00  0.00     0.074 A 
ATOM     46  C   UNL A   1      46.567  24.977  28.827  1.00  0.00     0.031 C 
ATOM     47  C   UNL A   1      39.908  26.587  28.013  1.00  0.00     0.029 A 
ATOM     48  C   UNL A   1      40.726  27.593  28.684  1.00  0.00     0.049 A 
ATOM     49  H   UNL A   1      42.779  27.534  29.026  1.00  0.00     0.167 HD
ATOM     50  C   UNL A   1      47.040  27.116  29.981  1.00  0.00     0.037 A 
ATOM     51  C   UNL A   1      40.274  28.752  29.199  1.00  0.00     0.037 A 
ATOM     52  C   UNL A   1      46.666  28.412  30.479  1.00  0.00     0.049 A 
ATOM     53  C   UNL A   1      41.241  29.681  29.880  1.00  0.00     0.074 A 
ATOM     54  C   UNL A   1      47.469  29.374  31.065  1.00  0.00     0.029 A 
ATOM     55  N   UNL A   1      45.380  28.928  30.445  1.00  0.00    -0.354 N 
ATOM     56  N   UNL A   1      42.529  29.533  30.076  1.00  0.00    -0.248 NA
ATOM     57  C   UNL A   1      40.694  30.939  30.407  1.00  0.00     0.031 C 
ATOM     58  C   UNL A   1      46.661  30.461  31.416  1.00  0.00     0.029 A 
ATOM     59  C   UNL A   1      45.364  30.191  31.012  1.00  0.00     0.049 A 
ATOM     60  H   UNL A   1      44.595  28.465  30.073  1.00  0.00     0.167 HD
ATOM     61  C   UNL A   1      42.951  30.688  30.720  1.00  0.00     0.074 A 
ATOM     62  C   UNL A   1      41.783  31.531  30.877  1.00  0.00     0.031 C 
ATOM     63  C   UNL A   1      44.195  31.022  31.139  1.00  0.00     0.037 A 
BRANCH  50  64
ATOM     64  C   UNL A   1      48.462  26.668  30.146  1.00  0.00     0.057 A 
ATOM     65  C   UNL A   1      48.869  25.895  31.241  1.00  0.00     0.134 A 
ATOM     66  C   UNL A   1      49.429  26.993  29.187  1.00  0.00     0.134 A 
ATOM     67  F   UNL A   1      47.994  25.563  32.203  1.00  0.00    -0.206 F 
ATOM     68  C   UNL A   1      50.194  25.482  31.390  1.00  0.00     0.040 A 
ATOM     69  C   UNL A   1      50.751  26.563  29.312  1.00  0.00     0.040 A 
ATOM     70  F   UNL A   1      49.104  27.726  28.113  1.00  0.00    -0.206 F 
ATOM     71  C   UNL A   1      51.138  25.812  30.420  1.00  0.00     0.006 A 
ENDBRANCH  50  64
BRANCH  51  72
ATOM     72  C   UNL A   1      38.839  29.110  29.078  1.00  0.00     0.057 A 
ATOM     73  C   UNL A   1      37.978  29.006  30.177  1.00  0.00     0.134 A 
ATOM     74  C   UNL A   1      38.294  29.559  27.870  1.00  0.00     0.134 A 
ATOM     75  F   UNL A   1      38.439  28.563  31.356  1.00  0.00    -0.206 F 
ATOM     76  C   UNL A   1      36.621  29.319  30.074  1.00  0.00     0.040 A 
ATOM     77  C   UNL A   1      36.944  29.897  27.759  1.00  0.00     0.040 A 
ATOM     78  F   UNL A   1      39.069  29.687  26.783  1.00  0.00    -0.206 F 
ATOM     79  C   UNL A   1      36.102  29.771  28.862  1.00  0.00     0.006 A 
ENDBRANCH  51  72
BRANCH  63  80
ATOM     80  C   UNL A   1      44.374  32.373  31.765  1.00  0.00     0.057 A 
ATOM     81  C   UNL A   1      44.645  33.512  30.998  1.00  0.00     0.134 A 
ATOM     82  C   UNL A   1      44.204  32.542  33.145  1.00  0.00     0.134 A 
ATOM     83  F   UNL A   1      44.829  33.412  29.674  1.00  0.00    -0.206 F 
ATOM     84  C   UNL A   1      44.753  34.773  31.586  1.00  0.00     0.040 A 
ATOM     85  C   UNL A   1      44.288  33.801  33.740  1.00  0.00     0.040 A 
ATOM     86  F   UNL A   1      43.935  31.490  33.932  1.00  0.00    -0.206 F 
ATOM     87  C   UNL A   1      44.564  34.921  32.959  1.00  0.00     0.006 A 
ENDBRANCH  63  80
ENDBRANCH  37  38
ENDBRANCH  29  32
ENDBRANCH  27  28
ENDBRANCH  26  27
ENDBRANCH   1  26
TORSDOF 14
ENDMDL
