MODEL 1
REMARK VINA RESULT:     -12.7      0.000      0.000
REMARK SMILES Cc1ccc(-c2nc(NC(=O)[C@H]3[C@@H](C(=O)NCCCCNC(=O)c4ccc(-c5c6nc(c(-c7c(F)cccc7F)c7ccc([nH]7)c(-c7c(F)cccc7F)c7nc(c(-c8c(F)cccc8F)c8ccc5[nH]8)C=C7)C=C6)cc4)[C@@H]4CC[C@H]3O4)sc2C)cc1
REMARK SMILES IDX 18 1 17 2 16 3 14 4 15 5 13 7 12 8 81 9 78 10 80 11 82 12
REMARK SMILES IDX 79 13 10 14 9 15 11 17 8 18 6 19 7 20 84 21 83 22 85 23 5 24
REMARK SMILES IDX 1 25 2 26 3 27 87 28 4 29 86 30 19 31 20 32 21 33 22 34
REMARK SMILES IDX 23 36 24 37 25 38 77 39 26 40 76 41 27 42 28 43 29 44 70 45
REMARK SMILES IDX 30 46 75 47 69 48 71 49 31 50 74 51 68 52 67 53 32 55 58 56
REMARK SMILES IDX 41 57 57 58 42 59 45 60 56 61 72 62 43 63 44 64 55 66 73 67
REMARK SMILES IDX 46 68 33 69 34 70 39 71 35 72 36 73 38 74 40 75 37 76 59 77
REMARK SMILES IDX 60 78 65 79 61 80 62 81 64 82 66 83 63 84 47 85 48 86 53 87
REMARK SMILES IDX 49 88 50 89 52 90 54 91 51 92
REMARK H PARENT 16 6 9 16 21 35 71 54 45 65
REMARK Flexibility Score: inf
ROOT
ATOM      1  C   UNL A   1      33.671  29.877  26.887  1.00  0.00     0.023 C 
ENDROOT
BRANCH   1   2
ATOM      2  C   UNL A   1      32.175  29.814  27.239  1.00  0.00     0.116 C 
BRANCH   2   3
ATOM      3  N   UNL A   1      31.441  28.560  27.297  1.00  0.00    -0.356 N 
ATOM      4  C   UNL A   1      31.412  27.501  26.409  1.00  0.00     0.226 C 
ATOM      5  O   UNL A   1      31.446  26.339  26.806  1.00  0.00    -0.275 OA
ATOM      6  H   UNL A   1      30.874  28.447  28.094  1.00  0.00     0.163 HD
BRANCH   4   7
ATOM      7  C   UNL A   1      31.363  27.821  24.968  1.00  0.00     0.122 C 
ATOM      8  C   UNL A   1      30.375  27.117  24.066  1.00  0.00     0.123 C 
ATOM      9  C   UNL A   1      31.014  27.503  22.715  1.00  0.00     0.132 C 
ATOM     10  C   UNL A   1      32.653  27.786  24.105  1.00  0.00     0.132 C 
ATOM     11  C   UNL A   1      31.358  29.027  22.604  1.00  0.00     0.035 C 
ATOM     12  O   UNL A   1      32.308  26.928  22.973  1.00  0.00    -0.373 OA
ATOM     13  C   UNL A   1      32.713  29.102  23.335  1.00  0.00     0.035 C 
BRANCH   8  14
ATOM     14  C   UNL A   1      29.881  25.624  24.005  1.00  0.00     0.232 C 
ATOM     15  N   UNL A   1      30.380  24.375  24.210  1.00  0.00    -0.302 N 
ATOM     16  H   UNL A   1      29.756  23.715  23.830  1.00  0.00     0.172 HD
ATOM     17  O   UNL A   1      28.686  25.548  23.623  1.00  0.00    -0.274 OA
BRANCH  15  18
ATOM     18  C   UNL A   1      31.449  23.710  24.763  1.00  0.00     0.190 A 
ATOM     19  C   UNL A   1      33.485  23.160  25.509  1.00  0.00     0.086 A 
ATOM     20  N   UNL A   1      32.749  23.918  24.550  1.00  0.00    -0.220 NA
ATOM     21  C   UNL A   1      32.648  22.682  26.502  1.00  0.00     0.031 A 
ATOM     22  S   UNL A   1      31.259  22.300  25.626  1.00  0.00    -0.101 S 
ATOM     23  C   UNL A   1      32.762  22.299  27.924  1.00  0.00     0.059 C 
BRANCH  19  24
ATOM     24  C   UNL A   1      34.920  22.857  25.516  1.00  0.00     0.001 A 
ATOM     25  C   UNL A   1      39.087  21.670  25.745  1.00  0.00     0.044 C 
ATOM     26  C   UNL A   1      37.651  22.091  25.621  1.00  0.00    -0.051 A 
ATOM     27  C   UNL A   1      37.263  23.431  25.779  1.00  0.00     0.004 A 
ATOM     28  C   UNL A   1      36.674  21.141  25.344  1.00  0.00     0.004 A 
ATOM     29  C   UNL A   1      35.907  23.815  25.726  1.00  0.00     0.010 A 
ATOM     30  C   UNL A   1      35.338  21.528  25.268  1.00  0.00     0.010 A 
ENDBRANCH  19  24
ENDBRANCH  15  18
ENDBRANCH   8  14
ENDBRANCH   4   7
ENDBRANCH   2   3
ENDBRANCH   1   2
BRANCH   1  31
ATOM     31  C   UNL A   1      34.505  31.086  27.284  1.00  0.00     0.023 C 
BRANCH  31  32
ATOM     32  C   UNL A   1      34.922  31.090  28.736  1.00  0.00     0.116 C 
BRANCH  32  33
ATOM     33  N   UNL A   1      36.169  31.811  28.972  1.00  0.00    -0.352 N 
ATOM     34  C   UNL A   1      37.471  31.376  29.130  1.00  0.00     0.251 C 
ATOM     35  H   UNL A   1      36.063  32.789  29.029  1.00  0.00     0.163 HD
ATOM     36  O   UNL A   1      38.343  32.196  29.371  1.00  0.00    -0.269 OA
BRANCH  34  37
ATOM     37  C   UNL A   1      37.844  29.976  28.785  1.00  0.00     0.039 A 
ATOM     38  C   UNL A   1      37.898  29.105  29.882  1.00  0.00     0.014 A 
ATOM     39  C   UNL A   1      38.625  29.734  27.669  1.00  0.00     0.014 A 
ATOM     40  C   UNL A   1      38.998  28.277  30.018  1.00  0.00     0.010 A 
ATOM     41  C   UNL A   1      39.813  29.092  27.879  1.00  0.00     0.010 A 
ATOM     42  C   UNL A   1      40.011  28.404  29.078  1.00  0.00    -0.014 A 
BRANCH  42  43
ATOM     43  C   UNL A   1      41.278  27.722  29.145  1.00  0.00     0.031 A 
ATOM     44  C   UNL A   1      41.252  26.293  28.808  1.00  0.00     0.074 A 
ATOM     45  C   UNL A   1      42.410  28.431  29.327  1.00  0.00     0.049 A 
ATOM     46  N   UNL A   1      42.142  25.448  29.176  1.00  0.00    -0.248 NA
ATOM     47  C   UNL A   1      40.160  25.691  28.043  1.00  0.00     0.031 C 
ATOM     48  C   UNL A   1      43.785  27.995  29.127  1.00  0.00     0.029 A 
ATOM     49  N   UNL A   1      42.531  29.685  29.937  1.00  0.00    -0.354 N 
ATOM     50  C   UNL A   1      41.920  24.294  28.460  1.00  0.00     0.074 A 
ATOM     51  C   UNL A   1      40.628  24.458  27.845  1.00  0.00     0.031 C 
ATOM     52  C   UNL A   1      44.596  28.781  29.855  1.00  0.00     0.029 A 
ATOM     53  C   UNL A   1      43.748  29.645  30.660  1.00  0.00     0.049 A 
ATOM     54  H   UNL A   1      41.902  30.439  29.875  1.00  0.00     0.167 HD
ATOM     55  C   UNL A   1      42.939  23.402  28.343  1.00  0.00     0.037 A 
ATOM     56  C   UNL A   1      43.712  29.660  32.028  1.00  0.00     0.037 A 
ATOM     57  C   UNL A   1      44.102  23.863  29.098  1.00  0.00     0.049 A 
ATOM     58  C   UNL A   1      44.159  28.356  32.664  1.00  0.00     0.074 A 
ATOM     59  C   UNL A   1      45.220  24.609  28.762  1.00  0.00     0.029 A 
ATOM     60  N   UNL A   1      44.008  23.920  30.473  1.00  0.00    -0.354 N 
ATOM     61  N   UNL A   1      44.415  27.263  31.998  1.00  0.00    -0.248 NA
ATOM     62  C   UNL A   1      44.289  28.166  34.108  1.00  0.00     0.031 C 
ATOM     63  C   UNL A   1      45.763  25.152  29.964  1.00  0.00     0.029 A 
ATOM     64  C   UNL A   1      44.986  24.720  31.024  1.00  0.00     0.049 A 
ATOM     65  H   UNL A   1      43.322  23.446  30.998  1.00  0.00     0.167 HD
ATOM     66  C   UNL A   1      44.693  26.245  32.869  1.00  0.00     0.074 A 
ATOM     67  C   UNL A   1      44.589  26.857  34.182  1.00  0.00     0.031 C 
ATOM     68  C   UNL A   1      44.962  24.970  32.458  1.00  0.00     0.037 A 
BRANCH  55  69
ATOM     69  C   UNL A   1      42.968  22.283  27.339  1.00  0.00     0.057 A 
ATOM     70  C   UNL A   1      42.103  21.183  27.490  1.00  0.00     0.134 A 
ATOM     71  C   UNL A   1      43.827  22.204  26.228  1.00  0.00     0.134 A 
ATOM     72  F   UNL A   1      41.174  21.145  28.454  1.00  0.00    -0.206 F 
ATOM     73  C   UNL A   1      42.149  20.059  26.658  1.00  0.00     0.040 A 
ATOM     74  C   UNL A   1      43.920  21.064  25.418  1.00  0.00     0.040 A 
ATOM     75  F   UNL A   1      44.578  23.244  25.841  1.00  0.00    -0.206 F 
ATOM     76  C   UNL A   1      43.081  19.981  25.636  1.00  0.00     0.006 A 
ENDBRANCH  55  69
BRANCH  56  77
ATOM     77  C   UNL A   1      42.610  30.537  32.531  1.00  0.00     0.057 A 
ATOM     78  C   UNL A   1      42.796  31.931  32.456  1.00  0.00     0.134 A 
ATOM     79  C   UNL A   1      41.291  30.073  32.578  1.00  0.00     0.134 A 
ATOM     80  F   UNL A   1      44.037  32.445  32.426  1.00  0.00    -0.206 F 
ATOM     81  C   UNL A   1      41.727  32.806  32.245  1.00  0.00     0.040 A 
ATOM     82  C   UNL A   1      40.214  30.947  32.388  1.00  0.00     0.040 A 
ATOM     83  F   UNL A   1      41.030  28.761  32.660  1.00  0.00    -0.206 F 
ATOM     84  C   UNL A   1      40.433  32.305  32.161  1.00  0.00     0.006 A 
ENDBRANCH  56  77
BRANCH  68  85
ATOM     85  C   UNL A   1      45.238  23.839  33.408  1.00  0.00     0.057 A 
ATOM     86  C   UNL A   1      44.250  22.921  33.781  1.00  0.00     0.134 A 
ATOM     87  C   UNL A   1      46.476  23.704  34.070  1.00  0.00     0.134 A 
ATOM     88  F   UNL A   1      43.010  22.998  33.275  1.00  0.00    -0.206 F 
ATOM     89  C   UNL A   1      44.495  21.901  34.707  1.00  0.00     0.040 A 
ATOM     90  C   UNL A   1      46.711  22.734  35.045  1.00  0.00     0.040 A 
ATOM     91  F   UNL A   1      47.524  24.491  33.783  1.00  0.00    -0.206 F 
ATOM     92  C   UNL A   1      45.724  21.813  35.352  1.00  0.00     0.006 A 
ENDBRANCH  68  85
ENDBRANCH  42  43
ENDBRANCH  34  37
ENDBRANCH  32  33
ENDBRANCH  31  32
ENDBRANCH   1  31
TORSDOF 14
ENDMDL
MODEL 2
REMARK VINA RESULT:     -12.5      3.602      9.274
REMARK SMILES Cc1ccc(-c2nc(NC(=O)[C@H]3[C@@H](C(=O)NCCCCNC(=O)c4ccc(-c5c6nc(c(-c7c(F)cccc7F)c7ccc([nH]7)c(-c7c(F)cccc7F)c7nc(c(-c8c(F)cccc8F)c8ccc5[nH]8)C=C7)C=C6)cc4)[C@@H]4CC[C@H]3O4)sc2C)cc1
REMARK SMILES IDX 18 1 17 2 16 3 14 4 15 5 13 7 12 8 81 9 78 10 80 11 82 12
REMARK SMILES IDX 79 13 10 14 9 15 11 17 8 18 6 19 7 20 84 21 83 22 85 23 5 24
REMARK SMILES IDX 1 25 2 26 3 27 87 28 4 29 86 30 19 31 20 32 21 33 22 34
REMARK SMILES IDX 23 36 24 37 25 38 77 39 26 40 76 41 27 42 28 43 29 44 70 45
REMARK SMILES IDX 30 46 75 47 69 48 71 49 31 50 74 51 68 52 67 53 32 55 58 56
REMARK SMILES IDX 41 57 57 58 42 59 45 60 56 61 72 62 43 63 44 64 55 66 73 67
REMARK SMILES IDX 46 68 33 69 34 70 39 71 35 72 36 73 38 74 40 75 37 76 59 77
REMARK SMILES IDX 60 78 65 79 61 80 62 81 64 82 66 83 63 84 47 85 48 86 53 87
REMARK SMILES IDX 49 88 50 89 52 90 54 91 51 92
REMARK H PARENT 16 6 9 16 21 35 71 54 45 65
REMARK Flexibility Score: inf
ROOT
ATOM      1  C   UNL A   1      38.429  21.314  25.371  1.00  0.00     0.023 C 
ENDROOT
BRANCH   1   2
ATOM      2  C   UNL A   1      37.475  22.494  25.119  1.00  0.00     0.116 C 
BRANCH   2   3
ATOM      3  N   UNL A   1      36.730  22.643  23.879  1.00  0.00    -0.356 N 
ATOM      4  C   UNL A   1      35.381  22.858  23.669  1.00  0.00     0.226 C 
ATOM      5  O   UNL A   1      34.990  23.663  22.828  1.00  0.00    -0.275 OA
ATOM      6  H   UNL A   1      37.272  22.581  23.060  1.00  0.00     0.163 HD
BRANCH   4   7
ATOM      7  C   UNL A   1      34.431  22.102  24.510  1.00  0.00     0.122 C 
ATOM      8  C   UNL A   1      33.096  21.670  23.949  1.00  0.00     0.123 C 
ATOM      9  C   UNL A   1      32.408  21.326  25.287  1.00  0.00     0.132 C 
ATOM     10  C   UNL A   1      34.025  22.628  25.914  1.00  0.00     0.132 C 
ATOM     11  C   UNL A   1      33.288  20.429  26.224  1.00  0.00     0.035 C 
ATOM     12  O   UNL A   1      32.563  22.623  25.891  1.00  0.00    -0.373 OA
ATOM     13  C   UNL A   1      34.204  21.472  26.894  1.00  0.00     0.035 C 
BRANCH   8  14
ATOM     14  C   UNL A   1      32.067  22.392  23.001  1.00  0.00     0.232 C 
ATOM     15  N   UNL A   1      31.374  23.561  22.948  1.00  0.00    -0.302 N 
ATOM     16  H   UNL A   1      30.667  23.484  22.268  1.00  0.00     0.172 HD
ATOM     17  O   UNL A   1      31.762  21.672  22.017  1.00  0.00    -0.274 OA
BRANCH  15  18
ATOM     18  C   UNL A   1      31.316  24.814  23.512  1.00  0.00     0.190 A 
ATOM     19  C   UNL A   1      31.842  26.816  24.359  1.00  0.00     0.086 A 
ATOM     20  N   UNL A   1      32.275  25.471  24.165  1.00  0.00    -0.220 NA
ATOM     21  C   UNL A   1      30.722  27.086  23.593  1.00  0.00     0.031 A 
ATOM     22  S   UNL A   1      29.877  25.630  23.696  1.00  0.00    -0.101 S 
ATOM     23  C   UNL A   1      30.098  28.267  22.962  1.00  0.00     0.059 C 
BRANCH  19  24
ATOM     24  C   UNL A   1      32.422  27.837  25.238  1.00  0.00     0.001 A 
ATOM     25  C   UNL A   1      33.949  31.106  27.648  1.00  0.00     0.044 C 
ATOM     26  C   UNL A   1      33.415  29.950  26.853  1.00  0.00    -0.051 A 
ATOM     27  C   UNL A   1      34.256  28.920  26.401  1.00  0.00     0.004 A 
ATOM     28  C   UNL A   1      32.060  29.886  26.551  1.00  0.00     0.004 A 
ATOM     29  C   UNL A   1      33.765  27.869  25.600  1.00  0.00     0.010 A 
ATOM     30  C   UNL A   1      31.574  28.832  25.779  1.00  0.00     0.010 A 
ENDBRANCH  19  24
ENDBRANCH  15  18
ENDBRANCH   8  14
ENDBRANCH   4   7
ENDBRANCH   2   3
ENDBRANCH   1   2
BRANCH   1  31
ATOM     31  C   UNL A   1      39.672  21.499  26.229  1.00  0.00     0.023 C 
BRANCH  31  32
ATOM     32  C   UNL A   1      39.692  22.793  27.006  1.00  0.00     0.116 C 
BRANCH  32  33
ATOM     33  N   UNL A   1      41.030  23.363  27.138  1.00  0.00    -0.352 N 
ATOM     34  C   UNL A   1      41.479  24.670  27.154  1.00  0.00     0.251 C 
ATOM     35  H   UNL A   1      41.744  22.691  27.234  1.00  0.00     0.163 HD
ATOM     36  O   UNL A   1      42.679  24.880  27.228  1.00  0.00    -0.269 OA
BRANCH  34  37
ATOM     37  C   UNL A   1      40.517  25.795  27.313  1.00  0.00     0.039 A 
ATOM     38  C   UNL A   1      40.788  26.906  26.503  1.00  0.00     0.014 A 
ATOM     39  C   UNL A   1      39.852  25.958  28.514  1.00  0.00     0.014 A 
ATOM     40  C   UNL A   1      40.772  28.165  27.077  1.00  0.00     0.010 A 
ATOM     41  C   UNL A   1      40.033  27.151  29.157  1.00  0.00     0.010 A 
ATOM     42  C   UNL A   1      40.539  28.238  28.443  1.00  0.00    -0.014 A 
BRANCH  42  43
ATOM     43  C   UNL A   1      40.622  29.448  29.222  1.00  0.00     0.031 A 
ATOM     44  C   UNL A   1      39.467  30.350  29.125  1.00  0.00     0.074 A 
ATOM     45  C   UNL A   1      41.627  29.606  30.106  1.00  0.00     0.049 A 
ATOM     46  N   UNL A   1      39.502  31.601  29.398  1.00  0.00    -0.248 NA
ATOM     47  C   UNL A   1      38.158  29.893  28.657  1.00  0.00     0.031 C 
ATOM     48  C   UNL A   1      41.731  30.582  31.182  1.00  0.00     0.029 A 
ATOM     49  N   UNL A   1      42.887  28.997  30.069  1.00  0.00    -0.354 N 
ATOM     50  C   UNL A   1      38.198  32.038  29.446  1.00  0.00     0.074 A 
ATOM     51  C   UNL A   1      37.408  30.971  28.886  1.00  0.00     0.031 C 
ATOM     52  C   UNL A   1      43.029  30.736  31.499  1.00  0.00     0.029 A 
ATOM     53  C   UNL A   1      43.801  29.976  30.529  1.00  0.00     0.049 A 
ATOM     54  H   UNL A   1      43.094  28.079  29.783  1.00  0.00     0.167 HD
ATOM     55  C   UNL A   1      37.929  33.193  30.110  1.00  0.00     0.037 A 
ATOM     56  C   UNL A   1      44.707  30.509  29.652  1.00  0.00     0.037 A 
ATOM     57  C   UNL A   1      39.167  33.787  30.611  1.00  0.00     0.049 A 
ATOM     58  C   UNL A   1      44.457  31.971  29.331  1.00  0.00     0.074 A 
ATOM     59  C   UNL A   1      39.848  33.697  31.814  1.00  0.00     0.029 A 
ATOM     60  N   UNL A   1      40.083  34.260  29.693  1.00  0.00    -0.354 N 
ATOM     61  N   UNL A   1      43.406  32.640  29.720  1.00  0.00    -0.248 NA
ATOM     62  C   UNL A   1      45.343  32.775  28.491  1.00  0.00     0.031 C 
ATOM     63  C   UNL A   1      41.202  34.082  31.584  1.00  0.00     0.029 A 
ATOM     64  C   UNL A   1      41.335  34.421  30.249  1.00  0.00     0.049 A 
ATOM     65  H   UNL A   1      39.868  34.459  28.753  1.00  0.00     0.167 HD
ATOM     66  C   UNL A   1      43.433  33.898  29.183  1.00  0.00     0.074 A 
ATOM     67  C   UNL A   1      44.662  33.931  28.409  1.00  0.00     0.031 C 
ATOM     68  C   UNL A   1      42.440  34.814  29.387  1.00  0.00     0.037 A 
BRANCH  55  69
ATOM     69  C   UNL A   1      36.552  33.621  30.533  1.00  0.00     0.057 A 
ATOM     70  C   UNL A   1      35.611  34.014  29.563  1.00  0.00     0.134 A 
ATOM     71  C   UNL A   1      36.092  33.698  31.860  1.00  0.00     0.134 A 
ATOM     72  F   UNL A   1      35.871  33.925  28.253  1.00  0.00    -0.206 F 
ATOM     73  C   UNL A   1      34.350  34.525  29.890  1.00  0.00     0.040 A 
ATOM     74  C   UNL A   1      34.852  34.255  32.204  1.00  0.00     0.040 A 
ATOM     75  F   UNL A   1      36.794  33.191  32.882  1.00  0.00    -0.206 F 
ATOM     76  C   UNL A   1      33.977  34.677  31.215  1.00  0.00     0.006 A 
ENDBRANCH  55  69
BRANCH  56  77
ATOM     77  C   UNL A   1      45.190  29.478  28.682  1.00  0.00     0.057 A 
ATOM     78  C   UNL A   1      46.092  28.504  29.155  1.00  0.00     0.134 A 
ATOM     79  C   UNL A   1      44.436  29.150  27.551  1.00  0.00     0.134 A 
ATOM     80  F   UNL A   1      46.861  28.762  30.225  1.00  0.00    -0.206 F 
ATOM     81  C   UNL A   1      46.103  27.203  28.647  1.00  0.00     0.040 A 
ATOM     82  C   UNL A   1      44.457  27.853  27.023  1.00  0.00     0.040 A 
ATOM     83  F   UNL A   1      43.563  30.025  27.033  1.00  0.00    -0.206 F 
ATOM     84  C   UNL A   1      45.244  26.862  27.607  1.00  0.00     0.006 A 
ENDBRANCH  56  77
BRANCH  68  85
ATOM     85  C   UNL A   1      42.445  36.187  28.777  1.00  0.00     0.057 A 
ATOM     86  C   UNL A   1      41.953  36.432  27.490  1.00  0.00     0.134 A 
ATOM     87  C   UNL A   1      43.054  37.286  29.417  1.00  0.00     0.134 A 
ATOM     88  F   UNL A   1      41.421  35.444  26.754  1.00  0.00    -0.206 F 
ATOM     89  C   UNL A   1      42.009  37.701  26.902  1.00  0.00     0.040 A 
ATOM     90  C   UNL A   1      43.178  38.539  28.814  1.00  0.00     0.040 A 
ATOM     91  F   UNL A   1      43.535  37.204  30.666  1.00  0.00    -0.206 F 
ATOM     92  C   UNL A   1      42.634  38.756  27.559  1.00  0.00     0.006 A 
ENDBRANCH  68  85
ENDBRANCH  42  43
ENDBRANCH  34  37
ENDBRANCH  32  33
ENDBRANCH  31  32
ENDBRANCH   1  31
TORSDOF 14
ENDMDL
MODEL 3
REMARK VINA RESULT:     -12.3      2.538      4.146
REMARK SMILES Cc1ccc(-c2nc(NC(=O)[C@H]3[C@@H](C(=O)NCCCCNC(=O)c4ccc(-c5c6nc(c(-c7c(F)cccc7F)c7ccc([nH]7)c(-c7c(F)cccc7F)c7nc(c(-c8c(F)cccc8F)c8ccc5[nH]8)C=C7)C=C6)cc4)[C@@H]4CC[C@H]3O4)sc2C)cc1
REMARK SMILES IDX 18 1 17 2 16 3 14 4 15 5 13 7 12 8 81 9 78 10 80 11 82 12
REMARK SMILES IDX 79 13 10 14 9 15 11 17 8 18 6 19 7 20 84 21 83 22 85 23 5 24
REMARK SMILES IDX 1 25 2 26 3 27 87 28 4 29 86 30 19 31 20 32 21 33 22 34
REMARK SMILES IDX 23 36 24 37 25 38 77 39 26 40 76 41 27 42 28 43 29 44 70 45
REMARK SMILES IDX 30 46 75 47 69 48 71 49 31 50 74 51 68 52 67 53 32 55 58 56
REMARK SMILES IDX 41 57 57 58 42 59 45 60 56 61 72 62 43 63 44 64 55 66 73 67
REMARK SMILES IDX 46 68 33 69 34 70 39 71 35 72 36 73 38 74 40 75 37 76 59 77
REMARK SMILES IDX 60 78 65 79 61 80 62 81 64 82 66 83 63 84 47 85 48 86 53 87
REMARK SMILES IDX 49 88 50 89 52 90 54 91 51 92
REMARK H PARENT 16 6 9 16 21 35 71 54 45 65
REMARK Flexibility Score: inf
ROOT
ATOM      1  C   UNL A   1      34.086  30.071  26.894  1.00  0.00     0.023 C 
ENDROOT
BRANCH   1   2
ATOM      2  C   UNL A   1      32.585  30.127  27.224  1.00  0.00     0.116 C 
BRANCH   2   3
ATOM      3  N   UNL A   1      31.759  28.932  27.299  1.00  0.00    -0.356 N 
ATOM      4  C   UNL A   1      31.829  27.752  26.581  1.00  0.00     0.226 C 
ATOM      5  O   UNL A   1      31.692  26.664  27.135  1.00  0.00    -0.275 OA
ATOM      6  H   UNL A   1      31.036  28.968  27.965  1.00  0.00     0.163 HD
BRANCH   4   7
ATOM      7  C   UNL A   1      32.099  27.850  25.133  1.00  0.00     0.122 C 
ATOM      8  C   UNL A   1      31.035  27.460  24.133  1.00  0.00     0.123 C 
ATOM      9  C   UNL A   1      31.942  27.365  22.888  1.00  0.00     0.132 C 
ATOM     10  C   UNL A   1      33.363  27.193  24.517  1.00  0.00     0.132 C 
ATOM     11  C   UNL A   1      32.886  28.603  22.713  1.00  0.00     0.035 C 
ATOM     12  O   UNL A   1      32.847  26.379  23.418  1.00  0.00    -0.373 OA
ATOM     13  C   UNL A   1      34.049  28.254  23.662  1.00  0.00     0.035 C 
BRANCH   8  14
ATOM     14  C   UNL A   1      29.990  26.283  24.112  1.00  0.00     0.232 C 
ATOM     15  N   UNL A   1      29.966  24.936  24.299  1.00  0.00    -0.302 N 
ATOM     16  H   UNL A   1      29.114  24.580  23.959  1.00  0.00     0.172 HD
ATOM     17  O   UNL A   1      28.843  26.689  23.796  1.00  0.00    -0.274 OA
BRANCH  15  18
ATOM     18  C   UNL A   1      30.715  23.896  24.797  1.00  0.00     0.190 A 
ATOM     19  C   UNL A   1      32.228  22.269  25.059  1.00  0.00     0.086 A 
ATOM     20  N   UNL A   1      31.444  23.005  24.123  1.00  0.00    -0.220 NA
ATOM     21  C   UNL A   1      32.199  22.872  26.304  1.00  0.00     0.031 A 
ATOM     22  S   UNL A   1      30.604  23.413  26.386  1.00  0.00    -0.101 S 
ATOM     23  C   UNL A   1      33.076  22.955  27.490  1.00  0.00     0.059 C 
BRANCH  19  24
ATOM     24  C   UNL A   1      32.978  21.028  24.836  1.00  0.00     0.001 A 
ATOM     25  C   UNL A   1      34.938  17.186  24.371  1.00  0.00     0.044 C 
ATOM     26  C   UNL A   1      34.269  18.524  24.487  1.00  0.00    -0.051 A 
ATOM     27  C   UNL A   1      34.999  19.686  24.788  1.00  0.00     0.004 A 
ATOM     28  C   UNL A   1      32.896  18.630  24.295  1.00  0.00     0.004 A 
ATOM     29  C   UNL A   1      34.360  20.931  24.961  1.00  0.00     0.010 A 
ATOM     30  C   UNL A   1      32.272  19.867  24.442  1.00  0.00     0.010 A 
ENDBRANCH  19  24
ENDBRANCH  15  18
ENDBRANCH   8  14
ENDBRANCH   4   7
ENDBRANCH   2   3
ENDBRANCH   1   2
BRANCH   1  31
ATOM     31  C   UNL A   1      35.088  29.608  27.942  1.00  0.00     0.023 C 
BRANCH  31  32
ATOM     32  C   UNL A   1      35.652  30.727  28.785  1.00  0.00     0.116 C 
BRANCH  32  33
ATOM     33  N   UNL A   1      34.689  31.794  29.041  1.00  0.00    -0.352 N 
ATOM     34  C   UNL A   1      34.709  32.864  29.916  1.00  0.00     0.251 C 
ATOM     35  H   UNL A   1      33.875  31.741  28.489  1.00  0.00     0.163 HD
ATOM     36  O   UNL A   1      33.735  33.598  29.971  1.00  0.00    -0.269 OA
BRANCH  34  37
ATOM     37  C   UNL A   1      35.971  33.252  30.603  1.00  0.00     0.039 A 
ATOM     38  C   UNL A   1      36.927  33.845  29.767  1.00  0.00     0.014 A 
ATOM     39  C   UNL A   1      36.371  32.561  31.733  1.00  0.00     0.014 A 
ATOM     40  C   UNL A   1      38.234  33.397  29.833  1.00  0.00     0.010 A 
ATOM     41  C   UNL A   1      37.593  31.952  31.678  1.00  0.00     0.010 A 
ATOM     42  C   UNL A   1      38.504  32.343  30.695  1.00  0.00    -0.014 A 
BRANCH  42  43
ATOM     43  C   UNL A   1      39.773  31.667  30.788  1.00  0.00     0.031 A 
ATOM     44  C   UNL A   1      39.876  30.400  30.053  1.00  0.00     0.074 A 
ATOM     45  C   UNL A   1      40.820  32.288  31.367  1.00  0.00     0.049 A 
ATOM     46  N   UNL A   1      40.730  29.481  30.314  1.00  0.00    -0.248 NA
ATOM     47  C   UNL A   1      38.964  30.053  28.963  1.00  0.00     0.031 C 
ATOM     48  C   UNL A   1      42.229  31.925  31.299  1.00  0.00     0.029 A 
ATOM     49  N   UNL A   1      40.772  33.307  32.325  1.00  0.00    -0.354 N 
ATOM     50  C   UNL A   1      40.693  28.589  29.267  1.00  0.00     0.074 A 
ATOM     51  C   UNL A   1      39.519  28.931  28.504  1.00  0.00     0.031 C 
ATOM     52  C   UNL A   1      42.862  32.460  32.357  1.00  0.00     0.029 A 
ATOM     53  C   UNL A   1      41.846  33.053  33.212  1.00  0.00     0.049 A 
ATOM     54  H   UNL A   1      40.126  34.048  32.372  1.00  0.00     0.167 HD
ATOM     55  C   UNL A   1      41.759  27.767  29.081  1.00  0.00     0.037 A 
ATOM     56  C   UNL A   1      41.574  32.665  34.497  1.00  0.00     0.037 A 
ATOM     57  C   UNL A   1      42.751  27.983  30.133  1.00  0.00     0.049 A 
ATOM     58  C   UNL A   1      41.969  31.231  34.797  1.00  0.00     0.074 A 
ATOM     59  C   UNL A   1      43.872  28.791  30.234  1.00  0.00     0.029 A 
ATOM     60  N   UNL A   1      42.418  27.634  31.426  1.00  0.00    -0.354 N 
ATOM     61  N   UNL A   1      42.390  30.380  33.901  1.00  0.00    -0.248 NA
ATOM     62  C   UNL A   1      41.857  30.625  36.123  1.00  0.00     0.031 C 
ATOM     63  C   UNL A   1      44.171  28.956  31.619  1.00  0.00     0.029 A 
ATOM     64  C   UNL A   1      43.246  28.234  32.351  1.00  0.00     0.049 A 
ATOM     65  H   UNL A   1      41.677  27.029  31.660  1.00  0.00     0.167 HD
ATOM     66  C   UNL A   1      42.563  29.151  34.475  1.00  0.00     0.074 A 
ATOM     67  C   UNL A   1      42.204  29.351  35.868  1.00  0.00     0.031 C 
ATOM     68  C   UNL A   1      42.963  28.052  33.768  1.00  0.00     0.037 A 
BRANCH  55  69
ATOM     69  C   UNL A   1      42.016  26.992  27.819  1.00  0.00     0.057 A 
ATOM     70  C   UNL A   1      42.489  27.656  26.672  1.00  0.00     0.134 A 
ATOM     71  C   UNL A   1      41.800  25.612  27.649  1.00  0.00     0.134 A 
ATOM     72  F   UNL A   1      42.816  28.954  26.695  1.00  0.00    -0.206 F 
ATOM     73  C   UNL A   1      42.648  27.021  25.436  1.00  0.00     0.040 A 
ATOM     74  C   UNL A   1      41.905  24.973  26.406  1.00  0.00     0.040 A 
ATOM     75  F   UNL A   1      41.528  24.807  28.685  1.00  0.00    -0.206 F 
ATOM     76  C   UNL A   1      42.326  25.682  25.290  1.00  0.00     0.006 A 
ENDBRANCH  55  69
BRANCH  56  77
ATOM     77  C   UNL A   1      40.360  33.359  35.024  1.00  0.00     0.057 A 
ATOM     78  C   UNL A   1      39.179  32.603  35.159  1.00  0.00     0.134 A 
ATOM     79  C   UNL A   1      40.477  34.500  35.825  1.00  0.00     0.134 A 
ATOM     80  F   UNL A   1      38.992  31.506  34.407  1.00  0.00    -0.206 F 
ATOM     81  C   UNL A   1      38.251  32.859  36.172  1.00  0.00     0.040 A 
ATOM     82  C   UNL A   1      39.541  34.776  36.828  1.00  0.00     0.040 A 
ATOM     83  F   UNL A   1      41.566  35.279  35.749  1.00  0.00    -0.206 F 
ATOM     84  C   UNL A   1      38.460  33.923  37.043  1.00  0.00     0.006 A 
ENDBRANCH  56  77
BRANCH  68  85
ATOM     85  C   UNL A   1      43.127  26.691  34.383  1.00  0.00     0.057 A 
ATOM     86  C   UNL A   1      44.369  26.049  34.453  1.00  0.00     0.134 A 
ATOM     87  C   UNL A   1      42.022  25.930  34.818  1.00  0.00     0.134 A 
ATOM     88  F   UNL A   1      45.480  26.646  33.996  1.00  0.00    -0.206 F 
ATOM     89  C   UNL A   1      44.510  24.759  34.976  1.00  0.00     0.040 A 
ATOM     90  C   UNL A   1      42.141  24.618  35.278  1.00  0.00     0.040 A 
ATOM     91  F   UNL A   1      40.779  26.432  34.842  1.00  0.00    -0.206 F 
ATOM     92  C   UNL A   1      43.394  24.034  35.379  1.00  0.00     0.006 A 
ENDBRANCH  68  85
ENDBRANCH  42  43
ENDBRANCH  34  37
ENDBRANCH  32  33
ENDBRANCH  31  32
ENDBRANCH   1  31
TORSDOF 14
ENDMDL
