MODEL 1
REMARK VINA RESULT:     -12.5      0.000      0.000
REMARK SMILES Cc1cc(C)c2c(c1)C=C(C(=O)NCCCCNC(=O)c1ccc(-c3c4nc(c(-c5c(F)cccc5F)c5ccc([nH]5)c(-c5c(F)cccc5F)c5nc(c(-c6c(F)cccc6F)c6ccc3[nH]6)C=C5)C=C4)cc1)[C@@H](C(F)(F)F)O2
REMARK SMILES IDX 16 1 15 2 14 3 13 4 11 5 12 6 10 8 1 9 2 10 3 11 8 12 4 13
REMARK SMILES IDX 7 14 5 15 6 16 9 17 80 18 75 19 76 20 77 21 78 22 79 23
REMARK SMILES IDX 17 24 18 25 19 26 20 28 21 29 22 30 74 31 23 32 73 33 24 34
REMARK SMILES IDX 25 35 26 36 67 37 27 38 72 39 66 40 68 41 28 42 71 43 65 44
REMARK SMILES IDX 64 45 29 47 55 48 38 49 54 50 39 51 42 52 53 53 69 54 40 55
REMARK SMILES IDX 41 56 52 58 70 59 43 60 30 61 31 62 36 63 32 64 33 65 35 66
REMARK SMILES IDX 37 67 34 68 56 69 57 70 62 71 58 72 59 73 61 74 63 75 60 76
REMARK SMILES IDX 44 77 45 78 50 79 46 80 47 81 49 82 51 83 48 84
REMARK H PARENT 13 7 18 27 68 46 42 57
REMARK Flexibility Score: inf
ROOT
ATOM      1  C   UNL A   1      31.530  31.978  26.692  1.00  0.00     0.023 C 
ENDROOT
BRANCH   1   2
ATOM      2  C   UNL A   1      31.776  30.474  26.553  1.00  0.00     0.023 C 
BRANCH   2   3
ATOM      3  C   UNL A   1      33.199  30.112  26.135  1.00  0.00     0.116 C 
BRANCH   3   4
ATOM      4  N   UNL A   1      33.266  29.702  24.745  1.00  0.00    -0.352 N 
ATOM      5  C   UNL A   1      33.070  28.561  24.042  1.00  0.00     0.251 C 
ATOM      6  O   UNL A   1      33.253  28.661  22.824  1.00  0.00    -0.270 OA
ATOM      7  H   UNL A   1      33.523  30.450  24.158  1.00  0.00     0.163 HD
BRANCH   5   8
ATOM      8  C   UNL A   1      32.663  27.248  24.623  1.00  0.00     0.067 C 
ATOM      9  C   UNL A   1      35.085  21.869  26.499  1.00  0.00     0.044 C 
ATOM     10  C   UNL A   1      34.028  22.913  26.291  1.00  0.00    -0.050 A 
ATOM     11  C   UNL A   1      32.703  22.643  26.658  1.00  0.00     0.010 A 
ATOM     12  C   UNL A   1      34.346  24.161  25.737  1.00  0.00     0.015 A 
ATOM     13  C   UNL A   1      31.696  23.600  26.480  1.00  0.00    -0.008 A 
ATOM     14  C   UNL A   1      33.351  25.123  25.544  1.00  0.00     0.018 A 
ATOM     15  C   UNL A   1      30.278  23.298  26.873  1.00  0.00     0.048 C 
ATOM     16  C   UNL A   1      32.034  24.834  25.910  1.00  0.00     0.130 A 
ATOM     17  C   UNL A   1      33.671  26.437  24.996  1.00  0.00     0.025 C 
ATOM     18  O   UNL A   1      31.032  25.756  25.774  1.00  0.00    -0.475 OA
ATOM     19  C   UNL A   1      31.242  26.784  24.769  1.00  0.00     0.314 C 
BRANCH  19  20
ATOM     20  C   UNL A   1      30.624  26.327  23.434  1.00  0.00     0.429 C 
ATOM     21  F   UNL A   1      31.578  25.792  22.629  1.00  0.00    -0.167 F 
ATOM     22  F   UNL A   1      29.687  25.364  23.602  1.00  0.00    -0.167 F 
ATOM     23  F   UNL A   1      30.036  27.333  22.751  1.00  0.00    -0.167 F 
ENDBRANCH  19  20
ENDBRANCH   5   8
ENDBRANCH   3   4
ENDBRANCH   2   3
ENDBRANCH   1   2
BRANCH   1  24
ATOM     24  C   UNL A   1      32.688  32.779  27.285  1.00  0.00     0.116 C 
BRANCH  24  25
ATOM     25  N   UNL A   1      32.344  34.151  27.626  1.00  0.00    -0.352 N 
ATOM     26  C   UNL A   1      32.971  34.980  28.526  1.00  0.00     0.251 C 
ATOM     27  H   UNL A   1      31.569  34.532  27.156  1.00  0.00     0.163 HD
ATOM     28  O   UNL A   1      32.529  36.097  28.770  1.00  0.00    -0.269 OA
BRANCH  26  29
ATOM     29  C   UNL A   1      34.164  34.479  29.232  1.00  0.00     0.039 A 
ATOM     30  C   UNL A   1      33.993  33.804  30.442  1.00  0.00     0.014 A 
ATOM     31  C   UNL A   1      35.430  34.611  28.656  1.00  0.00     0.014 A 
ATOM     32  C   UNL A   1      35.092  33.191  31.043  1.00  0.00     0.010 A 
ATOM     33  C   UNL A   1      36.512  33.951  29.226  1.00  0.00     0.010 A 
ATOM     34  C   UNL A   1      36.349  33.230  30.419  1.00  0.00    -0.014 A 
BRANCH  34  35
ATOM     35  C   UNL A   1      37.511  32.518  31.000  1.00  0.00     0.031 A 
ATOM     36  C   UNL A   1      38.119  33.005  32.283  1.00  0.00     0.074 A 
ATOM     37  C   UNL A   1      38.048  31.472  30.345  1.00  0.00     0.049 A 
ATOM     38  N   UNL A   1      39.173  32.559  32.917  1.00  0.00    -0.248 NA
ATOM     39  C   UNL A   1      37.470  34.159  32.925  1.00  0.00     0.031 C 
ATOM     40  C   UNL A   1      37.567  30.932  29.071  1.00  0.00     0.029 A 
ATOM     41  N   UNL A   1      39.120  30.676  30.660  1.00  0.00    -0.354 N 
ATOM     42  C   UNL A   1      39.318  33.383  34.024  1.00  0.00     0.074 A 
ATOM     43  C   UNL A   1      38.277  34.385  33.951  1.00  0.00     0.031 C 
ATOM     44  C   UNL A   1      38.322  29.875  28.730  1.00  0.00     0.029 A 
ATOM     45  C   UNL A   1      39.357  29.683  29.741  1.00  0.00     0.049 A 
ATOM     46  H   UNL A   1      39.668  30.805  31.467  1.00  0.00     0.167 HD
ATOM     47  C   UNL A   1      40.223  33.295  35.027  1.00  0.00     0.037 A 
ATOM     48  C   UNL A   1      40.302  28.724  29.721  1.00  0.00     0.037 A 
ATOM     49  C   UNL A   1      41.240  32.282  35.112  1.00  0.00     0.049 A 
ATOM     50  C   UNL A   1      41.300  28.653  30.842  1.00  0.00     0.074 A 
ATOM     51  C   UNL A   1      42.176  32.083  36.110  1.00  0.00     0.029 A 
ATOM     52  N   UNL A   1      41.447  31.293  34.163  1.00  0.00    -0.354 N 
ATOM     53  N   UNL A   1      41.402  29.414  31.904  1.00  0.00    -0.248 NA
ATOM     54  C   UNL A   1      42.312  27.590  30.762  1.00  0.00     0.031 C 
ATOM     55  C   UNL A   1      42.968  30.988  35.752  1.00  0.00     0.029 A 
ATOM     56  C   UNL A   1      42.504  30.487  34.546  1.00  0.00     0.049 A 
ATOM     57  H   UNL A   1      40.921  31.181  33.339  1.00  0.00     0.167 HD
ATOM     58  C   UNL A   1      42.476  28.913  32.628  1.00  0.00     0.074 A 
ATOM     59  C   UNL A   1      42.986  27.776  31.890  1.00  0.00     0.031 C 
ATOM     60  C   UNL A   1      42.993  29.357  33.799  1.00  0.00     0.037 A 
BRANCH  47  61
ATOM     61  C   UNL A   1      40.137  34.315  36.120  1.00  0.00     0.057 A 
ATOM     62  C   UNL A   1      39.353  34.100  37.261  1.00  0.00     0.134 A 
ATOM     63  C   UNL A   1      40.865  35.509  36.049  1.00  0.00     0.134 A 
ATOM     64  F   UNL A   1      38.621  32.983  37.382  1.00  0.00    -0.206 F 
ATOM     65  C   UNL A   1      39.279  35.047  38.285  1.00  0.00     0.040 A 
ATOM     66  C   UNL A   1      40.817  36.453  37.076  1.00  0.00     0.040 A 
ATOM     67  F   UNL A   1      41.636  35.774  34.983  1.00  0.00    -0.206 F 
ATOM     68  C   UNL A   1      40.019  36.225  38.196  1.00  0.00     0.006 A 
ENDBRANCH  47  61
BRANCH  48  69
ATOM     69  C   UNL A   1      40.322  27.731  28.621  1.00  0.00     0.057 A 
ATOM     70  C   UNL A   1      41.052  27.974  27.453  1.00  0.00     0.134 A 
ATOM     71  C   UNL A   1      39.631  26.517  28.711  1.00  0.00     0.134 A 
ATOM     72  F   UNL A   1      41.721  29.128  27.304  1.00  0.00    -0.206 F 
ATOM     73  C   UNL A   1      41.088  27.051  26.407  1.00  0.00     0.040 A 
ATOM     74  C   UNL A   1      39.672  25.576  27.680  1.00  0.00     0.040 A 
ATOM     75  F   UNL A   1      38.918  26.224  29.808  1.00  0.00    -0.206 F 
ATOM     76  C   UNL A   1      40.401  25.845  26.522  1.00  0.00     0.006 A 
ENDBRANCH  48  69
BRANCH  60  77
ATOM     77  C   UNL A   1      44.159  28.607  34.364  1.00  0.00     0.057 A 
ATOM     78  C   UNL A   1      43.982  27.482  35.178  1.00  0.00     0.134 A 
ATOM     79  C   UNL A   1      45.471  28.972  34.034  1.00  0.00     0.134 A 
ATOM     80  F   UNL A   1      42.750  27.091  35.538  1.00  0.00    -0.206 F 
ATOM     81  C   UNL A   1      45.070  26.749  35.652  1.00  0.00     0.040 A 
ATOM     82  C   UNL A   1      46.566  28.235  34.486  1.00  0.00     0.040 A 
ATOM     83  F   UNL A   1      45.705  30.036  33.251  1.00  0.00    -0.206 F 
ATOM     84  C   UNL A   1      46.367  27.120  35.298  1.00  0.00     0.006 A 
ENDBRANCH  60  77
ENDBRANCH  34  35
ENDBRANCH  26  29
ENDBRANCH  24  25
ENDBRANCH   1  24
TORSDOF 12
ENDMDL
MODEL 2
REMARK VINA RESULT:     -12.5      5.160     10.131
REMARK SMILES Cc1cc(C)c2c(c1)C=C(C(=O)NCCCCNC(=O)c1ccc(-c3c4nc(c(-c5c(F)cccc5F)c5ccc([nH]5)c(-c5c(F)cccc5F)c5nc(c(-c6c(F)cccc6F)c6ccc3[nH]6)C=C5)C=C4)cc1)[C@@H](C(F)(F)F)O2
REMARK SMILES IDX 16 1 15 2 14 3 13 4 11 5 12 6 10 8 1 9 2 10 3 11 8 12 4 13
REMARK SMILES IDX 7 14 5 15 6 16 9 17 80 18 75 19 76 20 77 21 78 22 79 23
REMARK SMILES IDX 17 24 18 25 19 26 20 28 21 29 22 30 74 31 23 32 73 33 24 34
REMARK SMILES IDX 25 35 26 36 67 37 27 38 72 39 66 40 68 41 28 42 71 43 65 44
REMARK SMILES IDX 64 45 29 47 55 48 38 49 54 50 39 51 42 52 53 53 69 54 40 55
REMARK SMILES IDX 41 56 52 58 70 59 43 60 30 61 31 62 36 63 32 64 33 65 35 66
REMARK SMILES IDX 37 67 34 68 56 69 57 70 62 71 58 72 59 73 61 74 63 75 60 76
REMARK SMILES IDX 44 77 45 78 50 79 46 80 47 81 49 82 51 83 48 84
REMARK H PARENT 13 7 18 27 68 46 42 57
REMARK Flexibility Score: inf
ROOT
ATOM      1  C   UNL A   1      38.169  19.829  24.937  1.00  0.00     0.023 C 
ENDROOT
BRANCH   1   2
ATOM      2  C   UNL A   1      37.340  21.070  24.597  1.00  0.00     0.023 C 
BRANCH   2   3
ATOM      3  C   UNL A   1      37.220  22.071  25.743  1.00  0.00     0.116 C 
BRANCH   3   4
ATOM      4  N   UNL A   1      35.975  21.911  26.472  1.00  0.00    -0.352 N 
ATOM      5  C   UNL A   1      34.707  22.378  26.375  1.00  0.00     0.251 C 
ATOM      6  O   UNL A   1      33.935  21.975  27.251  1.00  0.00    -0.270 OA
ATOM      7  H   UNL A   1      36.080  21.304  27.240  1.00  0.00     0.163 HD
BRANCH   5   8
ATOM      8  C   UNL A   1      34.208  23.308  25.320  1.00  0.00     0.067 C 
ATOM      9  C   UNL A   1      33.081  29.319  24.359  1.00  0.00     0.044 C 
ATOM     10  C   UNL A   1      33.230  27.866  24.014  1.00  0.00    -0.050 A 
ATOM     11  C   UNL A   1      32.917  27.424  22.722  1.00  0.00     0.010 A 
ATOM     12  C   UNL A   1      33.681  26.941  24.966  1.00  0.00     0.015 A 
ATOM     13  C   UNL A   1      33.050  26.074  22.370  1.00  0.00    -0.008 A 
ATOM     14  C   UNL A   1      33.810  25.590  24.634  1.00  0.00     0.018 A 
ATOM     15  C   UNL A   1      32.709  25.611  20.983  1.00  0.00     0.048 C 
ATOM     16  C   UNL A   1      33.488  25.166  23.342  1.00  0.00     0.130 A 
ATOM     17  C   UNL A   1      34.307  24.621  25.604  1.00  0.00     0.025 C 
ATOM     18  O   UNL A   1      33.632  23.860  22.959  1.00  0.00    -0.475 OA
ATOM     19  C   UNL A   1      33.587  22.873  24.024  1.00  0.00     0.314 C 
BRANCH  19  20
ATOM     20  C   UNL A   1      32.140  22.373  24.195  1.00  0.00     0.429 C 
ATOM     21  F   UNL A   1      31.528  23.034  25.210  1.00  0.00    -0.167 F 
ATOM     22  F   UNL A   1      31.385  22.589  23.091  1.00  0.00    -0.167 F 
ATOM     23  F   UNL A   1      32.066  21.052  24.469  1.00  0.00    -0.167 F 
ENDBRANCH  19  20
ENDBRANCH   5   8
ENDBRANCH   3   4
ENDBRANCH   2   3
ENDBRANCH   1   2
BRANCH   1  24
ATOM     24  C   UNL A   1      39.370  20.074  25.848  1.00  0.00     0.116 C 
BRANCH  24  25
ATOM     25  N   UNL A   1      40.344  18.993  25.845  1.00  0.00    -0.352 N 
ATOM     26  C   UNL A   1      41.691  19.068  26.111  1.00  0.00     0.251 C 
ATOM     27  H   UNL A   1      39.997  18.098  25.626  1.00  0.00     0.163 HD
ATOM     28  O   UNL A   1      42.412  18.082  26.001  1.00  0.00    -0.269 OA
BRANCH  26  29
ATOM     29  C   UNL A   1      42.263  20.373  26.485  1.00  0.00     0.039 A 
ATOM     30  C   UNL A   1      42.780  21.193  25.479  1.00  0.00     0.014 A 
ATOM     31  C   UNL A   1      42.213  20.810  27.811  1.00  0.00     0.014 A 
ATOM     32  C   UNL A   1      43.181  22.490  25.795  1.00  0.00     0.010 A 
ATOM     33  C   UNL A   1      42.560  22.121  28.112  1.00  0.00     0.010 A 
ATOM     34  C   UNL A   1      43.038  22.974  27.105  1.00  0.00    -0.014 A 
BRANCH  34  35
ATOM     35  C   UNL A   1      43.385  24.373  27.443  1.00  0.00     0.031 A 
ATOM     36  C   UNL A   1      44.818  24.816  27.411  1.00  0.00     0.074 A 
ATOM     37  C   UNL A   1      42.417  25.225  27.830  1.00  0.00     0.049 A 
ATOM     38  N   UNL A   1      45.331  25.975  27.734  1.00  0.00    -0.248 NA
ATOM     39  C   UNL A   1      45.810  23.816  26.984  1.00  0.00     0.031 C 
ATOM     40  C   UNL A   1      40.993  24.898  27.935  1.00  0.00     0.029 A 
ATOM     41  N   UNL A   1      42.485  26.541  28.209  1.00  0.00    -0.354 N 
ATOM     42  C   UNL A   1      46.700  25.841  27.556  1.00  0.00     0.074 A 
ATOM     43  C   UNL A   1      46.946  24.475  27.148  1.00  0.00     0.031 C 
ATOM     44  C   UNL A   1      40.319  25.994  28.322  1.00  0.00     0.029 A 
ATOM     45  C   UNL A   1      41.264  27.088  28.521  1.00  0.00     0.049 A 
ATOM     46  H   UNL A   1      43.329  27.046  28.253  1.00  0.00     0.167 HD
ATOM     47  C   UNL A   1      47.665  26.781  27.697  1.00  0.00     0.037 A 
ATOM     48  C   UNL A   1      40.946  28.334  28.920  1.00  0.00     0.037 A 
ATOM     49  C   UNL A   1      47.416  28.145  28.077  1.00  0.00     0.049 A 
ATOM     50  C   UNL A   1      42.036  29.356  29.076  1.00  0.00     0.074 A 
ATOM     51  C   UNL A   1      48.320  29.183  28.204  1.00  0.00     0.029 A 
ATOM     52  N   UNL A   1      46.166  28.660  28.384  1.00  0.00    -0.354 N 
ATOM     53  N   UNL A   1      43.323  29.227  28.867  1.00  0.00    -0.248 NA
ATOM     54  C   UNL A   1      41.629  30.697  29.521  1.00  0.00     0.031 C 
ATOM     55  C   UNL A   1      47.622  30.322  28.614  1.00  0.00     0.029 A 
ATOM     56  C   UNL A   1      46.277  30.000  28.712  1.00  0.00     0.049 A 
ATOM     57  H   UNL A   1      45.324  28.150  28.371  1.00  0.00     0.167 HD
ATOM     58  C   UNL A   1      43.878  30.471  29.138  1.00  0.00     0.074 A 
ATOM     59  C   UNL A   1      42.786  31.345  29.515  1.00  0.00     0.031 C 
ATOM     60  C   UNL A   1      45.177  30.853  29.080  1.00  0.00     0.037 A 
BRANCH  47  61
ATOM     61  C   UNL A   1      49.076  26.362  27.419  1.00  0.00     0.057 A 
ATOM     62  C   UNL A   1      49.919  25.907  28.441  1.00  0.00     0.134 A 
ATOM     63  C   UNL A   1      49.589  26.386  26.116  1.00  0.00     0.134 A 
ATOM     64  F   UNL A   1      49.491  25.876  29.711  1.00  0.00    -0.206 F 
ATOM     65  C   UNL A   1      51.231  25.508  28.180  1.00  0.00     0.040 A 
ATOM     66  C   UNL A   1      50.892  25.969  25.841  1.00  0.00     0.040 A 
ATOM     67  F   UNL A   1      48.832  26.810  25.093  1.00  0.00    -0.206 F 
ATOM     68  C   UNL A   1      51.718  25.532  26.875  1.00  0.00     0.006 A 
ENDBRANCH  47  61
BRANCH  48  69
ATOM     69  C   UNL A   1      39.528  28.692  29.161  1.00  0.00     0.057 A 
ATOM     70  C   UNL A   1      38.956  28.532  30.427  1.00  0.00     0.134 A 
ATOM     71  C   UNL A   1      38.716  29.211  28.145  1.00  0.00     0.134 A 
ATOM     72  F   UNL A   1      39.682  28.024  31.435  1.00  0.00    -0.206 F 
ATOM     73  C   UNL A   1      37.624  28.867  30.676  1.00  0.00     0.040 A 
ATOM     74  C   UNL A   1      37.387  29.567  28.384  1.00  0.00     0.040 A 
ATOM     75  F   UNL A   1      39.209  29.392  26.912  1.00  0.00    -0.206 F 
ATOM     76  C   UNL A   1      36.838  29.392  29.653  1.00  0.00     0.006 A 
ENDBRANCH  48  69
BRANCH  60  77
ATOM     77  C   UNL A   1      45.490  32.278  29.416  1.00  0.00     0.057 A 
ATOM     78  C   UNL A   1      45.430  33.289  28.450  1.00  0.00     0.134 A 
ATOM     79  C   UNL A   1      45.786  32.653  30.733  1.00  0.00     0.134 A 
ATOM     80  F   UNL A   1      45.163  32.990  27.170  1.00  0.00    -0.206 F 
ATOM     81  C   UNL A   1      45.662  34.625  28.780  1.00  0.00     0.040 A 
ATOM     82  C   UNL A   1      46.000  33.987  31.079  1.00  0.00     0.040 A 
ATOM     83  F   UNL A   1      45.850  31.730  31.706  1.00  0.00    -0.206 F 
ATOM     84  C   UNL A   1      45.939  34.977  30.101  1.00  0.00     0.006 A 
ENDBRANCH  60  77
ENDBRANCH  34  35
ENDBRANCH  26  29
ENDBRANCH  24  25
ENDBRANCH   1  24
TORSDOF 12
ENDMDL
MODEL 3
REMARK VINA RESULT:     -12.5      5.180     10.114
REMARK SMILES Cc1cc(C)c2c(c1)C=C(C(=O)NCCCCNC(=O)c1ccc(-c3c4nc(c(-c5c(F)cccc5F)c5ccc([nH]5)c(-c5c(F)cccc5F)c5nc(c(-c6c(F)cccc6F)c6ccc3[nH]6)C=C5)C=C4)cc1)[C@@H](C(F)(F)F)O2
REMARK SMILES IDX 16 1 15 2 14 3 13 4 11 5 12 6 10 8 1 9 2 10 3 11 8 12 4 13
REMARK SMILES IDX 7 14 5 15 6 16 9 17 80 18 75 19 76 20 77 21 78 22 79 23
REMARK SMILES IDX 17 24 18 25 19 26 20 28 21 29 22 30 74 31 23 32 73 33 24 34
REMARK SMILES IDX 25 35 26 36 67 37 27 38 72 39 66 40 68 41 28 42 71 43 65 44
REMARK SMILES IDX 64 45 29 47 55 48 38 49 54 50 39 51 42 52 53 53 69 54 40 55
REMARK SMILES IDX 41 56 52 58 70 59 43 60 30 61 31 62 36 63 32 64 33 65 35 66
REMARK SMILES IDX 37 67 34 68 56 69 57 70 62 71 58 72 59 73 61 74 63 75 60 76
REMARK SMILES IDX 44 77 45 78 50 79 46 80 47 81 49 82 51 83 48 84
REMARK H PARENT 13 7 18 27 68 46 42 57
REMARK Flexibility Score: inf
ROOT
ATOM      1  C   UNL A   1      37.984  19.891  25.001  1.00  0.00     0.023 C 
ENDROOT
BRANCH   1   2
ATOM      2  C   UNL A   1      37.162  21.114  24.589  1.00  0.00     0.023 C 
BRANCH   2   3
ATOM      3  C   UNL A   1      37.332  22.318  25.511  1.00  0.00     0.116 C 
BRANCH   3   4
ATOM      4  N   UNL A   1      36.247  22.425  26.468  1.00  0.00    -0.352 N 
ATOM      5  C   UNL A   1      35.010  22.976  26.500  1.00  0.00     0.251 C 
ATOM      6  O   UNL A   1      34.403  22.833  27.566  1.00  0.00    -0.270 OA
ATOM      7  H   UNL A   1      36.467  21.979  27.317  1.00  0.00     0.163 HD
BRANCH   5   8
ATOM      8  C   UNL A   1      34.365  23.715  25.375  1.00  0.00     0.067 C 
ATOM      9  C   UNL A   1      31.087  28.845  24.251  1.00  0.00     0.044 C 
ATOM     10  C   UNL A   1      31.866  27.603  23.933  1.00  0.00    -0.050 A 
ATOM     11  C   UNL A   1      31.983  27.179  22.603  1.00  0.00     0.010 A 
ATOM     12  C   UNL A   1      32.483  26.858  24.948  1.00  0.00     0.015 A 
ATOM     13  C   UNL A   1      32.708  26.025  22.275  1.00  0.00    -0.008 A 
ATOM     14  C   UNL A   1      33.201  25.700  24.639  1.00  0.00     0.018 A 
ATOM     15  C   UNL A   1      32.824  25.578  20.846  1.00  0.00     0.048 C 
ATOM     16  C   UNL A   1      33.303  25.289  23.307  1.00  0.00     0.130 A 
ATOM     17  C   UNL A   1      33.875  24.931  25.679  1.00  0.00     0.025 C 
ATOM     18  O   UNL A   1      34.025  24.182  22.951  1.00  0.00    -0.475 OA
ATOM     19  C   UNL A   1      34.202  23.176  23.983  1.00  0.00     0.314 C 
BRANCH  19  20
ATOM     20  C   UNL A   1      33.075  22.132  23.876  1.00  0.00     0.429 C 
ATOM     21  F   UNL A   1      32.602  22.075  22.605  1.00  0.00    -0.167 F 
ATOM     22  F   UNL A   1      33.498  20.881  24.179  1.00  0.00    -0.167 F 
ATOM     23  F   UNL A   1      32.027  22.399  24.686  1.00  0.00    -0.167 F 
ENDBRANCH  19  20
ENDBRANCH   5   8
ENDBRANCH   3   4
ENDBRANCH   2   3
ENDBRANCH   1   2
BRANCH   1  24
ATOM     24  C   UNL A   1      39.260  20.194  25.785  1.00  0.00     0.116 C 
BRANCH  24  25
ATOM     25  N   UNL A   1      40.220  19.100  25.795  1.00  0.00    -0.352 N 
ATOM     26  C   UNL A   1      41.569  19.164  26.054  1.00  0.00     0.251 C 
ATOM     27  H   UNL A   1      39.861  18.207  25.592  1.00  0.00     0.163 HD
ATOM     28  O   UNL A   1      42.278  18.168  25.958  1.00  0.00    -0.269 OA
BRANCH  26  29
ATOM     29  C   UNL A   1      42.158  20.468  26.405  1.00  0.00     0.039 A 
ATOM     30  C   UNL A   1      42.561  21.321  25.376  1.00  0.00     0.014 A 
ATOM     31  C   UNL A   1      42.236  20.869  27.741  1.00  0.00     0.014 A 
ATOM     32  C   UNL A   1      42.974  22.616  25.685  1.00  0.00     0.010 A 
ATOM     33  C   UNL A   1      42.594  22.178  28.042  1.00  0.00     0.010 A 
ATOM     34  C   UNL A   1      42.957  23.063  27.017  1.00  0.00    -0.014 A 
BRANCH  34  35
ATOM     35  C   UNL A   1      43.317  24.459  27.356  1.00  0.00     0.031 A 
ATOM     36  C   UNL A   1      44.752  24.894  27.303  1.00  0.00     0.074 A 
ATOM     37  C   UNL A   1      42.361  25.314  27.765  1.00  0.00     0.049 A 
ATOM     38  N   UNL A   1      45.276  26.049  27.623  1.00  0.00    -0.248 NA
ATOM     39  C   UNL A   1      45.731  23.891  26.853  1.00  0.00     0.031 C 
ATOM     40  C   UNL A   1      40.937  24.994  27.893  1.00  0.00     0.029 A 
ATOM     41  N   UNL A   1      42.443  26.627  28.150  1.00  0.00    -0.354 N 
ATOM     42  C   UNL A   1      46.642  25.908  27.422  1.00  0.00     0.074 A 
ATOM     43  C   UNL A   1      46.874  24.544  27.002  1.00  0.00     0.031 C 
ATOM     44  C   UNL A   1      40.276  26.091  28.297  1.00  0.00     0.029 A 
ATOM     45  C   UNL A   1      41.230  27.178  28.486  1.00  0.00     0.049 A 
ATOM     46  H   UNL A   1      43.289  27.128  28.183  1.00  0.00     0.167 HD
ATOM     47  C   UNL A   1      47.614  26.842  27.552  1.00  0.00     0.037 A 
ATOM     48  C   UNL A   1      40.925  28.424  28.897  1.00  0.00     0.037 A 
ATOM     49  C   UNL A   1      47.379  28.205  27.944  1.00  0.00     0.049 A 
ATOM     50  C   UNL A   1      42.023  29.440  29.041  1.00  0.00     0.074 A 
ATOM     51  C   UNL A   1      48.291  29.237  28.061  1.00  0.00     0.029 A 
ATOM     52  N   UNL A   1      46.137  28.725  28.275  1.00  0.00    -0.354 N 
ATOM     53  N   UNL A   1      43.306  29.305  28.810  1.00  0.00    -0.248 NA
ATOM     54  C   UNL A   1      41.632  30.780  29.501  1.00  0.00     0.031 C 
ATOM     55  C   UNL A   1      47.606  30.378  28.490  1.00  0.00     0.029 A 
ATOM     56  C   UNL A   1      46.262  30.062  28.609  1.00  0.00     0.049 A 
ATOM     57  H   UNL A   1      45.293  28.219  28.273  1.00  0.00     0.167 HD
ATOM     58  C   UNL A   1      43.872  30.544  29.078  1.00  0.00     0.074 A 
ATOM     59  C   UNL A   1      42.792  31.422  29.478  1.00  0.00     0.031 C 
ATOM     60  C   UNL A   1      45.172  30.920  29.000  1.00  0.00     0.037 A 
BRANCH  47  61
ATOM     61  C   UNL A   1      49.017  26.417  27.247  1.00  0.00     0.057 A 
ATOM     62  C   UNL A   1      49.537  26.487  25.948  1.00  0.00     0.134 A 
ATOM     63  C   UNL A   1      49.868  25.963  28.263  1.00  0.00     0.134 A 
ATOM     64  F   UNL A   1      48.768  26.900  24.930  1.00  0.00    -0.206 F 
ATOM     65  C   UNL A   1      50.849  26.101  25.666  1.00  0.00     0.040 A 
ATOM     66  C   UNL A   1      51.187  25.595  27.996  1.00  0.00     0.040 A 
ATOM     67  F   UNL A   1      49.431  25.874  29.528  1.00  0.00    -0.206 F 
ATOM     68  C   UNL A   1      51.680  25.659  26.694  1.00  0.00     0.006 A 
ENDBRANCH  47  61
BRANCH  48  69
ATOM     69  C   UNL A   1      39.513  28.788  29.164  1.00  0.00     0.057 A 
ATOM     70  C   UNL A   1      38.701  29.294  28.144  1.00  0.00     0.134 A 
ATOM     71  C   UNL A   1      38.938  28.629  30.430  1.00  0.00     0.134 A 
ATOM     72  F   UNL A   1      39.203  29.484  26.914  1.00  0.00    -0.206 F 
ATOM     73  C   UNL A   1      37.368  29.639  28.373  1.00  0.00     0.040 A 
ATOM     74  C   UNL A   1      37.601  28.953  30.670  1.00  0.00     0.040 A 
ATOM     75  F   UNL A   1      39.664  28.143  31.447  1.00  0.00    -0.206 F 
ATOM     76  C   UNL A   1      36.814  29.463  29.639  1.00  0.00     0.006 A 
ENDBRANCH  48  69
BRANCH  60  77
ATOM     77  C   UNL A   1      45.499  32.341  29.339  1.00  0.00     0.057 A 
ATOM     78  C   UNL A   1      45.428  33.358  28.380  1.00  0.00     0.134 A 
ATOM     79  C   UNL A   1      45.820  32.706  30.653  1.00  0.00     0.134 A 
ATOM     80  F   UNL A   1      45.137  33.068  27.103  1.00  0.00    -0.206 F 
ATOM     81  C   UNL A   1      45.673  34.690  28.714  1.00  0.00     0.040 A 
ATOM     82  C   UNL A   1      46.047  34.037  31.003  1.00  0.00     0.040 A 
ATOM     83  F   UNL A   1      45.895  31.777  31.619  1.00  0.00    -0.206 F 
ATOM     84  C   UNL A   1      45.974  35.033  30.032  1.00  0.00     0.006 A 
ENDBRANCH  60  77
ENDBRANCH  34  35
ENDBRANCH  26  29
ENDBRANCH  24  25
ENDBRANCH   1  24
TORSDOF 12
ENDMDL
