MODEL 1
REMARK VINA RESULT:     -13.8      0.000      0.000
REMARK SMILES COc1cc2ccccc2cc1C(=O)Nc1cc(C(=O)NCCCCNC(=O)c2ccc(-c3c4nc(c(-c5c(F)cccc5F)c5ccc([nH]5)c(-c5c(F)cccc5F)c5nc(c(-c6c(F)cccc6F)c6ccc3[nH]6)C=C5)C=C4)cc2)ccc1C
REMARK SMILES IDX 23 1 22 2 21 3 19 4 20 5 18 7 16 8 17 9 85 10 84 11 86 12
REMARK SMILES IDX 83 13 15 14 13 15 14 16 12 18 3 19 4 20 5 21 11 22 6 23
REMARK SMILES IDX 10 24 7 25 9 26 8 27 2 28 1 29 24 30 25 31 26 32 27 33 28 35
REMARK SMILES IDX 29 36 30 37 82 38 31 39 81 40 32 41 33 42 34 43 75 44 35 45
REMARK SMILES IDX 80 46 74 47 76 48 36 49 79 50 73 51 72 52 37 54 63 55 46 56
REMARK SMILES IDX 62 57 47 58 50 59 61 60 77 61 48 62 49 63 60 65 78 66 51 67
REMARK SMILES IDX 38 68 39 69 44 70 40 71 41 72 43 73 45 74 42 75 64 76 65 77
REMARK SMILES IDX 70 78 66 79 67 80 69 81 71 82 68 83 52 84 53 85 58 86 54 87
REMARK SMILES IDX 55 88 57 89 59 90 56 91
REMARK H PARENT 21 6 15 17 26 34 76 53 50 64
REMARK Flexibility Score: inf
ROOT
ATOM      1  C   UNL A   1      32.173  29.631  26.575  1.00  0.00     0.023 C 
ENDROOT
BRANCH   1   2
ATOM      2  C   UNL A   1      31.850  29.954  25.112  1.00  0.00     0.116 C 
BRANCH   2   3
ATOM      3  N   UNL A   1      32.965  29.701  24.218  1.00  0.00    -0.352 N 
ATOM      4  C   UNL A   1      33.435  28.596  23.553  1.00  0.00     0.251 C 
ATOM      5  O   UNL A   1      34.429  28.777  22.843  1.00  0.00    -0.269 OA
ATOM      6  H   UNL A   1      33.507  30.505  24.050  1.00  0.00     0.163 HD
BRANCH   4   7
ATOM      7  C   UNL A   1      32.833  27.227  23.599  1.00  0.00     0.041 A 
ATOM      8  C   UNL A   1      31.984  25.252  24.748  1.00  0.00     0.045 A 
ATOM      9  C   UNL A   1      32.757  26.422  24.727  1.00  0.00     0.040 A 
ATOM     10  C   UNL A   1      31.477  24.713  23.562  1.00  0.00    -0.027 A 
ATOM     11  C   UNL A   1      31.589  25.492  22.403  1.00  0.00     0.006 A 
ATOM     12  C   UNL A   1      30.653  23.459  23.509  1.00  0.00     0.046 C 
ATOM     13  C   UNL A   1      32.223  26.744  22.431  1.00  0.00     0.014 A 
BRANCH   8  14
ATOM     14  N   UNL A   1      31.622  24.716  25.999  1.00  0.00    -0.322 N 
ATOM     15  C   UNL A   1      32.102  23.536  26.555  1.00  0.00     0.259 C 
ATOM     16  O   UNL A   1      31.561  23.054  27.548  1.00  0.00    -0.269 OA
ATOM     17  H   UNL A   1      30.967  25.225  26.529  1.00  0.00     0.170 HD
BRANCH  15  18
ATOM     18  C   UNL A   1      33.317  22.868  25.996  1.00  0.00     0.082 A 
ATOM     19  C   UNL A   1      33.302  21.595  25.406  1.00  0.00     0.132 A 
ATOM     20  C   UNL A   1      34.495  20.956  25.058  1.00  0.00     0.056 A 
ATOM     21  C   UNL A   1      35.727  21.578  25.268  1.00  0.00    -0.015 A 
ATOM     22  C   UNL A   1      34.543  23.532  26.138  1.00  0.00     0.026 A 
ATOM     23  C   UNL A   1      36.929  20.923  24.955  1.00  0.00     0.009 A 
ATOM     24  C   UNL A   1      35.751  22.874  25.827  1.00  0.00    -0.017 A 
ATOM     25  C   UNL A   1      38.155  21.519  25.236  1.00  0.00     0.001 A 
ATOM     26  C   UNL A   1      36.992  23.442  26.127  1.00  0.00     0.009 A 
ATOM     27  C   UNL A   1      38.181  22.762  25.850  1.00  0.00     0.001 A 
BRANCH  19  28
ATOM     28  O   UNL A   1      32.173  20.842  25.231  1.00  0.00    -0.496 OA
ATOM     29  C   UNL A   1      32.488  19.475  25.000  1.00  0.00     0.278 C 
ENDBRANCH  19  28
ENDBRANCH  15  18
ENDBRANCH   8  14
ENDBRANCH   4   7
ENDBRANCH   2   3
ENDBRANCH   1   2
BRANCH   1  30
ATOM     30  C   UNL A   1      33.025  30.712  27.243  1.00  0.00     0.023 C 
BRANCH  30  31
ATOM     31  C   UNL A   1      34.500  30.331  27.333  1.00  0.00     0.116 C 
BRANCH  31  32
ATOM     32  N   UNL A   1      35.379  31.392  27.808  1.00  0.00    -0.352 N 
ATOM     33  C   UNL A   1      36.628  31.315  28.392  1.00  0.00     0.251 C 
ATOM     34  H   UNL A   1      35.027  32.304  27.697  1.00  0.00     0.163 HD
ATOM     35  O   UNL A   1      37.168  32.346  28.797  1.00  0.00    -0.269 OA
BRANCH  33  36
ATOM     36  C   UNL A   1      37.391  30.040  28.423  1.00  0.00     0.039 A 
ATOM     37  C   UNL A   1      37.326  29.253  29.586  1.00  0.00     0.014 A 
ATOM     38  C   UNL A   1      38.281  29.693  27.414  1.00  0.00     0.014 A 
ATOM     39  C   UNL A   1      38.302  28.289  29.831  1.00  0.00     0.010 A 
ATOM     40  C   UNL A   1      39.315  28.829  27.700  1.00  0.00     0.010 A 
ATOM     41  C   UNL A   1      39.358  28.172  28.932  1.00  0.00    -0.014 A 
BRANCH  41  42
ATOM     42  C   UNL A   1      40.619  27.502  29.226  1.00  0.00     0.031 A 
ATOM     43  C   UNL A   1      40.878  26.146  28.710  1.00  0.00     0.074 A 
ATOM     44  C   UNL A   1      41.618  28.253  29.738  1.00  0.00     0.049 A 
ATOM     45  N   UNL A   1      41.912  25.444  29.009  1.00  0.00    -0.248 NA
ATOM     46  C   UNL A   1      39.965  25.463  27.804  1.00  0.00     0.031 C 
ATOM     47  C   UNL A   1      43.054  27.979  29.713  1.00  0.00     0.029 A 
ATOM     48  N   UNL A   1      41.513  29.411  30.506  1.00  0.00    -0.354 N 
ATOM     49  C   UNL A   1      41.946  24.352  28.175  1.00  0.00     0.074 A 
ATOM     50  C   UNL A   1      40.693  24.396  27.458  1.00  0.00     0.031 C 
ATOM     51  C   UNL A   1      43.667  28.775  30.604  1.00  0.00     0.029 A 
ATOM     52  C   UNL A   1      42.617  29.428  31.367  1.00  0.00     0.049 A 
ATOM     53  H   UNL A   1      40.801  30.089  30.453  1.00  0.00     0.167 HD
ATOM     54  C   UNL A   1      43.085  23.601  28.121  1.00  0.00     0.037 A 
ATOM     55  C   UNL A   1      42.497  29.355  32.723  1.00  0.00     0.037 A 
ATOM     56  C   UNL A   1      44.072  24.089  29.090  1.00  0.00     0.049 A 
ATOM     57  C   UNL A   1      43.172  28.098  33.222  1.00  0.00     0.074 A 
ATOM     58  C   UNL A   1      45.183  24.908  28.967  1.00  0.00     0.029 A 
ATOM     59  N   UNL A   1      43.780  24.033  30.455  1.00  0.00    -0.354 N 
ATOM     60  N   UNL A   1      43.259  26.994  32.522  1.00  0.00    -0.248 NA
ATOM     61  C   UNL A   1      43.898  28.031  34.485  1.00  0.00     0.031 C 
ATOM     62  C   UNL A   1      45.500  25.413  30.256  1.00  0.00     0.029 A 
ATOM     63  C   UNL A   1      44.609  24.876  31.171  1.00  0.00     0.049 A 
ATOM     64  H   UNL A   1      43.079  23.467  30.854  1.00  0.00     0.167 HD
ATOM     65  C   UNL A   1      44.110  26.133  33.162  1.00  0.00     0.074 A 
ATOM     66  C   UNL A   1      44.445  26.806  34.407  1.00  0.00     0.031 C 
ATOM     67  C   UNL A   1      44.551  24.959  32.625  1.00  0.00     0.037 A 
BRANCH  54  68
ATOM     68  C   UNL A   1      43.381  22.614  27.010  1.00  0.00     0.057 A 
ATOM     69  C   UNL A   1      42.696  21.387  26.918  1.00  0.00     0.134 A 
ATOM     70  C   UNL A   1      44.366  22.796  26.022  1.00  0.00     0.134 A 
ATOM     71  F   UNL A   1      41.663  21.095  27.718  1.00  0.00    -0.206 F 
ATOM     72  C   UNL A   1      43.039  20.385  25.995  1.00  0.00     0.040 A 
ATOM     73  C   UNL A   1      44.763  21.783  25.135  1.00  0.00     0.040 A 
ATOM     74  F   UNL A   1      44.952  23.985  25.829  1.00  0.00    -0.206 F 
ATOM     75  C   UNL A   1      44.103  20.564  25.125  1.00  0.00     0.006 A 
ENDBRANCH  54  68
BRANCH  55  76
ATOM     76  C   UNL A   1      41.246  29.978  33.236  1.00  0.00     0.057 A 
ATOM     77  C   UNL A   1      41.227  31.384  33.329  1.00  0.00     0.134 A 
ATOM     78  C   UNL A   1      40.008  29.330  33.160  1.00  0.00     0.134 A 
ATOM     79  F   UNL A   1      42.379  32.066  33.409  1.00  0.00    -0.206 F 
ATOM     80  C   UNL A   1      40.047  32.118  33.184  1.00  0.00     0.040 A 
ATOM     81  C   UNL A   1      38.817  30.059  33.032  1.00  0.00     0.040 A 
ATOM     82  F   UNL A   1      39.941  27.998  33.034  1.00  0.00    -0.206 F 
ATOM     83  C   UNL A   1      38.840  31.454  32.994  1.00  0.00     0.006 A 
ENDBRANCH  55  76
BRANCH  67  84
ATOM     84  C   UNL A   1      45.114  23.827  33.445  1.00  0.00     0.057 A 
ATOM     85  C   UNL A   1      46.406  23.853  33.994  1.00  0.00     0.134 A 
ATOM     86  C   UNL A   1      44.298  22.758  33.873  1.00  0.00     0.134 A 
ATOM     87  F   UNL A   1      47.247  24.870  33.760  1.00  0.00    -0.206 F 
ATOM     88  C   UNL A   1      46.875  22.859  34.859  1.00  0.00     0.040 A 
ATOM     89  C   UNL A   1      44.740  21.788  34.777  1.00  0.00     0.040 A 
ATOM     90  F   UNL A   1      43.029  22.625  33.463  1.00  0.00    -0.206 F 
ATOM     91  C   UNL A   1      46.037  21.830  35.264  1.00  0.00     0.006 A 
ENDBRANCH  67  84
ENDBRANCH  41  42
ENDBRANCH  33  36
ENDBRANCH  31  32
ENDBRANCH  30  31
ENDBRANCH   1  30
TORSDOF 14
ENDMDL
MODEL 2
REMARK VINA RESULT:     -13.8      3.789      9.220
REMARK SMILES COc1cc2ccccc2cc1C(=O)Nc1cc(C(=O)NCCCCNC(=O)c2ccc(-c3c4nc(c(-c5c(F)cccc5F)c5ccc([nH]5)c(-c5c(F)cccc5F)c5nc(c(-c6c(F)cccc6F)c6ccc3[nH]6)C=C5)C=C4)cc2)ccc1C
REMARK SMILES IDX 23 1 22 2 21 3 19 4 20 5 18 7 16 8 17 9 85 10 84 11 86 12
REMARK SMILES IDX 83 13 15 14 13 15 14 16 12 18 3 19 4 20 5 21 11 22 6 23
REMARK SMILES IDX 10 24 7 25 9 26 8 27 2 28 1 29 24 30 25 31 26 32 27 33 28 35
REMARK SMILES IDX 29 36 30 37 82 38 31 39 81 40 32 41 33 42 34 43 75 44 35 45
REMARK SMILES IDX 80 46 74 47 76 48 36 49 79 50 73 51 72 52 37 54 63 55 46 56
REMARK SMILES IDX 62 57 47 58 50 59 61 60 77 61 48 62 49 63 60 65 78 66 51 67
REMARK SMILES IDX 38 68 39 69 44 70 40 71 41 72 43 73 45 74 42 75 64 76 65 77
REMARK SMILES IDX 70 78 66 79 67 80 69 81 71 82 68 83 52 84 53 85 58 86 54 87
REMARK SMILES IDX 55 88 57 89 59 90 56 91
REMARK H PARENT 21 6 15 17 26 34 76 53 50 64
REMARK Flexibility Score: inf
ROOT
ATOM      1  C   UNL A   1      36.426  21.542  24.624  1.00  0.00     0.023 C 
ENDROOT
BRANCH   1   2
ATOM      2  C   UNL A   1      35.448  20.673  25.423  1.00  0.00     0.116 C 
BRANCH   2   3
ATOM      3  N   UNL A   1      35.023  21.295  26.663  1.00  0.00    -0.352 N 
ATOM      4  C   UNL A   1      34.085  22.241  26.995  1.00  0.00     0.251 C 
ATOM      5  O   UNL A   1      33.991  22.509  28.196  1.00  0.00    -0.269 OA
ATOM      6  H   UNL A   1      35.521  20.963  27.444  1.00  0.00     0.163 HD
BRANCH   4   7
ATOM      7  C   UNL A   1      33.167  22.935  26.038  1.00  0.00     0.041 A 
ATOM      8  C   UNL A   1      32.683  24.297  24.075  1.00  0.00     0.045 A 
ATOM      9  C   UNL A   1      33.559  23.858  25.079  1.00  0.00     0.040 A 
ATOM     10  C   UNL A   1      31.314  24.025  24.158  1.00  0.00    -0.027 A 
ATOM     11  C   UNL A   1      30.895  23.131  25.152  1.00  0.00     0.006 A 
ATOM     12  C   UNL A   1      30.318  24.473  23.127  1.00  0.00     0.046 C 
ATOM     13  C   UNL A   1      31.812  22.567  26.051  1.00  0.00     0.014 A 
BRANCH   8  14
ATOM     14  N   UNL A   1      33.233  24.894  22.925  1.00  0.00    -0.322 N 
ATOM     15  C   UNL A   1      33.171  26.241  22.591  1.00  0.00     0.259 C 
ATOM     16  O   UNL A   1      33.495  26.616  21.467  1.00  0.00    -0.269 OA
ATOM     17  H   UNL A   1      33.707  24.300  22.298  1.00  0.00     0.170 HD
BRANCH  15  18
ATOM     18  C   UNL A   1      32.771  27.262  23.608  1.00  0.00     0.082 A 
ATOM     19  C   UNL A   1      31.604  28.035  23.515  1.00  0.00     0.132 A 
ATOM     20  C   UNL A   1      31.373  29.088  24.405  1.00  0.00     0.056 A 
ATOM     21  C   UNL A   1      32.286  29.379  25.419  1.00  0.00    -0.015 A 
ATOM     22  C   UNL A   1      33.654  27.496  24.670  1.00  0.00     0.026 A 
ATOM     23  C   UNL A   1      32.076  30.460  26.291  1.00  0.00     0.009 A 
ATOM     24  C   UNL A   1      33.445  28.583  25.544  1.00  0.00    -0.017 A 
ATOM     25  C   UNL A   1      33.025  30.790  27.253  1.00  0.00     0.001 A 
ATOM     26  C   UNL A   1      34.399  28.949  26.497  1.00  0.00     0.009 A 
ATOM     27  C   UNL A   1      34.198  30.054  27.331  1.00  0.00     0.001 A 
BRANCH  19  28
ATOM     28  O   UNL A   1      30.678  27.912  22.514  1.00  0.00    -0.496 OA
ATOM     29  C   UNL A   1      29.363  28.181  22.984  1.00  0.00     0.278 C 
ENDBRANCH  19  28
ENDBRANCH  15  18
ENDBRANCH   8  14
ENDBRANCH   4   7
ENDBRANCH   2   3
ENDBRANCH   1   2
BRANCH   1  30
ATOM     30  C   UNL A   1      37.874  21.382  25.092  1.00  0.00     0.023 C 
BRANCH  30  31
ATOM     31  C   UNL A   1      38.394  22.612  25.832  1.00  0.00     0.116 C 
BRANCH  31  32
ATOM     32  N   UNL A   1      39.747  22.483  26.357  1.00  0.00    -0.352 N 
ATOM     33  C   UNL A   1      40.595  23.443  26.874  1.00  0.00     0.251 C 
ATOM     34  H   UNL A   1      40.114  21.570  26.339  1.00  0.00     0.163 HD
ATOM     35  O   UNL A   1      41.742  23.126  27.193  1.00  0.00    -0.269 OA
BRANCH  33  36
ATOM     36  C   UNL A   1      40.114  24.816  27.179  1.00  0.00     0.039 A 
ATOM     37  C   UNL A   1      40.494  25.861  26.318  1.00  0.00     0.014 A 
ATOM     38  C   UNL A   1      39.446  25.114  28.361  1.00  0.00     0.014 A 
ATOM     39  C   UNL A   1      40.424  27.183  26.754  1.00  0.00     0.010 A 
ATOM     40  C   UNL A   1      39.484  26.404  28.845  1.00  0.00     0.010 A 
ATOM     41  C   UNL A   1      40.027  27.428  28.065  1.00  0.00    -0.014 A 
BRANCH  41  42
ATOM     42  C   UNL A   1      40.257  28.681  28.775  1.00  0.00     0.031 A 
ATOM     43  C   UNL A   1      39.148  29.627  28.990  1.00  0.00     0.074 A 
ATOM     44  C   UNL A   1      41.422  28.812  29.446  1.00  0.00     0.049 A 
ATOM     45  N   UNL A   1      39.285  30.796  29.508  1.00  0.00    -0.248 NA
ATOM     46  C   UNL A   1      37.772  29.322  28.623  1.00  0.00     0.031 C 
ATOM     47  C   UNL A   1      41.727  29.714  30.555  1.00  0.00     0.029 A 
ATOM     48  N   UNL A   1      42.643  28.198  29.171  1.00  0.00    -0.354 N 
ATOM     49  C   UNL A   1      38.033  31.297  29.776  1.00  0.00     0.074 A 
ATOM     50  C   UNL A   1      37.121  30.348  29.180  1.00  0.00     0.031 C 
ATOM     51  C   UNL A   1      43.058  29.780  30.713  1.00  0.00     0.029 A 
ATOM     52  C   UNL A   1      43.644  29.087  29.579  1.00  0.00     0.049 A 
ATOM     53  H   UNL A   1      42.776  27.309  28.769  1.00  0.00     0.167 HD
ATOM     54  C   UNL A   1      37.924  32.405  30.565  1.00  0.00     0.037 A 
ATOM     55  C   UNL A   1      44.528  29.653  28.708  1.00  0.00     0.037 A 
ATOM     56  C   UNL A   1      39.250  32.923  30.916  1.00  0.00     0.049 A 
ATOM     57  C   UNL A   1      44.347  31.154  28.712  1.00  0.00     0.074 A 
ATOM     58  C   UNL A   1      40.041  32.790  32.046  1.00  0.00     0.029 A 
ATOM     59  N   UNL A   1      40.092  33.396  29.906  1.00  0.00    -0.354 N 
ATOM     60  N   UNL A   1      43.201  31.746  28.944  1.00  0.00    -0.248 NA
ATOM     61  C   UNL A   1      45.455  32.091  28.574  1.00  0.00     0.031 C 
ATOM     62  C   UNL A   1      41.380  33.100  31.684  1.00  0.00     0.029 A 
ATOM     63  C   UNL A   1      41.401  33.459  30.345  1.00  0.00     0.049 A 
ATOM     64  H   UNL A   1      39.793  33.653  29.004  1.00  0.00     0.167 HD
ATOM     65  C   UNL A   1      43.422  33.089  29.091  1.00  0.00     0.074 A 
ATOM     66  C   UNL A   1      44.837  33.262  28.803  1.00  0.00     0.031 C 
ATOM     67  C   UNL A   1      42.471  33.978  29.503  1.00  0.00     0.037 A 
BRANCH  54  68
ATOM     68  C   UNL A   1      36.628  32.838  31.220  1.00  0.00     0.057 A 
ATOM     69  C   UNL A   1      35.772  33.773  30.605  1.00  0.00     0.134 A 
ATOM     70  C   UNL A   1      36.188  32.402  32.483  1.00  0.00     0.134 A 
ATOM     71  F   UNL A   1      35.990  34.216  29.361  1.00  0.00    -0.206 F 
ATOM     72  C   UNL A   1      34.639  34.308  31.241  1.00  0.00     0.040 A 
ATOM     73  C   UNL A   1      35.095  32.972  33.156  1.00  0.00     0.040 A 
ATOM     74  F   UNL A   1      36.758  31.360  33.102  1.00  0.00    -0.206 F 
ATOM     75  C   UNL A   1      34.320  33.939  32.538  1.00  0.00     0.006 A 
ENDBRANCH  54  68
BRANCH  55  76
ATOM     76  C   UNL A   1      44.849  28.781  27.547  1.00  0.00     0.057 A 
ATOM     77  C   UNL A   1      45.812  27.773  27.754  1.00  0.00     0.134 A 
ATOM     78  C   UNL A   1      43.953  28.594  26.488  1.00  0.00     0.134 A 
ATOM     79  F   UNL A   1      46.703  27.891  28.750  1.00  0.00    -0.206 F 
ATOM     80  C   UNL A   1      45.779  26.564  27.054  1.00  0.00     0.040 A 
ATOM     81  C   UNL A   1      43.925  27.392  25.767  1.00  0.00     0.040 A 
ATOM     82  F   UNL A   1      42.986  29.489  26.246  1.00  0.00    -0.206 F 
ATOM     83  C   UNL A   1      44.806  26.356  26.083  1.00  0.00     0.006 A 
ENDBRANCH  55  76
BRANCH  67  84
ATOM     84  C   UNL A   1      42.558  35.462  29.261  1.00  0.00     0.057 A 
ATOM     85  C   UNL A   1      43.401  36.306  30.001  1.00  0.00     0.134 A 
ATOM     86  C   UNL A   1      41.938  36.059  28.143  1.00  0.00     0.134 A 
ATOM     87  F   UNL A   1      44.137  35.844  31.022  1.00  0.00    -0.206 F 
ATOM     88  C   UNL A   1      43.572  37.659  29.689  1.00  0.00     0.040 A 
ATOM     89  C   UNL A   1      42.142  37.396  27.792  1.00  0.00     0.040 A 
ATOM     90  F   UNL A   1      41.136  35.366  27.322  1.00  0.00    -0.206 F 
ATOM     91  C   UNL A   1      42.953  38.205  28.573  1.00  0.00     0.006 A 
ENDBRANCH  67  84
ENDBRANCH  41  42
ENDBRANCH  33  36
ENDBRANCH  31  32
ENDBRANCH  30  31
ENDBRANCH   1  30
TORSDOF 14
ENDMDL
MODEL 3
REMARK VINA RESULT:     -13.1      1.236      1.848
REMARK SMILES COc1cc2ccccc2cc1C(=O)Nc1cc(C(=O)NCCCCNC(=O)c2ccc(-c3c4nc(c(-c5c(F)cccc5F)c5ccc([nH]5)c(-c5c(F)cccc5F)c5nc(c(-c6c(F)cccc6F)c6ccc3[nH]6)C=C5)C=C4)cc2)ccc1C
REMARK SMILES IDX 23 1 22 2 21 3 19 4 20 5 18 7 16 8 17 9 85 10 84 11 86 12
REMARK SMILES IDX 83 13 15 14 13 15 14 16 12 18 3 19 4 20 5 21 11 22 6 23
REMARK SMILES IDX 10 24 7 25 9 26 8 27 2 28 1 29 24 30 25 31 26 32 27 33 28 35
REMARK SMILES IDX 29 36 30 37 82 38 31 39 81 40 32 41 33 42 34 43 75 44 35 45
REMARK SMILES IDX 80 46 74 47 76 48 36 49 79 50 73 51 72 52 37 54 63 55 46 56
REMARK SMILES IDX 62 57 47 58 50 59 61 60 77 61 48 62 49 63 60 65 78 66 51 67
REMARK SMILES IDX 38 68 39 69 44 70 40 71 41 72 43 73 45 74 42 75 64 76 65 77
REMARK SMILES IDX 70 78 66 79 67 80 69 81 71 82 68 83 52 84 53 85 58 86 54 87
REMARK SMILES IDX 55 88 57 89 59 90 56 91
REMARK H PARENT 21 6 15 17 26 34 76 53 50 64
REMARK Flexibility Score: inf
ROOT
ATOM      1  C   UNL A   1      31.717  30.479  25.883  1.00  0.00     0.023 C 
ENDROOT
BRANCH   1   2
ATOM      2  C   UNL A   1      31.399  29.240  25.036  1.00  0.00     0.116 C 
BRANCH   2   3
ATOM      3  N   UNL A   1      32.580  28.650  24.434  1.00  0.00    -0.352 N 
ATOM      4  C   UNL A   1      33.021  27.365  24.237  1.00  0.00     0.251 C 
ATOM      5  O   UNL A   1      34.100  27.251  23.647  1.00  0.00    -0.269 OA
ATOM      6  H   UNL A   1      33.207  29.325  24.088  1.00  0.00     0.163 HD
BRANCH   4   7
ATOM      7  C   UNL A   1      32.298  26.120  24.645  1.00  0.00     0.041 A 
ATOM      8  C   UNL A   1      31.204  23.987  24.205  1.00  0.00     0.045 A 
ATOM      9  C   UNL A   1      31.665  25.240  23.778  1.00  0.00     0.040 A 
ATOM     10  C   UNL A   1      31.126  23.685  25.568  1.00  0.00    -0.027 A 
ATOM     11  C   UNL A   1      31.718  24.587  26.462  1.00  0.00     0.006 A 
ATOM     12  C   UNL A   1      30.631  22.370  26.096  1.00  0.00     0.046 C 
ATOM     13  C   UNL A   1      32.326  25.765  26.002  1.00  0.00     0.014 A 
BRANCH   8  14
ATOM     14  N   UNL A   1      30.953  23.002  23.231  1.00  0.00    -0.322 N 
ATOM     15  C   UNL A   1      31.864  22.065  22.760  1.00  0.00     0.259 C 
ATOM     16  O   UNL A   1      31.606  21.397  21.761  1.00  0.00    -0.269 OA
ATOM     17  H   UNL A   1      30.047  22.975  22.847  1.00  0.00     0.170 HD
BRANCH  15  18
ATOM     18  C   UNL A   1      33.142  21.807  23.492  1.00  0.00     0.082 A 
ATOM     19  C   UNL A   1      33.352  20.696  24.323  1.00  0.00     0.132 A 
ATOM     20  C   UNL A   1      34.502  20.601  25.110  1.00  0.00     0.056 A 
ATOM     21  C   UNL A   1      35.480  21.596  25.070  1.00  0.00    -0.015 A 
ATOM     22  C   UNL A   1      34.153  22.771  23.386  1.00  0.00     0.026 A 
ATOM     23  C   UNL A   1      36.619  21.523  25.888  1.00  0.00     0.009 A 
ATOM     24  C   UNL A   1      35.296  22.700  24.210  1.00  0.00    -0.017 A 
ATOM     25  C   UNL A   1      37.552  22.554  25.898  1.00  0.00     0.001 A 
ATOM     26  C   UNL A   1      36.230  23.738  24.256  1.00  0.00     0.009 A 
ATOM     27  C   UNL A   1      37.338  23.672  25.107  1.00  0.00     0.001 A 
BRANCH  19  28
ATOM     28  O   UNL A   1      32.433  19.701  24.521  1.00  0.00    -0.496 OA
ATOM     29  C   UNL A   1      32.790  18.515  23.824  1.00  0.00     0.278 C 
ENDBRANCH  19  28
ENDBRANCH  15  18
ENDBRANCH   8  14
ENDBRANCH   4   7
ENDBRANCH   2   3
ENDBRANCH   1   2
BRANCH   1  30
ATOM     30  C   UNL A   1      32.543  30.145  27.127  1.00  0.00     0.023 C 
BRANCH  30  31
ATOM     31  C   UNL A   1      34.040  30.353  26.915  1.00  0.00     0.116 C 
BRANCH  31  32
ATOM     32  N   UNL A   1      34.634  31.399  27.738  1.00  0.00    -0.352 N 
ATOM     33  C   UNL A   1      35.740  31.359  28.564  1.00  0.00     0.251 C 
ATOM     34  H   UNL A   1      34.176  32.269  27.699  1.00  0.00     0.163 HD
ATOM     35  O   UNL A   1      36.026  32.350  29.238  1.00  0.00    -0.269 OA
BRANCH  33  36
ATOM     36  C   UNL A   1      36.668  30.198  28.558  1.00  0.00     0.039 A 
ATOM     37  C   UNL A   1      36.686  29.353  29.682  1.00  0.00     0.014 A 
ATOM     38  C   UNL A   1      37.617  30.022  27.558  1.00  0.00     0.014 A 
ATOM     39  C   UNL A   1      37.779  28.519  29.910  1.00  0.00     0.010 A 
ATOM     40  C   UNL A   1      38.753  29.293  27.833  1.00  0.00     0.010 A 
ATOM     41  C   UNL A   1      38.859  28.589  29.035  1.00  0.00    -0.014 A 
BRANCH  41  42
ATOM     42  C   UNL A   1      40.193  28.081  29.332  1.00  0.00     0.031 A 
ATOM     43  C   UNL A   1      40.667  26.831  28.712  1.00  0.00     0.074 A 
ATOM     44  C   UNL A   1      41.051  28.914  29.959  1.00  0.00     0.049 A 
ATOM     45  N   UNL A   1      41.782  26.258  29.000  1.00  0.00    -0.248 NA
ATOM     46  C   UNL A   1      39.899  26.113  27.704  1.00  0.00     0.031 C 
ATOM     47  C   UNL A   1      42.511  28.852  29.984  1.00  0.00     0.029 A 
ATOM     48  N   UNL A   1      40.748  29.967  30.820  1.00  0.00    -0.354 N 
ATOM     49  C   UNL A   1      42.007  25.267  28.075  1.00  0.00     0.074 A 
ATOM     50  C   UNL A   1      40.788  25.200  27.302  1.00  0.00     0.031 C 
ATOM     51  C   UNL A   1      42.966  29.639  30.971  1.00  0.00     0.029 A 
ATOM     52  C   UNL A   1      41.804  30.059  31.735  1.00  0.00     0.049 A 
ATOM     53  H   UNL A   1      39.947  30.538  30.791  1.00  0.00     0.167 HD
ATOM     54  C   UNL A   1      43.245  24.695  28.013  1.00  0.00     0.037 A 
ATOM     55  C   UNL A   1      41.645  29.842  33.071  1.00  0.00     0.037 A 
ATOM     56  C   UNL A   1      44.113  25.224  29.070  1.00  0.00     0.049 A 
ATOM     57  C   UNL A   1      42.479  28.653  33.490  1.00  0.00     0.074 A 
ATOM     58  C   UNL A   1      45.095  26.201  29.077  1.00  0.00     0.029 A 
ATOM     59  N   UNL A   1      43.781  24.997  30.408  1.00  0.00    -0.354 N 
ATOM     60  N   UNL A   1      42.753  27.644  32.700  1.00  0.00    -0.248 NA
ATOM     61  C   UNL A   1      43.159  28.570  34.777  1.00  0.00     0.031 C 
ATOM     62  C   UNL A   1      45.286  26.622  30.421  1.00  0.00     0.029 A 
ATOM     63  C   UNL A   1      44.449  25.878  31.237  1.00  0.00     0.049 A 
ATOM     64  H   UNL A   1      43.156  24.302  30.719  1.00  0.00     0.167 HD
ATOM     65  C   UNL A   1      43.697  26.856  33.304  1.00  0.00     0.074 A 
ATOM     66  C   UNL A   1      43.882  27.449  34.619  1.00  0.00     0.031 C 
ATOM     67  C   UNL A   1      44.326  25.813  32.688  1.00  0.00     0.037 A 
BRANCH  54  68
ATOM     68  C   UNL A   1      43.724  23.871  26.835  1.00  0.00     0.057 A 
ATOM     69  C   UNL A   1      44.473  24.450  25.792  1.00  0.00     0.134 A 
ATOM     70  C   UNL A   1      43.440  22.506  26.647  1.00  0.00     0.134 A 
ATOM     71  F   UNL A   1      44.913  25.712  25.856  1.00  0.00    -0.206 F 
ATOM     72  C   UNL A   1      44.811  23.758  24.616  1.00  0.00     0.040 A 
ATOM     73  C   UNL A   1      43.715  21.819  25.454  1.00  0.00     0.040 A 
ATOM     74  F   UNL A   1      42.936  21.754  27.635  1.00  0.00    -0.206 F 
ATOM     75  C   UNL A   1      44.396  22.450  24.426  1.00  0.00     0.006 A 
ENDBRANCH  54  68
BRANCH  55  76
ATOM     76  C   UNL A   1      40.299  30.228  33.573  1.00  0.00     0.057 A 
ATOM     77  C   UNL A   1      40.101  31.587  33.886  1.00  0.00     0.134 A 
ATOM     78  C   UNL A   1      39.157  29.468  33.294  1.00  0.00     0.134 A 
ATOM     79  F   UNL A   1      41.154  32.370  34.166  1.00  0.00    -0.206 F 
ATOM     80  C   UNL A   1      38.852  32.200  33.763  1.00  0.00     0.040 A 
ATOM     81  C   UNL A   1      37.895  30.072  33.187  1.00  0.00     0.040 A 
ATOM     82  F   UNL A   1      39.261  28.178  32.954  1.00  0.00    -0.206 F 
ATOM     83  C   UNL A   1      37.750  31.448  33.373  1.00  0.00     0.006 A 
ENDBRANCH  55  76
BRANCH  67  84
ATOM     84  C   UNL A   1      45.017  24.700  33.432  1.00  0.00     0.057 A 
ATOM     85  C   UNL A   1      46.409  24.657  33.616  1.00  0.00     0.134 A 
ATOM     86  C   UNL A   1      44.283  23.738  34.157  1.00  0.00     0.134 A 
ATOM     87  F   UNL A   1      47.217  25.579  33.076  1.00  0.00    -0.206 F 
ATOM     88  C   UNL A   1      47.031  23.692  34.415  1.00  0.00     0.040 A 
ATOM     89  C   UNL A   1      44.891  22.803  34.999  1.00  0.00     0.040 A 
ATOM     90  F   UNL A   1      42.945  23.684  34.111  1.00  0.00    -0.206 F 
ATOM     91  C   UNL A   1      46.272  22.770  35.120  1.00  0.00     0.006 A 
ENDBRANCH  67  84
ENDBRANCH  41  42
ENDBRANCH  33  36
ENDBRANCH  31  32
ENDBRANCH  30  31
ENDBRANCH   1  30
TORSDOF 14
ENDMDL
