MODEL 1
REMARK VINA RESULT:     -11.5      0.000      0.000
REMARK SMILES C[C@@H]1CC[C@@H](C(=O)NCCCCNC(=O)c2ccc(-c3c4nc(c(-c5c(F)cccc5F)c5ccc([nH]5)c(-c5c(F)cccc5F)c5nc(c(-c6c(F)cccc6F)c6ccc3[nH]6)C=C5)C=C4)cc2)[C@H]2C(=O)N(c3ccccc3)C(=O)[C@@H]21
REMARK SMILES IDX 11 1 10 2 9 3 8 4 6 5 7 6 5 8 1 9 2 10 3 11 82 12 4 13 70 14
REMARK SMILES IDX 80 15 71 16 73 17 81 18 72 19 74 20 75 21 79 22 76 23 78 24
REMARK SMILES IDX 77 25 12 26 13 27 14 28 15 30 16 31 17 32 69 33 18 34 68 35
REMARK SMILES IDX 19 36 20 37 21 38 62 39 22 40 67 41 61 42 63 43 23 44 66 45
REMARK SMILES IDX 60 46 59 47 24 49 50 50 33 51 49 52 34 53 37 54 48 55 64 56
REMARK SMILES IDX 35 57 36 58 47 60 65 61 38 62 25 63 26 64 31 65 27 66 28 67
REMARK SMILES IDX 30 68 32 69 29 70 51 71 52 72 57 73 53 74 54 75 56 76 58 77
REMARK SMILES IDX 55 78 39 79 40 80 45 81 41 82 42 83 44 84 46 85 43 86
REMARK H PARENT 8 7 13 29 63 48 37 59
REMARK Flexibility Score: inf
ROOT
ATOM      1  C   UNL A   1      39.519  21.579  26.125  1.00  0.00     0.023 C 
ENDROOT
BRANCH   1   2
ATOM      2  C   UNL A   1      39.539  23.008  26.671  1.00  0.00     0.023 C 
BRANCH   2   3
ATOM      3  C   UNL A   1      38.321  23.858  26.330  1.00  0.00     0.116 C 
BRANCH   3   4
ATOM      4  N   UNL A   1      37.780  23.615  25.006  1.00  0.00    -0.356 N 
ATOM      5  C   UNL A   1      36.531  23.235  24.626  1.00  0.00     0.223 C 
ATOM      6  O   UNL A   1      36.290  23.233  23.417  1.00  0.00    -0.275 OA
ATOM      7  H   UNL A   1      38.417  23.746  24.266  1.00  0.00     0.163 HD
BRANCH   5   8
ATOM      8  C   UNL A   1      35.466  22.851  25.659  1.00  0.00     0.092 C 
ATOM      9  C   UNL A   1      32.078  21.077  25.310  1.00  0.00     0.008 C 
ATOM     10  C   UNL A   1      33.165  21.368  24.270  1.00  0.00    -0.001 C 
ATOM     11  C   UNL A   1      34.483  20.639  24.624  1.00  0.00     0.005 C 
ATOM     12  C   UNL A   1      33.490  22.847  24.105  1.00  0.00     0.095 C 
ATOM     13  C   UNL A   1      35.317  21.305  25.748  1.00  0.00     0.014 C 
ATOM     14  C   UNL A   1      34.085  23.428  25.372  1.00  0.00     0.104 C 
ATOM     15  C   UNL A   1      32.410  23.844  23.772  1.00  0.00     0.237 C 
ATOM     16  C   UNL A   1      33.876  24.901  25.175  1.00  0.00     0.238 C 
ATOM     17  N   UNL A   1      32.886  25.063  24.224  1.00  0.00    -0.250 N 
ATOM     18  O   UNL A   1      31.404  23.587  23.130  1.00  0.00    -0.274 OA
ATOM     19  O   UNL A   1      34.345  25.750  25.920  1.00  0.00    -0.274 OA
BRANCH  17  20
ATOM     20  C   UNL A   1      32.374  26.331  23.858  1.00  0.00     0.052 A 
ATOM     21  C   UNL A   1      33.076  27.189  23.005  1.00  0.00     0.027 A 
ATOM     22  C   UNL A   1      31.140  26.761  24.374  1.00  0.00     0.027 A 
ATOM     23  C   UNL A   1      32.540  28.430  22.651  1.00  0.00     0.002 A 
ATOM     24  C   UNL A   1      30.623  28.017  24.051  1.00  0.00     0.002 A 
ATOM     25  C   UNL A   1      31.320  28.848  23.180  1.00  0.00     0.000 A 
ENDBRANCH  17  20
ENDBRANCH   5   8
ENDBRANCH   3   4
ENDBRANCH   2   3
ENDBRANCH   1   2
BRANCH   1  26
ATOM     26  C   UNL A   1      40.341  20.550  26.898  1.00  0.00     0.116 C 
BRANCH  26  27
ATOM     27  N   UNL A   1      41.444  19.989  26.130  1.00  0.00    -0.352 N 
ATOM     28  C   UNL A   1      42.632  20.565  25.748  1.00  0.00     0.251 C 
ATOM     29  H   UNL A   1      41.319  19.056  25.841  1.00  0.00     0.163 HD
ATOM     30  O   UNL A   1      43.401  19.964  25.004  1.00  0.00    -0.269 OA
BRANCH  28  31
ATOM     31  C   UNL A   1      42.975  21.931  26.204  1.00  0.00     0.039 A 
ATOM     32  C   UNL A   1      43.048  22.958  25.259  1.00  0.00     0.014 A 
ATOM     33  C   UNL A   1      43.204  22.203  27.555  1.00  0.00     0.014 A 
ATOM     34  C   UNL A   1      43.252  24.275  25.680  1.00  0.00     0.010 A 
ATOM     35  C   UNL A   1      43.334  23.522  27.980  1.00  0.00     0.010 A 
ATOM     36  C   UNL A   1      43.345  24.573  27.049  1.00  0.00    -0.014 A 
BRANCH  36  37
ATOM     37  C   UNL A   1      43.419  25.976  27.532  1.00  0.00     0.031 A 
ATOM     38  C   UNL A   1      44.748  26.617  27.808  1.00  0.00     0.074 A 
ATOM     39  C   UNL A   1      42.281  26.642  27.813  1.00  0.00     0.049 A 
ATOM     40  N   UNL A   1      45.009  27.786  28.334  1.00  0.00    -0.248 NA
ATOM     41  C   UNL A   1      45.943  25.825  27.479  1.00  0.00     0.031 C 
ATOM     42  C   UNL A   1      40.926  26.113  27.646  1.00  0.00     0.029 A 
ATOM     43  N   UNL A   1      42.085  27.902  28.322  1.00  0.00    -0.354 N 
ATOM     44  C   UNL A   1      46.394  27.863  28.417  1.00  0.00     0.074 A 
ATOM     45  C   UNL A   1      46.915  26.605  27.928  1.00  0.00     0.031 C 
ATOM     46  C   UNL A   1      40.041  27.044  28.037  1.00  0.00     0.029 A 
ATOM     47  C   UNL A   1      40.762  28.220  28.512  1.00  0.00     0.049 A 
ATOM     48  H   UNL A   1      42.823  28.520  28.530  1.00  0.00     0.167 HD
ATOM     49  C   UNL A   1      47.162  28.895  28.840  1.00  0.00     0.037 A 
ATOM     50  C   UNL A   1      40.194  29.326  29.025  1.00  0.00     0.037 A 
ATOM     51  C   UNL A   1      46.645  30.158  29.300  1.00  0.00     0.049 A 
ATOM     52  C   UNL A   1      41.064  30.464  29.476  1.00  0.00     0.074 A 
ATOM     53  C   UNL A   1      47.345  31.289  29.681  1.00  0.00     0.029 A 
ATOM     54  N   UNL A   1      45.297  30.454  29.443  1.00  0.00    -0.354 N 
ATOM     55  N   UNL A   1      42.372  30.550  29.482  1.00  0.00    -0.248 NA
ATOM     56  C   UNL A   1      40.380  31.660  29.988  1.00  0.00     0.031 C 
ATOM     57  C   UNL A   1      46.422  32.259  30.088  1.00  0.00     0.029 A 
ATOM     58  C   UNL A   1      45.145  31.744  29.926  1.00  0.00     0.049 A 
ATOM     59  H   UNL A   1      44.558  29.839  29.234  1.00  0.00     0.167 HD
ATOM     60  C   UNL A   1      42.668  31.811  29.979  1.00  0.00     0.074 A 
ATOM     61  C   UNL A   1      41.403  32.463  30.252  1.00  0.00     0.031 C 
ATOM     62  C   UNL A   1      43.881  32.378  30.193  1.00  0.00     0.037 A 
BRANCH  49  63
ATOM     63  C   UNL A   1      48.649  28.698  28.819  1.00  0.00     0.057 A 
ATOM     64  C   UNL A   1      49.414  28.987  27.682  1.00  0.00     0.134 A 
ATOM     65  C   UNL A   1      49.325  28.230  29.953  1.00  0.00     0.134 A 
ATOM     66  F   UNL A   1      48.824  29.427  26.559  1.00  0.00    -0.206 F 
ATOM     67  C   UNL A   1      50.796  28.791  27.663  1.00  0.00     0.040 A 
ATOM     68  C   UNL A   1      50.710  28.053  29.954  1.00  0.00     0.040 A 
ATOM     69  F   UNL A   1      48.652  27.941  31.077  1.00  0.00    -0.206 F 
ATOM     70  C   UNL A   1      51.447  28.327  28.803  1.00  0.00     0.006 A 
ENDBRANCH  49  63
BRANCH  50  71
ATOM     71  C   UNL A   1      38.716  29.415  29.125  1.00  0.00     0.057 A 
ATOM     72  C   UNL A   1      38.065  29.248  30.351  1.00  0.00     0.134 A 
ATOM     73  C   UNL A   1      37.924  29.679  28.001  1.00  0.00     0.134 A 
ATOM     74  F   UNL A   1      38.771  28.975  31.458  1.00  0.00    -0.206 F 
ATOM     75  C   UNL A   1      36.675  29.329  30.457  1.00  0.00     0.040 A 
ATOM     76  C   UNL A   1      36.535  29.783  28.096  1.00  0.00     0.040 A 
ATOM     77  F   UNL A   1      38.492  29.856  26.799  1.00  0.00    -0.206 F 
ATOM     78  C   UNL A   1      35.907  29.604  29.327  1.00  0.00     0.006 A 
ENDBRANCH  50  71
BRANCH  62  79
ATOM     79  C   UNL A   1      43.896  33.777  30.732  1.00  0.00     0.057 A 
ATOM     80  C   UNL A   1      43.829  34.891  29.888  1.00  0.00     0.134 A 
ATOM     81  C   UNL A   1      43.938  34.010  32.113  1.00  0.00     0.134 A 
ATOM     82  F   UNL A   1      43.801  34.733  28.555  1.00  0.00    -0.206 F 
ATOM     83  C   UNL A   1      43.818  36.191  30.396  1.00  0.00     0.040 A 
ATOM     84  C   UNL A   1      43.906  35.305  32.634  1.00  0.00     0.040 A 
ATOM     85  F   UNL A   1      43.996  32.985  32.976  1.00  0.00    -0.206 F 
ATOM     86  C   UNL A   1      43.851  36.400  31.774  1.00  0.00     0.006 A 
ENDBRANCH  62  79
ENDBRANCH  36  37
ENDBRANCH  28  31
ENDBRANCH  26  27
ENDBRANCH   1  26
TORSDOF 12
ENDMDL
MODEL 2
REMARK VINA RESULT:     -11.5      1.128      6.289
REMARK SMILES C[C@@H]1CC[C@@H](C(=O)NCCCCNC(=O)c2ccc(-c3c4nc(c(-c5c(F)cccc5F)c5ccc([nH]5)c(-c5c(F)cccc5F)c5nc(c(-c6c(F)cccc6F)c6ccc3[nH]6)C=C5)C=C4)cc2)[C@H]2C(=O)N(c3ccccc3)C(=O)[C@@H]21
REMARK SMILES IDX 11 1 10 2 9 3 8 4 6 5 7 6 5 8 1 9 2 10 3 11 82 12 4 13 70 14
REMARK SMILES IDX 80 15 71 16 73 17 81 18 72 19 74 20 75 21 79 22 76 23 78 24
REMARK SMILES IDX 77 25 12 26 13 27 14 28 15 30 16 31 17 32 69 33 18 34 68 35
REMARK SMILES IDX 19 36 20 37 21 38 62 39 22 40 67 41 61 42 63 43 23 44 66 45
REMARK SMILES IDX 60 46 59 47 24 49 50 50 33 51 49 52 34 53 37 54 48 55 64 56
REMARK SMILES IDX 35 57 36 58 47 60 65 61 38 62 25 63 26 64 31 65 27 66 28 67
REMARK SMILES IDX 30 68 32 69 29 70 51 71 52 72 57 73 53 74 54 75 56 76 58 77
REMARK SMILES IDX 55 78 39 79 40 80 45 81 41 82 42 83 44 84 46 85 43 86
REMARK H PARENT 8 7 13 29 63 48 37 59
REMARK Flexibility Score: inf
ROOT
ATOM      1  C   UNL A   1      39.253  21.591  25.757  1.00  0.00     0.023 C 
ENDROOT
BRANCH   1   2
ATOM      2  C   UNL A   1      39.285  22.914  26.523  1.00  0.00     0.023 C 
BRANCH   2   3
ATOM      3  C   UNL A   1      38.198  23.914  26.151  1.00  0.00     0.116 C 
BRANCH   3   4
ATOM      4  N   UNL A   1      37.616  23.698  24.840  1.00  0.00    -0.356 N 
ATOM      5  C   UNL A   1      36.347  23.354  24.490  1.00  0.00     0.223 C 
ATOM      6  O   UNL A   1      36.075  23.370  23.288  1.00  0.00    -0.275 OA
ATOM      7  H   UNL A   1      38.237  23.818  24.085  1.00  0.00     0.163 HD
BRANCH   5   8
ATOM      8  C   UNL A   1      35.300  22.989  25.548  1.00  0.00     0.092 C 
ATOM      9  C   UNL A   1      31.886  21.251  25.281  1.00  0.00     0.008 C 
ATOM     10  C   UNL A   1      32.954  21.523  24.217  1.00  0.00    -0.001 C 
ATOM     11  C   UNL A   1      34.271  20.782  24.549  1.00  0.00     0.005 C 
ATOM     12  C   UNL A   1      33.292  22.997  24.035  1.00  0.00     0.095 C 
ATOM     13  C   UNL A   1      35.136  21.445  25.650  1.00  0.00     0.014 C 
ATOM     14  C   UNL A   1      33.920  23.580  25.285  1.00  0.00     0.104 C 
ATOM     15  C   UNL A   1      32.216  24.004  23.718  1.00  0.00     0.237 C 
ATOM     16  C   UNL A   1      33.723  25.054  25.083  1.00  0.00     0.238 C 
ATOM     17  N   UNL A   1      32.715  25.221  24.152  1.00  0.00    -0.250 N 
ATOM     18  O   UNL A   1      31.194  23.754  23.099  1.00  0.00    -0.274 OA
ATOM     19  O   UNL A   1      34.217  25.903  25.811  1.00  0.00    -0.274 OA
BRANCH  17  20
ATOM     20  C   UNL A   1      32.210  26.492  23.787  1.00  0.00     0.052 A 
ATOM     21  C   UNL A   1      32.969  27.398  23.040  1.00  0.00     0.027 A 
ATOM     22  C   UNL A   1      30.922  26.875  24.198  1.00  0.00     0.027 A 
ATOM     23  C   UNL A   1      32.440  28.642  22.684  1.00  0.00     0.002 A 
ATOM     24  C   UNL A   1      30.408  28.132  23.876  1.00  0.00     0.002 A 
ATOM     25  C   UNL A   1      31.164  29.012  23.109  1.00  0.00     0.000 A 
ENDBRANCH  17  20
ENDBRANCH   5   8
ENDBRANCH   3   4
ENDBRANCH   2   3
ENDBRANCH   1   2
BRANCH   1  26
ATOM     26  C   UNL A   1      39.541  20.331  26.572  1.00  0.00     0.116 C 
BRANCH  26  27
ATOM     27  N   UNL A   1      40.596  19.501  26.009  1.00  0.00    -0.352 N 
ATOM     28  C   UNL A   1      41.941  19.757  25.878  1.00  0.00     0.251 C 
ATOM     29  H   UNL A   1      40.302  18.624  25.671  1.00  0.00     0.163 HD
ATOM     30  O   UNL A   1      42.665  18.971  25.274  1.00  0.00    -0.269 OA
BRANCH  28  31
ATOM     31  C   UNL A   1      42.518  21.001  26.434  1.00  0.00     0.039 A 
ATOM     32  C   UNL A   1      42.997  21.974  25.553  1.00  0.00     0.014 A 
ATOM     33  C   UNL A   1      42.569  21.216  27.814  1.00  0.00     0.014 A 
ATOM     34  C   UNL A   1      43.434  23.204  26.050  1.00  0.00     0.010 A 
ATOM     35  C   UNL A   1      42.937  22.467  28.302  1.00  0.00     0.010 A 
ATOM     36  C   UNL A   1      43.360  23.478  27.426  1.00  0.00    -0.014 A 
BRANCH  36  37
ATOM     37  C   UNL A   1      43.684  24.824  27.966  1.00  0.00     0.031 A 
ATOM     38  C   UNL A   1      42.591  25.815  28.246  1.00  0.00     0.074 A 
ATOM     39  C   UNL A   1      44.973  25.187  28.114  1.00  0.00     0.049 A 
ATOM     40  N   UNL A   1      42.684  27.068  28.614  1.00  0.00    -0.248 NA
ATOM     41  C   UNL A   1      41.210  25.345  28.056  1.00  0.00     0.031 C 
ATOM     42  C   UNL A   1      46.131  24.340  27.822  1.00  0.00     0.029 A 
ATOM     43  N   UNL A   1      45.526  26.374  28.528  1.00  0.00    -0.354 N 
ATOM     44  C   UNL A   1      41.380  27.540  28.682  1.00  0.00     0.074 A 
ATOM     45  C   UNL A   1      40.517  26.453  28.273  1.00  0.00     0.031 C 
ATOM     46  C   UNL A   1      47.255  25.031  28.072  1.00  0.00     0.029 A 
ATOM     47  C   UNL A   1      46.900  26.376  28.511  1.00  0.00     0.049 A 
ATOM     48  H   UNL A   1      44.989  27.149  28.811  1.00  0.00     0.167 HD
ATOM     49  C   UNL A   1      40.940  28.761  29.069  1.00  0.00     0.037 A 
ATOM     50  C   UNL A   1      47.776  27.356  28.800  1.00  0.00     0.037 A 
ATOM     51  C   UNL A   1      41.797  29.834  29.502  1.00  0.00     0.049 A 
ATOM     52  C   UNL A   1      47.266  28.699  29.240  1.00  0.00     0.074 A 
ATOM     53  C   UNL A   1      41.440  31.082  29.982  1.00  0.00     0.029 A 
ATOM     54  N   UNL A   1      43.183  29.785  29.506  1.00  0.00    -0.354 N 
ATOM     55  N   UNL A   1      46.027  29.109  29.367  1.00  0.00    -0.248 NA
ATOM     56  C   UNL A   1      48.274  29.712  29.581  1.00  0.00     0.031 C 
ATOM     57  C   UNL A   1      42.611  31.802  30.244  1.00  0.00     0.029 A 
ATOM     58  C   UNL A   1      43.697  30.989  29.961  1.00  0.00     0.049 A 
ATOM     59  H   UNL A   1      43.721  29.011  29.225  1.00  0.00     0.167 HD
ATOM     60  C   UNL A   1      46.106  30.419  29.818  1.00  0.00     0.074 A 
ATOM     61  C   UNL A   1      47.513  30.732  29.957  1.00  0.00     0.031 C 
ATOM     62  C   UNL A   1      45.100  31.286  30.091  1.00  0.00     0.037 A 
BRANCH  49  63
ATOM     63  C   UNL A   1      39.459  28.996  29.045  1.00  0.00     0.057 A 
ATOM     64  C   UNL A   1      38.671  28.846  30.193  1.00  0.00     0.134 A 
ATOM     65  C   UNL A   1      38.816  29.392  27.865  1.00  0.00     0.134 A 
ATOM     66  F   UNL A   1      39.224  28.457  31.352  1.00  0.00    -0.206 F 
ATOM     67  C   UNL A   1      37.291  29.055  30.163  1.00  0.00     0.040 A 
ATOM     68  C   UNL A   1      37.440  29.627  27.829  1.00  0.00     0.040 A 
ATOM     69  F   UNL A   1      39.514  29.560  26.732  1.00  0.00    -0.206 F 
ATOM     70  C   UNL A   1      36.673  29.450  28.979  1.00  0.00     0.006 A 
ENDBRANCH  49  63
BRANCH  50  71
ATOM     71  C   UNL A   1      49.232  27.095  28.695  1.00  0.00     0.057 A 
ATOM     72  C   UNL A   1      49.937  27.396  27.525  1.00  0.00     0.134 A 
ATOM     73  C   UNL A   1      49.954  26.550  29.763  1.00  0.00     0.134 A 
ATOM     74  F   UNL A   1      49.294  27.903  26.462  1.00  0.00    -0.206 F 
ATOM     75  C   UNL A   1      51.307  27.155  27.414  1.00  0.00     0.040 A 
ATOM     76  C   UNL A   1      51.329  26.322  29.674  1.00  0.00     0.040 A 
ATOM     77  F   UNL A   1      49.336  26.248  30.914  1.00  0.00    -0.206 F 
ATOM     78  C   UNL A   1      52.008  26.621  28.494  1.00  0.00     0.006 A 
ENDBRANCH  50  71
BRANCH  62  79
ATOM     79  C   UNL A   1      45.486  32.649  30.583  1.00  0.00     0.057 A 
ATOM     80  C   UNL A   1      45.667  33.723  29.706  1.00  0.00     0.134 A 
ATOM     81  C   UNL A   1      45.639  32.896  31.953  1.00  0.00     0.134 A 
ATOM     82  F   UNL A   1      45.548  33.546  28.380  1.00  0.00    -0.206 F 
ATOM     83  C   UNL A   1      46.002  34.996  30.172  1.00  0.00     0.040 A 
ATOM     84  C   UNL A   1      45.954  34.169  32.433  1.00  0.00     0.040 A 
ATOM     85  F   UNL A   1      45.474  31.910  32.847  1.00  0.00    -0.206 F 
ATOM     86  C   UNL A   1      46.141  35.222  31.540  1.00  0.00     0.006 A 
ENDBRANCH  62  79
ENDBRANCH  36  37
ENDBRANCH  28  31
ENDBRANCH  26  27
ENDBRANCH   1  26
TORSDOF 12
ENDMDL
MODEL 3
REMARK VINA RESULT:     -11.5      4.631      9.221
REMARK SMILES C[C@@H]1CC[C@@H](C(=O)NCCCCNC(=O)c2ccc(-c3c4nc(c(-c5c(F)cccc5F)c5ccc([nH]5)c(-c5c(F)cccc5F)c5nc(c(-c6c(F)cccc6F)c6ccc3[nH]6)C=C5)C=C4)cc2)[C@H]2C(=O)N(c3ccccc3)C(=O)[C@@H]21
REMARK SMILES IDX 11 1 10 2 9 3 8 4 6 5 7 6 5 8 1 9 2 10 3 11 82 12 4 13 70 14
REMARK SMILES IDX 80 15 71 16 73 17 81 18 72 19 74 20 75 21 79 22 76 23 78 24
REMARK SMILES IDX 77 25 12 26 13 27 14 28 15 30 16 31 17 32 69 33 18 34 68 35
REMARK SMILES IDX 19 36 20 37 21 38 62 39 22 40 67 41 61 42 63 43 23 44 66 45
REMARK SMILES IDX 60 46 59 47 24 49 50 50 33 51 49 52 34 53 37 54 48 55 64 56
REMARK SMILES IDX 35 57 36 58 47 60 65 61 38 62 25 63 26 64 31 65 27 66 28 67
REMARK SMILES IDX 30 68 32 69 29 70 51 71 52 72 57 73 53 74 54 75 56 76 58 77
REMARK SMILES IDX 55 78 39 79 40 80 45 81 41 82 42 83 44 84 46 85 43 86
REMARK H PARENT 8 7 13 29 63 48 37 59
REMARK Flexibility Score: inf
ROOT
ATOM      1  C   UNL A   1      34.117  32.032  27.255  1.00  0.00     0.023 C 
ENDROOT
BRANCH   1   2
ATOM      2  C   UNL A   1      34.777  30.968  28.132  1.00  0.00     0.023 C 
BRANCH   2   3
ATOM      3  C   UNL A   1      34.849  29.571  27.526  1.00  0.00     0.116 C 
BRANCH   3   4
ATOM      4  N   UNL A   1      33.651  28.777  27.721  1.00  0.00    -0.356 N 
ATOM      5  C   UNL A   1      32.839  28.178  26.809  1.00  0.00     0.223 C 
ATOM      6  O   UNL A   1      31.956  27.439  27.247  1.00  0.00    -0.275 OA
ATOM      7  H   UNL A   1      33.384  28.652  28.661  1.00  0.00     0.163 HD
BRANCH   5   8
ATOM      8  C   UNL A   1      33.032  28.397  25.304  1.00  0.00     0.092 C 
ATOM      9  C   UNL A   1      30.553  28.377  22.372  1.00  0.00     0.008 C 
ATOM     10  C   UNL A   1      30.318  28.245  23.880  1.00  0.00    -0.001 C 
ATOM     11  C   UNL A   1      30.754  29.528  24.626  1.00  0.00     0.005 C 
ATOM     12  C   UNL A   1      31.044  27.071  24.524  1.00  0.00     0.095 C 
ATOM     13  C   UNL A   1      32.283  29.676  24.833  1.00  0.00     0.014 C 
ATOM     14  C   UNL A   1      32.548  27.238  24.442  1.00  0.00     0.104 C 
ATOM     15  C   UNL A   1      30.850  25.666  24.013  1.00  0.00     0.237 C 
ATOM     16  C   UNL A   1      33.037  25.836  24.664  1.00  0.00     0.238 C 
ATOM     17  N   UNL A   1      31.988  24.977  24.397  1.00  0.00    -0.250 N 
ATOM     18  O   UNL A   1      29.828  25.256  23.486  1.00  0.00    -0.274 OA
ATOM     19  O   UNL A   1      34.218  25.553  24.812  1.00  0.00    -0.274 OA
BRANCH  17  20
ATOM     20  C   UNL A   1      32.124  23.568  24.423  1.00  0.00     0.052 A 
ATOM     21  C   UNL A   1      32.049  22.844  25.617  1.00  0.00     0.027 A 
ATOM     22  C   UNL A   1      32.363  22.868  23.229  1.00  0.00     0.027 A 
ATOM     23  C   UNL A   1      32.175  21.452  25.611  1.00  0.00     0.002 A 
ATOM     24  C   UNL A   1      32.529  21.482  23.228  1.00  0.00     0.002 A 
ATOM     25  C   UNL A   1      32.424  20.773  24.419  1.00  0.00     0.000 A 
ENDBRANCH  17  20
ENDBRANCH   5   8
ENDBRANCH   3   4
ENDBRANCH   2   3
ENDBRANCH   1   2
BRANCH   1  26
ATOM     26  C   UNL A   1      32.678  32.402  27.609  1.00  0.00     0.116 C 
BRANCH  26  27
ATOM     27  N   UNL A   1      32.459  33.835  27.741  1.00  0.00    -0.352 N 
ATOM     28  C   UNL A   1      33.111  34.756  28.527  1.00  0.00     0.251 C 
ATOM     29  H   UNL A   1      31.735  34.200  27.181  1.00  0.00     0.163 HD
ATOM     30  O   UNL A   1      32.711  35.915  28.585  1.00  0.00    -0.269 OA
BRANCH  28  31
ATOM     31  C   UNL A   1      34.278  34.345  29.339  1.00  0.00     0.039 A 
ATOM     32  C   UNL A   1      34.057  33.696  30.557  1.00  0.00     0.014 A 
ATOM     33  C   UNL A   1      35.582  34.579  28.895  1.00  0.00     0.014 A 
ATOM     34  C   UNL A   1      35.140  33.193  31.281  1.00  0.00     0.010 A 
ATOM     35  C   UNL A   1      36.655  34.016  29.580  1.00  0.00     0.010 A 
ATOM     36  C   UNL A   1      36.444  33.305  30.772  1.00  0.00    -0.014 A 
BRANCH  36  37
ATOM     37  C   UNL A   1      37.598  32.657  31.449  1.00  0.00     0.031 A 
ATOM     38  C   UNL A   1      38.290  31.484  30.817  1.00  0.00     0.074 A 
ATOM     39  C   UNL A   1      37.961  33.068  32.680  1.00  0.00     0.049 A 
ATOM     40  N   UNL A   1      39.238  30.723  31.303  1.00  0.00    -0.248 NA
ATOM     41  C   UNL A   1      37.834  31.093  29.475  1.00  0.00     0.031 C 
ATOM     42  C   UNL A   1      37.333  34.157  33.430  1.00  0.00     0.029 A 
ATOM     43  N   UNL A   1      38.936  32.600  33.527  1.00  0.00    -0.354 N 
ATOM     44  C   UNL A   1      39.479  29.756  30.336  1.00  0.00     0.074 A 
ATOM     45  C   UNL A   1      38.546  29.998  29.256  1.00  0.00     0.031 C 
ATOM     46  C   UNL A   1      37.942  34.279  34.621  1.00  0.00     0.029 A 
ATOM     47  C   UNL A   1      38.979  33.258  34.733  1.00  0.00     0.049 A 
ATOM     48  H   UNL A   1      39.545  31.864  33.293  1.00  0.00     0.167 HD
ATOM     49  C   UNL A   1      40.406  28.768  30.337  1.00  0.00     0.037 A 
ATOM     50  C   UNL A   1      39.755  33.054  35.813  1.00  0.00     0.037 A 
ATOM     51  C   UNL A   1      41.352  28.544  31.398  1.00  0.00     0.049 A 
ATOM     52  C   UNL A   1      40.786  31.962  35.787  1.00  0.00     0.074 A 
ATOM     53  C   UNL A   1      42.377  27.615  31.458  1.00  0.00     0.029 A 
ATOM     54  N   UNL A   1      41.389  29.256  32.588  1.00  0.00    -0.354 N 
ATOM     55  N   UNL A   1      41.049  31.098  34.836  1.00  0.00    -0.248 NA
ATOM     56  C   UNL A   1      41.630  31.817  36.982  1.00  0.00     0.031 C 
ATOM     57  C   UNL A   1      43.011  27.742  32.698  1.00  0.00     0.029 A 
ATOM     58  C   UNL A   1      42.405  28.774  33.397  1.00  0.00     0.049 A 
ATOM     59  H   UNL A   1      40.782  29.994  32.823  1.00  0.00     0.167 HD
ATOM     60  C   UNL A   1      42.098  30.322  35.309  1.00  0.00     0.074 A 
ATOM     61  C   UNL A   1      42.433  30.824  36.626  1.00  0.00     0.031 C 
ATOM     62  C   UNL A   1      42.725  29.283  34.705  1.00  0.00     0.037 A 
BRANCH  49  63
ATOM     63  C   UNL A   1      40.440  27.858  29.145  1.00  0.00     0.057 A 
ATOM     64  C   UNL A   1      41.245  28.132  28.033  1.00  0.00     0.134 A 
ATOM     65  C   UNL A   1      39.674  26.686  29.116  1.00  0.00     0.134 A 
ATOM     66  F   UNL A   1      41.994  29.245  27.993  1.00  0.00    -0.206 F 
ATOM     67  C   UNL A   1      41.265  27.288  26.921  1.00  0.00     0.040 A 
ATOM     68  C   UNL A   1      39.704  25.822  28.020  1.00  0.00     0.040 A 
ATOM     69  F   UNL A   1      38.886  26.361  30.153  1.00  0.00    -0.206 F 
ATOM     70  C   UNL A   1      40.496  26.128  26.915  1.00  0.00     0.006 A 
ENDBRANCH  49  63
BRANCH  50  71
ATOM     71  C   UNL A   1      39.595  33.918  37.007  1.00  0.00     0.057 A 
ATOM     72  C   UNL A   1      40.236  35.158  37.092  1.00  0.00     0.134 A 
ATOM     73  C   UNL A   1      38.790  33.531  38.085  1.00  0.00     0.134 A 
ATOM     74  F   UNL A   1      41.035  35.574  36.098  1.00  0.00    -0.206 F 
ATOM     75  C   UNL A   1      40.093  35.981  38.211  1.00  0.00     0.040 A 
ATOM     76  C   UNL A   1      38.621  34.351  39.202  1.00  0.00     0.040 A 
ATOM     77  F   UNL A   1      38.143  32.356  38.059  1.00  0.00    -0.206 F 
ATOM     78  C   UNL A   1      39.278  35.579  39.268  1.00  0.00     0.006 A 
ENDBRANCH  50  71
BRANCH  62  79
ATOM     79  C   UNL A   1      43.848  28.632  35.456  1.00  0.00     0.057 A 
ATOM     80  C   UNL A   1      43.628  27.553  36.319  1.00  0.00     0.134 A 
ATOM     81  C   UNL A   1      45.169  29.066  35.283  1.00  0.00     0.134 A 
ATOM     82  F   UNL A   1      42.383  27.100  36.538  1.00  0.00    -0.206 F 
ATOM     83  C   UNL A   1      44.680  26.935  36.996  1.00  0.00     0.040 A 
ATOM     84  C   UNL A   1      46.232  28.443  35.939  1.00  0.00     0.040 A 
ATOM     85  F   UNL A   1      45.448  30.091  34.465  1.00  0.00    -0.206 F 
ATOM     86  C   UNL A   1      45.988  27.376  36.802  1.00  0.00     0.006 A 
ENDBRANCH  62  79
ENDBRANCH  36  37
ENDBRANCH  28  31
ENDBRANCH  26  27
ENDBRANCH   1  26
TORSDOF 12
ENDMDL
