MODEL 1
REMARK VINA RESULT:     -11.5      0.000      0.000
REMARK SMILES Cc1cc(C(=O)N[C@@H](C)C(=O)NCCCCNC(=O)c2ccc(-c3c4nc(c(-c5c(F)cccc5F)c5ccc([nH]5)c(-c5c(F)cccc5F)c5nc(c(-c6c(F)cccc6F)c6ccc3[nH]6)C=C5)C=C4)cc2)cc(C)c1OC(F)F
REMARK SMILES IDX 13 1 12 2 10 3 11 4 8 6 9 7 7 8 5 9 6 10 4 12 1 13 2 14 3 15
REMARK SMILES IDX 77 16 75 17 74 18 76 19 78 20 79 21 80 22 81 23 14 24 15 25
REMARK SMILES IDX 16 26 17 27 18 28 19 30 20 31 21 32 73 33 22 34 72 35 23 36
REMARK SMILES IDX 24 37 25 38 66 39 26 40 71 41 65 42 67 43 27 44 70 45 64 46
REMARK SMILES IDX 63 47 28 49 54 50 37 51 53 52 38 53 41 54 52 55 68 56 39 57
REMARK SMILES IDX 40 58 51 60 69 61 42 62 29 63 30 64 35 65 31 66 32 67 34 68
REMARK SMILES IDX 36 69 33 70 55 71 56 72 61 73 57 74 58 75 60 76 62 77 59 78
REMARK SMILES IDX 43 79 44 80 49 81 45 82 46 83 48 84 50 85 47 86
REMARK H PARENT 12 5 7 11 17 29 67 48 41 59
REMARK Flexibility Score: inf
ROOT
ATOM      1  C   UNL A   1      31.026  26.873  25.365  1.00  0.00     0.116 C 
ENDROOT
BRANCH   1   2
ATOM      2  N   UNL A   1      30.458  27.366  24.125  1.00  0.00    -0.354 N 
ATOM      3  C   UNL A   1      31.053  27.656  22.928  1.00  0.00     0.242 C 
ATOM      4  O   UNL A   1      30.317  27.935  21.976  1.00  0.00    -0.273 OA
ATOM      5  H   UNL A   1      29.485  27.516  24.148  1.00  0.00     0.163 HD
BRANCH   3   6
ATOM      6  C   UNL A   1      32.585  27.633  22.755  1.00  0.00     0.168 C 
ATOM      7  C   UNL A   1      33.201  29.024  22.664  1.00  0.00     0.041 C 
BRANCH   6   8
ATOM      8  N   UNL A   1      32.907  26.760  21.626  1.00  0.00    -0.341 N 
ATOM      9  C   UNL A   1      33.082  25.403  21.523  1.00  0.00     0.251 C 
ATOM     10  O   UNL A   1      33.135  24.932  20.386  1.00  0.00    -0.269 OA
ATOM     11  H   UNL A   1      33.019  27.241  20.774  1.00  0.00     0.164 HD
BRANCH   9  12
ATOM     12  C   UNL A   1      33.335  24.511  22.688  1.00  0.00     0.040 A 
ATOM     13  C   UNL A   1      32.399  20.907  23.333  1.00  0.00     0.048 C 
ATOM     14  C   UNL A   1      33.071  22.226  23.596  1.00  0.00    -0.008 A 
ATOM     15  C   UNL A   1      32.787  23.224  22.632  1.00  0.00     0.021 A 
ATOM     16  C   UNL A   1      34.005  22.527  24.601  1.00  0.00     0.131 A 
ATOM     17  C   UNL A   1      34.483  23.857  24.719  1.00  0.00    -0.008 A 
ATOM     18  C   UNL A   1      34.091  24.846  23.799  1.00  0.00     0.021 A 
ATOM     19  C   UNL A   1      35.504  24.258  25.757  1.00  0.00     0.048 C 
BRANCH  16  20
ATOM     20  O   UNL A   1      34.635  21.666  25.451  1.00  0.00    -0.434 OA
BRANCH  20  21
ATOM     21  C   UNL A   1      35.678  20.809  25.033  1.00  0.00     0.542 C 
ATOM     22  F   UNL A   1      35.194  19.616  24.623  1.00  0.00    -0.167 F 
ATOM     23  F   UNL A   1      36.361  21.391  24.021  1.00  0.00    -0.167 F 
ENDBRANCH  20  21
ENDBRANCH  16  20
ENDBRANCH   9  12
ENDBRANCH   6   8
ENDBRANCH   3   6
ENDBRANCH   1   2
BRANCH   1  24
ATOM     24  C   UNL A   1      31.492  27.986  26.298  1.00  0.00     0.023 C 
BRANCH  24  25
ATOM     25  C   UNL A   1      32.955  28.398  26.150  1.00  0.00     0.023 C 
BRANCH  25  26
ATOM     26  C   UNL A   1      33.702  28.662  27.453  1.00  0.00     0.116 C 
BRANCH  26  27
ATOM     27  N   UNL A   1      33.744  30.067  27.828  1.00  0.00    -0.352 N 
ATOM     28  C   UNL A   1      34.798  30.794  28.336  1.00  0.00     0.251 C 
ATOM     29  H   UNL A   1      32.904  30.566  27.704  1.00  0.00     0.163 HD
ATOM     30  O   UNL A   1      34.647  31.958  28.677  1.00  0.00    -0.269 OA
BRANCH  28  31
ATOM     31  C   UNL A   1      36.109  30.134  28.502  1.00  0.00     0.039 A 
ATOM     32  C   UNL A   1      37.017  30.162  27.442  1.00  0.00     0.014 A 
ATOM     33  C   UNL A   1      36.455  29.546  29.720  1.00  0.00     0.014 A 
ATOM     34  C   UNL A   1      38.313  29.676  27.632  1.00  0.00     0.010 A 
ATOM     35  C   UNL A   1      37.763  29.125  29.929  1.00  0.00     0.010 A 
ATOM     36  C   UNL A   1      38.706  29.196  28.890  1.00  0.00    -0.014 A 
BRANCH  36  37
ATOM     37  C   UNL A   1      40.101  28.771  29.165  1.00  0.00     0.031 A 
ATOM     38  C   UNL A   1      41.080  29.755  29.738  1.00  0.00     0.074 A 
ATOM     39  C   UNL A   1      40.514  27.547  28.787  1.00  0.00     0.049 A 
ATOM     40  N   UNL A   1      42.374  29.642  29.889  1.00  0.00    -0.248 NA
ATOM     41  C   UNL A   1      40.533  31.054  30.159  1.00  0.00     0.031 C 
ATOM     42  C   UNL A   1      39.672  26.519  28.172  1.00  0.00     0.029 A 
ATOM     43  N   UNL A   1      41.759  26.971  28.834  1.00  0.00    -0.354 N 
ATOM     44  C   UNL A   1      42.801  30.866  30.384  1.00  0.00     0.074 A 
ATOM     45  C   UNL A   1      41.634  31.717  30.479  1.00  0.00     0.031 C 
ATOM     46  C   UNL A   1      40.424  25.441  27.897  1.00  0.00     0.029 A 
ATOM     47  C   UNL A   1      41.806  25.715  28.279  1.00  0.00     0.049 A 
ATOM     48  H   UNL A   1      42.545  27.416  29.227  1.00  0.00     0.167 HD
ATOM     49  C   UNL A   1      44.052  31.241  30.740  1.00  0.00     0.037 A 
ATOM     50  C   UNL A   1      42.848  24.886  28.081  1.00  0.00     0.037 A 
ATOM     51  C   UNL A   1      45.200  30.378  30.689  1.00  0.00     0.049 A 
ATOM     52  C   UNL A   1      44.222  25.310  28.515  1.00  0.00     0.074 A 
ATOM     53  C   UNL A   1      46.491  30.632  31.119  1.00  0.00     0.029 A 
ATOM     54  N   UNL A   1      45.195  29.089  30.177  1.00  0.00    -0.354 N 
ATOM     55  N   UNL A   1      44.602  26.444  29.050  1.00  0.00    -0.248 NA
ATOM     56  C   UNL A   1      45.311  24.342  28.320  1.00  0.00     0.031 C 
ATOM     57  C   UNL A   1      47.275  29.510  30.834  1.00  0.00     0.029 A 
ATOM     58  C   UNL A   1      46.464  28.543  30.260  1.00  0.00     0.049 A 
ATOM     59  H   UNL A   1      44.405  28.631  29.808  1.00  0.00     0.167 HD
ATOM     60  C   UNL A   1      45.966  26.320  29.278  1.00  0.00     0.074 A 
ATOM     61  C   UNL A   1      46.348  24.997  28.828  1.00  0.00     0.031 C 
ATOM     62  C   UNL A   1      46.823  27.221  29.816  1.00  0.00     0.037 A 
BRANCH  49  63
ATOM     63  C   UNL A   1      44.239  32.654  31.210  1.00  0.00     0.057 A 
ATOM     64  C   UNL A   1      44.491  33.705  30.319  1.00  0.00     0.134 A 
ATOM     65  C   UNL A   1      44.152  32.967  32.572  1.00  0.00     0.134 A 
ATOM     66  F   UNL A   1      44.600  33.469  29.002  1.00  0.00    -0.206 F 
ATOM     67  C   UNL A   1      44.683  35.012  30.768  1.00  0.00     0.040 A 
ATOM     68  C   UNL A   1      44.316  34.274  33.032  1.00  0.00     0.040 A 
ATOM     69  F   UNL A   1      43.908  32.007  33.478  1.00  0.00    -0.206 F 
ATOM     70  C   UNL A   1      44.590  35.300  32.130  1.00  0.00     0.006 A 
ENDBRANCH  49  63
BRANCH  50  71
ATOM     71  C   UNL A   1      42.622  23.564  27.448  1.00  0.00     0.057 A 
ATOM     72  C   UNL A   1      42.286  22.445  28.218  1.00  0.00     0.134 A 
ATOM     73  C   UNL A   1      42.708  23.392  26.062  1.00  0.00     0.134 A 
ATOM     74  F   UNL A   1      42.205  22.545  29.553  1.00  0.00    -0.206 F 
ATOM     75  C   UNL A   1      42.050  21.200  27.634  1.00  0.00     0.040 A 
ATOM     76  C   UNL A   1      42.455  22.158  25.462  1.00  0.00     0.040 A 
ATOM     77  F   UNL A   1      43.017  24.430  25.270  1.00  0.00    -0.206 F 
ATOM     78  C   UNL A   1      42.129  21.056  26.250  1.00  0.00     0.006 A 
ENDBRANCH  50  71
BRANCH  62  79
ATOM     79  C   UNL A   1      48.252  26.802  29.981  1.00  0.00     0.057 A 
ATOM     80  C   UNL A   1      48.678  26.050  31.082  1.00  0.00     0.134 A 
ATOM     81  C   UNL A   1      49.196  27.090  28.986  1.00  0.00     0.134 A 
ATOM     82  F   UNL A   1      47.823  25.754  32.072  1.00  0.00    -0.206 F 
ATOM     83  C   UNL A   1      49.995  25.604  31.192  1.00  0.00     0.040 A 
ATOM     84  C   UNL A   1      50.511  26.633  29.075  1.00  0.00     0.040 A 
ATOM     85  F   UNL A   1      48.848  27.800  27.902  1.00  0.00    -0.206 F 
ATOM     86  C   UNL A   1      50.914  25.887  30.181  1.00  0.00     0.006 A 
ENDBRANCH  62  79
ENDBRANCH  36  37
ENDBRANCH  28  31
ENDBRANCH  26  27
ENDBRANCH  25  26
ENDBRANCH  24  25
ENDBRANCH   1  24
TORSDOF 15
ENDMDL
MODEL 2
REMARK VINA RESULT:     -11.4      2.795      7.420
REMARK SMILES Cc1cc(C(=O)N[C@@H](C)C(=O)NCCCCNC(=O)c2ccc(-c3c4nc(c(-c5c(F)cccc5F)c5ccc([nH]5)c(-c5c(F)cccc5F)c5nc(c(-c6c(F)cccc6F)c6ccc3[nH]6)C=C5)C=C4)cc2)cc(C)c1OC(F)F
REMARK SMILES IDX 13 1 12 2 10 3 11 4 8 6 9 7 7 8 5 9 6 10 4 12 1 13 2 14 3 15
REMARK SMILES IDX 77 16 75 17 74 18 76 19 78 20 79 21 80 22 81 23 14 24 15 25
REMARK SMILES IDX 16 26 17 27 18 28 19 30 20 31 21 32 73 33 22 34 72 35 23 36
REMARK SMILES IDX 24 37 25 38 66 39 26 40 71 41 65 42 67 43 27 44 70 45 64 46
REMARK SMILES IDX 63 47 28 49 54 50 37 51 53 52 38 53 41 54 52 55 68 56 39 57
REMARK SMILES IDX 40 58 51 60 69 61 42 62 29 63 30 64 35 65 31 66 32 67 34 68
REMARK SMILES IDX 36 69 33 70 55 71 56 72 61 73 57 74 58 75 60 76 62 77 59 78
REMARK SMILES IDX 43 79 44 80 49 81 45 82 46 83 48 84 50 85 47 86
REMARK H PARENT 12 5 7 11 17 29 67 48 41 59
REMARK Flexibility Score: inf
ROOT
ATOM      1  C   UNL A   1      35.186  21.563  26.282  1.00  0.00     0.116 C 
ENDROOT
BRANCH   1   2
ATOM      2  N   UNL A   1      34.045  20.728  25.957  1.00  0.00    -0.354 N 
ATOM      3  C   UNL A   1      32.847  21.046  25.380  1.00  0.00     0.242 C 
ATOM      4  O   UNL A   1      32.089  20.117  25.085  1.00  0.00    -0.273 OA
ATOM      5  H   UNL A   1      34.150  19.777  26.189  1.00  0.00     0.163 HD
BRANCH   3   6
ATOM      6  C   UNL A   1      32.444  22.508  25.097  1.00  0.00     0.168 C 
ATOM      7  C   UNL A   1      30.984  22.804  25.424  1.00  0.00     0.041 C 
BRANCH   6   8
ATOM      8  N   UNL A   1      32.826  22.832  23.723  1.00  0.00    -0.341 N 
ATOM      9  C   UNL A   1      33.152  24.013  23.104  1.00  0.00     0.251 C 
ATOM     10  O   UNL A   1      33.643  23.936  21.977  1.00  0.00    -0.269 OA
ATOM     11  H   UNL A   1      32.858  22.050  23.125  1.00  0.00     0.164 HD
BRANCH   9  12
ATOM     12  C   UNL A   1      32.827  25.355  23.661  1.00  0.00     0.040 A 
ATOM     13  C   UNL A   1      29.709  27.478  23.426  1.00  0.00     0.048 C 
ATOM     14  C   UNL A   1      31.080  27.089  23.904  1.00  0.00    -0.008 A 
ATOM     15  C   UNL A   1      31.579  25.895  23.327  1.00  0.00     0.021 A 
ATOM     16  C   UNL A   1      31.844  27.706  24.908  1.00  0.00     0.131 A 
ATOM     17  C   UNL A   1      33.150  27.218  25.175  1.00  0.00    -0.008 A 
ATOM     18  C   UNL A   1      33.647  26.089  24.502  1.00  0.00     0.021 A 
ATOM     19  C   UNL A   1      34.026  27.810  26.254  1.00  0.00     0.048 C 
BRANCH  16  20
ATOM     20  O   UNL A   1      31.458  28.677  25.785  1.00  0.00    -0.434 OA
BRANCH  20  21
ATOM     21  C   UNL A   1      31.508  30.053  25.468  1.00  0.00     0.542 C 
ATOM     22  F   UNL A   1      30.468  30.411  24.683  1.00  0.00    -0.167 F 
ATOM     23  F   UNL A   1      31.483  30.779  26.609  1.00  0.00    -0.167 F 
ENDBRANCH  20  21
ENDBRANCH  16  20
ENDBRANCH   9  12
ENDBRANCH   6   8
ENDBRANCH   3   6
ENDBRANCH   1   2
BRANCH   1  24
ATOM     24  C   UNL A   1      36.041  21.914  25.070  1.00  0.00     0.023 C 
BRANCH  24  25
ATOM     25  C   UNL A   1      37.174  20.937  24.759  1.00  0.00     0.023 C 
BRANCH  25  26
ATOM     26  C   UNL A   1      38.405  21.049  25.652  1.00  0.00     0.116 C 
BRANCH  26  27
ATOM     27  N   UNL A   1      39.310  19.914  25.543  1.00  0.00    -0.352 N 
ATOM     28  C   UNL A   1      40.637  19.831  25.902  1.00  0.00     0.251 C 
ATOM     29  H   UNL A   1      38.921  19.095  25.159  1.00  0.00     0.163 HD
ATOM     30  O   UNL A   1      41.284  18.820  25.671  1.00  0.00    -0.269 OA
BRANCH  28  31
ATOM     31  C   UNL A   1      41.281  20.999  26.537  1.00  0.00     0.039 A 
ATOM     32  C   UNL A   1      41.965  21.913  25.731  1.00  0.00     0.014 A 
ATOM     33  C   UNL A   1      41.157  21.215  27.910  1.00  0.00     0.014 A 
ATOM     34  C   UNL A   1      42.450  23.096  26.292  1.00  0.00     0.010 A 
ATOM     35  C   UNL A   1      41.582  22.422  28.453  1.00  0.00     0.010 A 
ATOM     36  C   UNL A   1      42.222  23.378  27.647  1.00  0.00    -0.014 A 
BRANCH  36  37
ATOM     37  C   UNL A   1      42.626  24.668  28.258  1.00  0.00     0.031 A 
ATOM     38  C   UNL A   1      41.596  25.735  28.493  1.00  0.00     0.074 A 
ATOM     39  C   UNL A   1      43.928  24.923  28.483  1.00  0.00     0.049 A 
ATOM     40  N   UNL A   1      41.763  26.983  28.849  1.00  0.00    -0.248 NA
ATOM     41  C   UNL A   1      40.194  25.356  28.258  1.00  0.00     0.031 C 
ATOM     42  C   UNL A   1      45.030  23.988  28.246  1.00  0.00     0.029 A 
ATOM     43  N   UNL A   1      44.551  26.062  28.931  1.00  0.00    -0.354 N 
ATOM     44  C   UNL A   1      40.495  27.547  28.841  1.00  0.00     0.074 A 
ATOM     45  C   UNL A   1      39.573  26.516  28.416  1.00  0.00     0.031 C 
ATOM     46  C   UNL A   1      46.191  24.591  28.549  1.00  0.00     0.029 A 
ATOM     47  C   UNL A   1      45.920  25.964  28.963  1.00  0.00     0.049 A 
ATOM     48  H   UNL A   1      44.062  26.872  29.204  1.00  0.00     0.167 HD
ATOM     49  C   UNL A   1      40.132  28.809  29.171  1.00  0.00     0.037 A 
ATOM     50  C   UNL A   1      46.855  26.884  29.269  1.00  0.00     0.037 A 
ATOM     51  C   UNL A   1      41.044  29.816  29.638  1.00  0.00     0.049 A 
ATOM     52  C   UNL A   1      46.427  28.268  29.666  1.00  0.00     0.074 A 
ATOM     53  C   UNL A   1      40.762  31.093  30.091  1.00  0.00     0.029 A 
ATOM     54  N   UNL A   1      42.420  29.659  29.715  1.00  0.00    -0.354 N 
ATOM     55  N   UNL A   1      45.217  28.770  29.724  1.00  0.00    -0.248 NA
ATOM     56  C   UNL A   1      47.489  29.213  30.039  1.00  0.00     0.031 C 
ATOM     57  C   UNL A   1      41.970  31.721  30.407  1.00  0.00     0.029 A 
ATOM     58  C   UNL A   1      43.002  30.823  30.187  1.00  0.00     0.049 A 
ATOM     59  H   UNL A   1      42.910  28.841  29.469  1.00  0.00     0.167 HD
ATOM     60  C   UNL A   1      45.369  30.078  30.164  1.00  0.00     0.074 A 
ATOM     61  C   UNL A   1      46.787  30.293  30.361  1.00  0.00     0.031 C 
ATOM     62  C   UNL A   1      44.416  31.015  30.387  1.00  0.00     0.037 A 
BRANCH  49  63
ATOM     63  C   UNL A   1      38.682  29.166  29.030  1.00  0.00     0.057 A 
ATOM     64  C   UNL A   1      37.791  29.090  30.107  1.00  0.00     0.134 A 
ATOM     65  C   UNL A   1      38.174  29.605  27.800  1.00  0.00     0.134 A 
ATOM     66  F   UNL A   1      38.211  28.664  31.308  1.00  0.00    -0.206 F 
ATOM     67  C   UNL A   1      36.440  29.407  29.961  1.00  0.00     0.040 A 
ATOM     68  C   UNL A   1      36.831  29.950  27.646  1.00  0.00     0.040 A 
ATOM     69  F   UNL A   1      38.976  29.705  26.728  1.00  0.00    -0.206 F 
ATOM     70  C   UNL A   1      35.958  29.843  28.727  1.00  0.00     0.006 A 
ENDBRANCH  49  63
BRANCH  50  71
ATOM     71  C   UNL A   1      48.290  26.514  29.221  1.00  0.00     0.057 A 
ATOM     72  C   UNL A   1      49.065  26.778  28.085  1.00  0.00     0.134 A 
ATOM     73  C   UNL A   1      48.928  25.915  30.313  1.00  0.00     0.134 A 
ATOM     74  F   UNL A   1      48.504  27.335  27.002  1.00  0.00    -0.206 F 
ATOM     75  C   UNL A   1      50.420  26.453  28.034  1.00  0.00     0.040 A 
ATOM     76  C   UNL A   1      50.288  25.603  30.284  1.00  0.00     0.040 A 
ATOM     77  F   UNL A   1      48.240  25.645  31.433  1.00  0.00    -0.206 F 
ATOM     78  C   UNL A   1      51.037  25.870  29.139  1.00  0.00     0.006 A 
ENDBRANCH  50  71
BRANCH  62  79
ATOM     79  C   UNL A   1      44.865  32.349  30.900  1.00  0.00     0.057 A 
ATOM     80  C   UNL A   1      45.034  32.593  32.267  1.00  0.00     0.134 A 
ATOM     81  C   UNL A   1      45.205  33.376  30.008  1.00  0.00     0.134 A 
ATOM     82  F   UNL A   1      44.714  31.654  33.170  1.00  0.00    -0.206 F 
ATOM     83  C   UNL A   1      45.521  33.816  32.732  1.00  0.00     0.040 A 
ATOM     84  C   UNL A   1      45.711  34.594  30.460  1.00  0.00     0.040 A 
ATOM     85  F   UNL A   1      45.072  33.200  28.685  1.00  0.00    -0.206 F 
ATOM     86  C   UNL A   1      45.869  34.817  31.827  1.00  0.00     0.006 A 
ENDBRANCH  62  79
ENDBRANCH  36  37
ENDBRANCH  28  31
ENDBRANCH  26  27
ENDBRANCH  25  26
ENDBRANCH  24  25
ENDBRANCH   1  24
TORSDOF 15
ENDMDL
MODEL 3
REMARK VINA RESULT:     -11.3      2.943      7.209
REMARK SMILES Cc1cc(C(=O)N[C@@H](C)C(=O)NCCCCNC(=O)c2ccc(-c3c4nc(c(-c5c(F)cccc5F)c5ccc([nH]5)c(-c5c(F)cccc5F)c5nc(c(-c6c(F)cccc6F)c6ccc3[nH]6)C=C5)C=C4)cc2)cc(C)c1OC(F)F
REMARK SMILES IDX 13 1 12 2 10 3 11 4 8 6 9 7 7 8 5 9 6 10 4 12 1 13 2 14 3 15
REMARK SMILES IDX 77 16 75 17 74 18 76 19 78 20 79 21 80 22 81 23 14 24 15 25
REMARK SMILES IDX 16 26 17 27 18 28 19 30 20 31 21 32 73 33 22 34 72 35 23 36
REMARK SMILES IDX 24 37 25 38 66 39 26 40 71 41 65 42 67 43 27 44 70 45 64 46
REMARK SMILES IDX 63 47 28 49 54 50 37 51 53 52 38 53 41 54 52 55 68 56 39 57
REMARK SMILES IDX 40 58 51 60 69 61 42 62 29 63 30 64 35 65 31 66 32 67 34 68
REMARK SMILES IDX 36 69 33 70 55 71 56 72 61 73 57 74 58 75 60 76 62 77 59 78
REMARK SMILES IDX 43 79 44 80 49 81 45 82 46 83 48 84 50 85 47 86
REMARK H PARENT 12 5 7 11 17 29 67 48 41 59
REMARK Flexibility Score: inf
ROOT
ATOM      1  C   UNL A   1      31.501  27.426  25.745  1.00  0.00     0.116 C 
ENDROOT
BRANCH   1   2
ATOM      2  N   UNL A   1      30.860  27.735  24.481  1.00  0.00    -0.354 N 
ATOM      3  C   UNL A   1      31.378  27.808  23.217  1.00  0.00     0.242 C 
ATOM      4  O   UNL A   1      30.586  27.960  22.282  1.00  0.00    -0.273 OA
ATOM      5  H   UNL A   1      29.896  27.924  24.542  1.00  0.00     0.163 HD
BRANCH   3   6
ATOM      6  C   UNL A   1      32.894  27.701  22.952  1.00  0.00     0.168 C 
ATOM      7  C   UNL A   1      33.607  29.047  22.983  1.00  0.00     0.041 C 
BRANCH   6   8
ATOM      8  N   UNL A   1      33.091  26.948  21.714  1.00  0.00    -0.341 N 
ATOM      9  C   UNL A   1      33.003  25.611  21.416  1.00  0.00     0.251 C 
ATOM     10  O   UNL A   1      33.015  25.302  20.224  1.00  0.00    -0.269 OA
ATOM     11  H   UNL A   1      33.334  27.510  20.943  1.00  0.00     0.164 HD
BRANCH   9  12
ATOM     12  C   UNL A   1      33.023  24.533  22.443  1.00  0.00     0.040 A 
ATOM     13  C   UNL A   1      35.854  22.444  23.825  1.00  0.00     0.048 C 
ATOM     14  C   UNL A   1      34.451  22.975  23.729  1.00  0.00    -0.008 A 
ATOM     15  C   UNL A   1      34.253  23.908  22.681  1.00  0.00     0.021 A 
ATOM     16  C   UNL A   1      33.381  22.734  24.607  1.00  0.00     0.131 A 
ATOM     17  C   UNL A   1      32.109  23.286  24.309  1.00  0.00    -0.008 A 
ATOM     18  C   UNL A   1      31.934  24.126  23.194  1.00  0.00     0.021 A 
ATOM     19  C   UNL A   1      30.915  23.094  25.212  1.00  0.00     0.048 C 
BRANCH  16  20
ATOM     20  O   UNL A   1      33.411  22.112  25.821  1.00  0.00    -0.434 OA
BRANCH  20  21
ATOM     21  C   UNL A   1      33.972  22.709  26.970  1.00  0.00     0.542 C 
ATOM     22  F   UNL A   1      34.093  24.047  26.816  1.00  0.00    -0.167 F 
ATOM     23  F   UNL A   1      33.190  22.448  28.043  1.00  0.00    -0.167 F 
ENDBRANCH  20  21
ENDBRANCH  16  20
ENDBRANCH   9  12
ENDBRANCH   6   8
ENDBRANCH   3   6
ENDBRANCH   1   2
BRANCH   1  24
ATOM     24  C   UNL A   1      31.578  28.621  26.690  1.00  0.00     0.023 C 
BRANCH  24  25
ATOM     25  C   UNL A   1      31.850  29.968  26.025  1.00  0.00     0.023 C 
BRANCH  25  26
ATOM     26  C   UNL A   1      32.815  30.887  26.765  1.00  0.00     0.116 C 
BRANCH  26  27
ATOM     27  N   UNL A   1      32.297  32.230  26.978  1.00  0.00    -0.352 N 
ATOM     28  C   UNL A   1      32.842  33.259  27.711  1.00  0.00     0.251 C 
ATOM     29  H   UNL A   1      31.438  32.429  26.539  1.00  0.00     0.163 HD
ATOM     30  O   UNL A   1      32.237  34.312  27.857  1.00  0.00    -0.269 OA
BRANCH  28  31
ATOM     31  C   UNL A   1      34.156  33.062  28.356  1.00  0.00     0.039 A 
ATOM     32  C   UNL A   1      34.211  32.411  29.591  1.00  0.00     0.014 A 
ATOM     33  C   UNL A   1      35.328  33.464  27.712  1.00  0.00     0.014 A 
ATOM     34  C   UNL A   1      35.451  32.083  30.143  1.00  0.00     0.010 A 
ATOM     35  C   UNL A   1      36.559  33.079  28.230  1.00  0.00     0.010 A 
ATOM     36  C   UNL A   1      36.631  32.375  29.443  1.00  0.00    -0.014 A 
BRANCH  36  37
ATOM     37  C   UNL A   1      37.963  31.950  29.942  1.00  0.00     0.031 A 
ATOM     38  C   UNL A   1      38.583  30.686  29.421  1.00  0.00     0.074 A 
ATOM     39  C   UNL A   1      38.551  32.630  30.944  1.00  0.00     0.049 A 
ATOM     40  N   UNL A   1      39.644  30.049  29.845  1.00  0.00    -0.248 NA
ATOM     41  C   UNL A   1      37.892  30.031  28.299  1.00  0.00     0.031 C 
ATOM     42  C   UNL A   1      38.023  33.843  31.571  1.00  0.00     0.029 A 
ATOM     43  N   UNL A   1      39.708  32.376  31.636  1.00  0.00    -0.354 N 
ATOM     44  C   UNL A   1      39.726  28.901  29.069  1.00  0.00     0.074 A 
ATOM     45  C   UNL A   1      38.591  28.912  28.172  1.00  0.00     0.031 C 
ATOM     46  C   UNL A   1      38.852  34.226  32.555  1.00  0.00     0.029 A 
ATOM     47  C   UNL A   1      39.947  33.265  32.655  1.00  0.00     0.049 A 
ATOM     48  H   UNL A   1      40.311  31.626  31.423  1.00  0.00     0.167 HD
ATOM     49  C   UNL A   1      40.670  27.932  29.096  1.00  0.00     0.037 A 
ATOM     50  C   UNL A   1      40.925  33.293  33.580  1.00  0.00     0.037 A 
ATOM     51  C   UNL A   1      41.822  27.948  29.957  1.00  0.00     0.049 A 
ATOM     52  C   UNL A   1      41.982  32.226  33.569  1.00  0.00     0.074 A 
ATOM     53  C   UNL A   1      42.886  27.064  29.991  1.00  0.00     0.029 A 
ATOM     54  N   UNL A   1      42.060  28.902  30.935  1.00  0.00    -0.354 N 
ATOM     55  N   UNL A   1      42.089  31.182  32.783  1.00  0.00    -0.248 NA
ATOM     56  C   UNL A   1      43.053  32.338  34.569  1.00  0.00     0.031 C 
ATOM     57  C   UNL A   1      43.751  27.462  31.015  1.00  0.00     0.029 A 
ATOM     58  C   UNL A   1      43.244  28.615  31.594  1.00  0.00     0.049 A 
ATOM     59  H   UNL A   1      41.474  29.668  31.132  1.00  0.00     0.167 HD
ATOM     60  C   UNL A   1      43.249  30.527  33.175  1.00  0.00     0.074 A 
ATOM     61  C   UNL A   1      43.814  31.293  34.267  1.00  0.00     0.031 C 
ATOM     62  C   UNL A   1      43.796  29.395  32.672  1.00  0.00     0.037 A 
BRANCH  49  63
ATOM     63  C   UNL A   1      40.488  26.768  28.167  1.00  0.00     0.057 A 
ATOM     64  C   UNL A   1      41.157  26.687  26.940  1.00  0.00     0.134 A 
ATOM     65  C   UNL A   1      39.641  25.707  28.514  1.00  0.00     0.134 A 
ATOM     66  F   UNL A   1      41.972  27.676  26.543  1.00  0.00    -0.206 F 
ATOM     67  C   UNL A   1      40.965  25.609  26.074  1.00  0.00     0.040 A 
ATOM     68  C   UNL A   1      39.460  24.612  27.669  1.00  0.00     0.040 A 
ATOM     69  F   UNL A   1      38.973  25.721  29.678  1.00  0.00    -0.206 F 
ATOM     70  C   UNL A   1      40.117  24.564  26.442  1.00  0.00     0.006 A 
ENDBRANCH  49  63
BRANCH  50  71
ATOM     71  C   UNL A   1      40.951  34.382  34.586  1.00  0.00     0.057 A 
ATOM     72  C   UNL A   1      40.277  34.251  35.806  1.00  0.00     0.134 A 
ATOM     73  C   UNL A   1      41.669  35.563  34.368  1.00  0.00     0.134 A 
ATOM     74  F   UNL A   1      39.559  33.149  36.064  1.00  0.00    -0.206 F 
ATOM     75  C   UNL A   1      40.310  35.259  36.770  1.00  0.00     0.040 A 
ATOM     76  C   UNL A   1      41.727  36.571  35.331  1.00  0.00     0.040 A 
ATOM     77  F   UNL A   1      42.343  35.743  33.222  1.00  0.00    -0.206 F 
ATOM     78  C   UNL A   1      41.043  36.421  36.535  1.00  0.00     0.006 A 
ENDBRANCH  50  71
BRANCH  62  79
ATOM     79  C   UNL A   1      45.088  28.927  33.270  1.00  0.00     0.057 A 
ATOM     80  C   UNL A   1      46.321  29.443  32.857  1.00  0.00     0.134 A 
ATOM     81  C   UNL A   1      45.089  28.004  34.325  1.00  0.00     0.134 A 
ATOM     82  F   UNL A   1      46.385  30.320  31.843  1.00  0.00    -0.206 F 
ATOM     83  C   UNL A   1      47.514  29.054  33.468  1.00  0.00     0.040 A 
ATOM     84  C   UNL A   1      46.273  27.623  34.957  1.00  0.00     0.040 A 
ATOM     85  F   UNL A   1      43.939  27.479  34.772  1.00  0.00    -0.206 F 
ATOM     86  C   UNL A   1      47.490  28.148  34.528  1.00  0.00     0.006 A 
ENDBRANCH  62  79
ENDBRANCH  36  37
ENDBRANCH  28  31
ENDBRANCH  26  27
ENDBRANCH  25  26
ENDBRANCH  24  25
ENDBRANCH   1  24
TORSDOF 15
ENDMDL
