MODEL 1
REMARK VINA RESULT:     -12.5      0.000      0.000
REMARK SMILES CCCc1nc(C)cc(N2CCC(C(=O)NCCCCNC(=O)c3ccc(-c4c5nc(c(-c6c(F)cccc6F)c6ccc([nH]6)c(-c6c(F)cccc6F)c6nc(c(-c7c(F)cccc7F)c7ccc4[nH]7)C=C6)C=C5)cc3)(n3ccc(C(C)C)n3)CC2)n1
REMARK SMILES IDX 18 1 17 2 16 3 14 4 15 5 13 7 10 8 11 9 87 10 12 11 86 12
REMARK SMILES IDX 9 13 4 14 5 15 88 16 6 17 7 18 8 19 3 20 2 21 1 22 78 23
REMARK SMILES IDX 79 24 85 25 80 26 81 27 82 28 83 29 84 30 19 31 20 32 21 33
REMARK SMILES IDX 22 34 23 36 24 37 25 38 77 39 26 40 76 41 27 42 28 43 29 44
REMARK SMILES IDX 70 45 30 46 75 47 69 48 71 49 31 50 74 51 68 52 67 53 32 55
REMARK SMILES IDX 58 56 41 57 57 58 42 59 45 60 56 61 72 62 43 63 44 64 55 66
REMARK SMILES IDX 73 67 46 68 33 69 34 70 39 71 35 72 36 73 38 74 40 75 37 76
REMARK SMILES IDX 59 77 60 78 65 79 61 80 62 81 64 82 66 83 63 84 47 85 48 86
REMARK SMILES IDX 53 87 49 88 50 89 52 90 54 91 51 92
REMARK H PARENT 16 6 21 35 71 54 45 65
REMARK Flexibility Score: inf
ROOT
ATOM      1  C   UNL A   1      31.614  30.465  25.711  1.00  0.00     0.023 C 
ENDROOT
BRANCH   1   2
ATOM      2  C   UNL A   1      32.826  29.560  25.932  1.00  0.00     0.116 C 
BRANCH   2   3
ATOM      3  N   UNL A   1      33.627  29.407  24.725  1.00  0.00    -0.354 N 
ATOM      4  C   UNL A   1      33.760  28.381  23.813  1.00  0.00     0.248 C 
ATOM      5  O   UNL A   1      34.565  28.639  22.917  1.00  0.00    -0.272 OA
ATOM      6  H   UNL A   1      34.184  30.192  24.518  1.00  0.00     0.163 HD
BRANCH   4   7
ATOM      7  C   UNL A   1      32.930  27.056  23.950  1.00  0.00     0.144 C 
ATOM      8  N   UNL A   1      33.882  24.442  24.509  1.00  0.00    -0.356 N 
ATOM      9  C   UNL A   1      33.452  24.641  23.137  1.00  0.00     0.121 C 
ATOM     10  C   UNL A   1      33.113  25.048  25.573  1.00  0.00     0.121 C 
ATOM     11  C   UNL A   1      33.406  26.123  22.802  1.00  0.00     0.062 C 
ATOM     12  C   UNL A   1      33.150  26.558  25.407  1.00  0.00     0.062 C 
BRANCH   8  13
ATOM     13  C   UNL A   1      34.608  23.288  24.737  1.00  0.00     0.132 A 
ATOM     14  C   UNL A   1      34.619  20.995  24.877  1.00  0.00     0.130 A 
ATOM     15  N   UNL A   1      35.920  20.945  25.207  1.00  0.00    -0.238 NA
ATOM     16  N   UNL A   1      33.932  22.130  24.668  1.00  0.00    -0.216 NA
ATOM     17  C   UNL A   1      36.581  22.113  25.267  1.00  0.00     0.043 A 
ATOM     18  C   UNL A   1      38.045  22.039  25.574  1.00  0.00     0.067 C 
ATOM     19  C   UNL A   1      35.960  23.319  25.020  1.00  0.00     0.070 A 
BRANCH  14  20
ATOM     20  C   UNL A   1      33.886  19.692  24.712  1.00  0.00     0.077 C 
BRANCH  20  21
ATOM     21  C   UNL A   1      32.566  19.822  23.943  1.00  0.00     0.005 C 
ATOM     22  C   UNL A   1      32.320  18.695  22.945  1.00  0.00     0.004 C 
ENDBRANCH  20  21
ENDBRANCH  14  20
ENDBRANCH   8  13
BRANCH   7  23
ATOM     23  N   UNL A   1      31.448  27.215  23.780  1.00  0.00    -0.257 N 
ATOM     24  C   UNL A   1      30.487  26.301  24.159  1.00  0.00     0.110 A 
ATOM     25  N   UNL A   1      30.886  28.315  23.253  1.00  0.00    -0.177 NA
ATOM     26  C   UNL A   1      29.269  26.838  23.839  1.00  0.00     0.045 A 
ATOM     27  C   UNL A   1      29.569  28.087  23.262  1.00  0.00     0.065 A 
BRANCH  27  28
ATOM     28  C   UNL A   1      28.615  29.103  22.705  1.00  0.00     0.034 C 
ATOM     29  C   UNL A   1      27.176  28.799  23.126  1.00  0.00     0.014 C 
ATOM     30  C   UNL A   1      29.009  30.520  23.124  1.00  0.00     0.014 C 
ENDBRANCH  27  28
ENDBRANCH   7  23
ENDBRANCH   4   7
ENDBRANCH   2   3
ENDBRANCH   1   2
BRANCH   1  31
ATOM     31  C   UNL A   1      31.445  31.577  26.747  1.00  0.00     0.023 C 
BRANCH  31  32
ATOM     32  C   UNL A   1      32.706  32.374  27.055  1.00  0.00     0.116 C 
BRANCH  32  33
ATOM     33  N   UNL A   1      32.427  33.710  27.560  1.00  0.00    -0.352 N 
ATOM     34  C   UNL A   1      33.112  34.441  28.500  1.00  0.00     0.251 C 
ATOM     35  H   UNL A   1      31.637  34.153  27.173  1.00  0.00     0.163 HD
ATOM     36  O   UNL A   1      32.660  35.507  28.907  1.00  0.00    -0.269 OA
BRANCH  34  37
ATOM     37  C   UNL A   1      34.383  33.920  29.047  1.00  0.00     0.039 A 
ATOM     38  C   UNL A   1      34.342  33.026  30.118  1.00  0.00     0.014 A 
ATOM     39  C   UNL A   1      35.607  34.296  28.488  1.00  0.00     0.014 A 
ATOM     40  C   UNL A   1      35.526  32.450  30.582  1.00  0.00     0.010 A 
ATOM     41  C   UNL A   1      36.776  33.662  28.899  1.00  0.00     0.010 A 
ATOM     42  C   UNL A   1      36.748  32.734  29.950  1.00  0.00    -0.014 A 
BRANCH  42  43
ATOM     43  C   UNL A   1      38.011  32.077  30.376  1.00  0.00     0.031 A 
ATOM     44  C   UNL A   1      38.883  32.727  31.415  1.00  0.00     0.074 A 
ATOM     45  C   UNL A   1      38.405  30.934  29.782  1.00  0.00     0.049 A 
ATOM     46  N   UNL A   1      40.059  32.360  31.856  1.00  0.00    -0.248 NA
ATOM     47  C   UNL A   1      38.375  33.968  32.021  1.00  0.00     0.031 C 
ATOM     48  C   UNL A   1      37.670  30.224  28.733  1.00  0.00     0.029 A 
ATOM     49  N   UNL A   1      39.531  30.172  29.969  1.00  0.00    -0.354 N 
ATOM     50  C   UNL A   1      40.435  33.327  32.779  1.00  0.00     0.074 A 
ATOM     51  C   UNL A   1      39.391  34.328  32.791  1.00  0.00     0.031 C 
ATOM     52  C   UNL A   1      38.352  29.120  28.388  1.00  0.00     0.029 A 
ATOM     53  C   UNL A   1      39.590  29.064  29.159  1.00  0.00     0.049 A 
ATOM     54  H   UNL A   1      40.231  30.398  30.623  1.00  0.00     0.167 HD
ATOM     55  C   UNL A   1      41.538  33.366  33.564  1.00  0.00     0.037 A 
ATOM     56  C   UNL A   1      40.538  28.116  29.044  1.00  0.00     0.037 A 
ATOM     57  C   UNL A   1      42.566  32.360  33.564  1.00  0.00     0.049 A 
ATOM     58  C   UNL A   1      41.767  28.196  29.909  1.00  0.00     0.074 A 
ATOM     59  C   UNL A   1      43.702  32.289  34.351  1.00  0.00     0.029 A 
ATOM     60  N   UNL A   1      42.582  31.247  32.737  1.00  0.00    -0.354 N 
ATOM     61  N   UNL A   1      42.083  29.089  30.816  1.00  0.00    -0.248 NA
ATOM     62  C   UNL A   1      42.769  27.134  29.738  1.00  0.00     0.031 C 
ATOM     63  C   UNL A   1      44.426  31.154  33.972  1.00  0.00     0.029 A 
ATOM     64  C   UNL A   1      43.716  30.491  32.984  1.00  0.00     0.049 A 
ATOM     65  H   UNL A   1      41.889  31.026  32.072  1.00  0.00     0.167 HD
ATOM     66  C   UNL A   1      43.298  28.677  31.349  1.00  0.00     0.074 A 
ATOM     67  C   UNL A   1      43.658  27.449  30.669  1.00  0.00     0.031 C 
ATOM     68  C   UNL A   1      44.049  29.262  32.312  1.00  0.00     0.037 A 
BRANCH  55  69
ATOM     69  C   UNL A   1      41.680  34.533  34.496  1.00  0.00     0.057 A 
ATOM     70  C   UNL A   1      42.282  35.732  34.089  1.00  0.00     0.134 A 
ATOM     71  C   UNL A   1      41.183  34.474  35.804  1.00  0.00     0.134 A 
ATOM     72  F   UNL A   1      42.791  35.852  32.853  1.00  0.00    -0.206 F 
ATOM     73  C   UNL A   1      42.407  36.819  34.956  1.00  0.00     0.040 A 
ATOM     74  C   UNL A   1      41.277  35.564  36.672  1.00  0.00     0.040 A 
ATOM     75  F   UNL A   1      40.590  33.359  36.258  1.00  0.00    -0.206 F 
ATOM     76  C   UNL A   1      41.897  36.739  36.250  1.00  0.00     0.006 A 
ENDBRANCH  55  69
BRANCH  56  77
ATOM     77  C   UNL A   1      40.364  26.992  28.088  1.00  0.00     0.057 A 
ATOM     78  C   UNL A   1      39.630  25.853  28.444  1.00  0.00     0.134 A 
ATOM     79  C   UNL A   1      40.943  27.014  26.815  1.00  0.00     0.134 A 
ATOM     80  F   UNL A   1      39.067  25.765  29.658  1.00  0.00    -0.206 F 
ATOM     81  C   UNL A   1      39.500  24.766  27.578  1.00  0.00     0.040 A 
ATOM     82  C   UNL A   1      40.799  25.945  25.928  1.00  0.00     0.040 A 
ATOM     83  F   UNL A   1      41.653  28.078  26.411  1.00  0.00    -0.206 F 
ATOM     84  C   UNL A   1      40.084  24.812  26.313  1.00  0.00     0.006 A 
ENDBRANCH  56  77
BRANCH  68  85
ATOM     85  C   UNL A   1      45.307  28.556  32.729  1.00  0.00     0.057 A 
ATOM     86  C   UNL A   1      46.546  28.839  32.141  1.00  0.00     0.134 A 
ATOM     87  C   UNL A   1      45.281  27.610  33.761  1.00  0.00     0.134 A 
ATOM     88  F   UNL A   1      46.637  29.726  31.138  1.00  0.00    -0.206 F 
ATOM     89  C   UNL A   1      47.712  28.189  32.551  1.00  0.00     0.040 A 
ATOM     90  C   UNL A   1      46.444  26.975  34.198  1.00  0.00     0.040 A 
ATOM     91  F   UNL A   1      44.128  27.300  34.373  1.00  0.00    -0.206 F 
ATOM     92  C   UNL A   1      47.664  27.259  33.588  1.00  0.00     0.006 A 
ENDBRANCH  68  85
ENDBRANCH  42  43
ENDBRANCH  34  37
ENDBRANCH  32  33
ENDBRANCH  31  32
ENDBRANCH   1  31
TORSDOF 16
ENDMDL
MODEL 2
REMARK VINA RESULT:     -12.5      1.438      5.978
REMARK SMILES CCCc1nc(C)cc(N2CCC(C(=O)NCCCCNC(=O)c3ccc(-c4c5nc(c(-c6c(F)cccc6F)c6ccc([nH]6)c(-c6c(F)cccc6F)c6nc(c(-c7c(F)cccc7F)c7ccc4[nH]7)C=C6)C=C5)cc3)(n3ccc(C(C)C)n3)CC2)n1
REMARK SMILES IDX 18 1 17 2 16 3 14 4 15 5 13 7 10 8 11 9 87 10 12 11 86 12
REMARK SMILES IDX 9 13 4 14 5 15 88 16 6 17 7 18 8 19 3 20 2 21 1 22 78 23
REMARK SMILES IDX 79 24 85 25 80 26 81 27 82 28 83 29 84 30 19 31 20 32 21 33
REMARK SMILES IDX 22 34 23 36 24 37 25 38 77 39 26 40 76 41 27 42 28 43 29 44
REMARK SMILES IDX 70 45 30 46 75 47 69 48 71 49 31 50 74 51 68 52 67 53 32 55
REMARK SMILES IDX 58 56 41 57 57 58 42 59 45 60 56 61 72 62 43 63 44 64 55 66
REMARK SMILES IDX 73 67 46 68 33 69 34 70 39 71 35 72 36 73 38 74 40 75 37 76
REMARK SMILES IDX 59 77 60 78 65 79 61 80 62 81 64 82 66 83 63 84 47 85 48 86
REMARK SMILES IDX 53 87 49 88 50 89 52 90 54 91 51 92
REMARK H PARENT 16 6 21 35 71 54 45 65
REMARK Flexibility Score: inf
ROOT
ATOM      1  C   UNL A   1      31.660  30.446  25.746  1.00  0.00     0.023 C 
ENDROOT
BRANCH   1   2
ATOM      2  C   UNL A   1      32.953  29.645  25.894  1.00  0.00     0.116 C 
BRANCH   2   3
ATOM      3  N   UNL A   1      33.647  29.481  24.623  1.00  0.00    -0.354 N 
ATOM      4  C   UNL A   1      33.714  28.441  23.720  1.00  0.00     0.248 C 
ATOM      5  O   UNL A   1      34.434  28.693  22.753  1.00  0.00    -0.272 OA
ATOM      6  H   UNL A   1      34.174  30.269  24.357  1.00  0.00     0.163 HD
BRANCH   4   7
ATOM      7  C   UNL A   1      32.917  27.110  23.950  1.00  0.00     0.144 C 
ATOM      8  N   UNL A   1      33.940  24.546  24.611  1.00  0.00    -0.356 N 
ATOM      9  C   UNL A   1      33.465  24.667  23.245  1.00  0.00     0.121 C 
ATOM     10  C   UNL A   1      33.192  25.192  25.667  1.00  0.00     0.121 C 
ATOM     11  C   UNL A   1      33.377  26.128  22.836  1.00  0.00     0.062 C 
ATOM     12  C   UNL A   1      33.191  26.691  25.423  1.00  0.00     0.062 C 
BRANCH   8  13
ATOM     13  C   UNL A   1      34.697  23.421  24.875  1.00  0.00     0.132 A 
ATOM     14  C   UNL A   1      34.769  21.134  25.092  1.00  0.00     0.130 A 
ATOM     15  N   UNL A   1      36.072  21.130  25.418  1.00  0.00    -0.238 NA
ATOM     16  N   UNL A   1      34.051  22.243  24.848  1.00  0.00    -0.216 NA
ATOM     17  C   UNL A   1      36.703  22.316  25.436  1.00  0.00     0.043 A 
ATOM     18  C   UNL A   1      38.168  22.291  25.739  1.00  0.00     0.067 C 
ATOM     19  C   UNL A   1      36.049  23.496  25.151  1.00  0.00     0.070 A 
BRANCH  14  20
ATOM     20  C   UNL A   1      34.070  19.808  24.974  1.00  0.00     0.077 C 
BRANCH  20  21
ATOM     21  C   UNL A   1      32.715  19.888  24.262  1.00  0.00     0.005 C 
ATOM     22  C   UNL A   1      32.515  18.818  23.193  1.00  0.00     0.004 C 
ENDBRANCH  20  21
ENDBRANCH  14  20
ENDBRANCH   8  13
BRANCH   7  23
ATOM     23  N   UNL A   1      31.427  27.230  23.819  1.00  0.00    -0.257 N 
ATOM     24  C   UNL A   1      30.497  26.322  24.281  1.00  0.00     0.110 A 
ATOM     25  N   UNL A   1      30.826  28.287  23.248  1.00  0.00    -0.177 NA
ATOM     26  C   UNL A   1      29.259  26.817  23.969  1.00  0.00     0.045 A 
ATOM     27  C   UNL A   1      29.516  28.035  23.312  1.00  0.00     0.065 A 
BRANCH  27  28
ATOM     28  C   UNL A   1      28.524  28.998  22.728  1.00  0.00     0.034 C 
ATOM     29  C   UNL A   1      27.093  28.630  23.127  1.00  0.00     0.014 C 
ATOM     30  C   UNL A   1      28.843  30.437  23.140  1.00  0.00     0.014 C 
ENDBRANCH  27  28
ENDBRANCH   7  23
ENDBRANCH   4   7
ENDBRANCH   2   3
ENDBRANCH   1   2
BRANCH   1  31
ATOM     31  C   UNL A   1      31.477  31.568  26.769  1.00  0.00     0.023 C 
BRANCH  31  32
ATOM     32  C   UNL A   1      32.731  32.379  27.071  1.00  0.00     0.116 C 
BRANCH  32  33
ATOM     33  N   UNL A   1      32.445  33.767  27.405  1.00  0.00    -0.352 N 
ATOM     34  C   UNL A   1      33.030  34.566  28.356  1.00  0.00     0.251 C 
ATOM     35  H   UNL A   1      31.734  34.192  26.872  1.00  0.00     0.163 HD
ATOM     36  O   UNL A   1      32.574  35.681  28.595  1.00  0.00    -0.269 OA
BRANCH  34  37
ATOM     37  C   UNL A   1      34.192  34.064  29.120  1.00  0.00     0.039 A 
ATOM     38  C   UNL A   1      33.971  33.242  30.225  1.00  0.00     0.014 A 
ATOM     39  C   UNL A   1      35.494  34.385  28.729  1.00  0.00     0.014 A 
ATOM     40  C   UNL A   1      35.058  32.681  30.898  1.00  0.00     0.010 A 
ATOM     41  C   UNL A   1      36.573  33.764  29.350  1.00  0.00     0.010 A 
ATOM     42  C   UNL A   1      36.367  32.906  30.441  1.00  0.00    -0.014 A 
BRANCH  42  43
ATOM     43  C   UNL A   1      37.536  32.260  31.091  1.00  0.00     0.031 A 
ATOM     44  C   UNL A   1      38.270  31.152  30.388  1.00  0.00     0.074 A 
ATOM     45  C   UNL A   1      37.895  32.624  32.338  1.00  0.00     0.049 A 
ATOM     46  N   UNL A   1      39.254  30.406  30.820  1.00  0.00    -0.248 NA
ATOM     47  C   UNL A   1      37.821  30.822  29.026  1.00  0.00     0.031 C 
ATOM     48  C   UNL A   1      37.241  33.657  33.143  1.00  0.00     0.029 A 
ATOM     49  N   UNL A   1      38.896  32.155  33.152  1.00  0.00    -0.354 N 
ATOM     50  C   UNL A   1      39.532  29.515  29.791  1.00  0.00     0.074 A 
ATOM     51  C   UNL A   1      38.575  29.773  28.738  1.00  0.00     0.031 C 
ATOM     52  C   UNL A   1      37.872  33.759  34.324  1.00  0.00     0.029 A 
ATOM     53  C   UNL A   1      38.947  32.774  34.378  1.00  0.00     0.049 A 
ATOM     54  H   UNL A   1      39.519  31.442  32.882  1.00  0.00     0.167 HD
ATOM     55  C   UNL A   1      40.512  28.583  29.720  1.00  0.00     0.037 A 
ATOM     56  C   UNL A   1      39.762  32.563  35.428  1.00  0.00     0.037 A 
ATOM     57  C   UNL A   1      41.475  28.340  30.761  1.00  0.00     0.049 A 
ATOM     58  C   UNL A   1      40.826  31.504  35.332  1.00  0.00     0.074 A 
ATOM     59  C   UNL A   1      42.531  27.446  30.766  1.00  0.00     0.029 A 
ATOM     60  N   UNL A   1      41.500  28.997  31.982  1.00  0.00    -0.354 N 
ATOM     61  N   UNL A   1      41.112  30.706  34.332  1.00  0.00    -0.248 NA
ATOM     62  C   UNL A   1      41.685  31.319  36.511  1.00  0.00     0.031 C 
ATOM     63  C   UNL A   1      43.171  27.533  32.007  1.00  0.00     0.029 A 
ATOM     64  C   UNL A   1      42.545  28.516  32.755  1.00  0.00     0.049 A 
ATOM     65  H   UNL A   1      40.869  29.701  32.258  1.00  0.00     0.167 HD
ATOM     66  C   UNL A   1      42.203  29.953  34.745  1.00  0.00     0.074 A 
ATOM     67  C   UNL A   1      42.534  30.395  36.084  1.00  0.00     0.031 C 
ATOM     68  C   UNL A   1      42.872  28.982  34.078  1.00  0.00     0.037 A 
BRANCH  55  69
ATOM     69  C   UNL A   1      40.595  27.764  28.465  1.00  0.00     0.057 A 
ATOM     70  C   UNL A   1      41.349  28.184  27.360  1.00  0.00     0.134 A 
ATOM     71  C   UNL A   1      39.944  26.528  28.368  1.00  0.00     0.134 A 
ATOM     72  F   UNL A   1      41.987  29.364  27.381  1.00  0.00    -0.206 F 
ATOM     73  C   UNL A   1      41.430  27.418  26.196  1.00  0.00     0.040 A 
ATOM     74  C   UNL A   1      40.040  25.739  27.220  1.00  0.00     0.040 A 
ATOM     75  F   UNL A   1      39.210  26.063  29.391  1.00  0.00    -0.206 F 
ATOM     76  C   UNL A   1      40.780  26.187  26.127  1.00  0.00     0.006 A 
ENDBRANCH  55  69
BRANCH  56  77
ATOM     77  C   UNL A   1      39.626  33.384  36.659  1.00  0.00     0.057 A 
ATOM     78  C   UNL A   1      38.783  32.981  37.702  1.00  0.00     0.134 A 
ATOM     79  C   UNL A   1      40.307  34.596  36.812  1.00  0.00     0.134 A 
ATOM     80  F   UNL A   1      38.088  31.838  37.606  1.00  0.00    -0.206 F 
ATOM     81  C   UNL A   1      38.603  33.766  38.843  1.00  0.00     0.040 A 
ATOM     82  C   UNL A   1      40.158  35.379  37.959  1.00  0.00     0.040 A 
ATOM     83  F   UNL A   1      41.134  35.036  35.852  1.00  0.00    -0.206 F 
ATOM     84  C   UNL A   1      39.295  34.969  38.974  1.00  0.00     0.006 A 
ENDBRANCH  56  77
BRANCH  68  85
ATOM     85  C   UNL A   1      44.060  28.369  34.761  1.00  0.00     0.057 A 
ATOM     86  C   UNL A   1      43.953  27.205  35.532  1.00  0.00     0.134 A 
ATOM     87  C   UNL A   1      45.334  28.930  34.608  1.00  0.00     0.134 A 
ATOM     88  F   UNL A   1      42.759  26.624  35.728  1.00  0.00    -0.206 F 
ATOM     89  C   UNL A   1      45.069  26.634  36.146  1.00  0.00     0.040 A 
ATOM     90  C   UNL A   1      46.460  28.353  35.194  1.00  0.00     0.040 A 
ATOM     91  F   UNL A   1      45.506  30.039  33.874  1.00  0.00    -0.206 F 
ATOM     92  C   UNL A   1      46.329  27.204  35.971  1.00  0.00     0.006 A 
ENDBRANCH  68  85
ENDBRANCH  42  43
ENDBRANCH  34  37
ENDBRANCH  32  33
ENDBRANCH  31  32
ENDBRANCH   1  31
TORSDOF 16
ENDMDL
MODEL 3
REMARK VINA RESULT:     -12.2      3.901      9.617
REMARK SMILES CCCc1nc(C)cc(N2CCC(C(=O)NCCCCNC(=O)c3ccc(-c4c5nc(c(-c6c(F)cccc6F)c6ccc([nH]6)c(-c6c(F)cccc6F)c6nc(c(-c7c(F)cccc7F)c7ccc4[nH]7)C=C6)C=C5)cc3)(n3ccc(C(C)C)n3)CC2)n1
REMARK SMILES IDX 18 1 17 2 16 3 14 4 15 5 13 7 10 8 11 9 87 10 12 11 86 12
REMARK SMILES IDX 9 13 4 14 5 15 88 16 6 17 7 18 8 19 3 20 2 21 1 22 78 23
REMARK SMILES IDX 79 24 85 25 80 26 81 27 82 28 83 29 84 30 19 31 20 32 21 33
REMARK SMILES IDX 22 34 23 36 24 37 25 38 77 39 26 40 76 41 27 42 28 43 29 44
REMARK SMILES IDX 70 45 30 46 75 47 69 48 71 49 31 50 74 51 68 52 67 53 32 55
REMARK SMILES IDX 58 56 41 57 57 58 42 59 45 60 56 61 72 62 43 63 44 64 55 66
REMARK SMILES IDX 73 67 46 68 33 69 34 70 39 71 35 72 36 73 38 74 40 75 37 76
REMARK SMILES IDX 59 77 60 78 65 79 61 80 62 81 64 82 66 83 63 84 47 85 48 86
REMARK SMILES IDX 53 87 49 88 50 89 52 90 54 91 51 92
REMARK H PARENT 16 6 21 35 71 54 45 65
REMARK Flexibility Score: inf
ROOT
ATOM      1  C   UNL A   1      37.380  21.090  24.833  1.00  0.00     0.023 C 
ENDROOT
BRANCH   1   2
ATOM      2  C   UNL A   1      35.916  20.784  25.149  1.00  0.00     0.116 C 
BRANCH   2   3
ATOM      3  N   UNL A   1      35.463  21.451  26.363  1.00  0.00    -0.354 N 
ATOM      4  C   UNL A   1      34.404  22.293  26.630  1.00  0.00     0.248 C 
ATOM      5  O   UNL A   1      34.371  22.662  27.805  1.00  0.00    -0.272 OA
ATOM      6  H   UNL A   1      36.026  21.265  27.149  1.00  0.00     0.163 HD
BRANCH   4   7
ATOM      7  C   UNL A   1      33.373  22.684  25.514  1.00  0.00     0.144 C 
ATOM      8  N   UNL A   1      32.288  25.245  24.952  1.00  0.00    -0.356 N 
ATOM      9  C   UNL A   1      31.355  24.324  25.576  1.00  0.00     0.121 C 
ATOM     10  C   UNL A   1      33.199  24.739  23.950  1.00  0.00     0.121 C 
ATOM     11  C   UNL A   1      32.101  23.186  26.253  1.00  0.00     0.062 C 
ATOM     12  C   UNL A   1      34.103  23.699  24.589  1.00  0.00     0.062 C 
BRANCH   8  13
ATOM     13  C   UNL A   1      31.885  26.567  24.931  1.00  0.00     0.132 A 
ATOM     14  C   UNL A   1      30.763  28.240  23.825  1.00  0.00     0.130 A 
ATOM     15  N   UNL A   1      31.067  29.162  24.752  1.00  0.00    -0.238 NA
ATOM     16  N   UNL A   1      31.173  26.961  23.862  1.00  0.00    -0.216 NA
ATOM     17  C   UNL A   1      31.776  28.749  25.816  1.00  0.00     0.043 A 
ATOM     18  C   UNL A   1      32.055  29.772  26.873  1.00  0.00     0.067 C 
ATOM     19  C   UNL A   1      32.195  27.443  25.954  1.00  0.00     0.070 A 
BRANCH  14  20
ATOM     20  C   UNL A   1      29.889  28.660  22.676  1.00  0.00     0.077 C 
BRANCH  20  21
ATOM     21  C   UNL A   1      29.007  29.875  22.984  1.00  0.00     0.005 C 
ATOM     22  C   UNL A   1      27.525  29.543  23.125  1.00  0.00     0.004 C 
ENDBRANCH  20  21
ENDBRANCH  14  20
ENDBRANCH   8  13
BRANCH   7  23
ATOM     23  N   UNL A   1      32.932  21.554  24.632  1.00  0.00    -0.257 N 
ATOM     24  C   UNL A   1      32.499  21.666  23.327  1.00  0.00     0.110 A 
ATOM     25  N   UNL A   1      32.946  20.270  25.026  1.00  0.00    -0.177 NA
ATOM     26  C   UNL A   1      32.207  20.403  22.887  1.00  0.00     0.045 A 
ATOM     27  C   UNL A   1      32.486  19.568  23.986  1.00  0.00     0.065 A 
BRANCH  27  28
ATOM     28  C   UNL A   1      32.328  18.079  24.081  1.00  0.00     0.034 C 
ATOM     29  C   UNL A   1      33.285  17.359  23.127  1.00  0.00     0.014 C 
ATOM     30  C   UNL A   1      32.532  17.591  25.516  1.00  0.00     0.014 C 
ENDBRANCH  27  28
ENDBRANCH   7  23
ENDBRANCH   4   7
ENDBRANCH   2   3
ENDBRANCH   1   2
BRANCH   1  31
ATOM     31  C   UNL A   1      38.327  19.895  24.953  1.00  0.00     0.023 C 
BRANCH  31  32
ATOM     32  C   UNL A   1      39.296  19.953  26.127  1.00  0.00     0.116 C 
BRANCH  32  33
ATOM     33  N   UNL A   1      40.383  18.991  26.016  1.00  0.00    -0.352 N 
ATOM     34  C   UNL A   1      41.738  19.205  26.078  1.00  0.00     0.251 C 
ATOM     35  H   UNL A   1      40.108  18.055  25.880  1.00  0.00     0.163 HD
ATOM     36  O   UNL A   1      42.522  18.293  25.832  1.00  0.00    -0.269 OA
BRANCH  34  37
ATOM     37  C   UNL A   1      42.252  20.551  26.408  1.00  0.00     0.039 A 
ATOM     38  C   UNL A   1      42.617  21.409  25.369  1.00  0.00     0.014 A 
ATOM     39  C   UNL A   1      42.349  20.972  27.736  1.00  0.00     0.014 A 
ATOM     40  C   UNL A   1      43.011  22.717  25.659  1.00  0.00     0.010 A 
ATOM     41  C   UNL A   1      42.665  22.298  28.018  1.00  0.00     0.010 A 
ATOM     42  C   UNL A   1      43.000  23.183  26.983  1.00  0.00    -0.014 A 
BRANCH  42  43
ATOM     43  C   UNL A   1      43.342  24.592  27.311  1.00  0.00     0.031 A 
ATOM     44  C   UNL A   1      44.776  25.043  27.283  1.00  0.00     0.074 A 
ATOM     45  C   UNL A   1      42.372  25.444  27.696  1.00  0.00     0.049 A 
ATOM     46  N   UNL A   1      45.286  26.200  27.619  1.00  0.00    -0.248 NA
ATOM     47  C   UNL A   1      45.772  24.053  26.842  1.00  0.00     0.031 C 
ATOM     48  C   UNL A   1      40.948  25.119  27.803  1.00  0.00     0.029 A 
ATOM     49  N   UNL A   1      42.441  26.760  28.082  1.00  0.00    -0.354 N 
ATOM     50  C   UNL A   1      46.658  26.073  27.442  1.00  0.00     0.074 A 
ATOM     51  C   UNL A   1      46.907  24.710  27.026  1.00  0.00     0.031 C 
ATOM     52  C   UNL A   1      40.277  26.212  28.202  1.00  0.00     0.029 A 
ATOM     53  C   UNL A   1      41.224  27.301  28.420  1.00  0.00     0.049 A 
ATOM     54  H   UNL A   1      43.283  27.268  28.114  1.00  0.00     0.167 HD
ATOM     55  C   UNL A   1      47.622  27.014  27.587  1.00  0.00     0.037 A 
ATOM     56  C   UNL A   1      40.909  28.532  28.863  1.00  0.00     0.037 A 
ATOM     57  C   UNL A   1      47.371  28.374  27.983  1.00  0.00     0.049 A 
ATOM     58  C   UNL A   1      42.002  29.551  29.041  1.00  0.00     0.074 A 
ATOM     59  C   UNL A   1      48.275  29.413  28.120  1.00  0.00     0.029 A 
ATOM     60  N   UNL A   1      46.122  28.885  28.304  1.00  0.00    -0.354 N 
ATOM     61  N   UNL A   1      43.288  29.432  28.817  1.00  0.00    -0.248 NA
ATOM     62  C   UNL A   1      41.598  30.877  29.530  1.00  0.00     0.031 C 
ATOM     63  C   UNL A   1      47.579  30.543  28.563  1.00  0.00     0.029 A 
ATOM     64  C   UNL A   1      46.235  30.221  28.653  1.00  0.00     0.049 A 
ATOM     65  H   UNL A   1      45.280  28.375  28.286  1.00  0.00     0.167 HD
ATOM     66  C   UNL A   1      43.840  30.675  29.100  1.00  0.00     0.074 A 
ATOM     67  C   UNL A   1      42.748  31.536  29.505  1.00  0.00     0.031 C 
ATOM     68  C   UNL A   1      45.134  31.069  29.034  1.00  0.00     0.037 A 
BRANCH  55  69
ATOM     69  C   UNL A   1      49.037  26.601  27.305  1.00  0.00     0.057 A 
ATOM     70  C   UNL A   1      49.580  26.668  26.015  1.00  0.00     0.134 A 
ATOM     71  C   UNL A   1      49.878  26.163  28.336  1.00  0.00     0.134 A 
ATOM     72  F   UNL A   1      48.825  27.067  24.979  1.00  0.00    -0.206 F 
ATOM     73  C   UNL A   1      50.898  26.291  25.756  1.00  0.00     0.040 A 
ATOM     74  C   UNL A   1      51.206  25.810  28.095  1.00  0.00     0.040 A 
ATOM     75  F   UNL A   1      49.424  26.080  29.596  1.00  0.00    -0.206 F 
ATOM     76  C   UNL A   1      51.718  25.866  26.800  1.00  0.00     0.006 A 
ENDBRANCH  55  69
BRANCH  56  77
ATOM     77  C   UNL A   1      39.496  28.886  29.153  1.00  0.00     0.057 A 
ATOM     78  C   UNL A   1      38.947  28.677  30.424  1.00  0.00     0.134 A 
ATOM     79  C   UNL A   1      38.654  29.413  28.167  1.00  0.00     0.134 A 
ATOM     80  F   UNL A   1      39.698  28.157  31.406  1.00  0.00    -0.206 F 
ATOM     81  C   UNL A   1      37.607  28.956  30.698  1.00  0.00     0.040 A 
ATOM     82  C   UNL A   1      37.319  29.722  28.433  1.00  0.00     0.040 A 
ATOM     83  F   UNL A   1      39.120  29.643  26.929  1.00  0.00    -0.206 F 
ATOM     84  C   UNL A   1      36.789  29.483  29.700  1.00  0.00     0.006 A 
ENDBRANCH  56  77
BRANCH  68  85
ATOM     85  C   UNL A   1      45.435  32.505  29.352  1.00  0.00     0.057 A 
ATOM     86  C   UNL A   1      45.377  33.508  28.377  1.00  0.00     0.134 A 
ATOM     87  C   UNL A   1      45.747  32.891  30.662  1.00  0.00     0.134 A 
ATOM     88  F   UNL A   1      45.097  33.203  27.101  1.00  0.00    -0.206 F 
ATOM     89  C   UNL A   1      45.641  34.843  28.691  1.00  0.00     0.040 A 
ATOM     90  C   UNL A   1      45.985  34.225  30.992  1.00  0.00     0.040 A 
ATOM     91  F   UNL A   1      45.809  31.980  31.645  1.00  0.00    -0.206 F 
ATOM     92  C   UNL A   1      45.938  35.206  30.004  1.00  0.00     0.006 A 
ENDBRANCH  68  85
ENDBRANCH  42  43
ENDBRANCH  34  37
ENDBRANCH  32  33
ENDBRANCH  31  32
ENDBRANCH   1  31
TORSDOF 16
ENDMDL
