MODEL 1
REMARK VINA RESULT:      -8.7      0.000      0.000
REMARK SMILES CC[C@H](C)[C@H](NC(=O)CN1C(=O)/C(=C/c2ccc(C)cc2)SC1=S)C(=O)NCCCCNC(=O)c1ccc(-c2c3nc(c(-c4c(F)cccc4F)c4ccc([nH]4)c(-c4c(F)cccc4F)c4nc(c(-c5c(F)cccc5F)c5ccc2[nH]5)C=C4)C=C3)cc1
REMARK SMILES IDX 28 1 27 2 25 3 26 4 5 6 3 7 4 8 2 9 1 10 6 11 7 12 8 14 9 15
REMARK SMILES IDX 10 16 11 17 23 18 12 19 13 20 22 21 24 22 14 23 15 24 16 25
REMARK SMILES IDX 21 26 17 27 20 28 18 29 19 30 29 31 30 32 31 33 32 34 33 35
REMARK SMILES IDX 34 37 35 38 36 39 88 40 37 41 87 42 38 43 39 44 40 45 81 46
REMARK SMILES IDX 41 47 86 48 80 49 82 50 42 51 85 52 79 53 78 54 43 56 69 57
REMARK SMILES IDX 52 58 68 59 53 60 56 61 67 62 83 63 54 64 55 65 66 67 84 68
REMARK SMILES IDX 57 69 44 70 45 71 50 72 46 73 47 74 49 75 51 76 48 77 70 78
REMARK SMILES IDX 71 79 76 80 72 81 73 82 75 83 77 84 74 85 58 86 59 87 64 88
REMARK SMILES IDX 60 89 61 90 63 91 65 92 62 93
REMARK H PARENT 27 5 6 13 32 36 82 55 56 66
REMARK Flexibility Score: inf
ROOT
ATOM      1  C   UNL A   1      44.342  24.503  31.400  1.00  0.00     0.116 C 
ENDROOT
BRANCH   1   2
ATOM      2  N   UNL A   1      44.173  23.504  32.435  1.00  0.00    -0.354 N 
ATOM      3  C   UNL A   1      43.880  23.646  33.755  1.00  0.00     0.242 C 
ATOM      4  O   UNL A   1      43.502  22.635  34.351  1.00  0.00    -0.273 OA
ATOM      5  H   UNL A   1      44.290  22.573  32.134  1.00  0.00     0.163 HD
BRANCH   3   6
ATOM      6  C   UNL A   1      43.926  25.016  34.466  1.00  0.00     0.174 C 
BRANCH   6   7
ATOM      7  C   UNL A   1      45.290  25.392  35.133  1.00  0.00     0.018 C 
ATOM      8  C   UNL A   1      46.267  26.126  34.208  1.00  0.00     0.010 C 
BRANCH   7   9
ATOM      9  C   UNL A   1      45.230  26.005  36.550  1.00  0.00     0.002 C 
ATOM     10  C   UNL A   1      46.392  26.895  36.953  1.00  0.00     0.004 C 
ENDBRANCH   7   9
ENDBRANCH   6   7
BRANCH   6  11
ATOM     11  N   UNL A   1      42.710  25.271  35.238  1.00  0.00    -0.342 N 
ATOM     12  C   UNL A   1      41.945  26.410  35.238  1.00  0.00     0.240 C 
ATOM     13  H   UNL A   1      42.407  24.542  35.826  1.00  0.00     0.164 HD
ATOM     14  O   UNL A   1      41.078  26.502  36.110  1.00  0.00    -0.273 OA
BRANCH  12  15
ATOM     15  C   UNL A   1      42.202  27.553  34.232  1.00  0.00     0.227 C 
BRANCH  15  16
ATOM     16  N   UNL A   1      41.747  28.828  34.782  1.00  0.00    -0.283 N 
ATOM     17  C   UNL A   1      40.462  29.284  34.509  1.00  0.00     0.266 C 
ATOM     18  C   UNL A   1      42.535  29.722  35.472  1.00  0.00     0.148 C 
ATOM     19  O   UNL A   1      39.653  28.784  33.744  1.00  0.00    -0.268 OA
ATOM     20  C   UNL A   1      40.267  30.601  35.184  1.00  0.00     0.081 C 
ATOM     21  S   UNL A   1      41.493  30.784  36.384  1.00  0.00    -0.054 SA
ATOM     22  S   UNL A   1      44.179  29.970  35.411  1.00  0.00    -0.052 S 
ATOM     23  C   UNL A   1      39.423  31.561  34.772  1.00  0.00     0.029 C 
BRANCH  23  24
ATOM     24  C   UNL A   1      39.471  32.910  35.356  1.00  0.00    -0.024 A 
ATOM     25  C   UNL A   1      40.501  33.794  34.994  1.00  0.00     0.008 A 
ATOM     26  C   UNL A   1      38.610  33.252  36.397  1.00  0.00     0.008 A 
ATOM     27  C   UNL A   1      40.727  34.956  35.732  1.00  0.00     0.004 A 
ATOM     28  C   UNL A   1      38.825  34.428  37.121  1.00  0.00     0.004 A 
ATOM     29  C   UNL A   1      39.906  35.267  36.818  1.00  0.00    -0.051 A 
ATOM     30  C   UNL A   1      40.189  36.466  37.675  1.00  0.00     0.044 C 
ENDBRANCH  23  24
ENDBRANCH  15  16
ENDBRANCH  12  15
ENDBRANCH   6  11
ENDBRANCH   3   6
ENDBRANCH   1   2
BRANCH   1  31
ATOM     31  C   UNL A   1      44.233  23.967  29.973  1.00  0.00     0.023 C 
BRANCH  31  32
ATOM     32  C   UNL A   1      43.138  24.575  29.099  1.00  0.00     0.023 C 
BRANCH  32  33
ATOM     33  C   UNL A   1      43.352  24.452  27.598  1.00  0.00     0.116 C 
BRANCH  33  34
ATOM     34  N   UNL A   1      42.460  23.531  26.914  1.00  0.00    -0.352 N 
ATOM     35  C   UNL A   1      41.091  23.639  26.691  1.00  0.00     0.251 C 
ATOM     36  H   UNL A   1      42.883  22.716  26.559  1.00  0.00     0.163 HD
ATOM     37  O   UNL A   1      40.491  22.747  26.133  1.00  0.00    -0.269 OA
BRANCH  35  38
ATOM     38  C   UNL A   1      40.399  24.918  27.018  1.00  0.00     0.039 A 
ATOM     39  C   UNL A   1      40.788  26.063  26.315  1.00  0.00     0.014 A 
ATOM     40  C   UNL A   1      39.551  25.031  28.116  1.00  0.00     0.014 A 
ATOM     41  C   UNL A   1      40.551  27.319  26.869  1.00  0.00     0.010 A 
ATOM     42  C   UNL A   1      39.399  26.265  28.719  1.00  0.00     0.010 A 
ATOM     43  C   UNL A   1      39.966  27.398  28.131  1.00  0.00    -0.014 A 
BRANCH  43  44
ATOM     44  C   UNL A   1      40.032  28.599  28.957  1.00  0.00     0.031 A 
ATOM     45  C   UNL A   1      38.989  29.637  28.866  1.00  0.00     0.074 A 
ATOM     46  C   UNL A   1      41.035  28.725  29.853  1.00  0.00     0.049 A 
ATOM     47  N   UNL A   1      39.176  30.884  29.145  1.00  0.00    -0.248 NA
ATOM     48  C   UNL A   1      37.637  29.346  28.410  1.00  0.00     0.031 C 
ATOM     49  C   UNL A   1      41.159  29.720  30.912  1.00  0.00     0.029 A 
ATOM     50  N   UNL A   1      42.281  28.078  29.833  1.00  0.00    -0.354 N 
ATOM     51  C   UNL A   1      37.943  31.496  29.183  1.00  0.00     0.074 A 
ATOM     52  C   UNL A   1      37.028  30.512  28.649  1.00  0.00     0.031 C 
ATOM     53  C   UNL A   1      42.456  29.843  31.237  1.00  0.00     0.029 A 
ATOM     54  C   UNL A   1      43.214  29.026  30.304  1.00  0.00     0.049 A 
ATOM     55  H   UNL A   1      42.464  27.153  29.550  1.00  0.00     0.167 HD
ATOM     56  C   UNL A   1      37.815  32.710  29.795  1.00  0.00     0.037 A 
ATOM     57  C   UNL A   1      44.232  29.475  29.517  1.00  0.00     0.037 A 
ATOM     58  C   UNL A   1      39.111  33.208  30.258  1.00  0.00     0.049 A 
ATOM     59  C   UNL A   1      44.209  30.965  29.276  1.00  0.00     0.074 A 
ATOM     60  C   UNL A   1      39.733  33.181  31.495  1.00  0.00     0.029 A 
ATOM     61  N   UNL A   1      40.092  33.553  29.334  1.00  0.00    -0.354 N 
ATOM     62  N   UNL A   1      43.166  31.720  29.486  1.00  0.00    -0.248 NA
ATOM     63  C   UNL A   1      45.345  31.719  28.754  1.00  0.00     0.031 C 
ATOM     64  C   UNL A   1      41.110  33.455  31.305  1.00  0.00     0.029 A 
ATOM     65  C   UNL A   1      41.321  33.668  29.955  1.00  0.00     0.049 A 
ATOM     66  H   UNL A   1      39.933  33.696  28.373  1.00  0.00     0.167 HD
ATOM     67  C   UNL A   1      43.452  33.010  29.122  1.00  0.00     0.074 A 
ATOM     68  C   UNL A   1      44.838  32.963  28.694  1.00  0.00     0.031 C 
ATOM     69  C   UNL A   1      42.517  34.004  29.195  1.00  0.00     0.037 A 
BRANCH  56  70
ATOM     70  C   UNL A   1      36.486  33.273  30.260  1.00  0.00     0.057 A 
ATOM     71  C   UNL A   1      35.649  33.986  29.376  1.00  0.00     0.134 A 
ATOM     72  C   UNL A   1      36.002  33.208  31.576  1.00  0.00     0.134 A 
ATOM     73  F   UNL A   1      35.882  34.029  28.059  1.00  0.00    -0.206 F 
ATOM     74  C   UNL A   1      34.517  34.698  29.800  1.00  0.00     0.040 A 
ATOM     75  C   UNL A   1      34.904  33.959  32.028  1.00  0.00     0.040 A 
ATOM     76  F   UNL A   1      36.534  32.369  32.475  1.00  0.00    -0.206 F 
ATOM     77  C   UNL A   1      34.168  34.726  31.140  1.00  0.00     0.006 A 
ENDBRANCH  56  70
BRANCH  57  78
ATOM     78  C   UNL A   1      44.734  28.457  28.558  1.00  0.00     0.057 A 
ATOM     79  C   UNL A   1      44.354  28.561  27.209  1.00  0.00     0.134 A 
ATOM     80  C   UNL A   1      45.837  27.651  28.846  1.00  0.00     0.134 A 
ATOM     81  F   UNL A   1      43.285  29.296  26.866  1.00  0.00    -0.206 F 
ATOM     82  C   UNL A   1      45.113  28.000  26.180  1.00  0.00     0.040 A 
ATOM     83  C   UNL A   1      46.593  27.063  27.824  1.00  0.00     0.040 A 
ATOM     84  F   UNL A   1      46.267  27.508  30.107  1.00  0.00    -0.206 F 
ATOM     85  C   UNL A   1      46.259  27.275  26.486  1.00  0.00     0.006 A 
ENDBRANCH  57  78
BRANCH  69  86
ATOM     86  C   UNL A   1      42.661  35.405  28.651  1.00  0.00     0.057 A 
ATOM     87  C   UNL A   1      42.475  35.754  27.307  1.00  0.00     0.134 A 
ATOM     88  C   UNL A   1      42.862  36.494  29.530  1.00  0.00     0.134 A 
ATOM     89  F   UNL A   1      42.164  34.839  26.380  1.00  0.00    -0.206 F 
ATOM     90  C   UNL A   1      42.545  37.081  26.858  1.00  0.00     0.040 A 
ATOM     91  C   UNL A   1      42.879  37.825  29.102  1.00  0.00     0.040 A 
ATOM     92  F   UNL A   1      43.030  36.315  30.848  1.00  0.00    -0.206 F 
ATOM     93  C   UNL A   1      42.735  38.123  27.757  1.00  0.00     0.006 A 
ENDBRANCH  69  86
ENDBRANCH  43  44
ENDBRANCH  35  38
ENDBRANCH  33  34
ENDBRANCH  32  33
ENDBRANCH  31  32
ENDBRANCH   1  31
TORSDOF 17
ENDMDL
MODEL 2
REMARK VINA RESULT:      -8.7      3.721      9.095
REMARK SMILES CC[C@H](C)[C@H](NC(=O)CN1C(=O)/C(=C/c2ccc(C)cc2)SC1=S)C(=O)NCCCCNC(=O)c1ccc(-c2c3nc(c(-c4c(F)cccc4F)c4ccc([nH]4)c(-c4c(F)cccc4F)c4nc(c(-c5c(F)cccc5F)c5ccc2[nH]5)C=C4)C=C3)cc1
REMARK SMILES IDX 28 1 27 2 25 3 26 4 5 6 3 7 4 8 2 9 1 10 6 11 7 12 8 14 9 15
REMARK SMILES IDX 10 16 11 17 23 18 12 19 13 20 22 21 24 22 14 23 15 24 16 25
REMARK SMILES IDX 21 26 17 27 20 28 18 29 19 30 29 31 30 32 31 33 32 34 33 35
REMARK SMILES IDX 34 37 35 38 36 39 88 40 37 41 87 42 38 43 39 44 40 45 81 46
REMARK SMILES IDX 41 47 86 48 80 49 82 50 42 51 85 52 79 53 78 54 43 56 69 57
REMARK SMILES IDX 52 58 68 59 53 60 56 61 67 62 83 63 54 64 55 65 66 67 84 68
REMARK SMILES IDX 57 69 44 70 45 71 50 72 46 73 47 74 49 75 51 76 48 77 70 78
REMARK SMILES IDX 71 79 76 80 72 81 73 82 75 83 77 84 74 85 58 86 59 87 64 88
REMARK SMILES IDX 60 89 61 90 63 91 65 92 62 93
REMARK H PARENT 27 5 6 13 32 36 82 55 56 66
REMARK Flexibility Score: inf
ROOT
ATOM      1  C   UNL A   1      36.421  32.996  34.534  1.00  0.00     0.116 C 
ENDROOT
BRANCH   1   2
ATOM      2  N   UNL A   1      36.091  34.356  34.161  1.00  0.00    -0.354 N 
ATOM      3  C   UNL A   1      36.031  34.942  32.936  1.00  0.00     0.242 C 
ATOM      4  O   UNL A   1      35.444  36.024  32.867  1.00  0.00    -0.273 OA
ATOM      5  H   UNL A   1      35.877  34.951  34.917  1.00  0.00     0.163 HD
BRANCH   3   6
ATOM      6  C   UNL A   1      36.588  34.258  31.668  1.00  0.00     0.174 C 
BRANCH   6   7
ATOM      7  C   UNL A   1      38.049  34.651  31.268  1.00  0.00     0.018 C 
ATOM      8  C   UNL A   1      39.071  34.533  32.403  1.00  0.00     0.010 C 
BRANCH   7   9
ATOM      9  C   UNL A   1      38.577  34.101  29.924  1.00  0.00     0.002 C 
ATOM     10  C   UNL A   1      39.742  34.846  29.298  1.00  0.00     0.004 C 
ENDBRANCH   7   9
ENDBRANCH   6   7
BRANCH   6  11
ATOM     11  N   UNL A   1      35.593  34.200  30.598  1.00  0.00    -0.342 N 
ATOM     12  C   UNL A   1      35.012  33.080  30.060  1.00  0.00     0.240 C 
ATOM     13  H   UNL A   1      35.308  35.063  30.221  1.00  0.00     0.164 HD
ATOM     14  O   UNL A   1      34.351  33.232  29.030  1.00  0.00    -0.273 OA
BRANCH  12  15
ATOM     15  C   UNL A   1      35.229  31.682  30.679  1.00  0.00     0.227 C 
BRANCH  15  16
ATOM     16  N   UNL A   1      36.477  31.098  30.195  1.00  0.00    -0.283 N 
ATOM     17  C   UNL A   1      36.666  30.893  28.832  1.00  0.00     0.266 C 
ATOM     18  C   UNL A   1      37.482  30.596  30.991  1.00  0.00     0.148 C 
ATOM     19  O   UNL A   1      35.841  31.047  27.946  1.00  0.00    -0.268 OA
ATOM     20  C   UNL A   1      38.012  30.284  28.620  1.00  0.00     0.081 C 
ATOM     21  S   UNL A   1      38.949  30.526  30.049  1.00  0.00    -0.054 SA
ATOM     22  S   UNL A   1      37.415  29.972  32.532  1.00  0.00    -0.052 S 
ATOM     23  C   UNL A   1      38.348  29.496  27.587  1.00  0.00     0.029 C 
BRANCH  23  24
ATOM     24  C   UNL A   1      39.617  28.752  27.585  1.00  0.00    -0.024 A 
ATOM     25  C   UNL A   1      40.610  29.062  26.642  1.00  0.00     0.008 A 
ATOM     26  C   UNL A   1      39.768  27.626  28.394  1.00  0.00     0.008 A 
ATOM     27  C   UNL A   1      41.688  28.200  26.441  1.00  0.00     0.004 A 
ATOM     28  C   UNL A   1      40.861  26.776  28.205  1.00  0.00     0.004 A 
ATOM     29  C   UNL A   1      41.807  27.036  27.204  1.00  0.00    -0.051 A 
ATOM     30  C   UNL A   1      42.910  26.055  26.940  1.00  0.00     0.044 C 
ENDBRANCH  23  24
ENDBRANCH  15  16
ENDBRANCH  12  15
ENDBRANCH   6  11
ENDBRANCH   3   6
ENDBRANCH   1   2
BRANCH   1  31
ATOM     31  C   UNL A   1      37.909  32.743  34.772  1.00  0.00     0.023 C 
BRANCH  31  32
ATOM     32  C   UNL A   1      38.565  33.549  35.892  1.00  0.00     0.023 C 
BRANCH  32  33
ATOM     33  C   UNL A   1      39.812  32.929  36.503  1.00  0.00     0.116 C 
BRANCH  33  34
ATOM     34  N   UNL A   1      39.819  31.477  36.569  1.00  0.00    -0.352 N 
ATOM     35  C   UNL A   1      40.489  30.566  35.760  1.00  0.00     0.251 C 
ATOM     36  H   UNL A   1      39.272  31.083  37.287  1.00  0.00     0.163 HD
ATOM     37  O   UNL A   1      40.346  29.375  35.933  1.00  0.00    -0.269 OA
BRANCH  35  38
ATOM     38  C   UNL A   1      41.488  31.064  34.774  1.00  0.00     0.039 A 
ATOM     39  C   UNL A   1      42.818  31.171  35.196  1.00  0.00     0.014 A 
ATOM     40  C   UNL A   1      41.103  31.604  33.549  1.00  0.00     0.014 A 
ATOM     41  C   UNL A   1      43.680  32.040  34.531  1.00  0.00     0.010 A 
ATOM     42  C   UNL A   1      41.919  32.541  32.945  1.00  0.00     0.010 A 
ATOM     43  C   UNL A   1      43.180  32.812  33.482  1.00  0.00    -0.014 A 
BRANCH  43  44
ATOM     44  C   UNL A   1      43.858  34.005  32.990  1.00  0.00     0.031 A 
ATOM     45  C   UNL A   1      43.437  35.349  33.428  1.00  0.00     0.074 A 
ATOM     46  C   UNL A   1      44.919  33.864  32.165  1.00  0.00     0.049 A 
ATOM     47  N   UNL A   1      43.604  36.425  32.735  1.00  0.00    -0.248 NA
ATOM     48  C   UNL A   1      42.751  35.578  34.691  1.00  0.00     0.031 C 
ATOM     49  C   UNL A   1      45.860  34.897  31.745  1.00  0.00     0.029 A 
ATOM     50  N   UNL A   1      45.229  32.759  31.357  1.00  0.00    -0.354 N 
ATOM     51  C   UNL A   1      43.319  37.498  33.550  1.00  0.00     0.074 A 
ATOM     52  C   UNL A   1      42.726  36.914  34.732  1.00  0.00     0.031 C 
ATOM     53  C   UNL A   1      46.426  34.517  30.589  1.00  0.00     0.029 A 
ATOM     54  C   UNL A   1      45.768  33.293  30.167  1.00  0.00     0.049 A 
ATOM     55  H   UNL A   1      45.097  31.808  31.577  1.00  0.00     0.167 HD
ATOM     56  C   UNL A   1      43.748  38.745  33.194  1.00  0.00     0.037 A 
ATOM     57  C   UNL A   1      45.158  33.104  28.962  1.00  0.00     0.037 A 
ATOM     58  C   UNL A   1      44.405  38.724  31.887  1.00  0.00     0.049 A 
ATOM     59  C   UNL A   1      44.749  34.385  28.277  1.00  0.00     0.074 A 
ATOM     60  C   UNL A   1      45.739  38.676  31.514  1.00  0.00     0.029 A 
ATOM     61  N   UNL A   1      43.668  38.434  30.744  1.00  0.00    -0.354 N 
ATOM     62  N   UNL A   1      44.654  35.536  28.883  1.00  0.00    -0.248 NA
ATOM     63  C   UNL A   1      44.386  34.467  26.865  1.00  0.00     0.031 C 
ATOM     64  C   UNL A   1      45.803  38.297  30.150  1.00  0.00     0.029 A 
ATOM     65  C   UNL A   1      44.509  38.134  29.689  1.00  0.00     0.049 A 
ATOM     66  H   UNL A   1      42.685  38.441  30.693  1.00  0.00     0.167 HD
ATOM     67  C   UNL A   1      44.209  36.485  27.999  1.00  0.00     0.074 A 
ATOM     68  C   UNL A   1      44.082  35.772  26.742  1.00  0.00     0.031 C 
ATOM     69  C   UNL A   1      43.976  37.775  28.383  1.00  0.00     0.037 A 
BRANCH  56  70
ATOM     70  C   UNL A   1      43.864  39.898  34.173  1.00  0.00     0.057 A 
ATOM     71  C   UNL A   1      43.173  41.108  33.957  1.00  0.00     0.134 A 
ATOM     72  C   UNL A   1      44.690  39.907  35.309  1.00  0.00     0.134 A 
ATOM     73  F   UNL A   1      42.238  41.230  33.006  1.00  0.00    -0.206 F 
ATOM     74  C   UNL A   1      43.402  42.267  34.713  1.00  0.00     0.040 A 
ATOM     75  C   UNL A   1      44.973  41.072  36.041  1.00  0.00     0.040 A 
ATOM     76  F   UNL A   1      45.215  38.777  35.800  1.00  0.00    -0.206 F 
ATOM     77  C   UNL A   1      44.342  42.265  35.730  1.00  0.00     0.006 A 
ENDBRANCH  56  70
BRANCH  57  78
ATOM     78  C   UNL A   1      44.446  31.805  28.854  1.00  0.00     0.057 A 
ATOM     79  C   UNL A   1      45.199  30.647  28.592  1.00  0.00     0.134 A 
ATOM     80  C   UNL A   1      43.159  31.622  29.361  1.00  0.00     0.134 A 
ATOM     81  F   UNL A   1      46.434  30.750  28.076  1.00  0.00    -0.206 F 
ATOM     82  C   UNL A   1      44.747  29.373  28.944  1.00  0.00     0.040 A 
ATOM     83  C   UNL A   1      42.684  30.348  29.697  1.00  0.00     0.040 A 
ATOM     84  F   UNL A   1      42.381  32.677  29.645  1.00  0.00    -0.206 F 
ATOM     85  C   UNL A   1      43.496  29.226  29.531  1.00  0.00     0.006 A 
ENDBRANCH  57  78
BRANCH  69  86
ATOM     86  C   UNL A   1      43.315  38.847  27.550  1.00  0.00     0.057 A 
ATOM     87  C   UNL A   1      43.994  39.926  26.967  1.00  0.00     0.134 A 
ATOM     88  C   UNL A   1      41.953  38.733  27.190  1.00  0.00     0.134 A 
ATOM     89  F   UNL A   1      45.313  40.095  27.127  1.00  0.00    -0.206 F 
ATOM     90  C   UNL A   1      43.353  40.858  26.137  1.00  0.00     0.040 A 
ATOM     91  C   UNL A   1      41.317  39.624  26.321  1.00  0.00     0.040 A 
ATOM     92  F   UNL A   1      41.182  37.736  27.651  1.00  0.00    -0.206 F 
ATOM     93  C   UNL A   1      42.014  40.703  25.802  1.00  0.00     0.006 A 
ENDBRANCH  69  86
ENDBRANCH  43  44
ENDBRANCH  35  38
ENDBRANCH  33  34
ENDBRANCH  32  33
ENDBRANCH  31  32
ENDBRANCH   1  31
TORSDOF 17
ENDMDL
MODEL 3
REMARK VINA RESULT:      -8.6      4.087     10.796
REMARK SMILES CC[C@H](C)[C@H](NC(=O)CN1C(=O)/C(=C/c2ccc(C)cc2)SC1=S)C(=O)NCCCCNC(=O)c1ccc(-c2c3nc(c(-c4c(F)cccc4F)c4ccc([nH]4)c(-c4c(F)cccc4F)c4nc(c(-c5c(F)cccc5F)c5ccc2[nH]5)C=C4)C=C3)cc1
REMARK SMILES IDX 28 1 27 2 25 3 26 4 5 6 3 7 4 8 2 9 1 10 6 11 7 12 8 14 9 15
REMARK SMILES IDX 10 16 11 17 23 18 12 19 13 20 22 21 24 22 14 23 15 24 16 25
REMARK SMILES IDX 21 26 17 27 20 28 18 29 19 30 29 31 30 32 31 33 32 34 33 35
REMARK SMILES IDX 34 37 35 38 36 39 88 40 37 41 87 42 38 43 39 44 40 45 81 46
REMARK SMILES IDX 41 47 86 48 80 49 82 50 42 51 85 52 79 53 78 54 43 56 69 57
REMARK SMILES IDX 52 58 68 59 53 60 56 61 67 62 83 63 54 64 55 65 66 67 84 68
REMARK SMILES IDX 57 69 44 70 45 71 50 72 46 73 47 74 49 75 51 76 48 77 70 78
REMARK SMILES IDX 71 79 76 80 72 81 73 82 75 83 77 84 74 85 58 86 59 87 64 88
REMARK SMILES IDX 60 89 61 90 63 91 65 92 62 93
REMARK H PARENT 27 5 6 13 32 36 82 55 56 66
REMARK Flexibility Score: inf
ROOT
ATOM      1  C   UNL A   1      40.387  34.425  29.650  1.00  0.00     0.116 C 
ENDROOT
BRANCH   1   2
ATOM      2  N   UNL A   1      40.818  35.345  28.617  1.00  0.00    -0.354 N 
ATOM      3  C   UNL A   1      42.069  35.731  28.250  1.00  0.00     0.242 C 
ATOM      4  O   UNL A   1      42.177  36.292  27.157  1.00  0.00    -0.273 OA
ATOM      5  H   UNL A   1      40.087  35.756  28.099  1.00  0.00     0.163 HD
BRANCH   3   6
ATOM      6  C   UNL A   1      43.313  35.412  29.106  1.00  0.00     0.174 C 
BRANCH   6   7
ATOM      7  C   UNL A   1      43.700  33.900  29.209  1.00  0.00     0.018 C 
ATOM      8  C   UNL A   1      44.096  33.255  27.877  1.00  0.00     0.010 C 
BRANCH   7   9
ATOM      9  C   UNL A   1      44.633  33.495  30.374  1.00  0.00     0.002 C 
ATOM     10  C   UNL A   1      45.736  32.506  30.044  1.00  0.00     0.004 C 
ENDBRANCH   7   9
ENDBRANCH   6   7
BRANCH   6  11
ATOM     11  N   UNL A   1      43.341  36.196  30.341  1.00  0.00    -0.342 N 
ATOM     12  C   UNL A   1      44.322  37.060  30.758  1.00  0.00     0.240 C 
ATOM     13  H   UNL A   1      42.569  36.091  30.941  1.00  0.00     0.164 HD
ATOM     14  O   UNL A   1      44.253  37.466  31.920  1.00  0.00    -0.273 OA
BRANCH  12  15
ATOM     15  C   UNL A   1      45.494  37.456  29.834  1.00  0.00     0.227 C 
BRANCH  15  16
ATOM     16  N   UNL A   1      45.137  38.624  29.031  1.00  0.00    -0.283 N 
ATOM     17  C   UNL A   1      44.982  38.500  27.654  1.00  0.00     0.266 C 
ATOM     18  C   UNL A   1      45.055  39.916  29.500  1.00  0.00     0.148 C 
ATOM     19  O   UNL A   1      45.219  37.515  26.975  1.00  0.00    -0.268 OA
ATOM     20  C   UNL A   1      44.628  39.836  27.090  1.00  0.00     0.081 C 
ATOM     21  S   UNL A   1      44.094  40.848  28.381  1.00  0.00    -0.054 SA
ATOM     22  S   UNL A   1      45.818  40.638  30.790  1.00  0.00    -0.052 S 
ATOM     23  C   UNL A   1      44.894  40.238  25.836  1.00  0.00     0.029 C 
BRANCH  23  24
ATOM     24  C   UNL A   1      44.724  41.645  25.443  1.00  0.00    -0.024 A 
ATOM     25  C   UNL A   1      43.513  42.073  24.876  1.00  0.00     0.008 A 
ATOM     26  C   UNL A   1      45.816  42.513  25.462  1.00  0.00     0.008 A 
ATOM     27  C   UNL A   1      43.426  43.314  24.246  1.00  0.00     0.004 A 
ATOM     28  C   UNL A   1      45.719  43.765  24.849  1.00  0.00     0.004 A 
ATOM     29  C   UNL A   1      44.538  44.159  24.206  1.00  0.00    -0.051 A 
ATOM     30  C   UNL A   1      44.488  45.458  23.456  1.00  0.00     0.044 C 
ENDBRANCH  23  24
ENDBRANCH  15  16
ENDBRANCH  12  15
ENDBRANCH   6  11
ENDBRANCH   3   6
ENDBRANCH   1   2
BRANCH   1  31
ATOM     31  C   UNL A   1      38.922  34.568  30.060  1.00  0.00     0.023 C 
BRANCH  31  32
ATOM     32  C   UNL A   1      37.952  33.533  29.492  1.00  0.00     0.023 C 
BRANCH  32  33
ATOM     33  C   UNL A   1      36.931  32.982  30.475  1.00  0.00     0.116 C 
BRANCH  33  34
ATOM     34  N   UNL A   1      35.605  32.741  29.929  1.00  0.00    -0.352 N 
ATOM     35  C   UNL A   1      35.169  31.700  29.116  1.00  0.00     0.251 C 
ATOM     36  H   UNL A   1      34.921  33.407  30.167  1.00  0.00     0.163 HD
ATOM     37  O   UNL A   1      34.026  31.678  28.714  1.00  0.00    -0.269 OA
BRANCH  35  38
ATOM     38  C   UNL A   1      36.075  30.546  28.860  1.00  0.00     0.039 A 
ATOM     39  C   UNL A   1      36.428  29.745  29.952  1.00  0.00     0.014 A 
ATOM     40  C   UNL A   1      36.721  30.378  27.638  1.00  0.00     0.014 A 
ATOM     41  C   UNL A   1      37.593  28.983  29.893  1.00  0.00     0.010 A 
ATOM     42  C   UNL A   1      37.926  29.704  27.605  1.00  0.00     0.010 A 
ATOM     43  C   UNL A   1      38.398  29.070  28.757  1.00  0.00    -0.014 A 
BRANCH  43  44
ATOM     44  C   UNL A   1      39.792  28.644  28.745  1.00  0.00     0.031 A 
ATOM     45  C   UNL A   1      40.161  27.273  28.349  1.00  0.00     0.074 A 
ATOM     46  C   UNL A   1      40.755  29.542  29.049  1.00  0.00     0.049 A 
ATOM     47  N   UNL A   1      41.225  26.661  28.750  1.00  0.00    -0.248 NA
ATOM     48  C   UNL A   1      39.321  26.460  27.480  1.00  0.00     0.031 C 
ATOM     49  C   UNL A   1      42.196  29.389  28.882  1.00  0.00     0.029 A 
ATOM     50  N   UNL A   1      40.613  30.726  29.791  1.00  0.00    -0.354 N 
ATOM     51  C   UNL A   1      41.360  25.516  27.995  1.00  0.00     0.074 A 
ATOM     52  C   UNL A   1      40.114  25.404  27.271  1.00  0.00     0.031 C 
ATOM     53  C   UNL A   1      42.818  30.227  29.726  1.00  0.00     0.029 A 
ATOM     54  C   UNL A   1      41.796  30.846  30.551  1.00  0.00     0.049 A 
ATOM     55  H   UNL A   1      39.847  31.344  29.781  1.00  0.00     0.167 HD
ATOM     56  C   UNL A   1      42.565  24.874  27.959  1.00  0.00     0.037 A 
ATOM     57  C   UNL A   1      41.770  30.828  31.914  1.00  0.00     0.037 A 
ATOM     58  C   UNL A   1      43.532  25.516  28.851  1.00  0.00     0.049 A 
ATOM     59  C   UNL A   1      42.572  29.705  32.527  1.00  0.00     0.074 A 
ATOM     60  C   UNL A   1      44.548  26.431  28.623  1.00  0.00     0.029 A 
ATOM     61  N   UNL A   1      43.332  25.488  30.227  1.00  0.00    -0.354 N 
ATOM     62  N   UNL A   1      42.969  28.652  31.868  1.00  0.00    -0.248 NA
ATOM     63  C   UNL A   1      42.965  29.663  33.932  1.00  0.00     0.031 C 
ATOM     64  C   UNL A   1      44.920  26.998  29.866  1.00  0.00     0.029 A 
ATOM     65  C   UNL A   1      44.145  26.414  30.852  1.00  0.00     0.049 A 
ATOM     66  H   UNL A   1      42.701  24.892  30.691  1.00  0.00     0.167 HD
ATOM     67  C   UNL A   1      43.625  27.799  32.717  1.00  0.00     0.074 A 
ATOM     68  C   UNL A   1      43.619  28.490  33.994  1.00  0.00     0.031 C 
ATOM     69  C   UNL A   1      44.107  26.592  32.297  1.00  0.00     0.037 A 
BRANCH  56  70
ATOM     70  C   UNL A   1      42.951  23.885  26.877  1.00  0.00     0.057 A 
ATOM     71  C   UNL A   1      42.962  22.497  27.131  1.00  0.00     0.134 A 
ATOM     72  C   UNL A   1      43.385  24.232  25.588  1.00  0.00     0.134 A 
ATOM     73  F   UNL A   1      42.449  21.978  28.253  1.00  0.00    -0.206 F 
ATOM     74  C   UNL A   1      43.501  21.560  26.237  1.00  0.00     0.040 A 
ATOM     75  C   UNL A   1      43.979  23.315  24.706  1.00  0.00     0.040 A 
ATOM     76  F   UNL A   1      43.201  25.465  25.098  1.00  0.00    -0.206 F 
ATOM     77  C   UNL A   1      44.058  21.973  25.039  1.00  0.00     0.006 A 
ENDBRANCH  56  70
BRANCH  57  78
ATOM     78  C   UNL A   1      40.536  31.418  32.493  1.00  0.00     0.057 A 
ATOM     79  C   UNL A   1      39.518  30.551  32.927  1.00  0.00     0.134 A 
ATOM     80  C   UNL A   1      40.494  32.730  32.966  1.00  0.00     0.134 A 
ATOM     81  F   UNL A   1      39.480  29.284  32.487  1.00  0.00    -0.206 F 
ATOM     82  C   UNL A   1      38.580  30.931  33.889  1.00  0.00     0.040 A 
ATOM     83  C   UNL A   1      39.545  33.131  33.915  1.00  0.00     0.040 A 
ATOM     84  F   UNL A   1      41.435  33.615  32.606  1.00  0.00    -0.206 F 
ATOM     85  C   UNL A   1      38.615  32.219  34.412  1.00  0.00     0.006 A 
ENDBRANCH  57  78
BRANCH  69  86
ATOM     86  C   UNL A   1      44.674  25.503  33.176  1.00  0.00     0.057 A 
ATOM     87  C   UNL A   1      46.010  25.083  33.153  1.00  0.00     0.134 A 
ATOM     88  C   UNL A   1      43.884  24.930  34.200  1.00  0.00     0.134 A 
ATOM     89  F   UNL A   1      46.902  25.623  32.312  1.00  0.00    -0.206 F 
ATOM     90  C   UNL A   1      46.511  24.119  34.041  1.00  0.00     0.040 A 
ATOM     91  C   UNL A   1      44.386  24.010  35.124  1.00  0.00     0.040 A 
ATOM     92  F   UNL A   1      42.593  25.255  34.361  1.00  0.00    -0.206 F 
ATOM     93  C   UNL A   1      45.703  23.589  35.038  1.00  0.00     0.006 A 
ENDBRANCH  69  86
ENDBRANCH  43  44
ENDBRANCH  35  38
ENDBRANCH  33  34
ENDBRANCH  32  33
ENDBRANCH  31  32
ENDBRANCH   1  31
TORSDOF 17
ENDMDL
