MODEL 1
REMARK VINA RESULT:     -11.8      0.000      0.000
REMARK SMILES O=C(NCCCCNC(=O)c1cccnc1C[N@@H+]1CCC[C@H]1c1ccccn1)c1ccc(-c2c3nc(c(-c4c(F)cccc4F)c4ccc([nH]4)c(-c4c(F)cccc4F)c4nc(c(-c5c(F)cccc5F)c5ccc2[nH]5)C=C4)C=C3)cc1
REMARK SMILES IDX 6 1 5 2 4 3 3 4 1 5 2 6 29 8 30 9 82 10 31 11 81 12 32 13
REMARK SMILES IDX 33 14 34 15 75 16 35 17 80 18 74 19 76 20 36 21 79 22 73 23
REMARK SMILES IDX 72 24 37 26 63 27 46 28 62 29 47 30 50 31 61 32 77 33 48 34
REMARK SMILES IDX 49 35 60 37 78 38 51 39 38 40 39 41 44 42 40 43 41 44 43 45
REMARK SMILES IDX 45 46 42 47 64 48 65 49 70 50 66 51 67 52 69 53 71 54 68 55
REMARK SMILES IDX 52 56 53 57 58 58 54 59 55 60 57 61 59 62 56 63 7 64 8 65
REMARK SMILES IDX 9 66 10 68 11 69 12 70 16 71 13 72 15 73 14 74 17 75 18 76
REMARK SMILES IDX 19 77 22 78 20 80 21 81 23 82 24 83 28 84 25 85 27 86 26 87
REMARK H PARENT 3 7 76 25 50 36 8 67 18 79
REMARK Flexibility Score: inf
ROOT
ATOM      1  C   UNL A   1      36.374  20.472  25.035  1.00  0.00     0.023 C 
ENDROOT
BRANCH   1   2
ATOM      2  C   UNL A   1      37.770  19.928  24.737  1.00  0.00     0.023 C 
BRANCH   2   3
ATOM      3  C   UNL A   1      38.831  20.255  25.780  1.00  0.00     0.116 C 
BRANCH   3   4
ATOM      4  N   UNL A   1      39.940  19.313  25.777  1.00  0.00    -0.352 N 
ATOM      5  O   UNL A   1      42.089  18.636  25.895  1.00  0.00    -0.269 OA
ATOM      6  C   UNL A   1      41.266  19.519  26.086  1.00  0.00     0.251 C 
ATOM      7  H   UNL A   1      39.709  18.393  25.517  1.00  0.00     0.163 HD
BRANCH   6   8
ATOM      8  C   UNL A   1      41.697  20.829  26.624  1.00  0.00     0.039 A 
ATOM      9  C   UNL A   1      41.631  21.094  27.993  1.00  0.00     0.014 A 
ATOM     10  C   UNL A   1      42.166  21.806  25.741  1.00  0.00     0.014 A 
ATOM     11  C   UNL A   1      41.876  22.380  28.458  1.00  0.00     0.010 A 
ATOM     12  C   UNL A   1      42.505  23.072  26.225  1.00  0.00     0.010 A 
ATOM     13  C   UNL A   1      42.329  23.381  27.584  1.00  0.00    -0.014 A 
BRANCH  13  14
ATOM     14  C   UNL A   1      42.667  24.723  28.123  1.00  0.00     0.031 A 
ATOM     15  C   UNL A   1      44.082  25.090  28.471  1.00  0.00     0.074 A 
ATOM     16  C   UNL A   1      41.678  25.624  28.277  1.00  0.00     0.049 A 
ATOM     17  N   UNL A   1      44.545  26.215  28.959  1.00  0.00    -0.248 NA
ATOM     18  C   UNL A   1      45.111  24.062  28.256  1.00  0.00     0.031 C 
ATOM     19  C   UNL A   1      40.264  25.382  27.978  1.00  0.00     0.029 A 
ATOM     20  N   UNL A   1      41.707  26.923  28.711  1.00  0.00    -0.354 N 
ATOM     21  C   UNL A   1      45.912  26.026  29.123  1.00  0.00     0.074 A 
ATOM     22  C   UNL A   1      46.200  24.668  28.711  1.00  0.00     0.031 C 
ATOM     23  C   UNL A   1      39.569  26.506  28.199  1.00  0.00     0.029 A 
ATOM     24  C   UNL A   1      40.472  27.525  28.719  1.00  0.00     0.049 A 
ATOM     25  H   UNL A   1      42.533  27.382  28.990  1.00  0.00     0.167 HD
ATOM     26  C   UNL A   1      46.839  26.908  29.569  1.00  0.00     0.037 A 
ATOM     27  C   UNL A   1      40.099  28.753  29.122  1.00  0.00     0.037 A 
ATOM     28  C   UNL A   1      46.546  28.261  29.969  1.00  0.00     0.049 A 
ATOM     29  C   UNL A   1      41.141  29.695  29.648  1.00  0.00     0.074 A 
ATOM     30  C   UNL A   1      47.422  29.242  30.403  1.00  0.00     0.029 A 
ATOM     31  N   UNL A   1      45.278  28.824  29.990  1.00  0.00    -0.354 N 
ATOM     32  N   UNL A   1      42.434  29.514  29.767  1.00  0.00    -0.248 NA
ATOM     33  C   UNL A   1      40.673  31.011  30.100  1.00  0.00     0.031 C 
ATOM     34  C   UNL A   1      46.678  30.379  30.736  1.00  0.00     0.029 A 
ATOM     35  C   UNL A   1      45.345  30.128  30.456  1.00  0.00     0.049 A 
ATOM     36  H   UNL A   1      44.451  28.364  29.715  1.00  0.00     0.167 HD
ATOM     37  C   UNL A   1      42.936  30.698  30.286  1.00  0.00     0.074 A 
ATOM     38  C   UNL A   1      41.811  31.597  30.441  1.00  0.00     0.031 C 
ATOM     39  C   UNL A   1      44.216  31.013  30.605  1.00  0.00     0.037 A 
BRANCH  26  40
ATOM     40  C   UNL A   1      48.262  26.433  29.672  1.00  0.00     0.057 A 
ATOM     41  C   UNL A   1      49.185  26.619  28.635  1.00  0.00     0.134 A 
ATOM     42  C   UNL A   1      48.725  25.820  30.844  1.00  0.00     0.134 A 
ATOM     43  F   UNL A   1      48.806  27.191  27.482  1.00  0.00    -0.206 F 
ATOM     44  C   UNL A   1      50.510  26.192  28.750  1.00  0.00     0.040 A 
ATOM     45  C   UNL A   1      50.054  25.412  30.981  1.00  0.00     0.040 A 
ATOM     46  F   UNL A   1      47.898  25.618  31.881  1.00  0.00    -0.206 F 
ATOM     47  C   UNL A   1      50.949  25.593  29.930  1.00  0.00     0.006 A 
ENDBRANCH  26  40
BRANCH  27  48
ATOM     48  C   UNL A   1      38.671  29.149  29.050  1.00  0.00     0.057 A 
ATOM     49  C   UNL A   1      37.840  29.071  30.171  1.00  0.00     0.134 A 
ATOM     50  C   UNL A   1      38.110  29.631  27.860  1.00  0.00     0.134 A 
ATOM     51  F   UNL A   1      38.316  28.604  31.335  1.00  0.00    -0.206 F 
ATOM     52  C   UNL A   1      36.495  29.442  30.110  1.00  0.00     0.040 A 
ATOM     53  C   UNL A   1      36.776  30.034  27.791  1.00  0.00     0.040 A 
ATOM     54  F   UNL A   1      38.858  29.739  26.752  1.00  0.00    -0.206 F 
ATOM     55  C   UNL A   1      35.963  29.932  28.918  1.00  0.00     0.006 A 
ENDBRANCH  27  48
BRANCH  39  56
ATOM     56  C   UNL A   1      44.469  32.399  31.121  1.00  0.00     0.057 A 
ATOM     57  C   UNL A   1      44.492  32.688  32.492  1.00  0.00     0.134 A 
ATOM     58  C   UNL A   1      44.718  33.454  30.234  1.00  0.00     0.134 A 
ATOM     59  F   UNL A   1      44.245  31.725  33.393  1.00  0.00    -0.206 F 
ATOM     60  C   UNL A   1      44.730  33.981  32.961  1.00  0.00     0.040 A 
ATOM     61  C   UNL A   1      44.986  34.745  30.692  1.00  0.00     0.040 A 
ATOM     62  F   UNL A   1      44.718  33.245  28.909  1.00  0.00    -0.206 F 
ATOM     63  C   UNL A   1      44.984  35.012  32.058  1.00  0.00     0.006 A 
ENDBRANCH  39  56
ENDBRANCH  13  14
ENDBRANCH   6   8
ENDBRANCH   3   4
ENDBRANCH   2   3
ENDBRANCH   1   2
BRANCH   1  64
ATOM     64  C   UNL A   1      36.332  21.880  25.618  1.00  0.00     0.116 C 
BRANCH  64  65
ATOM     65  N   UNL A   1      35.324  22.032  26.653  1.00  0.00    -0.352 N 
ATOM     66  C   UNL A   1      34.039  22.496  26.545  1.00  0.00     0.253 C 
ATOM     67  H   UNL A   1      35.603  21.765  27.558  1.00  0.00     0.163 HD
ATOM     68  O   UNL A   1      33.321  22.579  27.535  1.00  0.00    -0.269 OA
BRANCH  66  69
ATOM     69  C   UNL A   1      33.505  22.860  25.224  1.00  0.00     0.067 A 
ATOM     70  C   UNL A   1      33.061  21.833  24.378  1.00  0.00     0.017 A 
ATOM     71  C   UNL A   1      33.370  24.188  24.816  1.00  0.00     0.107 A 
ATOM     72  C   UNL A   1      32.529  22.148  23.134  1.00  0.00     0.021 A 
ATOM     73  N   UNL A   1      32.802  24.493  23.611  1.00  0.00    -0.254 NA
ATOM     74  C   UNL A   1      32.413  23.482  22.802  1.00  0.00     0.111 A 
BRANCH  71  75
ATOM     75  C   UNL A   1      33.839  25.371  25.658  1.00  0.00     0.321 C 
BRANCH  75  76
ATOM     76  N   UNL A   1      33.208  26.691  25.419  1.00  0.00    -0.322 N 
ATOM     77  C   UNL A   1      33.949  27.818  25.980  1.00  0.00     0.263 C 
ATOM     78  C   UNL A   1      31.812  26.776  25.888  1.00  0.00     0.234 C 
ATOM     79  H   UNL A   1      33.225  26.761  24.401  1.00  0.00     0.349 HD
ATOM     80  C   UNL A   1      33.211  28.266  27.229  1.00  0.00     0.068 C 
ATOM     81  C   UNL A   1      31.825  27.644  27.149  1.00  0.00     0.078 C 
BRANCH  78  82
ATOM     82  C   UNL A   1      30.841  27.328  24.842  1.00  0.00     0.098 A 
ATOM     83  C   UNL A   1      30.954  28.628  24.342  1.00  0.00     0.030 A 
ATOM     84  N   UNL A   1      29.817  26.511  24.473  1.00  0.00    -0.255 NA
ATOM     85  C   UNL A   1      30.001  29.102  23.443  1.00  0.00     0.004 A 
ATOM     86  C   UNL A   1      28.917  26.994  23.586  1.00  0.00     0.111 A 
ATOM     87  C   UNL A   1      28.962  28.270  23.054  1.00  0.00     0.020 A 
ENDBRANCH  78  82
ENDBRANCH  75  76
ENDBRANCH  71  75
ENDBRANCH  66  69
ENDBRANCH  64  65
ENDBRANCH   1  64
TORSDOF 14
ENDMDL
MODEL 2
REMARK VINA RESULT:     -11.8      1.529      2.242
REMARK SMILES O=C(NCCCCNC(=O)c1cccnc1C[N@@H+]1CCC[C@H]1c1ccccn1)c1ccc(-c2c3nc(c(-c4c(F)cccc4F)c4ccc([nH]4)c(-c4c(F)cccc4F)c4nc(c(-c5c(F)cccc5F)c5ccc2[nH]5)C=C4)C=C3)cc1
REMARK SMILES IDX 6 1 5 2 4 3 3 4 1 5 2 6 29 8 30 9 82 10 31 11 81 12 32 13
REMARK SMILES IDX 33 14 34 15 75 16 35 17 80 18 74 19 76 20 36 21 79 22 73 23
REMARK SMILES IDX 72 24 37 26 63 27 46 28 62 29 47 30 50 31 61 32 77 33 48 34
REMARK SMILES IDX 49 35 60 37 78 38 51 39 38 40 39 41 44 42 40 43 41 44 43 45
REMARK SMILES IDX 45 46 42 47 64 48 65 49 70 50 66 51 67 52 69 53 71 54 68 55
REMARK SMILES IDX 52 56 53 57 58 58 54 59 55 60 57 61 59 62 56 63 7 64 8 65
REMARK SMILES IDX 9 66 10 68 11 69 12 70 16 71 13 72 15 73 14 74 17 75 18 76
REMARK SMILES IDX 19 77 22 78 20 80 21 81 23 82 24 83 28 84 25 85 27 86 26 87
REMARK H PARENT 3 7 76 25 50 36 8 67 18 79
REMARK Flexibility Score: inf
ROOT
ATOM      1  C   UNL A   1      36.666  20.054  24.996  1.00  0.00     0.023 C 
ENDROOT
BRANCH   1   2
ATOM      2  C   UNL A   1      38.107  19.658  24.678  1.00  0.00     0.023 C 
BRANCH   2   3
ATOM      3  C   UNL A   1      39.120  19.953  25.776  1.00  0.00     0.116 C 
BRANCH   3   4
ATOM      4  N   UNL A   1      40.195  18.975  25.835  1.00  0.00    -0.352 N 
ATOM      5  O   UNL A   1      42.325  18.233  25.929  1.00  0.00    -0.269 OA
ATOM      6  C   UNL A   1      41.542  19.165  26.049  1.00  0.00     0.251 C 
ATOM      7  H   UNL A   1      39.921  18.039  25.703  1.00  0.00     0.163 HD
BRANCH   6   8
ATOM      8  C   UNL A   1      42.045  20.513  26.399  1.00  0.00     0.039 A 
ATOM      9  C   UNL A   1      42.177  20.900  27.734  1.00  0.00     0.014 A 
ATOM     10  C   UNL A   1      42.380  21.400  25.373  1.00  0.00     0.014 A 
ATOM     11  C   UNL A   1      42.485  22.220  28.040  1.00  0.00     0.010 A 
ATOM     12  C   UNL A   1      42.784  22.701  25.687  1.00  0.00     0.010 A 
ATOM     13  C   UNL A   1      42.805  23.132  27.022  1.00  0.00    -0.014 A 
BRANCH  13  14
ATOM     14  C   UNL A   1      43.216  24.514  27.383  1.00  0.00     0.031 A 
ATOM     15  C   UNL A   1      44.655  24.943  27.312  1.00  0.00     0.074 A 
ATOM     16  C   UNL A   1      42.266  25.391  27.760  1.00  0.00     0.049 A 
ATOM     17  N   UNL A   1      45.181  26.109  27.600  1.00  0.00    -0.248 NA
ATOM     18  C   UNL A   1      45.632  23.937  26.872  1.00  0.00     0.031 C 
ATOM     19  C   UNL A   1      40.837  25.089  27.871  1.00  0.00     0.029 A 
ATOM     20  N   UNL A   1      42.353  26.714  28.107  1.00  0.00    -0.354 N 
ATOM     21  C   UNL A   1      46.548  25.972  27.392  1.00  0.00     0.074 A 
ATOM     22  C   UNL A   1      46.775  24.602  26.981  1.00  0.00     0.031 C 
ATOM     23  C   UNL A   1      40.178  26.202  28.221  1.00  0.00     0.029 A 
ATOM     24  C   UNL A   1      41.141  27.277  28.424  1.00  0.00     0.049 A 
ATOM     25  H   UNL A   1      43.202  27.213  28.125  1.00  0.00     0.167 HD
ATOM     26  C   UNL A   1      47.521  26.906  27.524  1.00  0.00     0.037 A 
ATOM     27  C   UNL A   1      40.837  28.515  28.855  1.00  0.00     0.037 A 
ATOM     28  C   UNL A   1      47.286  28.271  27.923  1.00  0.00     0.049 A 
ATOM     29  C   UNL A   1      41.938  29.517  29.029  1.00  0.00     0.074 A 
ATOM     30  C   UNL A   1      48.202  29.302  28.053  1.00  0.00     0.029 A 
ATOM     31  N   UNL A   1      46.047  28.795  28.265  1.00  0.00    -0.354 N 
ATOM     32  N   UNL A   1      43.222  29.383  28.797  1.00  0.00    -0.248 NA
ATOM     33  C   UNL A   1      41.551  30.843  29.528  1.00  0.00     0.031 C 
ATOM     34  C   UNL A   1      47.526  30.433  28.523  1.00  0.00     0.029 A 
ATOM     35  C   UNL A   1      46.179  30.126  28.631  1.00  0.00     0.049 A 
ATOM     36  H   UNL A   1      45.199  28.295  28.249  1.00  0.00     0.167 HD
ATOM     37  C   UNL A   1      43.792  30.610  29.102  1.00  0.00     0.074 A 
ATOM     38  C   UNL A   1      42.712  31.482  29.516  1.00  0.00     0.031 C 
ATOM     39  C   UNL A   1      45.095  30.983  29.042  1.00  0.00     0.037 A 
BRANCH  26  40
ATOM     40  C   UNL A   1      48.938  26.482  27.255  1.00  0.00     0.057 A 
ATOM     41  C   UNL A   1      49.771  25.988  28.268  1.00  0.00     0.134 A 
ATOM     42  C   UNL A   1      49.461  26.527  25.956  1.00  0.00     0.134 A 
ATOM     43  F   UNL A   1      49.336  25.926  29.536  1.00  0.00    -0.206 F 
ATOM     44  C   UNL A   1      51.079  25.577  28.003  1.00  0.00     0.040 A 
ATOM     45  C   UNL A   1      50.759  26.094  25.674  1.00  0.00     0.040 A 
ATOM     46  F   UNL A   1      48.717  26.980  24.937  1.00  0.00    -0.206 F 
ATOM     47  C   UNL A   1      51.573  25.623  26.701  1.00  0.00     0.006 A 
ENDBRANCH  26  40
BRANCH  27  48
ATOM     48  C   UNL A   1      39.427  28.862  29.157  1.00  0.00     0.057 A 
ATOM     49  C   UNL A   1      38.888  28.660  30.432  1.00  0.00     0.134 A 
ATOM     50  C   UNL A   1      38.590  29.421  28.182  1.00  0.00     0.134 A 
ATOM     51  F   UNL A   1      39.636  28.115  31.403  1.00  0.00    -0.206 F 
ATOM     52  C   UNL A   1      37.562  28.984  30.724  1.00  0.00     0.040 A 
ATOM     53  C   UNL A   1      37.271  29.778  28.468  1.00  0.00     0.040 A 
ATOM     54  F   UNL A   1      39.050  29.649  26.944  1.00  0.00    -0.206 F 
ATOM     55  C   UNL A   1      36.753  29.552  29.740  1.00  0.00     0.006 A 
ENDBRANCH  27  48
BRANCH  39  56
ATOM     56  C   UNL A   1      45.415  32.403  29.402  1.00  0.00     0.057 A 
ATOM     57  C   UNL A   1      45.799  32.772  30.698  1.00  0.00     0.134 A 
ATOM     58  C   UNL A   1      45.365  33.412  28.431  1.00  0.00     0.134 A 
ATOM     59  F   UNL A   1      45.851  31.857  31.677  1.00  0.00    -0.206 F 
ATOM     60  C   UNL A   1      46.096  34.098  31.021  1.00  0.00     0.040 A 
ATOM     61  C   UNL A   1      45.688  34.735  28.735  1.00  0.00     0.040 A 
ATOM     62  F   UNL A   1      45.012  33.126  27.168  1.00  0.00    -0.206 F 
ATOM     63  C   UNL A   1      46.046  35.081  30.036  1.00  0.00     0.006 A 
ENDBRANCH  39  56
ENDBRANCH  13  14
ENDBRANCH   6   8
ENDBRANCH   3   4
ENDBRANCH   2   3
ENDBRANCH   1   2
BRANCH   1  64
ATOM     64  C   UNL A   1      36.482  21.467  25.538  1.00  0.00     0.116 C 
BRANCH  64  65
ATOM     65  N   UNL A   1      35.525  21.532  26.629  1.00  0.00    -0.352 N 
ATOM     66  C   UNL A   1      34.171  21.737  26.579  1.00  0.00     0.253 C 
ATOM     67  H   UNL A   1      35.902  21.412  27.531  1.00  0.00     0.163 HD
ATOM     68  O   UNL A   1      33.509  21.783  27.610  1.00  0.00    -0.269 OA
BRANCH  66  69
ATOM     69  C   UNL A   1      33.501  21.862  25.276  1.00  0.00     0.067 A 
ATOM     70  C   UNL A   1      32.948  20.712  24.696  1.00  0.00     0.017 A 
ATOM     71  C   UNL A   1      33.347  23.093  24.635  1.00  0.00     0.107 A 
ATOM     72  C   UNL A   1      32.289  20.804  23.477  1.00  0.00     0.021 A 
ATOM     73  N   UNL A   1      32.656  23.184  23.459  1.00  0.00    -0.254 NA
ATOM     74  C   UNL A   1      32.162  22.053  22.907  1.00  0.00     0.111 A 
BRANCH  71  75
ATOM     75  C   UNL A   1      33.928  24.395  25.177  1.00  0.00     0.321 C 
BRANCH  75  76
ATOM     76  N   UNL A   1      33.020  25.312  25.908  1.00  0.00    -0.322 N 
ATOM     77  C   UNL A   1      31.848  24.659  26.485  1.00  0.00     0.263 C 
ATOM     78  C   UNL A   1      32.560  26.460  25.104  1.00  0.00     0.234 C 
ATOM     79  H   UNL A   1      33.614  25.650  26.666  1.00  0.00     0.349 HD
ATOM     80  C   UNL A   1      30.659  25.009  25.608  1.00  0.00     0.068 C 
ATOM     81  C   UNL A   1      31.092  26.194  24.759  1.00  0.00     0.078 C 
BRANCH  78  82
ATOM     82  C   UNL A   1      32.733  27.812  25.800  1.00  0.00     0.098 A 
ATOM     83  C   UNL A   1      33.900  28.141  26.495  1.00  0.00     0.030 A 
ATOM     84  N   UNL A   1      31.664  28.653  25.768  1.00  0.00    -0.255 NA
ATOM     85  C   UNL A   1      33.977  29.357  27.169  1.00  0.00     0.004 A 
ATOM     86  C   UNL A   1      31.774  29.834  26.419  1.00  0.00     0.111 A 
ATOM     87  C   UNL A   1      32.895  30.224  27.130  1.00  0.00     0.020 A 
ENDBRANCH  78  82
ENDBRANCH  75  76
ENDBRANCH  71  75
ENDBRANCH  66  69
ENDBRANCH  64  65
ENDBRANCH   1  64
TORSDOF 14
ENDMDL
MODEL 3
REMARK VINA RESULT:     -11.7      0.578      6.175
REMARK SMILES O=C(NCCCCNC(=O)c1cccnc1C[N@@H+]1CCC[C@H]1c1ccccn1)c1ccc(-c2c3nc(c(-c4c(F)cccc4F)c4ccc([nH]4)c(-c4c(F)cccc4F)c4nc(c(-c5c(F)cccc5F)c5ccc2[nH]5)C=C4)C=C3)cc1
REMARK SMILES IDX 6 1 5 2 4 3 3 4 1 5 2 6 29 8 30 9 82 10 31 11 81 12 32 13
REMARK SMILES IDX 33 14 34 15 75 16 35 17 80 18 74 19 76 20 36 21 79 22 73 23
REMARK SMILES IDX 72 24 37 26 63 27 46 28 62 29 47 30 50 31 61 32 77 33 48 34
REMARK SMILES IDX 49 35 60 37 78 38 51 39 38 40 39 41 44 42 40 43 41 44 43 45
REMARK SMILES IDX 45 46 42 47 64 48 65 49 70 50 66 51 67 52 69 53 71 54 68 55
REMARK SMILES IDX 52 56 53 57 58 58 54 59 55 60 57 61 59 62 56 63 7 64 8 65
REMARK SMILES IDX 9 66 10 68 11 69 12 70 16 71 13 72 15 73 14 74 17 75 18 76
REMARK SMILES IDX 19 77 22 78 20 80 21 81 23 82 24 83 28 84 25 85 27 86 26 87
REMARK H PARENT 3 7 76 25 50 36 8 67 18 79
REMARK Flexibility Score: inf
ROOT
ATOM      1  C   UNL A   1      37.062  21.083  24.269  1.00  0.00     0.023 C 
ENDROOT
BRANCH   1   2
ATOM      2  C   UNL A   1      37.752  19.919  24.977  1.00  0.00     0.023 C 
BRANCH   2   3
ATOM      3  C   UNL A   1      38.898  20.308  25.901  1.00  0.00     0.116 C 
BRANCH   3   4
ATOM      4  N   UNL A   1      40.014  19.376  25.846  1.00  0.00    -0.352 N 
ATOM      5  O   UNL A   1      42.173  18.717  25.861  1.00  0.00    -0.269 OA
ATOM      6  C   UNL A   1      41.351  19.594  26.091  1.00  0.00     0.251 C 
ATOM      7  H   UNL A   1      39.779  18.453  25.596  1.00  0.00     0.163 HD
BRANCH   6   8
ATOM      8  C   UNL A   1      41.796  20.908  26.607  1.00  0.00     0.039 A 
ATOM      9  C   UNL A   1      41.838  21.156  27.981  1.00  0.00     0.014 A 
ATOM     10  C   UNL A   1      42.169  21.904  25.701  1.00  0.00     0.014 A 
ATOM     11  C   UNL A   1      42.093  22.443  28.440  1.00  0.00     0.010 A 
ATOM     12  C   UNL A   1      42.518  23.173  26.172  1.00  0.00     0.010 A 
ATOM     13  C   UNL A   1      42.448  23.463  27.543  1.00  0.00    -0.014 A 
BRANCH  13  14
ATOM     14  C   UNL A   1      42.800  24.807  28.069  1.00  0.00     0.031 A 
ATOM     15  C   UNL A   1      41.746  25.851  28.309  1.00  0.00     0.074 A 
ATOM     16  C   UNL A   1      44.091  25.072  28.349  1.00  0.00     0.049 A 
ATOM     17  N   UNL A   1      41.887  27.075  28.757  1.00  0.00    -0.248 NA
ATOM     18  C   UNL A   1      40.357  25.482  28.001  1.00  0.00     0.031 C 
ATOM     19  C   UNL A   1      45.204  24.140  28.153  1.00  0.00     0.029 A 
ATOM     20  N   UNL A   1      44.685  26.193  28.868  1.00  0.00    -0.354 N 
ATOM     21  C   UNL A   1      40.611  27.626  28.768  1.00  0.00     0.074 A 
ATOM     22  C   UNL A   1      39.712  26.613  28.255  1.00  0.00     0.031 C 
ATOM     23  C   UNL A   1      46.337  24.711  28.582  1.00  0.00     0.029 A 
ATOM     24  C   UNL A   1      46.044  26.071  29.019  1.00  0.00     0.049 A 
ATOM     25  H   UNL A   1      44.185  27.006  29.110  1.00  0.00     0.167 HD
ATOM     26  C   UNL A   1      40.227  28.860  29.177  1.00  0.00     0.037 A 
ATOM     27  C   UNL A   1      46.962  26.960  29.440  1.00  0.00     0.037 A 
ATOM     28  C   UNL A   1      41.127  29.859  29.696  1.00  0.00     0.049 A 
ATOM     29  C   UNL A   1      46.513  28.332  29.850  1.00  0.00     0.074 A 
ATOM     30  C   UNL A   1      40.829  31.127  30.167  1.00  0.00     0.029 A 
ATOM     31  N   UNL A   1      42.501  29.707  29.805  1.00  0.00    -0.354 N 
ATOM     32  N   UNL A   1      45.300  28.827  29.885  1.00  0.00    -0.248 NA
ATOM     33  C   UNL A   1      47.560  29.269  30.273  1.00  0.00     0.031 C 
ATOM     34  C   UNL A   1      42.027  31.760  30.512  1.00  0.00     0.029 A 
ATOM     35  C   UNL A   1      43.068  30.868  30.310  1.00  0.00     0.049 A 
ATOM     36  H   UNL A   1      43.002  28.895  29.560  1.00  0.00     0.167 HD
ATOM     37  C   UNL A   1      45.435  30.126  30.354  1.00  0.00     0.074 A 
ATOM     38  C   UNL A   1      46.846  30.334  30.608  1.00  0.00     0.031 C 
ATOM     39  C   UNL A   1      44.475  31.062  30.558  1.00  0.00     0.037 A 
BRANCH  26  40
ATOM     40  C   UNL A   1      38.770  29.212  29.059  1.00  0.00     0.057 A 
ATOM     41  C   UNL A   1      38.196  29.608  27.844  1.00  0.00     0.134 A 
ATOM     42  C   UNL A   1      37.921  29.111  30.170  1.00  0.00     0.134 A 
ATOM     43  F   UNL A   1      38.953  29.733  26.744  1.00  0.00    -0.206 F 
ATOM     44  C   UNL A   1      36.837  29.912  27.743  1.00  0.00     0.040 A 
ATOM     45  C   UNL A   1      36.555  29.387  30.075  1.00  0.00     0.040 A 
ATOM     46  F   UNL A   1      38.401  28.729  31.362  1.00  0.00    -0.206 F 
ATOM     47  C   UNL A   1      36.011  29.795  28.859  1.00  0.00     0.006 A 
ENDBRANCH  26  40
BRANCH  27  48
ATOM     48  C   UNL A   1      48.394  26.576  29.483  1.00  0.00     0.057 A 
ATOM     49  C   UNL A   1      49.252  26.855  28.415  1.00  0.00     0.134 A 
ATOM     50  C   UNL A   1      48.941  25.934  30.602  1.00  0.00     0.134 A 
ATOM     51  F   UNL A   1      48.783  27.455  27.310  1.00  0.00    -0.206 F 
ATOM     52  C   UNL A   1      50.600  26.496  28.448  1.00  0.00     0.040 A 
ATOM     53  C   UNL A   1      50.294  25.596  30.662  1.00  0.00     0.040 A 
ATOM     54  F   UNL A   1      48.173  25.648  31.663  1.00  0.00    -0.206 F 
ATOM     55  C   UNL A   1      51.125  25.871  29.579  1.00  0.00     0.006 A 
ENDBRANCH  27  48
BRANCH  39  56
ATOM     56  C   UNL A   1      44.918  32.383  31.113  1.00  0.00     0.057 A 
ATOM     57  C   UNL A   1      45.016  32.614  32.492  1.00  0.00     0.134 A 
ATOM     58  C   UNL A   1      45.278  33.431  30.256  1.00  0.00     0.134 A 
ATOM     59  F   UNL A   1      44.670  31.657  33.367  1.00  0.00    -0.206 F 
ATOM     60  C   UNL A   1      45.430  33.848  32.998  1.00  0.00     0.040 A 
ATOM     61  C   UNL A   1      45.722  34.658  30.749  1.00  0.00     0.040 A 
ATOM     62  F   UNL A   1      45.215  33.274  28.925  1.00  0.00    -0.206 F 
ATOM     63  C   UNL A   1      45.791  34.871  32.124  1.00  0.00     0.006 A 
ENDBRANCH  39  56
ENDBRANCH  13  14
ENDBRANCH   6   8
ENDBRANCH   3   4
ENDBRANCH   2   3
ENDBRANCH   1   2
BRANCH   1  64
ATOM     64  C   UNL A   1      36.673  22.255  25.164  1.00  0.00     0.116 C 
BRANCH  64  65
ATOM     65  N   UNL A   1      35.896  21.846  26.321  1.00  0.00    -0.352 N 
ATOM     66  C   UNL A   1      34.536  21.736  26.453  1.00  0.00     0.253 C 
ATOM     67  H   UNL A   1      36.418  21.616  27.123  1.00  0.00     0.163 HD
ATOM     68  O   UNL A   1      34.038  21.393  27.520  1.00  0.00    -0.269 OA
BRANCH  66  69
ATOM     69  C   UNL A   1      33.669  21.996  25.294  1.00  0.00     0.067 A 
ATOM     70  C   UNL A   1      33.346  20.924  24.449  1.00  0.00     0.017 A 
ATOM     71  C   UNL A   1      33.113  23.252  25.047  1.00  0.00     0.107 A 
ATOM     72  C   UNL A   1      32.510  21.133  23.360  1.00  0.00     0.021 A 
ATOM     73  N   UNL A   1      32.253  23.440  24.001  1.00  0.00    -0.254 NA
ATOM     74  C   UNL A   1      31.986  22.396  23.185  1.00  0.00     0.111 A 
BRANCH  71  75
ATOM     75  C   UNL A   1      33.419  24.482  25.897  1.00  0.00     0.321 C 
BRANCH  75  76
ATOM     76  N   UNL A   1      33.014  25.808  25.375  1.00  0.00    -0.322 N 
ATOM     77  C   UNL A   1      34.076  26.812  25.405  1.00  0.00     0.263 C 
ATOM     78  C   UNL A   1      31.825  26.374  26.042  1.00  0.00     0.234 C 
ATOM     79  H   UNL A   1      32.786  25.601  24.402  1.00  0.00     0.349 HD
ATOM     80  C   UNL A   1      33.778  27.749  26.563  1.00  0.00     0.068 C 
ATOM     81  C   UNL A   1      32.325  27.509  26.940  1.00  0.00     0.078 C 
BRANCH  78  82
ATOM     82  C   UNL A   1      30.747  26.862  25.073  1.00  0.00     0.098 A 
ATOM     83  C   UNL A   1      29.597  26.113  24.809  1.00  0.00     0.030 A 
ATOM     84  N   UNL A   1      30.996  28.032  24.425  1.00  0.00    -0.255 NA
ATOM     85  C   UNL A   1      28.680  26.572  23.866  1.00  0.00     0.004 A 
ATOM     86  C   UNL A   1      30.080  28.461  23.526  1.00  0.00     0.111 A 
ATOM     87  C   UNL A   1      28.924  27.770  23.211  1.00  0.00     0.020 A 
ENDBRANCH  78  82
ENDBRANCH  75  76
ENDBRANCH  71  75
ENDBRANCH  66  69
ENDBRANCH  64  65
ENDBRANCH   1  64
TORSDOF 14
ENDMDL
