MODEL 1
REMARK VINA RESULT:     -10.9      0.000      0.000
REMARK SMILES Cc1cccc(C[N@@H+](C)C[C@]2(C(=O)NCCCCNC(=O)c3ccc(-c4c5nc(c(-c6c(F)cccc6F)c6ccc([nH]6)c(-c6c(F)cccc6F)c6nc(c(-c7c(F)cccc7F)c7ccc4[nH]7)C=C6)C=C5)cc3)CCOC2)n1
REMARK SMILES IDX 15 1 14 2 12 3 13 4 11 6 76 7 79 8 77 9 78 10 10 11 8 12
REMARK SMILES IDX 9 13 7 15 6 16 1 17 2 18 3 19 80 20 4 21 5 22 16 23 17 24
REMARK SMILES IDX 18 25 19 26 20 27 21 29 22 30 23 31 75 32 24 33 74 34 25 35
REMARK SMILES IDX 26 36 27 37 68 38 28 39 73 40 67 41 69 42 29 43 72 44 66 45
REMARK SMILES IDX 65 46 30 48 56 49 39 50 55 51 40 52 43 53 54 54 70 55 41 56
REMARK SMILES IDX 42 57 53 59 71 60 44 61 31 62 32 63 37 64 33 65 34 66 36 67
REMARK SMILES IDX 38 68 35 69 57 70 58 71 63 72 59 73 60 74 62 75 64 76 61 77
REMARK SMILES IDX 45 78 46 79 51 80 47 81 48 82 50 83 52 84 49 85
REMARK H PARENT 14 5 8 14 19 28 69 47 43 58
REMARK Flexibility Score: inf
ROOT
ATOM      1  C   UNL A   1      32.339  29.470  24.640  1.00  0.00     0.116 C 
ENDROOT
BRANCH   1   2
ATOM      2  N   UNL A   1      31.324  29.228  23.638  1.00  0.00    -0.355 N 
ATOM      3  C   UNL A   1      31.098  28.242  22.742  1.00  0.00     0.234 C 
ATOM      4  O   UNL A   1      30.215  28.537  21.936  1.00  0.00    -0.274 OA
ATOM      5  H   UNL A   1      30.648  29.941  23.599  1.00  0.00     0.163 HD
BRANCH   3   6
ATOM      6  C   UNL A   1      31.802  26.881  22.749  1.00  0.00     0.123 C 
ATOM      7  C   UNL A   1      31.474  25.997  21.542  1.00  0.00     0.054 C 
ATOM      8  C   UNL A   1      33.318  27.148  22.582  1.00  0.00     0.183 C 
ATOM      9  C   UNL A   1      32.823  25.524  21.042  1.00  0.00     0.161 C 
ATOM     10  O   UNL A   1      33.730  26.584  21.329  1.00  0.00    -0.380 OA
BRANCH   6  11
ATOM     11  C   UNL A   1      31.618  26.114  24.108  1.00  0.00     0.281 C 
BRANCH  11  12
ATOM     12  N   UNL A   1      31.987  24.712  24.366  1.00  0.00    -0.331 N 
ATOM     13  C   UNL A   1      30.884  23.788  24.565  1.00  0.00     0.333 C 
ATOM     14  H   UNL A   1      32.396  24.493  23.457  1.00  0.00     0.348 HD
BRANCH  12  15
ATOM     15  C   UNL A   1      33.064  24.469  25.356  1.00  0.00     0.319 C 
BRANCH  15  16
ATOM     16  C   UNL A   1      34.405  23.992  24.810  1.00  0.00     0.095 A 
ATOM     17  C   UNL A   1      37.849  23.800  26.080  1.00  0.00     0.067 C 
ATOM     18  C   UNL A   1      36.675  23.628  25.167  1.00  0.00     0.038 A 
ATOM     19  C   UNL A   1      36.825  23.038  23.917  1.00  0.00     0.023 A 
ATOM     20  N   UNL A   1      35.487  24.090  25.624  1.00  0.00    -0.252 NA
ATOM     21  C   UNL A   1      35.716  22.949  23.087  1.00  0.00     0.004 A 
ATOM     22  C   UNL A   1      34.498  23.448  23.529  1.00  0.00     0.030 A 
ENDBRANCH  15  16
ENDBRANCH  12  15
ENDBRANCH  11  12
ENDBRANCH   6  11
ENDBRANCH   3   6
ENDBRANCH   1   2
BRANCH   1  23
ATOM     23  C   UNL A   1      31.779  29.207  26.040  1.00  0.00     0.023 C 
BRANCH  23  24
ATOM     24  C   UNL A   1      32.550  28.168  26.862  1.00  0.00     0.023 C 
BRANCH  24  25
ATOM     25  C   UNL A   1      33.865  28.648  27.468  1.00  0.00     0.116 C 
BRANCH  25  26
ATOM     26  N   UNL A   1      33.824  30.043  27.864  1.00  0.00    -0.352 N 
ATOM     27  C   UNL A   1      34.808  30.812  28.436  1.00  0.00     0.251 C 
ATOM     28  H   UNL A   1      32.970  30.505  27.699  1.00  0.00     0.163 HD
ATOM     29  O   UNL A   1      34.560  31.947  28.819  1.00  0.00    -0.269 OA
BRANCH  27  30
ATOM     30  C   UNL A   1      36.160  30.247  28.618  1.00  0.00     0.039 A 
ATOM     31  C   UNL A   1      37.052  30.293  27.545  1.00  0.00     0.014 A 
ATOM     32  C   UNL A   1      36.548  29.685  29.839  1.00  0.00     0.014 A 
ATOM     33  C   UNL A   1      38.356  29.828  27.712  1.00  0.00     0.010 A 
ATOM     34  C   UNL A   1      37.867  29.279  30.023  1.00  0.00     0.010 A 
ATOM     35  C   UNL A   1      38.783  29.348  28.961  1.00  0.00    -0.014 A 
BRANCH  35  36
ATOM     36  C   UNL A   1      40.184  28.912  29.174  1.00  0.00     0.031 A 
ATOM     37  C   UNL A   1      41.182  29.852  29.788  1.00  0.00     0.074 A 
ATOM     38  C   UNL A   1      40.571  27.690  28.759  1.00  0.00     0.049 A 
ATOM     39  N   UNL A   1      42.464  29.682  29.987  1.00  0.00    -0.248 NA
ATOM     40  C   UNL A   1      40.677  31.168  30.209  1.00  0.00     0.031 C 
ATOM     41  C   UNL A   1      39.705  26.703  28.111  1.00  0.00     0.029 A 
ATOM     42  N   UNL A   1      41.797  27.076  28.807  1.00  0.00    -0.354 N 
ATOM     43  C   UNL A   1      42.920  30.872  30.540  1.00  0.00     0.074 A 
ATOM     44  C   UNL A   1      41.789  31.771  30.602  1.00  0.00     0.031 C 
ATOM     45  C   UNL A   1      40.424  25.601  27.837  1.00  0.00     0.029 A 
ATOM     46  C   UNL A   1      41.805  25.817  28.257  1.00  0.00     0.049 A 
ATOM     47  H   UNL A   1      42.595  27.497  29.199  1.00  0.00     0.167 HD
ATOM     48  C   UNL A   1      44.165  31.178  30.976  1.00  0.00     0.037 A 
ATOM     49  C   UNL A   1      42.814  24.941  28.101  1.00  0.00     0.037 A 
ATOM     50  C   UNL A   1      45.282  30.271  30.938  1.00  0.00     0.049 A 
ATOM     51  C   UNL A   1      44.187  25.306  28.591  1.00  0.00     0.074 A 
ATOM     52  C   UNL A   1      46.567  30.465  31.412  1.00  0.00     0.029 A 
ATOM     53  N   UNL A   1      45.245  28.997  30.391  1.00  0.00    -0.354 N 
ATOM     54  N   UNL A   1      44.591  26.409  29.173  1.00  0.00    -0.248 NA
ATOM     55  C   UNL A   1      45.245  24.301  28.409  1.00  0.00     0.031 C 
ATOM     56  C   UNL A   1      47.320  29.324  31.118  1.00  0.00     0.029 A 
ATOM     57  C   UNL A   1      46.491  28.401  30.499  1.00  0.00     0.049 A 
ATOM     58  H   UNL A   1      44.451  28.578  29.987  1.00  0.00     0.167 HD
ATOM     59  C   UNL A   1      45.939  26.223  29.448  1.00  0.00     0.074 A 
ATOM     60  C   UNL A   1      46.282  24.897  28.981  1.00  0.00     0.031 C 
ATOM     61  C   UNL A   1      46.814  27.076  30.035  1.00  0.00     0.037 A 
BRANCH  48  62
ATOM     62  C   UNL A   1      44.382  32.553  31.535  1.00  0.00     0.057 A 
ATOM     63  C   UNL A   1      44.202  32.833  32.897  1.00  0.00     0.134 A 
ATOM     64  C   UNL A   1      44.803  33.603  30.711  1.00  0.00     0.134 A 
ATOM     65  F   UNL A   1      43.788  31.874  33.738  1.00  0.00    -0.206 F 
ATOM     66  C   UNL A   1      44.408  34.114  33.412  1.00  0.00     0.040 A 
ATOM     67  C   UNL A   1      45.038  34.882  31.219  1.00  0.00     0.040 A 
ATOM     68  F   UNL A   1      44.999  33.402  29.398  1.00  0.00    -0.206 F 
ATOM     69  C   UNL A   1      44.833  35.141  32.573  1.00  0.00     0.006 A 
ENDBRANCH  48  62
BRANCH  49  70
ATOM     70  C   UNL A   1      42.560  23.622  27.468  1.00  0.00     0.057 A 
ATOM     71  C   UNL A   1      42.614  23.467  26.078  1.00  0.00     0.134 A 
ATOM     72  C   UNL A   1      42.255  22.490  28.232  1.00  0.00     0.134 A 
ATOM     73  F   UNL A   1      42.884  24.521  25.292  1.00  0.00    -0.206 F 
ATOM     74  C   UNL A   1      42.356  22.239  25.469  1.00  0.00     0.040 A 
ATOM     75  C   UNL A   1      42.019  21.250  27.638  1.00  0.00     0.040 A 
ATOM     76  F   UNL A   1      42.196  22.572  29.570  1.00  0.00    -0.206 F 
ATOM     77  C   UNL A   1      42.062  21.124  26.251  1.00  0.00     0.006 A 
ENDBRANCH  49  70
BRANCH  61  78
ATOM     78  C   UNL A   1      48.217  26.588  30.237  1.00  0.00     0.057 A 
ATOM     79  C   UNL A   1      48.583  25.844  31.365  1.00  0.00     0.134 A 
ATOM     80  C   UNL A   1      49.200  26.827  29.270  1.00  0.00     0.134 A 
ATOM     81  F   UNL A   1      47.691  25.593  32.335  1.00  0.00    -0.206 F 
ATOM     82  C   UNL A   1      49.886  25.369  31.533  1.00  0.00     0.040 A 
ATOM     83  C   UNL A   1      50.499  26.337  29.414  1.00  0.00     0.040 A 
ATOM     84  F   UNL A   1      48.911  27.527  28.162  1.00  0.00    -0.206 F 
ATOM     85  C   UNL A   1      50.845  25.610  30.550  1.00  0.00     0.006 A 
ENDBRANCH  61  78
ENDBRANCH  35  36
ENDBRANCH  27  30
ENDBRANCH  25  26
ENDBRANCH  24  25
ENDBRANCH  23  24
ENDBRANCH   1  23
TORSDOF 15
ENDMDL
MODEL 2
REMARK VINA RESULT:     -10.9      3.844      5.913
REMARK SMILES Cc1cccc(C[N@@H+](C)C[C@]2(C(=O)NCCCCNC(=O)c3ccc(-c4c5nc(c(-c6c(F)cccc6F)c6ccc([nH]6)c(-c6c(F)cccc6F)c6nc(c(-c7c(F)cccc7F)c7ccc4[nH]7)C=C6)C=C5)cc3)CCOC2)n1
REMARK SMILES IDX 15 1 14 2 12 3 13 4 11 6 76 7 79 8 77 9 78 10 10 11 8 12
REMARK SMILES IDX 9 13 7 15 6 16 1 17 2 18 3 19 80 20 4 21 5 22 16 23 17 24
REMARK SMILES IDX 18 25 19 26 20 27 21 29 22 30 23 31 75 32 24 33 74 34 25 35
REMARK SMILES IDX 26 36 27 37 68 38 28 39 73 40 67 41 69 42 29 43 72 44 66 45
REMARK SMILES IDX 65 46 30 48 56 49 39 50 55 51 40 52 43 53 54 54 70 55 41 56
REMARK SMILES IDX 42 57 53 59 71 60 44 61 31 62 32 63 37 64 33 65 34 66 36 67
REMARK SMILES IDX 38 68 35 69 57 70 58 71 63 72 59 73 60 74 62 75 64 76 61 77
REMARK SMILES IDX 45 78 46 79 51 80 47 81 48 82 50 83 52 84 49 85
REMARK H PARENT 14 5 8 14 19 28 69 47 43 58
REMARK Flexibility Score: inf
ROOT
ATOM      1  C   UNL A   1      32.395  29.924  26.484  1.00  0.00     0.116 C 
ENDROOT
BRANCH   1   2
ATOM      2  N   UNL A   1      31.687  28.776  27.008  1.00  0.00    -0.355 N 
ATOM      3  C   UNL A   1      31.502  27.506  26.585  1.00  0.00     0.234 C 
ATOM      4  O   UNL A   1      30.654  26.911  27.251  1.00  0.00    -0.274 OA
ATOM      5  H   UNL A   1      31.240  28.961  27.865  1.00  0.00     0.163 HD
BRANCH   3   6
ATOM      6  C   UNL A   1      32.289  26.844  25.449  1.00  0.00     0.123 C 
ATOM      7  C   UNL A   1      33.810  26.957  25.589  1.00  0.00     0.054 C 
ATOM      8  C   UNL A   1      32.042  25.319  25.548  1.00  0.00     0.183 C 
ATOM      9  C   UNL A   1      34.315  25.547  25.360  1.00  0.00     0.161 C 
ATOM     10  O   UNL A   1      33.293  24.689  25.858  1.00  0.00    -0.380 OA
BRANCH   6  11
ATOM     11  C   UNL A   1      31.793  27.299  24.029  1.00  0.00     0.281 C 
BRANCH  11  12
ATOM     12  N   UNL A   1      30.420  27.702  23.680  1.00  0.00    -0.331 N 
ATOM     13  C   UNL A   1      29.391  26.698  23.875  1.00  0.00     0.333 C 
ATOM     14  H   UNL A   1      30.283  28.411  24.401  1.00  0.00     0.348 HD
BRANCH  12  15
ATOM     15  C   UNL A   1      30.232  28.407  22.389  1.00  0.00     0.319 C 
BRANCH  15  16
ATOM     16  C   UNL A   1      29.484  29.734  22.433  1.00  0.00     0.095 A 
ATOM     17  C   UNL A   1      28.028  32.021  19.951  1.00  0.00     0.067 C 
ATOM     18  C   UNL A   1      28.392  31.435  21.279  1.00  0.00     0.038 A 
ATOM     19  C   UNL A   1      28.029  32.069  22.462  1.00  0.00     0.023 A 
ATOM     20  N   UNL A   1      29.097  30.279  21.251  1.00  0.00    -0.252 NA
ATOM     21  C   UNL A   1      28.435  31.511  23.667  1.00  0.00     0.004 A 
ATOM     22  C   UNL A   1      29.186  30.343  23.653  1.00  0.00     0.030 A 
ENDBRANCH  15  16
ENDBRANCH  12  15
ENDBRANCH  11  12
ENDBRANCH   6  11
ENDBRANCH   3   6
ENDBRANCH   1   2
BRANCH   1  23
ATOM     23  C   UNL A   1      31.405  30.997  26.026  1.00  0.00     0.023 C 
BRANCH  23  24
ATOM     24  C   UNL A   1      31.393  32.274  26.874  1.00  0.00     0.023 C 
BRANCH  24  25
ATOM     25  C   UNL A   1      32.689  33.078  26.876  1.00  0.00     0.116 C 
BRANCH  25  26
ATOM     26  N   UNL A   1      32.592  34.298  27.654  1.00  0.00    -0.352 N 
ATOM     27  C   UNL A   1      33.310  34.682  28.760  1.00  0.00     0.251 C 
ATOM     28  H   UNL A   1      31.916  34.944  27.346  1.00  0.00     0.163 HD
ATOM     29  O   UNL A   1      33.012  35.701  29.368  1.00  0.00    -0.269 OA
BRANCH  27  30
ATOM     30  C   UNL A   1      34.425  33.837  29.233  1.00  0.00     0.039 A 
ATOM     31  C   UNL A   1      35.729  34.204  28.895  1.00  0.00     0.014 A 
ATOM     32  C   UNL A   1      34.188  32.699  30.010  1.00  0.00     0.014 A 
ATOM     33  C   UNL A   1      36.804  33.462  29.385  1.00  0.00     0.010 A 
ATOM     34  C   UNL A   1      35.262  31.997  30.550  1.00  0.00     0.010 A 
ATOM     35  C   UNL A   1      36.580  32.373  30.243  1.00  0.00    -0.014 A 
BRANCH  35  36
ATOM     36  C   UNL A   1      37.712  31.614  30.827  1.00  0.00     0.031 A 
ATOM     37  C   UNL A   1      38.169  31.900  32.229  1.00  0.00     0.074 A 
ATOM     38  C   UNL A   1      38.368  30.712  30.072  1.00  0.00     0.049 A 
ATOM     39  N   UNL A   1      39.181  31.397  32.888  1.00  0.00    -0.248 NA
ATOM     40  C   UNL A   1      37.400  32.904  32.982  1.00  0.00     0.031 C 
ATOM     41  C   UNL A   1      38.047  30.377  28.683  1.00  0.00     0.029 A 
ATOM     42  N   UNL A   1      39.451  29.921  30.363  1.00  0.00    -0.354 N 
ATOM     43  C   UNL A   1      39.181  32.033  34.122  1.00  0.00     0.074 A 
ATOM     44  C   UNL A   1      38.098  32.991  34.105  1.00  0.00     0.031 C 
ATOM     45  C   UNL A   1      38.904  29.438  28.249  1.00  0.00     0.029 A 
ATOM     46  C   UNL A   1      39.853  29.131  29.314  1.00  0.00     0.049 A 
ATOM     47  H   UNL A   1      39.896  29.919  31.240  1.00  0.00     0.167 HD
ATOM     48  C   UNL A   1      39.997  31.821  35.182  1.00  0.00     0.037 A 
ATOM     49  C   UNL A   1      40.878  28.264  29.219  1.00  0.00     0.037 A 
ATOM     50  C   UNL A   1      41.058  30.848  35.205  1.00  0.00     0.049 A 
ATOM     51  C   UNL A   1      41.772  28.049  30.408  1.00  0.00     0.074 A 
ATOM     52  C   UNL A   1      41.900  30.515  36.251  1.00  0.00     0.029 A 
ATOM     53  N   UNL A   1      41.422  30.053  34.129  1.00  0.00    -0.354 N 
ATOM     54  N   UNL A   1      41.720  28.609  31.592  1.00  0.00    -0.248 NA
ATOM     55  C   UNL A   1      42.864  27.078  30.250  1.00  0.00     0.031 C 
ATOM     56  C   UNL A   1      42.800  29.546  35.797  1.00  0.00     0.029 A 
ATOM     57  C   UNL A   1      42.490  29.244  34.480  1.00  0.00     0.049 A 
ATOM     58  H   UNL A   1      40.986  30.062  33.246  1.00  0.00     0.167 HD
ATOM     59  C   UNL A   1      42.753  28.042  32.327  1.00  0.00     0.074 A 
ATOM     60  C   UNL A   1      43.407  27.084  31.460  1.00  0.00     0.031 C 
ATOM     61  C   UNL A   1      43.125  28.291  33.606  1.00  0.00     0.037 A 
BRANCH  48  62
ATOM     62  C   UNL A   1      39.772  32.660  36.406  1.00  0.00     0.057 A 
ATOM     63  C   UNL A   1      40.528  33.813  36.660  1.00  0.00     0.134 A 
ATOM     64  C   UNL A   1      38.770  32.329  37.326  1.00  0.00     0.134 A 
ATOM     65  F   UNL A   1      41.510  34.178  35.824  1.00  0.00    -0.206 F 
ATOM     66  C   UNL A   1      40.311  34.591  37.798  1.00  0.00     0.040 A 
ATOM     67  C   UNL A   1      38.527  33.113  38.455  1.00  0.00     0.040 A 
ATOM     68  F   UNL A   1      38.007  31.241  37.141  1.00  0.00    -0.206 F 
ATOM     69  C   UNL A   1      39.305  34.245  38.697  1.00  0.00     0.006 A 
ENDBRANCH  48  62
BRANCH  49  70
ATOM     70  C   UNL A   1      41.104  27.518  27.956  1.00  0.00     0.057 A 
ATOM     71  C   UNL A   1      41.878  28.063  26.925  1.00  0.00     0.134 A 
ATOM     72  C   UNL A   1      40.552  26.249  27.746  1.00  0.00     0.134 A 
ATOM     73  F   UNL A   1      42.419  29.283  27.061  1.00  0.00    -0.206 F 
ATOM     74  C   UNL A   1      42.081  27.382  25.724  1.00  0.00     0.040 A 
ATOM     75  C   UNL A   1      40.767  25.546  26.559  1.00  0.00     0.040 A 
ATOM     76  F   UNL A   1      39.807  25.669  28.698  1.00  0.00    -0.206 F 
ATOM     77  C   UNL A   1      41.528  26.116  25.541  1.00  0.00     0.006 A 
ENDBRANCH  49  70
BRANCH  61  78
ATOM     78  C   UNL A   1      44.269  27.494  34.156  1.00  0.00     0.057 A 
ATOM     79  C   UNL A   1      44.078  26.236  34.741  1.00  0.00     0.134 A 
ATOM     80  C   UNL A   1      45.582  27.971  34.057  1.00  0.00     0.134 A 
ATOM     81  F   UNL A   1      42.844  25.729  34.877  1.00  0.00    -0.206 F 
ATOM     82  C   UNL A   1      45.153  25.488  35.225  1.00  0.00     0.040 A 
ATOM     83  C   UNL A   1      46.667  27.222  34.516  1.00  0.00     0.040 A 
ATOM     84  F   UNL A   1      45.833  29.166  33.501  1.00  0.00    -0.206 F 
ATOM     85  C   UNL A   1      46.453  25.978  35.105  1.00  0.00     0.006 A 
ENDBRANCH  61  78
ENDBRANCH  35  36
ENDBRANCH  27  30
ENDBRANCH  25  26
ENDBRANCH  24  25
ENDBRANCH  23  24
ENDBRANCH   1  23
TORSDOF 15
ENDMDL
MODEL 3
REMARK VINA RESULT:     -10.9      3.993      7.952
REMARK SMILES Cc1cccc(C[N@@H+](C)C[C@]2(C(=O)NCCCCNC(=O)c3ccc(-c4c5nc(c(-c6c(F)cccc6F)c6ccc([nH]6)c(-c6c(F)cccc6F)c6nc(c(-c7c(F)cccc7F)c7ccc4[nH]7)C=C6)C=C5)cc3)CCOC2)n1
REMARK SMILES IDX 15 1 14 2 12 3 13 4 11 6 76 7 79 8 77 9 78 10 10 11 8 12
REMARK SMILES IDX 9 13 7 15 6 16 1 17 2 18 3 19 80 20 4 21 5 22 16 23 17 24
REMARK SMILES IDX 18 25 19 26 20 27 21 29 22 30 23 31 75 32 24 33 74 34 25 35
REMARK SMILES IDX 26 36 27 37 68 38 28 39 73 40 67 41 69 42 29 43 72 44 66 45
REMARK SMILES IDX 65 46 30 48 56 49 39 50 55 51 40 52 43 53 54 54 70 55 41 56
REMARK SMILES IDX 42 57 53 59 71 60 44 61 31 62 32 63 37 64 33 65 34 66 36 67
REMARK SMILES IDX 38 68 35 69 57 70 58 71 63 72 59 73 60 74 62 75 64 76 61 77
REMARK SMILES IDX 45 78 46 79 51 80 47 81 48 82 50 83 52 84 49 85
REMARK H PARENT 14 5 8 14 19 28 69 47 43 58
REMARK Flexibility Score: inf
ROOT
ATOM      1  C   UNL A   1      32.001  30.027  25.432  1.00  0.00     0.116 C 
ENDROOT
BRANCH   1   2
ATOM      2  N   UNL A   1      30.814  30.217  24.625  1.00  0.00    -0.355 N 
ATOM      3  C   UNL A   1      30.134  29.445  23.749  1.00  0.00     0.234 C 
ATOM      4  O   UNL A   1      29.279  30.082  23.133  1.00  0.00    -0.274 OA
ATOM      5  H   UNL A   1      30.412  31.107  24.742  1.00  0.00     0.163 HD
BRANCH   3   6
ATOM      6  C   UNL A   1      30.344  27.938  23.571  1.00  0.00     0.123 C 
ATOM      7  C   UNL A   1      30.659  27.189  24.869  1.00  0.00     0.054 C 
ATOM      8  C   UNL A   1      28.985  27.332  23.141  1.00  0.00     0.183 C 
ATOM      9  C   UNL A   1      29.717  26.003  24.859  1.00  0.00     0.161 C 
ATOM     10  O   UNL A   1      28.546  26.451  24.184  1.00  0.00    -0.380 OA
BRANCH   6  11
ATOM     11  C   UNL A   1      31.376  27.604  22.434  1.00  0.00     0.281 C 
BRANCH  11  12
ATOM     12  N   UNL A   1      32.760  27.140  22.632  1.00  0.00    -0.331 N 
ATOM     13  C   UNL A   1      33.800  27.964  22.042  1.00  0.00     0.333 C 
ATOM     14  H   UNL A   1      32.820  27.267  23.642  1.00  0.00     0.348 HD
BRANCH  12  15
ATOM     15  C   UNL A   1      33.029  25.701  22.395  1.00  0.00     0.319 C 
BRANCH  15  16
ATOM     16  C   UNL A   1      33.879  24.981  23.434  1.00  0.00     0.095 A 
ATOM     17  C   UNL A   1      36.647  22.562  23.356  1.00  0.00     0.067 C 
ATOM     18  C   UNL A   1      35.633  23.522  23.896  1.00  0.00     0.038 A 
ATOM     19  C   UNL A   1      35.519  23.744  25.264  1.00  0.00     0.023 A 
ATOM     20  N   UNL A   1      34.840  24.134  22.984  1.00  0.00    -0.252 NA
ATOM     21  C   UNL A   1      34.529  24.604  25.718  1.00  0.00     0.004 A 
ATOM     22  C   UNL A   1      33.688  25.214  24.796  1.00  0.00     0.030 A 
ENDBRANCH  15  16
ENDBRANCH  12  15
ENDBRANCH  11  12
ENDBRANCH   6  11
ENDBRANCH   3   6
ENDBRANCH   1   2
BRANCH   1  23
ATOM     23  C   UNL A   1      31.804  30.639  26.820  1.00  0.00     0.023 C 
BRANCH  23  24
ATOM     24  C   UNL A   1      31.622  32.161  26.838  1.00  0.00     0.023 C 
BRANCH  24  25
ATOM     25  C   UNL A   1      32.847  32.969  27.253  1.00  0.00     0.116 C 
BRANCH  25  26
ATOM     26  N   UNL A   1      32.510  34.301  27.719  1.00  0.00    -0.352 N 
ATOM     27  C   UNL A   1      33.054  35.022  28.753  1.00  0.00     0.251 C 
ATOM     28  H   UNL A   1      31.789  34.753  27.224  1.00  0.00     0.163 HD
ATOM     29  O   UNL A   1      32.563  36.091  29.087  1.00  0.00    -0.269 OA
BRANCH  27  30
ATOM     30  C   UNL A   1      34.217  34.481  29.485  1.00  0.00     0.039 A 
ATOM     31  C   UNL A   1      33.991  33.777  30.670  1.00  0.00     0.014 A 
ATOM     32  C   UNL A   1      35.518  34.657  29.004  1.00  0.00     0.014 A 
ATOM     33  C   UNL A   1      35.065  33.197  31.344  1.00  0.00     0.010 A 
ATOM     34  C   UNL A   1      36.581  34.025  29.643  1.00  0.00     0.010 A 
ATOM     35  C   UNL A   1      36.364  33.289  30.819  1.00  0.00    -0.014 A 
BRANCH  35  36
ATOM     36  C   UNL A   1      37.508  32.622  31.487  1.00  0.00     0.031 A 
ATOM     37  C   UNL A   1      38.204  31.470  30.821  1.00  0.00     0.074 A 
ATOM     38  C   UNL A   1      37.879  33.016  32.721  1.00  0.00     0.049 A 
ATOM     39  N   UNL A   1      39.171  30.714  31.273  1.00  0.00    -0.248 NA
ATOM     40  C   UNL A   1      37.732  31.102  29.476  1.00  0.00     0.031 C 
ATOM     41  C   UNL A   1      37.254  34.094  33.489  1.00  0.00     0.029 A 
ATOM     42  N   UNL A   1      38.864  32.544  33.550  1.00  0.00    -0.354 N 
ATOM     43  C   UNL A   1      39.411  29.774  30.281  1.00  0.00     0.074 A 
ATOM     44  C   UNL A   1      38.459  30.024  29.221  1.00  0.00     0.031 C 
ATOM     45  C   UNL A   1      37.881  34.212  34.671  1.00  0.00     0.029 A 
ATOM     46  C   UNL A   1      38.926  33.197  34.758  1.00  0.00     0.049 A 
ATOM     47  H   UNL A   1      39.469  31.808  33.305  1.00  0.00     0.167 HD
ATOM     48  C   UNL A   1      40.355  28.804  30.246  1.00  0.00     0.037 A 
ATOM     49  C   UNL A   1      39.730  32.994  35.818  1.00  0.00     0.037 A 
ATOM     50  C   UNL A   1      41.319  28.575  31.291  1.00  0.00     0.049 A 
ATOM     51  C   UNL A   1      40.768  31.908  35.756  1.00  0.00     0.074 A 
ATOM     52  C   UNL A   1      42.354  27.657  31.323  1.00  0.00     0.029 A 
ATOM     53  N   UNL A   1      41.362  29.270  32.490  1.00  0.00    -0.354 N 
ATOM     54  N   UNL A   1      41.029  31.069  34.784  1.00  0.00    -0.248 NA
ATOM     55  C   UNL A   1      41.627  31.745  36.938  1.00  0.00     0.031 C 
ATOM     56  C   UNL A   1      43.001  27.770  32.558  1.00  0.00     0.029 A 
ATOM     57  C   UNL A   1      42.395  28.789  33.277  1.00  0.00     0.049 A 
ATOM     58  H   UNL A   1      40.750  29.998  32.743  1.00  0.00     0.167 HD
ATOM     59  C   UNL A   1      42.095  30.296  35.224  1.00  0.00     0.074 A 
ATOM     60  C   UNL A   1      42.441  30.775  36.545  1.00  0.00     0.031 C 
ATOM     61  C   UNL A   1      42.731  29.281  34.588  1.00  0.00     0.037 A 
BRANCH  48  62
ATOM     62  C   UNL A   1      40.391  27.917  29.036  1.00  0.00     0.057 A 
ATOM     63  C   UNL A   1      39.653  26.728  28.971  1.00  0.00     0.134 A 
ATOM     64  C   UNL A   1      41.148  28.269  27.912  1.00  0.00     0.134 A 
ATOM     65  F   UNL A   1      38.917  26.327  30.018  1.00  0.00    -0.206 F 
ATOM     66  C   UNL A   1      39.687  25.908  27.841  1.00  0.00     0.040 A 
ATOM     67  C   UNL A   1      41.170  27.472  26.767  1.00  0.00     0.040 A 
ATOM     68  F   UNL A   1      41.874  29.398  27.906  1.00  0.00    -0.206 F 
ATOM     69  C   UNL A   1      40.443  26.283  26.733  1.00  0.00     0.006 A 
ENDBRANCH  48  62
BRANCH  49  70
ATOM     70  C   UNL A   1      39.599  33.850  37.023  1.00  0.00     0.057 A 
ATOM     71  C   UNL A   1      38.750  33.488  38.076  1.00  0.00     0.134 A 
ATOM     72  C   UNL A   1      40.311  35.048  37.152  1.00  0.00     0.134 A 
ATOM     73  F   UNL A   1      38.027  32.360  38.002  1.00  0.00    -0.206 F 
ATOM     74  C   UNL A   1      38.601  34.294  39.205  1.00  0.00     0.040 A 
ATOM     75  C   UNL A   1      40.191  35.852  38.286  1.00  0.00     0.040 A 
ATOM     76  F   UNL A   1      41.147  35.445  36.181  1.00  0.00    -0.206 F 
ATOM     77  C   UNL A   1      39.327  35.478  39.314  1.00  0.00     0.006 A 
ENDBRANCH  49  70
BRANCH  61  78
ATOM     78  C   UNL A   1      43.886  28.644  35.300  1.00  0.00     0.057 A 
ATOM     79  C   UNL A   1      43.716  27.532  36.134  1.00  0.00     0.134 A 
ATOM     80  C   UNL A   1      45.189  29.121  35.112  1.00  0.00     0.134 A 
ATOM     81  F   UNL A   1      42.492  27.036  36.365  1.00  0.00    -0.206 F 
ATOM     82  C   UNL A   1      44.801  26.927  36.771  1.00  0.00     0.040 A 
ATOM     83  C   UNL A   1      46.285  28.510  35.724  1.00  0.00     0.040 A 
ATOM     84  F   UNL A   1      45.420  30.178  34.319  1.00  0.00    -0.206 F 
ATOM     85  C   UNL A   1      46.091  27.412  36.559  1.00  0.00     0.006 A 
ENDBRANCH  61  78
ENDBRANCH  35  36
ENDBRANCH  27  30
ENDBRANCH  25  26
ENDBRANCH  24  25
ENDBRANCH  23  24
ENDBRANCH   1  23
TORSDOF 15
ENDMDL
