MODEL 1
REMARK VINA RESULT:     -10.6      0.000      0.000
REMARK SMILES COC(=O)CCN(C)C(=O)NCc1ccc(C(=O)NCCCCNC(=O)c2ccc(-c3c4nc(c(-c5c(F)cccc5F)c5ccc([nH]5)c(-c5c(F)cccc5F)c5nc(c(-c6c(F)cccc6F)c6ccc3[nH]6)C=C5)C=C4)cc2)o1
REMARK SMILES IDX 17 1 18 2 19 3 16 5 13 6 14 7 81 8 15 9 12 10 11 11 9 12
REMARK SMILES IDX 10 13 7 15 8 16 6 17 5 18 3 19 4 20 2 21 1 22 20 23 21 24
REMARK SMILES IDX 22 25 23 26 24 27 25 28 26 30 27 31 28 32 80 33 29 34 79 35
REMARK SMILES IDX 30 36 31 37 32 38 73 39 33 40 78 41 72 42 74 43 34 44 77 45
REMARK SMILES IDX 71 46 70 47 35 49 61 50 44 51 60 52 45 53 48 54 59 55 75 56
REMARK SMILES IDX 46 57 47 58 58 60 76 61 49 62 36 63 37 64 42 65 38 66 39 67
REMARK SMILES IDX 41 68 43 69 40 70 62 71 63 72 68 73 64 74 65 75 67 76 69 77
REMARK SMILES IDX 66 78 50 79 51 80 56 81 52 82 53 83 55 84 57 85 54 86
REMARK H PARENT 19 4 11 14 24 29 74 48 48 59
REMARK Flexibility Score: inf
ROOT
ATOM      1  C   UNL A   1      33.900  22.097  26.871  1.00  0.00     0.286 C 
ATOM      2  O   UNL A   1      33.434  21.911  27.998  1.00  0.00    -0.266 OA
ATOM      3  N   UNL A   1      34.382  20.975  26.237  1.00  0.00    -0.349 N 
ATOM      4  H   UNL A   1      34.339  20.149  26.772  1.00  0.00     0.163 HD
ENDROOT
BRANCH   1   5
ATOM      5  C   UNL A   1      33.935  23.404  26.238  1.00  0.00     0.191 A 
ATOM      6  C   UNL A   1      33.083  25.411  25.847  1.00  0.00     0.124 A 
ATOM      7  C   UNL A   1      34.234  25.325  25.095  1.00  0.00     0.048 A 
ATOM      8  O   UNL A   1      32.900  24.260  26.545  1.00  0.00    -0.454 OA
ATOM      9  C   UNL A   1      34.789  24.057  25.366  1.00  0.00     0.056 A 
BRANCH   6  10
ATOM     10  C   UNL A   1      32.064  26.477  26.029  1.00  0.00     0.193 C 
BRANCH  10  11
ATOM     11  N   UNL A   1      30.854  26.020  25.385  1.00  0.00    -0.331 N 
ATOM     12  C   UNL A   1      30.009  26.522  24.475  1.00  0.00     0.317 C 
ATOM     13  O   UNL A   1      28.846  26.117  24.567  1.00  0.00    -0.249 OA
ATOM     14  H   UNL A   1      30.586  25.122  25.689  1.00  0.00     0.165 HD
BRANCH  12  15
ATOM     15  N   UNL A   1      30.419  27.307  23.434  1.00  0.00    -0.327 N 
ATOM     16  C   UNL A   1      31.233  26.893  22.306  1.00  0.00     0.148 C 
BRANCH  15  17
ATOM     17  C   UNL A   1      29.790  28.633  23.338  1.00  0.00     0.132 C 
BRANCH  17  18
ATOM     18  C   UNL A   1      28.322  28.548  22.914  1.00  0.00     0.144 C 
BRANCH  18  19
ATOM     19  C   UNL A   1      27.888  29.804  22.201  1.00  0.00     0.307 C 
ATOM     20  O   UNL A   1      28.124  30.032  21.021  1.00  0.00    -0.252 OA
BRANCH  19  21
ATOM     21  O   UNL A   1      27.228  30.639  23.051  1.00  0.00    -0.469 OA
ATOM     22  C   UNL A   1      27.971  31.791  23.454  1.00  0.00     0.282 C 
ENDBRANCH  19  21
ENDBRANCH  18  19
ENDBRANCH  17  18
ENDBRANCH  15  17
ENDBRANCH  12  15
ENDBRANCH  10  11
ENDBRANCH   6  10
ENDBRANCH   1   5
BRANCH   3  23
ATOM     23  C   UNL A   1      34.942  20.807  24.914  1.00  0.00     0.116 C 
BRANCH  23  24
ATOM     24  C   UNL A   1      36.260  20.032  24.963  1.00  0.00     0.023 C 
BRANCH  24  25
ATOM     25  C   UNL A   1      37.492  20.881  24.636  1.00  0.00     0.023 C 
BRANCH  25  26
ATOM     26  C   UNL A   1      38.563  20.912  25.723  1.00  0.00     0.116 C 
BRANCH  26  27
ATOM     27  N   UNL A   1      39.512  19.812  25.633  1.00  0.00    -0.352 N 
ATOM     28  C   UNL A   1      40.844  19.805  25.977  1.00  0.00     0.251 C 
ATOM     29  H   UNL A   1      39.155  18.964  25.282  1.00  0.00     0.163 HD
ATOM     30  O   UNL A   1      41.539  18.824  25.754  1.00  0.00    -0.269 OA
BRANCH  28  31
ATOM     31  C   UNL A   1      41.435  21.017  26.577  1.00  0.00     0.039 A 
ATOM     32  C   UNL A   1      41.986  21.983  25.734  1.00  0.00     0.014 A 
ATOM     33  C   UNL A   1      41.402  21.216  27.960  1.00  0.00     0.014 A 
ATOM     34  C   UNL A   1      42.441  23.187  26.272  1.00  0.00     0.010 A 
ATOM     35  C   UNL A   1      41.795  22.441  28.487  1.00  0.00     0.010 A 
ATOM     36  C   UNL A   1      42.312  23.439  27.648  1.00  0.00    -0.014 A 
BRANCH  36  37
ATOM     37  C   UNL A   1      42.699  24.749  28.225  1.00  0.00     0.031 A 
ATOM     38  C   UNL A   1      41.663  25.816  28.440  1.00  0.00     0.074 A 
ATOM     39  C   UNL A   1      43.996  25.000  28.490  1.00  0.00     0.049 A 
ATOM     40  N   UNL A   1      41.817  27.041  28.870  1.00  0.00    -0.248 NA
ATOM     41  C   UNL A   1      40.275  25.466  28.101  1.00  0.00     0.031 C 
ATOM     42  C   UNL A   1      45.102  24.065  28.272  1.00  0.00     0.029 A 
ATOM     43  N   UNL A   1      44.605  26.124  28.987  1.00  0.00    -0.354 N 
ATOM     44  C   UNL A   1      40.552  27.613  28.839  1.00  0.00     0.074 A 
ATOM     45  C   UNL A   1      39.651  26.617  28.302  1.00  0.00     0.031 C 
ATOM     46  C   UNL A   1      46.250  24.645  28.655  1.00  0.00     0.029 A 
ATOM     47  C   UNL A   1      45.968  26.002  29.112  1.00  0.00     0.049 A 
ATOM     48  H   UNL A   1      44.113  26.940  29.232  1.00  0.00     0.167 HD
ATOM     49  C   UNL A   1      40.173  28.847  29.246  1.00  0.00     0.037 A 
ATOM     50  C   UNL A   1      46.886  26.888  29.542  1.00  0.00     0.037 A 
ATOM     51  C   UNL A   1      41.066  29.825  29.806  1.00  0.00     0.049 A 
ATOM     52  C   UNL A   1      46.438  28.252  29.988  1.00  0.00     0.074 A 
ATOM     53  C   UNL A   1      40.768  31.077  30.313  1.00  0.00     0.029 A 
ATOM     54  N   UNL A   1      42.438  29.659  29.932  1.00  0.00    -0.354 N 
ATOM     55  N   UNL A   1      45.227  28.753  30.023  1.00  0.00    -0.248 NA
ATOM     56  C   UNL A   1      47.484  29.173  30.455  1.00  0.00     0.031 C 
ATOM     57  C   UNL A   1      41.963  31.685  30.711  1.00  0.00     0.029 A 
ATOM     58  C   UNL A   1      43.002  30.795  30.488  1.00  0.00     0.049 A 
ATOM     59  H   UNL A   1      42.936  28.853  29.667  1.00  0.00     0.167 HD
ATOM     60  C   UNL A   1      45.362  30.036  30.537  1.00  0.00     0.074 A 
ATOM     61  C   UNL A   1      46.770  30.231  30.813  1.00  0.00     0.031 C 
ATOM     62  C   UNL A   1      44.406  30.970  30.759  1.00  0.00     0.037 A 
BRANCH  49  63
ATOM     63  C   UNL A   1      38.723  29.204  29.105  1.00  0.00     0.057 A 
ATOM     64  C   UNL A   1      37.849  29.184  30.200  1.00  0.00     0.134 A 
ATOM     65  C   UNL A   1      38.199  29.602  27.868  1.00  0.00     0.134 A 
ATOM     66  F   UNL A   1      38.285  28.799  31.409  1.00  0.00    -0.206 F 
ATOM     67  C   UNL A   1      36.501  29.520  30.066  1.00  0.00     0.040 A 
ATOM     68  C   UNL A   1      36.859  29.965  27.727  1.00  0.00     0.040 A 
ATOM     69  F   UNL A   1      38.982  29.648  26.779  1.00  0.00    -0.206 F 
ATOM     70  C   UNL A   1      36.004  29.918  28.827  1.00  0.00     0.006 A 
ENDBRANCH  49  63
BRANCH  50  71
ATOM     71  C   UNL A   1      48.319  26.508  29.594  1.00  0.00     0.057 A 
ATOM     72  C   UNL A   1      48.846  25.839  30.704  1.00  0.00     0.134 A 
ATOM     73  C   UNL A   1      49.196  26.807  28.545  1.00  0.00     0.134 A 
ATOM     74  F   UNL A   1      48.059  25.542  31.748  1.00  0.00    -0.206 F 
ATOM     75  C   UNL A   1      50.198  25.499  30.780  1.00  0.00     0.040 A 
ATOM     76  C   UNL A   1      50.544  26.452  28.596  1.00  0.00     0.040 A 
ATOM     77  F   UNL A   1      48.749  27.440  27.449  1.00  0.00    -0.206 F 
ATOM     78  C   UNL A   1      51.050  25.801  29.720  1.00  0.00     0.006 A 
ENDBRANCH  50  71
BRANCH  62  79
ATOM     79  C   UNL A   1      44.847  32.277  31.347  1.00  0.00     0.057 A 
ATOM     80  C   UNL A   1      45.200  33.365  30.540  1.00  0.00     0.134 A 
ATOM     81  C   UNL A   1      44.882  32.460  32.735  1.00  0.00     0.134 A 
ATOM     82  F   UNL A   1      45.202  33.248  29.204  1.00  0.00    -0.206 F 
ATOM     83  C   UNL A   1      45.589  34.586  31.094  1.00  0.00     0.040 A 
ATOM     84  C   UNL A   1      45.244  33.683  33.300  1.00  0.00     0.040 A 
ATOM     85  F   UNL A   1      44.548  31.458  33.563  1.00  0.00    -0.206 F 
ATOM     86  C   UNL A   1      45.604  34.749  32.478  1.00  0.00     0.006 A 
ENDBRANCH  62  79
ENDBRANCH  36  37
ENDBRANCH  28  31
ENDBRANCH  26  27
ENDBRANCH  25  26
ENDBRANCH  24  25
ENDBRANCH  23  24
ENDBRANCH   3  23
TORSDOF 18
ENDMDL
MODEL 2
REMARK VINA RESULT:     -10.6      1.948      2.674
REMARK SMILES COC(=O)CCN(C)C(=O)NCc1ccc(C(=O)NCCCCNC(=O)c2ccc(-c3c4nc(c(-c5c(F)cccc5F)c5ccc([nH]5)c(-c5c(F)cccc5F)c5nc(c(-c6c(F)cccc6F)c6ccc3[nH]6)C=C5)C=C4)cc2)o1
REMARK SMILES IDX 17 1 18 2 19 3 16 5 13 6 14 7 81 8 15 9 12 10 11 11 9 12
REMARK SMILES IDX 10 13 7 15 8 16 6 17 5 18 3 19 4 20 2 21 1 22 20 23 21 24
REMARK SMILES IDX 22 25 23 26 24 27 25 28 26 30 27 31 28 32 80 33 29 34 79 35
REMARK SMILES IDX 30 36 31 37 32 38 73 39 33 40 78 41 72 42 74 43 34 44 77 45
REMARK SMILES IDX 71 46 70 47 35 49 61 50 44 51 60 52 45 53 48 54 59 55 75 56
REMARK SMILES IDX 46 57 47 58 58 60 76 61 49 62 36 63 37 64 42 65 38 66 39 67
REMARK SMILES IDX 41 68 43 69 40 70 62 71 63 72 68 73 64 74 65 75 67 76 69 77
REMARK SMILES IDX 66 78 50 79 51 80 56 81 52 82 53 83 55 84 57 85 54 86
REMARK H PARENT 19 4 11 14 24 29 74 48 48 59
REMARK Flexibility Score: inf
ROOT
ATOM      1  C   UNL A   1      33.748  21.730  26.199  1.00  0.00     0.286 C 
ATOM      2  O   UNL A   1      33.251  21.866  27.320  1.00  0.00    -0.266 OA
ATOM      3  N   UNL A   1      34.821  20.871  26.126  1.00  0.00    -0.349 N 
ATOM      4  H   UNL A   1      35.102  20.490  26.989  1.00  0.00     0.163 HD
ENDROOT
BRANCH   1   5
ATOM      5  C   UNL A   1      33.238  22.412  25.022  1.00  0.00     0.191 A 
ATOM      6  C   UNL A   1      33.316  24.034  23.515  1.00  0.00     0.124 A 
ATOM      7  C   UNL A   1      32.205  23.277  23.214  1.00  0.00     0.048 A 
ATOM      8  O   UNL A   1      33.948  23.515  24.599  1.00  0.00    -0.454 OA
ATOM      9  C   UNL A   1      32.172  22.230  24.157  1.00  0.00     0.056 A 
BRANCH   6  10
ATOM     10  C   UNL A   1      33.918  25.246  22.901  1.00  0.00     0.193 C 
BRANCH  10  11
ATOM     11  N   UNL A   1      32.912  25.833  22.048  1.00  0.00    -0.331 N 
ATOM     12  C   UNL A   1      31.969  26.773  22.192  1.00  0.00     0.317 C 
ATOM     13  O   UNL A   1      30.980  26.633  21.466  1.00  0.00    -0.249 OA
ATOM     14  H   UNL A   1      32.920  25.449  21.140  1.00  0.00     0.165 HD
BRANCH  12  15
ATOM     15  N   UNL A   1      32.140  27.883  22.970  1.00  0.00    -0.327 N 
ATOM     16  C   UNL A   1      33.094  28.955  22.752  1.00  0.00     0.148 C 
BRANCH  15  17
ATOM     17  C   UNL A   1      31.110  28.119  23.994  1.00  0.00     0.132 C 
BRANCH  17  18
ATOM     18  C   UNL A   1      30.300  29.388  23.720  1.00  0.00     0.144 C 
BRANCH  18  19
ATOM     19  C   UNL A   1      29.169  29.115  22.761  1.00  0.00     0.307 C 
ATOM     20  O   UNL A   1      28.186  28.441  23.044  1.00  0.00    -0.252 OA
BRANCH  19  21
ATOM     21  O   UNL A   1      29.407  29.699  21.554  1.00  0.00    -0.469 OA
ATOM     22  C   UNL A   1      28.486  30.734  21.198  1.00  0.00     0.282 C 
ENDBRANCH  19  21
ENDBRANCH  18  19
ENDBRANCH  17  18
ENDBRANCH  15  17
ENDBRANCH  12  15
ENDBRANCH  10  11
ENDBRANCH   6  10
ENDBRANCH   1   5
BRANCH   3  23
ATOM     23  C   UNL A   1      35.604  20.435  24.991  1.00  0.00     0.116 C 
BRANCH  23  24
ATOM     24  C   UNL A   1      37.021  21.010  25.041  1.00  0.00     0.023 C 
BRANCH  24  25
ATOM     25  C   UNL A   1      38.124  19.952  24.939  1.00  0.00     0.023 C 
BRANCH  25  26
ATOM     26  C   UNL A   1      39.360  20.222  25.793  1.00  0.00     0.116 C 
BRANCH  26  27
ATOM     27  N   UNL A   1      40.279  19.096  25.856  1.00  0.00    -0.352 N 
ATOM     28  C   UNL A   1      41.627  19.109  26.130  1.00  0.00     0.251 C 
ATOM     29  H   UNL A   1      39.885  18.210  25.682  1.00  0.00     0.163 HD
ATOM     30  O   UNL A   1      42.288  18.083  26.053  1.00  0.00    -0.269 OA
BRANCH  28  31
ATOM     31  C   UNL A   1      42.276  20.390  26.471  1.00  0.00     0.039 A 
ATOM     32  C   UNL A   1      42.890  21.122  25.454  1.00  0.00     0.014 A 
ATOM     33  C   UNL A   1      42.235  20.883  27.777  1.00  0.00     0.014 A 
ATOM     34  C   UNL A   1      43.404  22.389  25.733  1.00  0.00     0.010 A 
ATOM     35  C   UNL A   1      42.688  22.171  28.040  1.00  0.00     0.010 A 
ATOM     36  C   UNL A   1      43.270  22.938  27.019  1.00  0.00    -0.014 A 
BRANCH  36  37
ATOM     37  C   UNL A   1      43.722  24.320  27.312  1.00  0.00     0.031 A 
ATOM     38  C   UNL A   1      42.728  25.366  27.732  1.00  0.00     0.074 A 
ATOM     39  C   UNL A   1      45.016  24.648  27.132  1.00  0.00     0.049 A 
ATOM     40  N   UNL A   1      42.919  26.638  27.967  1.00  0.00    -0.248 NA
ATOM     41  C   UNL A   1      41.331  24.928  27.881  1.00  0.00     0.031 C 
ATOM     42  C   UNL A   1      46.065  23.734  26.674  1.00  0.00     0.029 A 
ATOM     43  N   UNL A   1      45.666  25.844  27.299  1.00  0.00    -0.354 N 
ATOM     44  C   UNL A   1      41.668  27.155  28.276  1.00  0.00     0.074 A 
ATOM     45  C   UNL A   1      40.718  26.071  28.150  1.00  0.00     0.031 C 
ATOM     46  C   UNL A   1      47.232  24.397  26.620  1.00  0.00     0.029 A 
ATOM     47  C   UNL A   1      47.007  25.787  27.003  1.00  0.00     0.049 A 
ATOM     48  H   UNL A   1      45.216  26.664  27.602  1.00  0.00     0.167 HD
ATOM     49  C   UNL A   1      41.344  28.414  28.655  1.00  0.00     0.037 A 
ATOM     50  C   UNL A   1      47.947  26.751  27.033  1.00  0.00     0.037 A 
ATOM     51  C   UNL A   1      42.295  29.483  28.807  1.00  0.00     0.049 A 
ATOM     52  C   UNL A   1      47.561  28.140  27.458  1.00  0.00     0.074 A 
ATOM     53  C   UNL A   1      42.077  30.774  29.254  1.00  0.00     0.029 A 
ATOM     54  N   UNL A   1      43.647  29.383  28.514  1.00  0.00    -0.354 N 
ATOM     55  N   UNL A   1      46.387  28.597  27.819  1.00  0.00    -0.248 NA
ATOM     56  C   UNL A   1      48.632  29.147  27.480  1.00  0.00     0.031 C 
ATOM     57  C   UNL A   1      43.290  31.468  29.195  1.00  0.00     0.029 A 
ATOM     58  C   UNL A   1      44.272  30.596  28.750  1.00  0.00     0.049 A 
ATOM     59  H   UNL A   1      44.096  28.570  28.189  1.00  0.00     0.167 HD
ATOM     60  C   UNL A   1      46.580  29.936  28.134  1.00  0.00     0.074 A 
ATOM     61  C   UNL A   1      47.988  30.212  27.936  1.00  0.00     0.031 C 
ATOM     62  C   UNL A   1      45.675  30.853  28.549  1.00  0.00     0.037 A 
BRANCH  49  63
ATOM     63  C   UNL A   1      39.899  28.699  28.940  1.00  0.00     0.057 A 
ATOM     64  C   UNL A   1      39.029  29.163  27.944  1.00  0.00     0.134 A 
ATOM     65  C   UNL A   1      39.363  28.479  30.215  1.00  0.00     0.134 A 
ATOM     66  F   UNL A   1      39.484  29.406  26.706  1.00  0.00    -0.206 F 
ATOM     67  C   UNL A   1      37.685  29.423  28.212  1.00  0.00     0.040 A 
ATOM     68  C   UNL A   1      38.014  28.711  30.488  1.00  0.00     0.040 A 
ATOM     69  F   UNL A   1      40.140  28.031  31.213  1.00  0.00    -0.206 F 
ATOM     70  C   UNL A   1      37.172  29.191  29.486  1.00  0.00     0.006 A 
ENDBRANCH  49  63
BRANCH  50  71
ATOM     71  C   UNL A   1      49.350  26.432  26.673  1.00  0.00     0.057 A 
ATOM     72  C   UNL A   1      50.231  25.893  27.618  1.00  0.00     0.134 A 
ATOM     73  C   UNL A   1      49.847  26.662  25.385  1.00  0.00     0.134 A 
ATOM     74  F   UNL A   1      49.818  25.668  28.873  1.00  0.00    -0.206 F 
ATOM     75  C   UNL A   1      51.561  25.613  27.301  1.00  0.00     0.040 A 
ATOM     76  C   UNL A   1      51.168  26.365  25.048  1.00  0.00     0.040 A 
ATOM     77  F   UNL A   1      49.049  27.169  24.432  1.00  0.00    -0.206 F 
ATOM     78  C   UNL A   1      52.031  25.845  26.010  1.00  0.00     0.006 A 
ENDBRANCH  50  71
BRANCH  62  79
ATOM     79  C   UNL A   1      46.181  32.235  28.836  1.00  0.00     0.057 A 
ATOM     80  C   UNL A   1      46.670  32.592  30.098  1.00  0.00     0.134 A 
ATOM     81  C   UNL A   1      46.217  33.207  27.828  1.00  0.00     0.134 A 
ATOM     82  F   UNL A   1      46.649  31.711  31.109  1.00  0.00    -0.206 F 
ATOM     83  C   UNL A   1      47.161  33.873  30.353  1.00  0.00     0.040 A 
ATOM     84  C   UNL A   1      46.729  34.483  28.063  1.00  0.00     0.040 A 
ATOM     85  F   UNL A   1      45.770  32.925  26.595  1.00  0.00    -0.206 F 
ATOM     86  C   UNL A   1      47.198  34.820  29.332  1.00  0.00     0.006 A 
ENDBRANCH  62  79
ENDBRANCH  36  37
ENDBRANCH  28  31
ENDBRANCH  26  27
ENDBRANCH  25  26
ENDBRANCH  24  25
ENDBRANCH  23  24
ENDBRANCH   3  23
TORSDOF 18
ENDMDL
MODEL 3
REMARK VINA RESULT:     -10.6      3.024      7.966
REMARK SMILES COC(=O)CCN(C)C(=O)NCc1ccc(C(=O)NCCCCNC(=O)c2ccc(-c3c4nc(c(-c5c(F)cccc5F)c5ccc([nH]5)c(-c5c(F)cccc5F)c5nc(c(-c6c(F)cccc6F)c6ccc3[nH]6)C=C5)C=C4)cc2)o1
REMARK SMILES IDX 17 1 18 2 19 3 16 5 13 6 14 7 81 8 15 9 12 10 11 11 9 12
REMARK SMILES IDX 10 13 7 15 8 16 6 17 5 18 3 19 4 20 2 21 1 22 20 23 21 24
REMARK SMILES IDX 22 25 23 26 24 27 25 28 26 30 27 31 28 32 80 33 29 34 79 35
REMARK SMILES IDX 30 36 31 37 32 38 73 39 33 40 78 41 72 42 74 43 34 44 77 45
REMARK SMILES IDX 71 46 70 47 35 49 61 50 44 51 60 52 45 53 48 54 59 55 75 56
REMARK SMILES IDX 46 57 47 58 58 60 76 61 49 62 36 63 37 64 42 65 38 66 39 67
REMARK SMILES IDX 41 68 43 69 40 70 62 71 63 72 68 73 64 74 65 75 67 76 69 77
REMARK SMILES IDX 66 78 50 79 51 80 56 81 52 82 53 83 55 84 57 85 54 86
REMARK H PARENT 19 4 11 14 24 29 74 48 48 59
REMARK Flexibility Score: inf
ROOT
ATOM      1  C   UNL A   1      35.389  24.046  24.532  1.00  0.00     0.286 C 
ATOM      2  O   UNL A   1      35.248  25.168  25.026  1.00  0.00    -0.266 OA
ATOM      3  N   UNL A   1      36.648  23.501  24.648  1.00  0.00    -0.349 N 
ATOM      4  H   UNL A   1      37.311  24.087  25.079  1.00  0.00     0.163 HD
ENDROOT
BRANCH   1   5
ATOM      5  C   UNL A   1      34.307  23.330  23.879  1.00  0.00     0.191 A 
ATOM      6  C   UNL A   1      32.526  22.013  23.925  1.00  0.00     0.124 A 
ATOM      7  C   UNL A   1      32.761  22.302  22.598  1.00  0.00     0.048 A 
ATOM      8  O   UNL A   1      33.449  22.635  24.703  1.00  0.00    -0.454 OA
ATOM      9  C   UNL A   1      33.878  23.163  22.573  1.00  0.00     0.056 A 
BRANCH   6  10
ATOM     10  C   UNL A   1      31.500  21.193  24.620  1.00  0.00     0.193 C 
BRANCH  10  11
ATOM     11  N   UNL A   1      32.207  20.228  25.429  1.00  0.00    -0.331 N 
ATOM     12  C   UNL A   1      32.568  18.945  25.287  1.00  0.00     0.317 C 
ATOM     13  O   UNL A   1      32.664  18.312  26.343  1.00  0.00    -0.249 OA
ATOM     14  H   UNL A   1      32.493  20.602  26.294  1.00  0.00     0.165 HD
BRANCH  12  15
ATOM     15  N   UNL A   1      32.944  18.409  24.088  1.00  0.00    -0.327 N 
ATOM     16  C   UNL A   1      32.236  18.525  22.826  1.00  0.00     0.148 C 
BRANCH  15  17
ATOM     17  C   UNL A   1      34.305  17.853  24.028  1.00  0.00     0.132 C 
BRANCH  17  18
ATOM     18  C   UNL A   1      34.303  16.334  23.842  1.00  0.00     0.144 C 
BRANCH  18  19
ATOM     19  C   UNL A   1      34.827  15.634  25.069  1.00  0.00     0.307 C 
ATOM     20  O   UNL A   1      35.871  15.940  25.633  1.00  0.00    -0.252 OA
BRANCH  19  21
ATOM     21  O   UNL A   1      33.998  14.618  25.437  1.00  0.00    -0.469 OA
ATOM     22  C   UNL A   1      32.606  14.945  25.417  1.00  0.00     0.282 C 
ENDBRANCH  19  21
ENDBRANCH  18  19
ENDBRANCH  17  18
ENDBRANCH  15  17
ENDBRANCH  12  15
ENDBRANCH  10  11
ENDBRANCH   6  10
ENDBRANCH   1   5
BRANCH   3  23
ATOM     23  C   UNL A   1      37.157  22.209  24.242  1.00  0.00     0.116 C 
BRANCH  23  24
ATOM     24  C   UNL A   1      37.911  21.527  25.384  1.00  0.00     0.023 C 
BRANCH  24  25
ATOM     25  C   UNL A   1      38.658  20.257  24.964  1.00  0.00     0.023 C 
BRANCH  25  26
ATOM     26  C   UNL A   1      39.254  19.448  26.112  1.00  0.00     0.116 C 
BRANCH  26  27
ATOM     27  N   UNL A   1      40.563  18.887  25.809  1.00  0.00    -0.352 N 
ATOM     28  C   UNL A   1      41.793  19.495  25.902  1.00  0.00     0.251 C 
ATOM     29  H   UNL A   1      40.568  17.953  25.499  1.00  0.00     0.163 HD
ATOM     30  O   UNL A   1      42.802  18.920  25.518  1.00  0.00    -0.269 OA
BRANCH  28  31
ATOM     31  C   UNL A   1      41.874  20.872  26.427  1.00  0.00     0.039 A 
ATOM     32  C   UNL A   1      41.770  21.071  27.804  1.00  0.00     0.014 A 
ATOM     33  C   UNL A   1      42.097  21.950  25.567  1.00  0.00     0.014 A 
ATOM     34  C   UNL A   1      41.963  22.349  28.331  1.00  0.00     0.010 A 
ATOM     35  C   UNL A   1      42.354  23.210  26.097  1.00  0.00     0.010 A 
ATOM     36  C   UNL A   1      42.296  23.419  27.483  1.00  0.00    -0.014 A 
BRANCH  36  37
ATOM     37  C   UNL A   1      42.600  24.763  28.032  1.00  0.00     0.031 A 
ATOM     38  C   UNL A   1      43.996  25.100  28.471  1.00  0.00     0.074 A 
ATOM     39  C   UNL A   1      41.604  25.654  28.197  1.00  0.00     0.049 A 
ATOM     40  N   UNL A   1      44.443  26.194  29.033  1.00  0.00    -0.248 NA
ATOM     41  C   UNL A   1      45.020  24.060  28.277  1.00  0.00     0.031 C 
ATOM     42  C   UNL A   1      40.197  25.424  27.859  1.00  0.00     0.029 A 
ATOM     43  N   UNL A   1      41.619  26.928  28.704  1.00  0.00    -0.354 N 
ATOM     44  C   UNL A   1      45.792  25.969  29.275  1.00  0.00     0.074 A 
ATOM     45  C   UNL A   1      46.080  24.618  28.844  1.00  0.00     0.031 C 
ATOM     46  C   UNL A   1      39.490  26.529  28.147  1.00  0.00     0.029 A 
ATOM     47  C   UNL A   1      40.384  27.529  28.720  1.00  0.00     0.049 A 
ATOM     48  H   UNL A   1      42.437  27.370  29.025  1.00  0.00     0.167 HD
ATOM     49  C   UNL A   1      46.713  26.820  29.785  1.00  0.00     0.037 A 
ATOM     50  C   UNL A   1      40.014  28.749  29.154  1.00  0.00     0.037 A 
ATOM     51  C   UNL A   1      46.430  28.172  30.186  1.00  0.00     0.049 A 
ATOM     52  C   UNL A   1      41.056  29.676  29.717  1.00  0.00     0.074 A 
ATOM     53  C   UNL A   1      47.307  29.137  30.649  1.00  0.00     0.029 A 
ATOM     54  N   UNL A   1      45.169  28.751  30.172  1.00  0.00    -0.354 N 
ATOM     55  N   UNL A   1      42.342  29.476  29.869  1.00  0.00    -0.248 NA
ATOM     56  C   UNL A   1      40.594  30.996  30.166  1.00  0.00     0.031 C 
ATOM     57  C   UNL A   1      46.572  30.287  30.952  1.00  0.00     0.029 A 
ATOM     58  C   UNL A   1      45.242  30.052  30.640  1.00  0.00     0.049 A 
ATOM     59  H   UNL A   1      44.345  28.304  29.873  1.00  0.00     0.167 HD
ATOM     60  C   UNL A   1      42.848  30.651  30.409  1.00  0.00     0.074 A 
ATOM     61  C   UNL A   1      41.731  31.564  30.542  1.00  0.00     0.031 C 
ATOM     62  C   UNL A   1      44.121  30.948  30.763  1.00  0.00     0.037 A 
BRANCH  49  63
ATOM     63  C   UNL A   1      48.117  26.312  29.930  1.00  0.00     0.057 A 
ATOM     64  C   UNL A   1      49.052  26.425  28.893  1.00  0.00     0.134 A 
ATOM     65  C   UNL A   1      48.548  25.731  31.129  1.00  0.00     0.134 A 
ATOM     66  F   UNL A   1      48.698  26.960  27.715  1.00  0.00    -0.206 F 
ATOM     67  C   UNL A   1      50.358  25.954  29.033  1.00  0.00     0.040 A 
ATOM     68  C   UNL A   1      49.859  25.280  31.290  1.00  0.00     0.040 A 
ATOM     69  F   UNL A   1      47.704  25.596  32.164  1.00  0.00    -0.206 F 
ATOM     70  C   UNL A   1      50.767  25.385  30.238  1.00  0.00     0.006 A 
ENDBRANCH  49  63
BRANCH  50  71
ATOM     71  C   UNL A   1      38.597  29.176  29.053  1.00  0.00     0.057 A 
ATOM     72  C   UNL A   1      38.066  29.630  27.840  1.00  0.00     0.134 A 
ATOM     73  C   UNL A   1      37.743  29.149  30.161  1.00  0.00     0.134 A 
ATOM     74  F   UNL A   1      38.842  29.696  26.748  1.00  0.00    -0.206 F 
ATOM     75  C   UNL A   1      36.743  30.061  27.736  1.00  0.00     0.040 A 
ATOM     76  C   UNL A   1      36.411  29.555  30.066  1.00  0.00     0.040 A 
ATOM     77  F   UNL A   1      38.189  28.717  31.350  1.00  0.00    -0.206 F 
ATOM     78  C   UNL A   1      35.909  30.018  28.852  1.00  0.00     0.006 A 
ENDBRANCH  50  71
BRANCH  62  79
ATOM     79  C   UNL A   1      44.379  32.321  31.309  1.00  0.00     0.057 A 
ATOM     80  C   UNL A   1      44.673  33.403  30.469  1.00  0.00     0.134 A 
ATOM     81  C   UNL A   1      44.291  32.571  32.684  1.00  0.00     0.134 A 
ATOM     82  F   UNL A   1      44.785  33.224  29.145  1.00  0.00    -0.206 F 
ATOM     83  C   UNL A   1      44.890  34.683  30.981  1.00  0.00     0.040 A 
ATOM     84  C   UNL A   1      44.481  33.852  33.205  1.00  0.00     0.040 A 
ATOM     85  F   UNL A   1      44.005  31.579  33.540  1.00  0.00    -0.206 F 
ATOM     86  C   UNL A   1      44.786  34.911  32.352  1.00  0.00     0.006 A 
ENDBRANCH  62  79
ENDBRANCH  36  37
ENDBRANCH  28  31
ENDBRANCH  26  27
ENDBRANCH  25  26
ENDBRANCH  24  25
ENDBRANCH  23  24
ENDBRANCH   3  23
TORSDOF 18
ENDMDL
