MODEL 1
REMARK VINA RESULT:     -11.5      0.000      0.000
REMARK SMILES CCn1cnc(S(=O)(=O)N2CCC(C)(C(=O)NCCCCNC(=O)c3ccc(-c4c5nc(c(-c6c(F)cccc6F)c6ccc([nH]6)c(-c6c(F)cccc6F)c6nc(c(-c7c(F)cccc7F)c7ccc4[nH]7)C=C6)C=C5)cc3)CC2)c1
REMARK SMILES IDX 19 1 18 2 17 3 15 4 16 5 13 7 10 8 11 9 80 10 12 11 79 12
REMARK SMILES IDX 14 13 7 14 8 15 9 16 6 17 3 18 4 19 81 20 5 21 2 22 1 23
REMARK SMILES IDX 20 24 21 25 22 26 23 27 24 29 25 30 26 31 78 32 27 33 77 34
REMARK SMILES IDX 28 35 29 36 30 37 71 38 31 39 76 40 70 41 72 42 32 43 75 44
REMARK SMILES IDX 69 45 68 46 33 48 59 49 42 50 58 51 43 52 46 53 57 54 73 55
REMARK SMILES IDX 44 56 45 57 56 59 74 60 47 61 34 62 35 63 40 64 36 65 37 66
REMARK SMILES IDX 39 67 41 68 38 69 60 70 61 71 66 72 62 73 63 74 65 75 67 76
REMARK SMILES IDX 64 77 48 78 49 79 54 80 50 81 51 82 53 83 55 84 52 85
REMARK H PARENT 17 6 22 28 72 47 46 58
REMARK Flexibility Score: inf
ROOT
ATOM      1  C   UNL A   1      40.357  21.846  26.620  1.00  0.00     0.023 C 
ENDROOT
BRANCH   1   2
ATOM      2  C   UNL A   1      38.985  22.343  26.171  1.00  0.00     0.116 C 
BRANCH   2   3
ATOM      3  N   UNL A   1      38.301  21.315  25.423  1.00  0.00    -0.356 N 
ATOM      4  C   UNL A   1      36.988  21.128  25.171  1.00  0.00     0.226 C 
ATOM      5  O   UNL A   1      36.659  19.955  24.961  1.00  0.00    -0.275 OA
ATOM      6  H   UNL A   1      38.893  20.633  25.030  1.00  0.00     0.163 HD
BRANCH   4   7
ATOM      7  C   UNL A   1      35.981  22.288  25.060  1.00  0.00     0.049 C 
ATOM      8  N   UNL A   1      33.440  22.409  26.458  1.00  0.00    -0.196 NA
ATOM      9  C   UNL A   1      34.599  22.830  27.244  1.00  0.00     0.103 C 
ATOM     10  C   UNL A   1      33.704  21.205  25.679  1.00  0.00     0.103 C 
ATOM     11  C   UNL A   1      35.798  23.145  26.346  1.00  0.00     0.033 C 
ATOM     12  C   UNL A   1      34.672  21.602  24.581  1.00  0.00     0.033 C 
ATOM     13  C   UNL A   1      36.428  23.253  23.924  1.00  0.00     0.022 C 
BRANCH   8  14
ATOM     14  S   UNL A   1      32.243  23.513  25.964  1.00  0.00     0.262 S 
ATOM     15  O   UNL A   1      31.563  24.000  27.142  1.00  0.00    -0.205 OA
ATOM     16  O   UNL A   1      31.524  22.914  24.854  1.00  0.00    -0.205 OA
BRANCH  14  17
ATOM     17  C   UNL A   1      33.003  24.959  25.269  1.00  0.00     0.188 A 
ATOM     18  N   UNL A   1      33.457  26.427  23.719  1.00  0.00    -0.336 N 
ATOM     19  C   UNL A   1      33.257  27.066  24.910  1.00  0.00     0.201 A 
ATOM     20  C   UNL A   1      33.514  25.079  23.980  1.00  0.00     0.129 A 
ATOM     21  N   UNL A   1      32.912  26.218  25.851  1.00  0.00    -0.224 NA
BRANCH  18  22
ATOM     22  C   UNL A   1      33.408  27.070  22.415  1.00  0.00     0.120 C 
ATOM     23  C   UNL A   1      33.860  28.529  22.441  1.00  0.00     0.027 C 
ENDBRANCH  18  22
ENDBRANCH  14  17
ENDBRANCH   8  14
ENDBRANCH   4   7
ENDBRANCH   2   3
ENDBRANCH   1   2
BRANCH   1  24
ATOM     24  C   UNL A   1      40.771  20.466  26.089  1.00  0.00     0.023 C 
BRANCH  24  25
ATOM     25  C   UNL A   1      42.087  19.943  26.645  1.00  0.00     0.116 C 
BRANCH  25  26
ATOM     26  N   UNL A   1      43.100  19.770  25.608  1.00  0.00    -0.352 N 
ATOM     27  C   UNL A   1      43.769  20.748  24.904  1.00  0.00     0.251 C 
ATOM     28  H   UNL A   1      43.336  18.840  25.386  1.00  0.00     0.163 HD
ATOM     29  O   UNL A   1      44.334  20.494  23.847  1.00  0.00    -0.269 OA
BRANCH  27  30
ATOM     30  C   UNL A   1      43.800  22.112  25.452  1.00  0.00     0.039 A 
ATOM     31  C   UNL A   1      43.033  23.136  24.889  1.00  0.00     0.014 A 
ATOM     32  C   UNL A   1      44.596  22.341  26.571  1.00  0.00     0.014 A 
ATOM     33  C   UNL A   1      43.017  24.383  25.508  1.00  0.00     0.010 A 
ATOM     34  C   UNL A   1      44.469  23.519  27.257  1.00  0.00     0.010 A 
ATOM     35  C   UNL A   1      43.729  24.562  26.700  1.00  0.00    -0.014 A 
BRANCH  35  36
ATOM     36  C   UNL A   1      43.620  25.798  27.471  1.00  0.00     0.031 A 
ATOM     37  C   UNL A   1      44.624  26.845  27.118  1.00  0.00     0.074 A 
ATOM     38  C   UNL A   1      42.513  26.055  28.203  1.00  0.00     0.049 A 
ATOM     39  N   UNL A   1      45.459  27.448  27.899  1.00  0.00    -0.248 NA
ATOM     40  C   UNL A   1      44.798  27.188  25.693  1.00  0.00     0.031 C 
ATOM     41  C   UNL A   1      41.319  25.211  28.350  1.00  0.00     0.029 A 
ATOM     42  N   UNL A   1      42.144  27.195  28.848  1.00  0.00    -0.354 N 
ATOM     43  C   UNL A   1      46.113  28.393  27.108  1.00  0.00     0.074 A 
ATOM     44  C   UNL A   1      45.807  28.059  25.743  1.00  0.00     0.031 C 
ATOM     45  C   UNL A   1      40.287  25.958  28.794  1.00  0.00     0.029 A 
ATOM     46  C   UNL A   1      40.781  27.282  29.120  1.00  0.00     0.049 A 
ATOM     47  H   UNL A   1      42.784  27.898  29.101  1.00  0.00     0.167 HD
ATOM     48  C   UNL A   1      46.634  29.529  27.650  1.00  0.00     0.037 A 
ATOM     49  C   UNL A   1      40.104  28.383  29.530  1.00  0.00     0.037 A 
ATOM     50  C   UNL A   1      46.805  29.390  29.075  1.00  0.00     0.049 A 
ATOM     51  C   UNL A   1      41.105  29.345  30.054  1.00  0.00     0.074 A 
ATOM     52  C   UNL A   1      47.496  28.515  29.890  1.00  0.00     0.029 A 
ATOM     53  N   UNL A   1      45.896  30.016  29.892  1.00  0.00    -0.354 N 
ATOM     54  N   UNL A   1      41.802  29.147  31.138  1.00  0.00    -0.248 NA
ATOM     55  C   UNL A   1      41.667  30.305  29.116  1.00  0.00     0.031 C 
ATOM     56  C   UNL A   1      46.633  28.294  31.003  1.00  0.00     0.029 A 
ATOM     57  C   UNL A   1      45.511  29.107  30.842  1.00  0.00     0.049 A 
ATOM     58  H   UNL A   1      45.580  30.945  29.811  1.00  0.00     0.167 HD
ATOM     59  C   UNL A   1      43.076  29.598  30.822  1.00  0.00     0.074 A 
ATOM     60  C   UNL A   1      42.911  30.378  29.595  1.00  0.00     0.031 C 
ATOM     61  C   UNL A   1      44.183  29.053  31.407  1.00  0.00     0.037 A 
BRANCH  48  62
ATOM     62  C   UNL A   1      46.614  30.884  26.976  1.00  0.00     0.057 A 
ATOM     63  C   UNL A   1      47.789  31.660  26.965  1.00  0.00     0.134 A 
ATOM     64  C   UNL A   1      45.441  31.581  26.618  1.00  0.00     0.134 A 
ATOM     65  F   UNL A   1      48.974  31.119  27.290  1.00  0.00    -0.206 F 
ATOM     66  C   UNL A   1      47.780  33.038  26.716  1.00  0.00     0.040 A 
ATOM     67  C   UNL A   1      45.430  32.946  26.316  1.00  0.00     0.040 A 
ATOM     68  F   UNL A   1      44.229  31.017  26.640  1.00  0.00    -0.206 F 
ATOM     69  C   UNL A   1      46.596  33.689  26.401  1.00  0.00     0.006 A 
ENDBRANCH  48  62
BRANCH  49  70
ATOM     70  C   UNL A   1      38.708  28.779  29.217  1.00  0.00     0.057 A 
ATOM     71  C   UNL A   1      37.734  28.849  30.223  1.00  0.00     0.134 A 
ATOM     72  C   UNL A   1      38.359  29.355  27.983  1.00  0.00     0.134 A 
ATOM     73  F   UNL A   1      37.982  28.362  31.447  1.00  0.00    -0.206 F 
ATOM     74  C   UNL A   1      36.496  29.477  30.021  1.00  0.00     0.040 A 
ATOM     75  C   UNL A   1      37.125  29.978  27.766  1.00  0.00     0.040 A 
ATOM     76  F   UNL A   1      39.234  29.414  26.969  1.00  0.00    -0.206 F 
ATOM     77  C   UNL A   1      36.193  30.056  28.792  1.00  0.00     0.006 A 
ENDBRANCH  49  70
BRANCH  61  78
ATOM     78  C   UNL A   1      43.986  28.130  32.579  1.00  0.00     0.057 A 
ATOM     79  C   UNL A   1      43.857  26.737  32.477  1.00  0.00     0.134 A 
ATOM     80  C   UNL A   1      44.097  28.657  33.871  1.00  0.00     0.134 A 
ATOM     81  F   UNL A   1      43.847  26.125  31.288  1.00  0.00    -0.206 F 
ATOM     82  C   UNL A   1      43.797  25.912  33.606  1.00  0.00     0.040 A 
ATOM     83  C   UNL A   1      44.074  27.843  35.005  1.00  0.00     0.040 A 
ATOM     84  F   UNL A   1      44.281  29.975  34.048  1.00  0.00    -0.206 F 
ATOM     85  C   UNL A   1      43.913  26.466  34.876  1.00  0.00     0.006 A 
ENDBRANCH  61  78
ENDBRANCH  35  36
ENDBRANCH  27  30
ENDBRANCH  25  26
ENDBRANCH  24  25
ENDBRANCH   1  24
TORSDOF 14
ENDMDL
MODEL 2
REMARK VINA RESULT:     -11.4      2.176      5.968
REMARK SMILES CCn1cnc(S(=O)(=O)N2CCC(C)(C(=O)NCCCCNC(=O)c3ccc(-c4c5nc(c(-c6c(F)cccc6F)c6ccc([nH]6)c(-c6c(F)cccc6F)c6nc(c(-c7c(F)cccc7F)c7ccc4[nH]7)C=C6)C=C5)cc3)CC2)c1
REMARK SMILES IDX 19 1 18 2 17 3 15 4 16 5 13 7 10 8 11 9 80 10 12 11 79 12
REMARK SMILES IDX 14 13 7 14 8 15 9 16 6 17 3 18 4 19 81 20 5 21 2 22 1 23
REMARK SMILES IDX 20 24 21 25 22 26 23 27 24 29 25 30 26 31 78 32 27 33 77 34
REMARK SMILES IDX 28 35 29 36 30 37 71 38 31 39 76 40 70 41 72 42 32 43 75 44
REMARK SMILES IDX 69 45 68 46 33 48 59 49 42 50 58 51 43 52 46 53 57 54 73 55
REMARK SMILES IDX 44 56 45 57 56 59 74 60 47 61 34 62 35 63 40 64 36 65 37 66
REMARK SMILES IDX 39 67 41 68 38 69 60 70 61 71 66 72 62 73 63 74 65 75 67 76
REMARK SMILES IDX 64 77 48 78 49 79 54 80 50 81 51 82 53 83 55 84 52 85
REMARK H PARENT 17 6 22 28 72 47 46 58
REMARK Flexibility Score: inf
ROOT
ATOM      1  C   UNL A   1      37.126  20.819  24.567  1.00  0.00     0.023 C 
ENDROOT
BRANCH   1   2
ATOM      2  C   UNL A   1      35.970  20.975  25.554  1.00  0.00     0.116 C 
BRANCH   2   3
ATOM      3  N   UNL A   1      34.861  20.140  25.160  1.00  0.00    -0.356 N 
ATOM      4  C   UNL A   1      33.549  20.423  25.012  1.00  0.00     0.226 C 
ATOM      5  O   UNL A   1      32.788  19.460  25.163  1.00  0.00    -0.275 OA
ATOM      6  H   UNL A   1      35.101  19.206  24.965  1.00  0.00     0.163 HD
BRANCH   4   7
ATOM      7  C   UNL A   1      33.031  21.813  24.598  1.00  0.00     0.049 C 
ATOM      8  N   UNL A   1      32.334  23.935  26.452  1.00  0.00    -0.196 NA
ATOM      9  C   UNL A   1      33.760  23.824  26.146  1.00  0.00     0.103 C 
ATOM     10  C   UNL A   1      31.711  22.636  26.677  1.00  0.00     0.103 C 
ATOM     11  C   UNL A   1      33.996  23.001  24.877  1.00  0.00     0.033 C 
ATOM     12  C   UNL A   1      31.666  21.936  25.332  1.00  0.00     0.033 C 
ATOM     13  C   UNL A   1      32.725  21.816  23.072  1.00  0.00     0.022 C 
BRANCH   8  14
ATOM     14  S   UNL A   1      31.404  25.260  25.925  1.00  0.00     0.262 S 
ATOM     15  O   UNL A   1      30.053  25.085  26.410  1.00  0.00    -0.205 OA
ATOM     16  O   UNL A   1      31.695  25.470  24.519  1.00  0.00    -0.205 OA
BRANCH  14  17
ATOM     17  C   UNL A   1      31.964  26.746  26.719  1.00  0.00     0.188 A 
ATOM     18  N   UNL A   1      32.877  28.725  26.835  1.00  0.00    -0.336 N 
ATOM     19  C   UNL A   1      31.759  28.690  27.620  1.00  0.00     0.201 A 
ATOM     20  C   UNL A   1      33.137  27.437  26.433  1.00  0.00     0.129 A 
ATOM     21  N   UNL A   1      31.144  27.534  27.518  1.00  0.00    -0.224 NA
BRANCH  18  22
ATOM     22  C   UNL A   1      33.524  29.941  26.368  1.00  0.00     0.120 C 
ATOM     23  C   UNL A   1      33.455  31.090  27.373  1.00  0.00     0.027 C 
ENDBRANCH  18  22
ENDBRANCH  14  17
ENDBRANCH   8  14
ENDBRANCH   4   7
ENDBRANCH   2   3
ENDBRANCH   1   2
BRANCH   1  24
ATOM     24  C   UNL A   1      38.086  19.654  24.846  1.00  0.00     0.023 C 
BRANCH  24  25
ATOM     25  C   UNL A   1      39.106  19.924  25.942  1.00  0.00     0.116 C 
BRANCH  25  26
ATOM     26  N   UNL A   1      40.269  19.046  25.850  1.00  0.00    -0.352 N 
ATOM     27  C   UNL A   1      41.601  19.393  25.921  1.00  0.00     0.251 C 
ATOM     28  H   UNL A   1      40.078  18.089  25.723  1.00  0.00     0.163 HD
ATOM     29  O   UNL A   1      42.474  18.644  25.501  1.00  0.00    -0.269 OA
BRANCH  27  30
ATOM     30  C   UNL A   1      41.960  20.685  26.524  1.00  0.00     0.039 A 
ATOM     31  C   UNL A   1      42.450  21.736  25.744  1.00  0.00     0.014 A 
ATOM     32  C   UNL A   1      41.765  20.837  27.894  1.00  0.00     0.014 A 
ATOM     33  C   UNL A   1      42.676  22.973  26.345  1.00  0.00     0.010 A 
ATOM     34  C   UNL A   1      41.850  22.084  28.452  1.00  0.00     0.010 A 
ATOM     35  C   UNL A   1      42.361  23.140  27.699  1.00  0.00    -0.014 A 
BRANCH  35  36
ATOM     36  C   UNL A   1      42.430  24.452  28.336  1.00  0.00     0.031 A 
ATOM     37  C   UNL A   1      41.205  25.292  28.174  1.00  0.00     0.074 A 
ATOM     38  C   UNL A   1      43.396  24.727  29.241  1.00  0.00     0.049 A 
ATOM     39  N   UNL A   1      41.113  26.487  27.692  1.00  0.00    -0.248 NA
ATOM     40  C   UNL A   1      39.898  24.680  28.486  1.00  0.00     0.031 C 
ATOM     41  C   UNL A   1      44.466  23.834  29.708  1.00  0.00     0.029 A 
ATOM     42  N   UNL A   1      43.540  25.805  30.058  1.00  0.00    -0.354 N 
ATOM     43  C   UNL A   1      39.776  26.858  27.836  1.00  0.00     0.074 A 
ATOM     44  C   UNL A   1      39.053  25.655  28.147  1.00  0.00     0.031 C 
ATOM     45  C   UNL A   1      44.959  24.290  30.879  1.00  0.00     0.029 A 
ATOM     46  C   UNL A   1      44.363  25.582  31.158  1.00  0.00     0.049 A 
ATOM     47  H   UNL A   1      43.101  26.668  29.886  1.00  0.00     0.167 HD
ATOM     48  C   UNL A   1      39.414  28.167  27.949  1.00  0.00     0.037 A 
ATOM     49  C   UNL A   1      44.498  26.381  32.246  1.00  0.00     0.037 A 
ATOM     50  C   UNL A   1      40.462  29.036  27.472  1.00  0.00     0.049 A 
ATOM     51  C   UNL A   1      43.970  27.718  31.878  1.00  0.00     0.074 A 
ATOM     52  C   UNL A   1      41.135  29.178  26.275  1.00  0.00     0.029 A 
ATOM     53  N   UNL A   1      41.229  29.686  28.407  1.00  0.00    -0.354 N 
ATOM     54  N   UNL A   1      44.534  28.504  31.004  1.00  0.00    -0.248 NA
ATOM     55  C   UNL A   1      42.561  27.975  32.132  1.00  0.00     0.031 C 
ATOM     56  C   UNL A   1      42.486  29.445  26.645  1.00  0.00     0.029 A 
ATOM     57  C   UNL A   1      42.539  29.530  28.036  1.00  0.00     0.049 A 
ATOM     58  H   UNL A   1      40.900  30.173  29.196  1.00  0.00     0.167 HD
ATOM     59  C   UNL A   1      43.478  29.043  30.284  1.00  0.00     0.074 A 
ATOM     60  C   UNL A   1      42.286  28.748  31.078  1.00  0.00     0.031 C 
ATOM     61  C   UNL A   1      43.628  29.409  28.977  1.00  0.00     0.037 A 
BRANCH  48  62
ATOM     62  C   UNL A   1      38.305  28.672  28.847  1.00  0.00     0.057 A 
ATOM     63  C   UNL A   1      37.410  29.639  28.349  1.00  0.00     0.134 A 
ATOM     64  C   UNL A   1      38.261  28.489  30.245  1.00  0.00     0.134 A 
ATOM     65  F   UNL A   1      37.353  29.914  27.037  1.00  0.00    -0.206 F 
ATOM     66  C   UNL A   1      36.612  30.428  29.187  1.00  0.00     0.040 A 
ATOM     67  C   UNL A   1      37.429  29.235  31.084  1.00  0.00     0.040 A 
ATOM     68  F   UNL A   1      39.087  27.660  30.892  1.00  0.00    -0.206 F 
ATOM     69  C   UNL A   1      36.627  30.236  30.561  1.00  0.00     0.006 A 
ENDBRANCH  48  62
BRANCH  49  70
ATOM     70  C   UNL A   1      44.759  25.989  33.653  1.00  0.00     0.057 A 
ATOM     71  C   UNL A   1      43.731  25.492  34.468  1.00  0.00     0.134 A 
ATOM     72  C   UNL A   1      46.064  25.839  34.153  1.00  0.00     0.134 A 
ATOM     73  F   UNL A   1      42.454  25.553  34.065  1.00  0.00    -0.206 F 
ATOM     74  C   UNL A   1      43.988  24.860  35.693  1.00  0.00     0.040 A 
ATOM     75  C   UNL A   1      46.335  25.218  35.377  1.00  0.00     0.040 A 
ATOM     76  F   UNL A   1      47.133  26.209  33.433  1.00  0.00    -0.206 F 
ATOM     77  C   UNL A   1      45.296  24.710  36.146  1.00  0.00     0.006 A 
ENDBRANCH  49  70
BRANCH  61  78
ATOM     78  C   UNL A   1      45.019  29.448  28.405  1.00  0.00     0.057 A 
ATOM     79  C   UNL A   1      45.643  28.368  27.761  1.00  0.00     0.134 A 
ATOM     80  C   UNL A   1      45.689  30.676  28.359  1.00  0.00     0.134 A 
ATOM     81  F   UNL A   1      45.040  27.178  27.659  1.00  0.00    -0.206 F 
ATOM     82  C   UNL A   1      46.890  28.493  27.141  1.00  0.00     0.040 A 
ATOM     83  C   UNL A   1      46.918  30.824  27.713  1.00  0.00     0.040 A 
ATOM     84  F   UNL A   1      45.130  31.769  28.902  1.00  0.00    -0.206 F 
ATOM     85  C   UNL A   1      47.528  29.728  27.111  1.00  0.00     0.006 A 
ENDBRANCH  61  78
ENDBRANCH  35  36
ENDBRANCH  27  30
ENDBRANCH  25  26
ENDBRANCH  24  25
ENDBRANCH   1  24
TORSDOF 14
ENDMDL
MODEL 3
REMARK VINA RESULT:     -11.3      2.203      6.013
REMARK SMILES CCn1cnc(S(=O)(=O)N2CCC(C)(C(=O)NCCCCNC(=O)c3ccc(-c4c5nc(c(-c6c(F)cccc6F)c6ccc([nH]6)c(-c6c(F)cccc6F)c6nc(c(-c7c(F)cccc7F)c7ccc4[nH]7)C=C6)C=C5)cc3)CC2)c1
REMARK SMILES IDX 19 1 18 2 17 3 15 4 16 5 13 7 10 8 11 9 80 10 12 11 79 12
REMARK SMILES IDX 14 13 7 14 8 15 9 16 6 17 3 18 4 19 81 20 5 21 2 22 1 23
REMARK SMILES IDX 20 24 21 25 22 26 23 27 24 29 25 30 26 31 78 32 27 33 77 34
REMARK SMILES IDX 28 35 29 36 30 37 71 38 31 39 76 40 70 41 72 42 32 43 75 44
REMARK SMILES IDX 69 45 68 46 33 48 59 49 42 50 58 51 43 52 46 53 57 54 73 55
REMARK SMILES IDX 44 56 45 57 56 59 74 60 47 61 34 62 35 63 40 64 36 65 37 66
REMARK SMILES IDX 39 67 41 68 38 69 60 70 61 71 66 72 62 73 63 74 65 75 67 76
REMARK SMILES IDX 64 77 48 78 49 79 54 80 50 81 51 82 53 83 55 84 52 85
REMARK H PARENT 17 6 22 28 72 47 46 58
REMARK Flexibility Score: inf
ROOT
ATOM      1  C   UNL A   1      36.490  20.842  24.811  1.00  0.00     0.023 C 
ENDROOT
BRANCH   1   2
ATOM      2  C   UNL A   1      35.067  20.363  25.087  1.00  0.00     0.116 C 
BRANCH   2   3
ATOM      3  N   UNL A   1      34.519  21.057  26.228  1.00  0.00    -0.356 N 
ATOM      4  C   UNL A   1      33.862  22.234  26.318  1.00  0.00     0.226 C 
ATOM      5  O   UNL A   1      33.961  22.804  27.410  1.00  0.00    -0.275 OA
ATOM      6  H   UNL A   1      34.645  20.594  27.088  1.00  0.00     0.163 HD
BRANCH   4   7
ATOM      7  C   UNL A   1      32.979  22.791  25.186  1.00  0.00     0.049 C 
ATOM      8  N   UNL A   1      33.868  24.696  23.184  1.00  0.00    -0.196 NA
ATOM      9  C   UNL A   1      34.211  23.301  22.906  1.00  0.00     0.103 C 
ATOM     10  C   UNL A   1      34.092  25.057  24.579  1.00  0.00     0.103 C 
ATOM     11  C   UNL A   1      33.367  22.341  23.747  1.00  0.00     0.033 C 
ATOM     12  C   UNL A   1      33.037  24.330  25.390  1.00  0.00     0.033 C 
ATOM     13  C   UNL A   1      31.503  22.358  25.422  1.00  0.00     0.022 C 
BRANCH   8  14
ATOM     14  S   UNL A   1      32.730  25.543  22.244  1.00  0.00     0.262 S 
ATOM     15  O   UNL A   1      31.419  25.007  22.529  1.00  0.00    -0.205 OA
ATOM     16  O   UNL A   1      33.250  25.624  20.891  1.00  0.00    -0.205 OA
BRANCH  14  17
ATOM     17  C   UNL A   1      32.638  27.232  22.783  1.00  0.00     0.188 A 
ATOM     18  N   UNL A   1      32.243  28.865  24.177  1.00  0.00    -0.336 N 
ATOM     19  C   UNL A   1      33.406  29.111  23.502  1.00  0.00     0.201 A 
ATOM     20  C   UNL A   1      31.638  27.788  23.575  1.00  0.00     0.129 A 
ATOM     21  N   UNL A   1      33.710  28.113  22.704  1.00  0.00    -0.224 NA
BRANCH  18  22
ATOM     22  C   UNL A   1      31.854  29.511  25.420  1.00  0.00     0.120 C 
ATOM     23  C   UNL A   1      31.961  28.596  26.640  1.00  0.00     0.027 C 
ENDBRANCH  18  22
ENDBRANCH  14  17
ENDBRANCH   8  14
ENDBRANCH   4   7
ENDBRANCH   2   3
ENDBRANCH   1   2
BRANCH   1  24
ATOM     24  C   UNL A   1      37.587  19.776  24.943  1.00  0.00     0.023 C 
BRANCH  24  25
ATOM     25  C   UNL A   1      38.875  20.270  25.585  1.00  0.00     0.116 C 
BRANCH  25  26
ATOM     26  N   UNL A   1      39.878  19.216  25.708  1.00  0.00    -0.352 N 
ATOM     27  C   UNL A   1      41.220  19.350  25.991  1.00  0.00     0.251 C 
ATOM     28  H   UNL A   1      39.555  18.296  25.572  1.00  0.00     0.163 HD
ATOM     29  O   UNL A   1      42.013  18.452  25.740  1.00  0.00    -0.269 OA
BRANCH  27  30
ATOM     30  C   UNL A   1      41.685  20.598  26.615  1.00  0.00     0.039 A 
ATOM     31  C   UNL A   1      42.495  21.498  25.917  1.00  0.00     0.014 A 
ATOM     32  C   UNL A   1      41.265  20.867  27.915  1.00  0.00     0.014 A 
ATOM     33  C   UNL A   1      42.822  22.713  26.514  1.00  0.00     0.010 A 
ATOM     34  C   UNL A   1      41.467  22.114  28.442  1.00  0.00     0.010 A 
ATOM     35  C   UNL A   1      42.292  23.018  27.774  1.00  0.00    -0.014 A 
BRANCH  35  36
ATOM     36  C   UNL A   1      42.475  24.336  28.374  1.00  0.00     0.031 A 
ATOM     37  C   UNL A   1      41.371  25.305  28.104  1.00  0.00     0.074 A 
ATOM     38  C   UNL A   1      43.408  24.532  29.333  1.00  0.00     0.049 A 
ATOM     39  N   UNL A   1      41.450  26.484  27.581  1.00  0.00    -0.248 NA
ATOM     40  C   UNL A   1      39.984  24.861  28.347  1.00  0.00     0.031 C 
ATOM     41  C   UNL A   1      44.334  23.540  29.899  1.00  0.00     0.029 A 
ATOM     42  N   UNL A   1      43.626  25.616  30.124  1.00  0.00    -0.354 N 
ATOM     43  C   UNL A   1      40.160  27.012  27.623  1.00  0.00     0.074 A 
ATOM     44  C   UNL A   1      39.283  25.913  27.922  1.00  0.00     0.031 C 
ATOM     45  C   UNL A   1      44.802  23.981  31.085  1.00  0.00     0.029 A 
ATOM     46  C   UNL A   1      44.346  25.343  31.284  1.00  0.00     0.049 A 
ATOM     47  H   UNL A   1      43.304  26.518  29.897  1.00  0.00     0.167 HD
ATOM     48  C   UNL A   1      39.949  28.357  27.672  1.00  0.00     0.037 A 
ATOM     49  C   UNL A   1      44.505  26.161  32.354  1.00  0.00     0.037 A 
ATOM     50  C   UNL A   1      41.120  29.080  27.240  1.00  0.00     0.049 A 
ATOM     51  C   UNL A   1      44.163  27.535  31.910  1.00  0.00     0.074 A 
ATOM     52  C   UNL A   1      41.879  29.098  26.087  1.00  0.00     0.029 A 
ATOM     53  N   UNL A   1      41.897  29.672  28.204  1.00  0.00    -0.354 N 
ATOM     54  N   UNL A   1      44.869  28.217  31.052  1.00  0.00    -0.248 NA
ATOM     55  C   UNL A   1      42.780  27.963  32.060  1.00  0.00     0.031 C 
ATOM     56  C   UNL A   1      43.226  29.221  26.539  1.00  0.00     0.029 A 
ATOM     57  C   UNL A   1      43.200  29.353  27.927  1.00  0.00     0.049 A 
ATOM     58  H   UNL A   1      41.579  30.224  28.954  1.00  0.00     0.167 HD
ATOM     59  C   UNL A   1      43.931  28.847  30.247  1.00  0.00     0.074 A 
ATOM     60  C   UNL A   1      42.665  28.722  30.968  1.00  0.00     0.031 C 
ATOM     61  C   UNL A   1      44.206  29.142  28.942  1.00  0.00     0.037 A 
BRANCH  48  62
ATOM     62  C   UNL A   1      38.852  29.021  28.477  1.00  0.00     0.057 A 
ATOM     63  C   UNL A   1      38.720  28.703  29.843  1.00  0.00     0.134 A 
ATOM     64  C   UNL A   1      37.751  29.703  27.919  1.00  0.00     0.134 A 
ATOM     65  F   UNL A   1      39.695  28.051  30.495  1.00  0.00    -0.206 F 
ATOM     66  C   UNL A   1      37.547  28.956  30.565  1.00  0.00     0.040 A 
ATOM     67  C   UNL A   1      36.596  30.007  28.646  1.00  0.00     0.040 A 
ATOM     68  F   UNL A   1      37.680  30.022  26.622  1.00  0.00    -0.206 F 
ATOM     69  C   UNL A   1      36.475  29.600  29.964  1.00  0.00     0.006 A 
ENDBRANCH  48  62
BRANCH  49  70
ATOM     70  C   UNL A   1      44.628  25.796  33.787  1.00  0.00     0.057 A 
ATOM     71  C   UNL A   1      45.880  25.748  34.416  1.00  0.00     0.134 A 
ATOM     72  C   UNL A   1      43.511  25.748  34.639  1.00  0.00     0.134 A 
ATOM     73  F   UNL A   1      47.008  25.825  33.695  1.00  0.00    -0.206 F 
ATOM     74  C   UNL A   1      46.014  25.682  35.811  1.00  0.00     0.040 A 
ATOM     75  C   UNL A   1      43.629  25.675  36.031  1.00  0.00     0.040 A 
ATOM     76  F   UNL A   1      42.264  25.860  34.160  1.00  0.00    -0.206 F 
ATOM     77  C   UNL A   1      44.885  25.658  36.624  1.00  0.00     0.006 A 
ENDBRANCH  49  70
BRANCH  61  78
ATOM     78  C   UNL A   1      45.626  28.999  28.464  1.00  0.00     0.057 A 
ATOM     79  C   UNL A   1      46.625  29.967  28.649  1.00  0.00     0.134 A 
ATOM     80  C   UNL A   1      46.034  27.767  27.942  1.00  0.00     0.134 A 
ATOM     81  F   UNL A   1      46.358  31.139  29.235  1.00  0.00    -0.206 F 
ATOM     82  C   UNL A   1      47.958  29.734  28.292  1.00  0.00     0.040 A 
ATOM     83  C   UNL A   1      47.367  27.509  27.614  1.00  0.00     0.040 A 
ATOM     84  F   UNL A   1      45.147  26.771  27.789  1.00  0.00    -0.206 F 
ATOM     85  C   UNL A   1      48.332  28.498  27.778  1.00  0.00     0.006 A 
ENDBRANCH  61  78
ENDBRANCH  35  36
ENDBRANCH  27  30
ENDBRANCH  25  26
ENDBRANCH  24  25
ENDBRANCH   1  24
TORSDOF 14
ENDMDL
