MODEL 1
REMARK VINA RESULT:     -11.4      0.000      0.000
REMARK SMILES CCC[NH2+][C@@]1(C(=O)NCCCCNC(=O)c2ccc(-c3c4nc(c(-c5c(F)cccc5F)c5ccc([nH]5)c(-c5c(F)cccc5F)c5nc(c(-c6c(F)cccc6F)c6ccc3[nH]6)C=C5)C=C4)cc2)CC[C@@H](Sc2ccc(OC)cc2)C1
REMARK SMILES IDX 10 1 9 2 8 3 6 4 7 5 5 7 70 8 82 9 71 10 72 11 4 12 3 15
REMARK SMILES IDX 2 16 1 17 73 18 74 19 75 20 81 21 76 22 80 23 77 24 78 25
REMARK SMILES IDX 79 26 11 27 12 28 13 29 14 30 15 32 16 33 17 34 69 35 18 36
REMARK SMILES IDX 68 37 19 38 20 39 21 40 62 41 22 42 67 43 61 44 63 45 23 46
REMARK SMILES IDX 66 47 60 48 59 49 24 51 50 52 33 53 49 54 34 55 37 56 48 57
REMARK SMILES IDX 64 58 35 59 36 60 47 62 65 63 38 64 25 65 26 66 31 67 27 68
REMARK SMILES IDX 28 69 30 70 32 71 29 72 51 73 52 74 57 75 53 76 54 77 56 78
REMARK SMILES IDX 58 79 55 80 39 81 40 82 45 83 41 84 42 85 44 86 46 87 43 88
REMARK H PARENT 8 6 4 13 4 14 13 31 63 50 37 61
REMARK Flexibility Score: inf
ROOT
ATOM      1  C   UNL A   1      37.393  21.330  24.473  1.00  0.00     0.023 C 
ENDROOT
BRANCH   1   2
ATOM      2  C   UNL A   1      37.197  22.439  25.503  1.00  0.00     0.116 C 
BRANCH   2   3
ATOM      3  N   UNL A   1      36.175  22.134  26.471  1.00  0.00    -0.351 N 
ATOM      4  C   UNL A   1      34.821  22.125  26.385  1.00  0.00     0.281 C 
ATOM      5  O   UNL A   1      34.265  21.444  27.261  1.00  0.00    -0.268 OA
ATOM      6  H   UNL A   1      36.523  21.886  27.358  1.00  0.00     0.163 HD
BRANCH   4   7
ATOM      7  C   UNL A   1      33.966  22.839  25.259  1.00  0.00     0.176 C 
ATOM      8  C   UNL A   1      34.653  24.141  24.803  1.00  0.00     0.080 C 
ATOM      9  C   UNL A   1      32.521  23.242  25.594  1.00  0.00     0.094 C 
ATOM     10  C   UNL A   1      33.796  25.324  25.246  1.00  0.00     0.022 C 
ATOM     11  C   UNL A   1      32.513  24.751  25.843  1.00  0.00     0.058 C 
BRANCH   7  12
ATOM     12  N   UNL A   1      33.968  21.928  24.063  1.00  0.00    -0.334 N 
ATOM     13  H   UNL A   1      34.000  22.509  23.225  1.00  0.00     0.347 HD
ATOM     14  H   UNL A   1      34.782  21.322  24.170  1.00  0.00     0.347 HD
BRANCH  12  15
ATOM     15  C   UNL A   1      32.805  21.037  23.954  1.00  0.00     0.261 C 
BRANCH  15  16
ATOM     16  C   UNL A   1      33.172  19.597  24.339  1.00  0.00     0.058 C 
ATOM     17  C   UNL A   1      32.533  18.533  23.454  1.00  0.00     0.010 C 
ENDBRANCH  15  16
ENDBRANCH  12  15
ENDBRANCH   7  12
BRANCH  11  18
ATOM     18  S   UNL A   1      30.934  25.583  25.405  1.00  0.00    -0.122 SA
BRANCH  18  19
ATOM     19  C   UNL A   1      31.288  27.284  25.784  1.00  0.00     0.008 A 
ATOM     20  C   UNL A   1      31.589  27.645  27.100  1.00  0.00     0.019 A 
ATOM     21  C   UNL A   1      31.273  28.266  24.794  1.00  0.00     0.019 A 
ATOM     22  C   UNL A   1      31.915  28.968  27.407  1.00  0.00     0.047 A 
ATOM     23  C   UNL A   1      31.598  29.590  25.104  1.00  0.00     0.047 A 
ATOM     24  C   UNL A   1      31.929  29.945  26.412  1.00  0.00     0.118 A 
BRANCH  24  25
ATOM     25  O   UNL A   1      32.275  31.197  26.841  1.00  0.00    -0.497 OA
ATOM     26  C   UNL A   1      31.388  32.255  26.501  1.00  0.00     0.278 C 
ENDBRANCH  24  25
ENDBRANCH  18  19
ENDBRANCH  11  18
ENDBRANCH   4   7
ENDBRANCH   2   3
ENDBRANCH   1   2
BRANCH   1  27
ATOM     27  C   UNL A   1      38.039  20.055  25.014  1.00  0.00     0.023 C 
BRANCH  27  28
ATOM     28  C   UNL A   1      39.292  20.267  25.855  1.00  0.00     0.116 C 
BRANCH  28  29
ATOM     29  N   UNL A   1      40.214  19.138  25.852  1.00  0.00    -0.352 N 
ATOM     30  C   UNL A   1      41.567  19.163  26.097  1.00  0.00     0.251 C 
ATOM     31  H   UNL A   1      39.823  18.257  25.654  1.00  0.00     0.163 HD
ATOM     32  O   UNL A   1      42.247  18.146  26.004  1.00  0.00    -0.269 OA
BRANCH  30  33
ATOM     33  C   UNL A   1      42.196  20.456  26.418  1.00  0.00     0.039 A 
ATOM     34  C   UNL A   1      42.619  21.278  25.372  1.00  0.00     0.014 A 
ATOM     35  C   UNL A   1      42.265  20.890  27.744  1.00  0.00     0.014 A 
ATOM     36  C   UNL A   1      43.038  22.578  25.651  1.00  0.00     0.010 A 
ATOM     37  C   UNL A   1      42.616  22.208  28.013  1.00  0.00     0.010 A 
ATOM     38  C   UNL A   1      42.997  23.064  26.969  1.00  0.00    -0.014 A 
BRANCH  38  39
ATOM     39  C   UNL A   1      43.341  24.472  27.280  1.00  0.00     0.031 A 
ATOM     40  C   UNL A   1      44.767  24.929  27.194  1.00  0.00     0.074 A 
ATOM     41  C   UNL A   1      42.384  25.311  27.714  1.00  0.00     0.049 A 
ATOM     42  N   UNL A   1      45.282  26.093  27.494  1.00  0.00    -0.248 NA
ATOM     43  C   UNL A   1      45.752  23.934  26.739  1.00  0.00     0.031 C 
ATOM     44  C   UNL A   1      40.969  24.970  27.889  1.00  0.00     0.029 A 
ATOM     45  N   UNL A   1      42.458  26.627  28.096  1.00  0.00    -0.354 N 
ATOM     46  C   UNL A   1      46.649  25.962  27.290  1.00  0.00     0.074 A 
ATOM     47  C   UNL A   1      46.889  24.594  26.888  1.00  0.00     0.031 C 
ATOM     48  C   UNL A   1      40.304  26.059  28.307  1.00  0.00     0.029 A 
ATOM     49  C   UNL A   1      41.247  27.161  28.463  1.00  0.00     0.049 A 
ATOM     50  H   UNL A   1      43.298  27.138  28.107  1.00  0.00     0.167 HD
ATOM     51  C   UNL A   1      47.615  26.905  27.402  1.00  0.00     0.037 A 
ATOM     52  C   UNL A   1      40.936  28.405  28.872  1.00  0.00     0.037 A 
ATOM     53  C   UNL A   1      47.368  28.275  27.765  1.00  0.00     0.049 A 
ATOM     54  C   UNL A   1      42.022  29.437  28.982  1.00  0.00     0.074 A 
ATOM     55  C   UNL A   1      48.265  29.326  27.833  1.00  0.00     0.029 A 
ATOM     56  N   UNL A   1      46.127  28.782  28.121  1.00  0.00    -0.354 N 
ATOM     57  N   UNL A   1      43.302  29.320  28.722  1.00  0.00    -0.248 NA
ATOM     58  C   UNL A   1      41.621  30.773  29.443  1.00  0.00     0.031 C 
ATOM     59  C   UNL A   1      47.571  30.464  28.259  1.00  0.00     0.029 A 
ATOM     60  C   UNL A   1      46.237  30.129  28.427  1.00  0.00     0.049 A 
ATOM     61  H   UNL A   1      45.292  28.262  28.151  1.00  0.00     0.167 HD
ATOM     62  C   UNL A   1      43.854  30.571  28.961  1.00  0.00     0.074 A 
ATOM     63  C   UNL A   1      42.768  31.434  29.381  1.00  0.00     0.031 C 
ATOM     64  C   UNL A   1      45.143  30.971  28.837  1.00  0.00     0.037 A 
BRANCH  51  65
ATOM     65  C   UNL A   1      49.023  26.472  27.122  1.00  0.00     0.057 A 
ATOM     66  C   UNL A   1      49.549  26.468  25.824  1.00  0.00     0.134 A 
ATOM     67  C   UNL A   1      49.857  26.041  28.160  1.00  0.00     0.134 A 
ATOM     68  F   UNL A   1      48.795  26.853  24.783  1.00  0.00    -0.206 F 
ATOM     69  C   UNL A   1      50.843  26.015  25.562  1.00  0.00     0.040 A 
ATOM     70  C   UNL A   1      51.163  25.610  27.915  1.00  0.00     0.040 A 
ATOM     71  F   UNL A   1      49.416  26.021  29.427  1.00  0.00    -0.206 F 
ATOM     72  C   UNL A   1      51.655  25.587  26.610  1.00  0.00     0.006 A 
ENDBRANCH  51  65
BRANCH  52  73
ATOM     73  C   UNL A   1      39.524  28.759  29.154  1.00  0.00     0.057 A 
ATOM     74  C   UNL A   1      39.000  28.617  30.444  1.00  0.00     0.134 A 
ATOM     75  C   UNL A   1      38.673  29.252  28.159  1.00  0.00     0.134 A 
ATOM     76  F   UNL A   1      39.766  28.134  31.433  1.00  0.00    -0.206 F 
ATOM     77  C   UNL A   1      37.675  28.944  30.735  1.00  0.00     0.040 A 
ATOM     78  C   UNL A   1      37.350  29.599  28.440  1.00  0.00     0.040 A 
ATOM     79  F   UNL A   1      39.120  29.415  26.905  1.00  0.00    -0.206 F 
ATOM     80  C   UNL A   1      36.847  29.441  29.730  1.00  0.00     0.006 A 
ENDBRANCH  52  73
BRANCH  64  81
ATOM     81  C   UNL A   1      45.441  32.409  29.132  1.00  0.00     0.057 A 
ATOM     82  C   UNL A   1      45.292  33.406  28.160  1.00  0.00     0.134 A 
ATOM     83  C   UNL A   1      45.846  32.805  30.412  1.00  0.00     0.134 A 
ATOM     84  F   UNL A   1      44.921  33.088  26.911  1.00  0.00    -0.206 F 
ATOM     85  C   UNL A   1      45.552  34.747  28.448  1.00  0.00     0.040 A 
ATOM     86  C   UNL A   1      46.089  34.144  30.718  1.00  0.00     0.040 A 
ATOM     87  F   UNL A   1      46.002  31.897  31.388  1.00  0.00    -0.206 F 
ATOM     88  C   UNL A   1      45.945  35.118  29.733  1.00  0.00     0.006 A 
ENDBRANCH  64  81
ENDBRANCH  38  39
ENDBRANCH  30  33
ENDBRANCH  28  29
ENDBRANCH  27  28
ENDBRANCH   1  27
TORSDOF 17
ENDMDL
MODEL 2
REMARK VINA RESULT:     -11.2      4.144      9.701
REMARK SMILES CCC[NH2+][C@@]1(C(=O)NCCCCNC(=O)c2ccc(-c3c4nc(c(-c5c(F)cccc5F)c5ccc([nH]5)c(-c5c(F)cccc5F)c5nc(c(-c6c(F)cccc6F)c6ccc3[nH]6)C=C5)C=C4)cc2)CC[C@@H](Sc2ccc(OC)cc2)C1
REMARK SMILES IDX 10 1 9 2 8 3 6 4 7 5 5 7 70 8 82 9 71 10 72 11 4 12 3 15
REMARK SMILES IDX 2 16 1 17 73 18 74 19 75 20 81 21 76 22 80 23 77 24 78 25
REMARK SMILES IDX 79 26 11 27 12 28 13 29 14 30 15 32 16 33 17 34 69 35 18 36
REMARK SMILES IDX 68 37 19 38 20 39 21 40 62 41 22 42 67 43 61 44 63 45 23 46
REMARK SMILES IDX 66 47 60 48 59 49 24 51 50 52 33 53 49 54 34 55 37 56 48 57
REMARK SMILES IDX 64 58 35 59 36 60 47 62 65 63 38 64 25 65 26 66 31 67 27 68
REMARK SMILES IDX 28 69 30 70 32 71 29 72 51 73 52 74 57 75 53 76 54 77 56 78
REMARK SMILES IDX 58 79 55 80 39 81 40 82 45 83 41 84 42 85 44 86 46 87 43 88
REMARK H PARENT 8 6 4 13 4 14 13 31 63 50 37 61
REMARK Flexibility Score: inf
ROOT
ATOM      1  C   UNL A   1      34.599  30.730  27.608  1.00  0.00     0.023 C 
ENDROOT
BRANCH   1   2
ATOM      2  C   UNL A   1      34.314  29.247  27.394  1.00  0.00     0.116 C 
BRANCH   2   3
ATOM      3  N   UNL A   1      32.998  28.858  27.833  1.00  0.00    -0.351 N 
ATOM      4  C   UNL A   1      32.022  28.132  27.233  1.00  0.00     0.281 C 
ATOM      5  O   UNL A   1      31.191  27.654  28.022  1.00  0.00    -0.268 OA
ATOM      6  H   UNL A   1      32.764  29.178  28.735  1.00  0.00     0.163 HD
BRANCH   4   7
ATOM      7  C   UNL A   1      31.924  27.826  25.682  1.00  0.00     0.176 C 
ATOM      8  C   UNL A   1      30.777  26.837  25.398  1.00  0.00     0.080 C 
ATOM      9  C   UNL A   1      33.155  27.227  24.983  1.00  0.00     0.094 C 
ATOM     10  C   UNL A   1      31.380  25.516  24.925  1.00  0.00     0.022 C 
ATOM     11  C   UNL A   1      32.883  25.737  24.776  1.00  0.00     0.058 C 
BRANCH   7  12
ATOM     12  N   UNL A   1      31.540  29.112  25.005  1.00  0.00    -0.334 N 
ATOM     13  H   UNL A   1      30.828  29.568  25.576  1.00  0.00     0.347 HD
ATOM     14  H   UNL A   1      32.400  29.654  24.917  1.00  0.00     0.347 HD
BRANCH  12  15
ATOM     15  C   UNL A   1      31.006  28.967  23.644  1.00  0.00     0.261 C 
BRANCH  15  16
ATOM     16  C   UNL A   1      29.763  29.843  23.439  1.00  0.00     0.058 C 
ATOM     17  C   UNL A   1      29.333  29.985  21.984  1.00  0.00     0.010 C 
ENDBRANCH  15  16
ENDBRANCH  12  15
ENDBRANCH   7  12
BRANCH  11  18
ATOM     18  S   UNL A   1      33.699  25.016  23.296  1.00  0.00    -0.122 SA
BRANCH  18  19
ATOM     19  C   UNL A   1      34.999  24.042  24.019  1.00  0.00     0.008 A 
ATOM     20  C   UNL A   1      35.673  23.105  23.232  1.00  0.00     0.019 A 
ATOM     21  C   UNL A   1      35.362  24.196  25.358  1.00  0.00     0.019 A 
ATOM     22  C   UNL A   1      36.728  22.365  23.771  1.00  0.00     0.047 A 
ATOM     23  C   UNL A   1      36.417  23.453  25.896  1.00  0.00     0.047 A 
ATOM     24  C   UNL A   1      37.110  22.539  25.101  1.00  0.00     0.118 A 
BRANCH  24  25
ATOM     25  O   UNL A   1      38.163  21.763  25.501  1.00  0.00    -0.497 OA
ATOM     26  C   UNL A   1      38.117  20.389  25.136  1.00  0.00     0.278 C 
ENDBRANCH  24  25
ENDBRANCH  18  19
ENDBRANCH  11  18
ENDBRANCH   4   7
ENDBRANCH   2   3
ENDBRANCH   1   2
BRANCH   1  27
ATOM     27  C   UNL A   1      33.359  31.605  27.795  1.00  0.00     0.023 C 
BRANCH  27  28
ATOM     28  C   UNL A   1      33.455  33.005  27.200  1.00  0.00     0.116 C 
BRANCH  28  29
ATOM     29  N   UNL A   1      32.824  34.042  28.005  1.00  0.00    -0.352 N 
ATOM     30  C   UNL A   1      33.307  34.616  29.158  1.00  0.00     0.251 C 
ATOM     31  H   UNL A   1      31.952  34.371  27.688  1.00  0.00     0.163 HD
ATOM     32  O   UNL A   1      32.648  35.442  29.780  1.00  0.00    -0.269 OA
BRANCH  30  33
ATOM     33  C   UNL A   1      34.619  34.172  29.663  1.00  0.00     0.039 A 
ATOM     34  C   UNL A   1      34.665  33.377  30.809  1.00  0.00     0.014 A 
ATOM     35  C   UNL A   1      35.780  34.456  28.940  1.00  0.00     0.014 A 
ATOM     36  C   UNL A   1      35.873  32.794  31.187  1.00  0.00     0.010 A 
ATOM     37  C   UNL A   1      36.967  33.818  29.278  1.00  0.00     0.010 A 
ATOM     38  C   UNL A   1      37.021  32.976  30.399  1.00  0.00    -0.014 A 
BRANCH  38  39
ATOM     39  C   UNL A   1      38.293  32.287  30.722  1.00  0.00     0.031 A 
ATOM     40  C   UNL A   1      39.247  32.902  31.704  1.00  0.00     0.074 A 
ATOM     41  C   UNL A   1      38.622  31.155  30.074  1.00  0.00     0.049 A 
ATOM     42  N   UNL A   1      40.437  32.496  32.065  1.00  0.00    -0.248 NA
ATOM     43  C   UNL A   1      38.819  34.157  32.341  1.00  0.00     0.031 C 
ATOM     44  C   UNL A   1      37.800  30.488  29.060  1.00  0.00     0.029 A 
ATOM     45  N   UNL A   1      39.740  30.367  30.167  1.00  0.00    -0.354 N 
ATOM     46  C   UNL A   1      40.908  33.458  32.949  1.00  0.00     0.074 A 
ATOM     47  C   UNL A   1      39.898  34.489  33.032  1.00  0.00     0.031 C 
ATOM     48  C   UNL A   1      38.427  29.372  28.654  1.00  0.00     0.029 A 
ATOM     49  C   UNL A   1      39.705  29.264  29.350  1.00  0.00     0.049 A 
ATOM     50  H   UNL A   1      40.496  30.572  30.762  1.00  0.00     0.167 HD
ATOM     51  C   UNL A   1      42.067  33.467  33.650  1.00  0.00     0.037 A 
ATOM     52  C   UNL A   1      40.602  28.274  29.188  1.00  0.00     0.037 A 
ATOM     53  C   UNL A   1      43.053  32.421  33.593  1.00  0.00     0.049 A 
ATOM     54  C   UNL A   1      41.878  28.301  29.980  1.00  0.00     0.074 A 
ATOM     55  C   UNL A   1      44.224  32.297  34.319  1.00  0.00     0.029 A 
ATOM     56  N   UNL A   1      42.978  31.314  32.761  1.00  0.00    -0.354 N 
ATOM     57  N   UNL A   1      42.283  29.181  30.864  1.00  0.00    -0.248 NA
ATOM     58  C   UNL A   1      42.821  27.197  29.753  1.00  0.00     0.031 C 
ATOM     59  C   UNL A   1      44.873  31.129  33.904  1.00  0.00     0.029 A 
ATOM     60  C   UNL A   1      44.091  30.510  32.942  1.00  0.00     0.049 A 
ATOM     61  H   UNL A   1      42.243  31.128  32.134  1.00  0.00     0.167 HD
ATOM     62  C   UNL A   1      43.513  28.725  31.318  1.00  0.00     0.074 A 
ATOM     63  C   UNL A   1      43.785  27.487  30.616  1.00  0.00     0.031 C 
ATOM     64  C   UNL A   1      44.340  29.279  32.237  1.00  0.00     0.037 A 
BRANCH  51  65
ATOM     65  C   UNL A   1      42.317  34.651  34.535  1.00  0.00     0.057 A 
ATOM     66  C   UNL A   1      41.894  34.675  35.871  1.00  0.00     0.134 A 
ATOM     67  C   UNL A   1      42.974  35.785  34.043  1.00  0.00     0.134 A 
ATOM     68  F   UNL A   1      41.242  33.627  36.396  1.00  0.00    -0.206 F 
ATOM     69  C   UNL A   1      42.082  35.800  36.675  1.00  0.00     0.040 A 
ATOM     70  C   UNL A   1      43.192  36.906  34.846  1.00  0.00     0.040 A 
ATOM     71  F   UNL A   1      43.406  35.826  32.774  1.00  0.00    -0.206 F 
ATOM     72  C   UNL A   1      42.736  36.919  36.164  1.00  0.00     0.006 A 
ENDBRANCH  51  65
BRANCH  52  73
ATOM     73  C   UNL A   1      40.300  27.144  28.278  1.00  0.00     0.057 A 
ATOM     74  C   UNL A   1      40.846  27.104  26.989  1.00  0.00     0.134 A 
ATOM     75  C   UNL A   1      39.477  26.081  28.666  1.00  0.00     0.134 A 
ATOM     76  F   UNL A   1      41.627  28.103  26.557  1.00  0.00    -0.206 F 
ATOM     77  C   UNL A   1      40.577  26.051  26.114  1.00  0.00     0.040 A 
ATOM     78  C   UNL A   1      39.214  25.012  27.807  1.00  0.00     0.040 A 
ATOM     79  F   UNL A   1      38.931  26.060  29.891  1.00  0.00    -0.206 F 
ATOM     80  C   UNL A   1      39.761  24.998  26.525  1.00  0.00     0.006 A 
ENDBRANCH  52  73
BRANCH  64  81
ATOM     81  C   UNL A   1      45.600  28.534  32.556  1.00  0.00     0.057 A 
ATOM     82  C   UNL A   1      46.800  28.794  31.884  1.00  0.00     0.134 A 
ATOM     83  C   UNL A   1      45.621  27.572  33.574  1.00  0.00     0.134 A 
ATOM     84  F   UNL A   1      46.841  29.694  30.889  1.00  0.00    -0.206 F 
ATOM     85  C   UNL A   1      47.975  28.111  32.201  1.00  0.00     0.040 A 
ATOM     86  C   UNL A   1      46.793  26.898  33.914  1.00  0.00     0.040 A 
ATOM     87  F   UNL A   1      44.504  27.281  34.259  1.00  0.00    -0.206 F 
ATOM     88  C   UNL A   1      47.973  27.164  33.224  1.00  0.00     0.006 A 
ENDBRANCH  64  81
ENDBRANCH  38  39
ENDBRANCH  30  33
ENDBRANCH  28  29
ENDBRANCH  27  28
ENDBRANCH   1  27
TORSDOF 17
ENDMDL
MODEL 3
REMARK VINA RESULT:     -11.1      4.977      8.835
REMARK SMILES CCC[NH2+][C@@]1(C(=O)NCCCCNC(=O)c2ccc(-c3c4nc(c(-c5c(F)cccc5F)c5ccc([nH]5)c(-c5c(F)cccc5F)c5nc(c(-c6c(F)cccc6F)c6ccc3[nH]6)C=C5)C=C4)cc2)CC[C@@H](Sc2ccc(OC)cc2)C1
REMARK SMILES IDX 10 1 9 2 8 3 6 4 7 5 5 7 70 8 82 9 71 10 72 11 4 12 3 15
REMARK SMILES IDX 2 16 1 17 73 18 74 19 75 20 81 21 76 22 80 23 77 24 78 25
REMARK SMILES IDX 79 26 11 27 12 28 13 29 14 30 15 32 16 33 17 34 69 35 18 36
REMARK SMILES IDX 68 37 19 38 20 39 21 40 62 41 22 42 67 43 61 44 63 45 23 46
REMARK SMILES IDX 66 47 60 48 59 49 24 51 50 52 33 53 49 54 34 55 37 56 48 57
REMARK SMILES IDX 64 58 35 59 36 60 47 62 65 63 38 64 25 65 26 66 31 67 27 68
REMARK SMILES IDX 28 69 30 70 32 71 29 72 51 73 52 74 57 75 53 76 54 77 56 78
REMARK SMILES IDX 58 79 55 80 39 81 40 82 45 83 41 84 42 85 44 86 46 87 43 88
REMARK H PARENT 8 6 4 13 4 14 13 31 63 50 37 61
REMARK Flexibility Score: inf
ROOT
ATOM      1  C   UNL A   1      36.660  23.504  24.596  1.00  0.00     0.023 C 
ENDROOT
BRANCH   1   2
ATOM      2  C   UNL A   1      35.680  22.466  24.057  1.00  0.00     0.116 C 
BRANCH   2   3
ATOM      3  N   UNL A   1      35.968  21.131  24.514  1.00  0.00    -0.351 N 
ATOM      4  C   UNL A   1      35.160  20.120  24.923  1.00  0.00     0.281 C 
ATOM      5  O   UNL A   1      35.688  18.998  24.867  1.00  0.00    -0.268 OA
ATOM      6  H   UNL A   1      36.928  20.910  24.535  1.00  0.00     0.163 HD
BRANCH   4   7
ATOM      7  C   UNL A   1      33.651  20.275  25.378  1.00  0.00     0.176 C 
ATOM      8  C   UNL A   1      32.740  20.514  24.158  1.00  0.00     0.080 C 
ATOM      9  C   UNL A   1      33.304  21.400  26.366  1.00  0.00     0.094 C 
ATOM     10  C   UNL A   1      32.193  21.938  24.231  1.00  0.00     0.022 C 
ATOM     11  C   UNL A   1      32.645  22.524  25.566  1.00  0.00     0.058 C 
BRANCH   7  12
ATOM     12  N   UNL A   1      33.230  18.953  25.957  1.00  0.00    -0.334 N 
ATOM     13  H   UNL A   1      34.073  18.423  26.179  1.00  0.00     0.347 HD
ATOM     14  H   UNL A   1      32.659  19.170  26.774  1.00  0.00     0.347 HD
BRANCH  12  15
ATOM     15  C   UNL A   1      32.392  18.125  25.079  1.00  0.00     0.261 C 
BRANCH  15  16
ATOM     16  C   UNL A   1      33.038  16.755  24.825  1.00  0.00     0.058 C 
ATOM     17  C   UNL A   1      33.741  16.638  23.478  1.00  0.00     0.010 C 
ENDBRANCH  15  16
ENDBRANCH  12  15
ENDBRANCH   7  12
BRANCH  11  18
ATOM     18  S   UNL A   1      31.417  23.509  26.513  1.00  0.00    -0.122 SA
BRANCH  18  19
ATOM     19  C   UNL A   1      31.974  25.175  26.231  1.00  0.00     0.008 A 
ATOM     20  C   UNL A   1      33.332  25.415  26.005  1.00  0.00     0.019 A 
ATOM     21  C   UNL A   1      31.081  26.248  26.229  1.00  0.00     0.019 A 
ATOM     22  C   UNL A   1      33.779  26.711  25.735  1.00  0.00     0.047 A 
ATOM     23  C   UNL A   1      31.532  27.544  25.961  1.00  0.00     0.047 A 
ATOM     24  C   UNL A   1      32.883  27.780  25.705  1.00  0.00     0.118 A 
BRANCH  24  25
ATOM     25  O   UNL A   1      33.446  28.992  25.418  1.00  0.00    -0.497 OA
ATOM     26  C   UNL A   1      33.420  29.967  26.454  1.00  0.00     0.278 C 
ENDBRANCH  24  25
ENDBRANCH  18  19
ENDBRANCH  11  18
ENDBRANCH   4   7
ENDBRANCH   2   3
ENDBRANCH   1   2
BRANCH   1  27
ATOM     27  C   UNL A   1      37.556  23.016  25.733  1.00  0.00     0.023 C 
BRANCH  27  28
ATOM     28  C   UNL A   1      38.426  24.086  26.382  1.00  0.00     0.116 C 
BRANCH  28  29
ATOM     29  N   UNL A   1      39.848  23.963  26.086  1.00  0.00    -0.352 N 
ATOM     30  C   UNL A   1      40.872  24.750  26.560  1.00  0.00     0.251 C 
ATOM     31  H   UNL A   1      40.105  23.233  25.478  1.00  0.00     0.163 HD
ATOM     32  O   UNL A   1      42.027  24.581  26.185  1.00  0.00    -0.269 OA
BRANCH  30  33
ATOM     33  C   UNL A   1      40.540  25.845  27.489  1.00  0.00     0.039 A 
ATOM     34  C   UNL A   1      39.610  25.609  28.503  1.00  0.00     0.014 A 
ATOM     35  C   UNL A   1      41.229  27.058  27.415  1.00  0.00     0.014 A 
ATOM     36  C   UNL A   1      39.429  26.567  29.499  1.00  0.00     0.010 A 
ATOM     37  C   UNL A   1      41.098  27.980  28.446  1.00  0.00     0.010 A 
ATOM     38  C   UNL A   1      40.204  27.739  29.500  1.00  0.00    -0.014 A 
BRANCH  38  39
ATOM     39  C   UNL A   1      40.103  28.726  30.600  1.00  0.00     0.031 A 
ATOM     40  C   UNL A   1      39.087  29.828  30.526  1.00  0.00     0.074 A 
ATOM     41  C   UNL A   1      40.977  28.676  31.622  1.00  0.00     0.049 A 
ATOM     42  N   UNL A   1      38.890  30.828  31.345  1.00  0.00    -0.248 NA
ATOM     43  C   UNL A   1      38.194  29.822  29.356  1.00  0.00     0.031 C 
ATOM     44  C   UNL A   1      42.043  27.684  31.782  1.00  0.00     0.029 A 
ATOM     45  N   UNL A   1      41.110  29.487  32.721  1.00  0.00    -0.354 N 
ATOM     46  C   UNL A   1      37.871  31.581  30.778  1.00  0.00     0.074 A 
ATOM     47  C   UNL A   1      37.526  30.952  29.523  1.00  0.00     0.031 C 
ATOM     48  C   UNL A   1      42.696  27.922  32.930  1.00  0.00     0.029 A 
ATOM     49  C   UNL A   1      42.120  29.101  33.569  1.00  0.00     0.049 A 
ATOM     50  H   UNL A   1      40.538  30.270  32.886  1.00  0.00     0.167 HD
ATOM     51  C   UNL A   1      37.260  32.685  31.272  1.00  0.00     0.037 A 
ATOM     52  C   UNL A   1      42.526  29.636  34.735  1.00  0.00     0.037 A 
ATOM     53  C   UNL A   1      37.581  33.287  32.539  1.00  0.00     0.049 A 
ATOM     54  C   UNL A   1      41.830  30.856  35.267  1.00  0.00     0.074 A 
ATOM     55  C   UNL A   1      36.971  34.359  33.165  1.00  0.00     0.029 A 
ATOM     56  N   UNL A   1      38.603  32.863  33.374  1.00  0.00    -0.354 N 
ATOM     57  N   UNL A   1      40.823  31.521  34.754  1.00  0.00    -0.248 NA
ATOM     58  C   UNL A   1      42.327  31.399  36.539  1.00  0.00     0.031 C 
ATOM     59  C   UNL A   1      37.644  34.603  34.367  1.00  0.00     0.029 A 
ATOM     60  C   UNL A   1      38.653  33.663  34.504  1.00  0.00     0.049 A 
ATOM     61  H   UNL A   1      39.204  32.105  33.192  1.00  0.00     0.167 HD
ATOM     62  C   UNL A   1      40.547  32.544  35.653  1.00  0.00     0.074 A 
ATOM     63  C   UNL A   1      41.490  32.406  36.744  1.00  0.00     0.031 C 
ATOM     64  C   UNL A   1      39.596  33.506  35.582  1.00  0.00     0.037 A 
BRANCH  51  65
ATOM     65  C   UNL A   1      36.183  33.299  30.430  1.00  0.00     0.057 A 
ATOM     66  C   UNL A   1      34.824  33.078  30.692  1.00  0.00     0.134 A 
ATOM     67  C   UNL A   1      36.507  34.110  29.335  1.00  0.00     0.134 A 
ATOM     68  F   UNL A   1      34.449  32.296  31.716  1.00  0.00    -0.206 F 
ATOM     69  C   UNL A   1      33.826  33.610  29.874  1.00  0.00     0.040 A 
ATOM     70  C   UNL A   1      35.517  34.669  28.524  1.00  0.00     0.040 A 
ATOM     71  F   UNL A   1      37.788  34.363  29.029  1.00  0.00    -0.206 F 
ATOM     72  C   UNL A   1      34.172  34.411  28.788  1.00  0.00     0.006 A 
ENDBRANCH  51  65
BRANCH  52  73
ATOM     73  C   UNL A   1      43.615  28.989  35.505  1.00  0.00     0.057 A 
ATOM     74  C   UNL A   1      44.944  29.393  35.335  1.00  0.00     0.134 A 
ATOM     75  C   UNL A   1      43.361  27.969  36.429  1.00  0.00     0.134 A 
ATOM     76  F   UNL A   1      45.248  30.355  34.452  1.00  0.00    -0.206 F 
ATOM     77  C   UNL A   1      45.986  28.800  36.050  1.00  0.00     0.040 A 
ATOM     78  C   UNL A   1      44.391  27.379  37.164  1.00  0.00     0.040 A 
ATOM     79  F   UNL A   1      42.107  27.544  36.640  1.00  0.00    -0.206 F 
ATOM     80  C   UNL A   1      45.709  27.792  36.971  1.00  0.00     0.006 A 
ENDBRANCH  52  73
BRANCH  64  81
ATOM     81  C   UNL A   1      39.509  34.464  36.730  1.00  0.00     0.057 A 
ATOM     82  C   UNL A   1      38.819  34.145  37.905  1.00  0.00     0.134 A 
ATOM     83  C   UNL A   1      40.154  35.705  36.672  1.00  0.00     0.134 A 
ATOM     84  F   UNL A   1      38.168  32.977  38.016  1.00  0.00    -0.206 F 
ATOM     85  C   UNL A   1      38.761  35.034  38.980  1.00  0.00     0.040 A 
ATOM     86  C   UNL A   1      40.120  36.594  37.746  1.00  0.00     0.040 A 
ATOM     87  F   UNL A   1      40.836  36.068  35.575  1.00  0.00    -0.206 F 
ATOM     88  C   UNL A   1      39.419  36.261  38.902  1.00  0.00     0.006 A 
ENDBRANCH  64  81
ENDBRANCH  38  39
ENDBRANCH  30  33
ENDBRANCH  28  29
ENDBRANCH  27  28
ENDBRANCH   1  27
TORSDOF 17
ENDMDL
