MODEL 1
REMARK VINA RESULT:     -13.4      0.000      0.000
REMARK SMILES Cc1cccc(S(=O)(=O)Nc2cc(C(=O)NCCCCNC(=O)c3ccc(-c4c5nc(c(-c6c(F)cccc6F)c6ccc([nH]6)c(-c6c(F)cccc6F)c6nc(c(-c7c(F)cccc7F)c7ccc4[nH]7)C=C6)C=C5)cc3)ccc2N2CCC[C@H](C[NH+]3CCCC3)C2)c1
REMARK SMILES IDX 18 1 17 2 16 3 14 4 15 5 13 7 11 8 12 9 80 10 79 11 78 12
REMARK SMILES IDX 10 13 7 15 8 16 9 17 6 18 1 19 2 20 3 21 93 22 4 23 5 24
REMARK SMILES IDX 81 25 82 26 92 27 83 28 85 29 84 30 86 31 87 32 88 33 91 34
REMARK SMILES IDX 89 36 90 37 19 38 20 39 21 40 22 41 23 43 24 44 25 45 77 46
REMARK SMILES IDX 26 47 76 48 27 49 28 50 29 51 70 52 30 53 75 54 69 55 71 56
REMARK SMILES IDX 31 57 74 58 68 59 67 60 32 62 58 63 41 64 57 65 42 66 45 67
REMARK SMILES IDX 56 68 72 69 43 70 44 71 55 73 73 74 46 75 33 76 34 77 39 78
REMARK SMILES IDX 35 79 36 80 38 81 40 82 37 83 59 84 60 85 65 86 61 87 62 88
REMARK SMILES IDX 64 89 66 90 63 91 47 92 48 93 53 94 49 95 50 96 52 97 54 98
REMARK SMILES IDX 51 99
REMARK H PARENT 16 6 10 14 87 35 21 42 71 61 45 72
REMARK Flexibility Score: inf
ROOT
ATOM      1  C   UNL A   1      36.826  21.207  24.747  1.00  0.00     0.023 C 
ENDROOT
BRANCH   1   2
ATOM      2  C   UNL A   1      35.683  21.254  25.771  1.00  0.00     0.116 C 
BRANCH   2   3
ATOM      3  N   UNL A   1      34.559  20.426  25.367  1.00  0.00    -0.352 N 
ATOM      4  C   UNL A   1      33.412  20.675  24.654  1.00  0.00     0.251 C 
ATOM      5  O   UNL A   1      32.658  19.722  24.451  1.00  0.00    -0.269 OA
ATOM      6  H   UNL A   1      34.636  19.491  25.666  1.00  0.00     0.163 HD
BRANCH   4   7
ATOM      7  C   UNL A   1      33.066  21.999  24.062  1.00  0.00     0.042 A 
ATOM      8  C   UNL A   1      31.804  24.063  23.977  1.00  0.00     0.073 A 
ATOM      9  C   UNL A   1      31.937  22.739  24.398  1.00  0.00     0.042 A 
ATOM     10  C   UNL A   1      32.699  24.638  23.058  1.00  0.00     0.061 A 
ATOM     11  C   UNL A   1      33.771  23.845  22.630  1.00  0.00     0.029 A 
ATOM     12  C   UNL A   1      33.970  22.558  23.148  1.00  0.00     0.016 A 
BRANCH   8  13
ATOM     13  N   UNL A   1      30.764  24.844  24.566  1.00  0.00    -0.277 N 
ATOM     14  H   UNL A   1      29.988  25.115  24.026  1.00  0.00     0.180 HD
BRANCH  13  15
ATOM     15  S   UNL A   1      30.865  25.309  26.204  1.00  0.00     0.261 S 
ATOM     16  O   UNL A   1      31.503  24.180  26.858  1.00  0.00    -0.201 OA
ATOM     17  O   UNL A   1      29.531  25.710  26.596  1.00  0.00    -0.201 OA
BRANCH  15  18
ATOM     18  C   UNL A   1      31.927  26.722  26.466  1.00  0.00     0.088 A 
ATOM     19  C   UNL A   1      31.888  30.531  26.774  1.00  0.00     0.044 C 
ATOM     20  C   UNL A   1      32.363  29.108  26.716  1.00  0.00    -0.050 A 
ATOM     21  C   UNL A   1      33.726  28.871  26.559  1.00  0.00     0.003 A 
ATOM     22  C   UNL A   1      31.474  28.017  26.745  1.00  0.00     0.025 A 
ATOM     23  C   UNL A   1      34.181  27.572  26.388  1.00  0.00     0.002 A 
ATOM     24  C   UNL A   1      33.299  26.500  26.328  1.00  0.00     0.022 A 
ENDBRANCH  15  18
ENDBRANCH  13  15
ENDBRANCH   8  13
BRANCH  10  25
ATOM     25  N   UNL A   1      32.572  25.923  22.565  1.00  0.00    -0.369 N 
ATOM     26  C   UNL A   1      33.709  26.825  22.721  1.00  0.00     0.116 C 
ATOM     27  C   UNL A   1      31.506  26.317  21.646  1.00  0.00     0.126 C 
ATOM     28  C   UNL A   1      33.203  28.210  23.107  1.00  0.00     0.022 C 
ATOM     29  C   UNL A   1      30.945  27.697  22.031  1.00  0.00     0.064 C 
ATOM     30  C   UNL A   1      32.116  28.689  22.143  1.00  0.00     0.013 C 
BRANCH  29  31
ATOM     31  C   UNL A   1      30.052  27.546  23.290  1.00  0.00     0.267 C 
BRANCH  31  32
ATOM     32  N   UNL A   1      29.119  28.613  23.665  1.00  0.00    -0.335 N 
ATOM     33  C   UNL A   1      27.904  28.702  22.861  1.00  0.00     0.262 C 
ATOM     34  C   UNL A   1      29.687  29.952  23.778  1.00  0.00     0.262 C 
ATOM     35  H   UNL A   1      28.873  28.290  24.601  1.00  0.00     0.348 HD
ATOM     36  C   UNL A   1      28.134  29.867  21.920  1.00  0.00     0.067 C 
ATOM     37  C   UNL A   1      28.998  30.818  22.728  1.00  0.00     0.067 C 
ENDBRANCH  31  32
ENDBRANCH  29  31
ENDBRANCH  10  25
ENDBRANCH   4   7
ENDBRANCH   2   3
ENDBRANCH   1   2
BRANCH   1  38
ATOM     38  C   UNL A   1      38.214  21.195  25.385  1.00  0.00     0.023 C 
BRANCH  38  39
ATOM     39  C   UNL A   1      38.666  22.573  25.844  1.00  0.00     0.116 C 
BRANCH  39  40
ATOM     40  N   UNL A   1      40.060  22.638  26.259  1.00  0.00    -0.352 N 
ATOM     41  C   UNL A   1      40.814  23.724  26.677  1.00  0.00     0.251 C 
ATOM     42  H   UNL A   1      40.542  21.779  26.237  1.00  0.00     0.163 HD
ATOM     43  O   UNL A   1      41.997  23.586  26.926  1.00  0.00    -0.269 OA
BRANCH  41  44
ATOM     44  C   UNL A   1      40.139  25.016  26.981  1.00  0.00     0.039 A 
ATOM     45  C   UNL A   1      40.550  26.140  26.251  1.00  0.00     0.014 A 
ATOM     46  C   UNL A   1      39.327  25.172  28.097  1.00  0.00     0.014 A 
ATOM     47  C   UNL A   1      40.400  27.407  26.806  1.00  0.00     0.010 A 
ATOM     48  C   UNL A   1      39.274  26.408  28.706  1.00  0.00     0.010 A 
ATOM     49  C   UNL A   1      39.889  27.505  28.097  1.00  0.00    -0.014 A 
BRANCH  49  50
ATOM     50  C   UNL A   1      40.074  28.672  28.946  1.00  0.00     0.031 A 
ATOM     51  C   UNL A   1      39.008  29.688  29.054  1.00  0.00     0.074 A 
ATOM     52  C   UNL A   1      41.183  28.760  29.714  1.00  0.00     0.049 A 
ATOM     53  N   UNL A   1      39.181  30.880  29.511  1.00  0.00    -0.248 NA
ATOM     54  C   UNL A   1      37.648  29.450  28.592  1.00  0.00     0.031 C 
ATOM     55  C   UNL A   1      41.422  29.696  30.809  1.00  0.00     0.029 A 
ATOM     56  N   UNL A   1      42.426  28.153  29.530  1.00  0.00    -0.354 N 
ATOM     57  C   UNL A   1      37.941  31.443  29.710  1.00  0.00     0.074 A 
ATOM     58  C   UNL A   1      37.037  30.560  29.013  1.00  0.00     0.031 C 
ATOM     59  C   UNL A   1      42.746  29.854  30.957  1.00  0.00     0.029 A 
ATOM     60  C   UNL A   1      43.379  29.122  29.871  1.00  0.00     0.049 A 
ATOM     61  H   UNL A   1      42.598  27.233  29.223  1.00  0.00     0.167 HD
ATOM     62  C   UNL A   1      37.837  32.502  30.569  1.00  0.00     0.037 A 
ATOM     63  C   UNL A   1      44.313  29.637  29.024  1.00  0.00     0.037 A 
ATOM     64  C   UNL A   1      39.174  32.988  30.948  1.00  0.00     0.049 A 
ATOM     65  C   UNL A   1      44.213  31.143  28.962  1.00  0.00     0.074 A 
ATOM     66  C   UNL A   1      39.945  32.847  32.091  1.00  0.00     0.029 A 
ATOM     67  N   UNL A   1      40.033  33.479  29.962  1.00  0.00    -0.354 N 
ATOM     68  N   UNL A   1      43.115  31.794  29.251  1.00  0.00    -0.248 NA
ATOM     69  C   UNL A   1      45.316  32.035  28.624  1.00  0.00     0.031 C 
ATOM     70  C   UNL A   1      41.287  33.182  31.764  1.00  0.00     0.029 A 
ATOM     71  C   UNL A   1      41.331  33.555  30.431  1.00  0.00     0.049 A 
ATOM     72  H   UNL A   1      39.752  33.736  29.053  1.00  0.00     0.167 HD
ATOM     73  C   UNL A   1      43.361  33.138  29.229  1.00  0.00     0.074 A 
ATOM     74  C   UNL A   1      44.746  33.242  28.800  1.00  0.00     0.031 C 
ATOM     75  C   UNL A   1      42.418  34.057  29.595  1.00  0.00     0.037 A 
BRANCH  62  76
ATOM     76  C   UNL A   1      36.555  32.895  31.301  1.00  0.00     0.057 A 
ATOM     77  C   UNL A   1      35.646  33.809  30.725  1.00  0.00     0.134 A 
ATOM     78  C   UNL A   1      36.185  32.489  32.597  1.00  0.00     0.134 A 
ATOM     79  F   UNL A   1      35.775  34.233  29.461  1.00  0.00    -0.206 F 
ATOM     80  C   UNL A   1      34.545  34.347  31.416  1.00  0.00     0.040 A 
ATOM     81  C   UNL A   1      35.110  33.043  33.313  1.00  0.00     0.040 A 
ATOM     82  F   UNL A   1      36.798  31.491  33.234  1.00  0.00    -0.206 F 
ATOM     83  C   UNL A   1      34.291  33.989  32.728  1.00  0.00     0.006 A 
ENDBRANCH  62  76
BRANCH  63  84
ATOM     84  C   UNL A   1      44.714  28.720  27.930  1.00  0.00     0.057 A 
ATOM     85  C   UNL A   1      45.596  27.671  28.248  1.00  0.00     0.134 A 
ATOM     86  C   UNL A   1      43.957  28.582  26.763  1.00  0.00     0.134 A 
ATOM     87  F   UNL A   1      46.363  27.751  29.346  1.00  0.00    -0.206 F 
ATOM     88  C   UNL A   1      45.613  26.475  27.527  1.00  0.00     0.040 A 
ATOM     89  C   UNL A   1      43.978  27.394  26.022  1.00  0.00     0.040 A 
ATOM     90  F   UNL A   1      43.078  29.528  26.406  1.00  0.00    -0.206 F 
ATOM     91  C   UNL A   1      44.770  26.320  26.430  1.00  0.00     0.006 A 
ENDBRANCH  63  84
BRANCH  75  92
ATOM     92  C   UNL A   1      42.491  35.534  29.301  1.00  0.00     0.057 A 
ATOM     93  C   UNL A   1      43.362  36.415  29.959  1.00  0.00     0.134 A 
ATOM     94  C   UNL A   1      41.795  36.088  28.204  1.00  0.00     0.134 A 
ATOM     95  F   UNL A   1      44.169  36.001  30.945  1.00  0.00    -0.206 F 
ATOM     96  C   UNL A   1      43.491  37.761  29.591  1.00  0.00     0.040 A 
ATOM     97  C   UNL A   1      41.957  37.414  27.794  1.00  0.00     0.040 A 
ATOM     98  F   UNL A   1      40.950  35.359  27.460  1.00  0.00    -0.206 F 
ATOM     99  C   UNL A   1      42.799  38.262  28.496  1.00  0.00     0.006 A 
ENDBRANCH  75  92
ENDBRANCH  49  50
ENDBRANCH  41  44
ENDBRANCH  39  40
ENDBRANCH  38  39
ENDBRANCH   1  38
TORSDOF 17
ENDMDL
MODEL 2
REMARK VINA RESULT:     -12.9      3.701      9.044
REMARK SMILES Cc1cccc(S(=O)(=O)Nc2cc(C(=O)NCCCCNC(=O)c3ccc(-c4c5nc(c(-c6c(F)cccc6F)c6ccc([nH]6)c(-c6c(F)cccc6F)c6nc(c(-c7c(F)cccc7F)c7ccc4[nH]7)C=C6)C=C5)cc3)ccc2N2CCC[C@H](C[NH+]3CCCC3)C2)c1
REMARK SMILES IDX 18 1 17 2 16 3 14 4 15 5 13 7 11 8 12 9 80 10 79 11 78 12
REMARK SMILES IDX 10 13 7 15 8 16 9 17 6 18 1 19 2 20 3 21 93 22 4 23 5 24
REMARK SMILES IDX 81 25 82 26 92 27 83 28 85 29 84 30 86 31 87 32 88 33 91 34
REMARK SMILES IDX 89 36 90 37 19 38 20 39 21 40 22 41 23 43 24 44 25 45 77 46
REMARK SMILES IDX 26 47 76 48 27 49 28 50 29 51 70 52 30 53 75 54 69 55 71 56
REMARK SMILES IDX 31 57 74 58 68 59 67 60 32 62 58 63 41 64 57 65 42 66 45 67
REMARK SMILES IDX 56 68 72 69 43 70 44 71 55 73 73 74 46 75 33 76 34 77 39 78
REMARK SMILES IDX 35 79 36 80 38 81 40 82 37 83 59 84 60 85 65 86 61 87 62 88
REMARK SMILES IDX 64 89 66 90 63 91 47 92 48 93 53 94 49 95 50 96 52 97 54 98
REMARK SMILES IDX 51 99
REMARK H PARENT 16 6 10 14 87 35 21 42 71 61 45 72
REMARK Flexibility Score: inf
ROOT
ATOM      1  C   UNL A   1      35.531  31.856  28.270  1.00  0.00     0.023 C 
ENDROOT
BRANCH   1   2
ATOM      2  C   UNL A   1      34.596  30.855  27.577  1.00  0.00     0.116 C 
BRANCH   2   3
ATOM      3  N   UNL A   1      33.292  31.435  27.299  1.00  0.00    -0.352 N 
ATOM      4  C   UNL A   1      32.117  30.922  26.810  1.00  0.00     0.251 C 
ATOM      5  O   UNL A   1      31.159  31.693  26.722  1.00  0.00    -0.269 OA
ATOM      6  H   UNL A   1      33.242  32.396  27.505  1.00  0.00     0.163 HD
BRANCH   4   7
ATOM      7  C   UNL A   1      31.916  29.489  26.446  1.00  0.00     0.042 A 
ATOM      8  C   UNL A   1      31.867  27.646  24.879  1.00  0.00     0.073 A 
ATOM      9  C   UNL A   1      31.821  29.015  25.143  1.00  0.00     0.042 A 
ATOM     10  C   UNL A   1      31.826  26.694  25.914  1.00  0.00     0.061 A 
ATOM     11  C   UNL A   1      31.802  27.180  27.227  1.00  0.00     0.029 A 
ATOM     12  C   UNL A   1      31.878  28.554  27.491  1.00  0.00     0.016 A 
BRANCH   8  13
ATOM     13  N   UNL A   1      32.029  27.237  23.521  1.00  0.00    -0.277 N 
ATOM     14  H   UNL A   1      32.933  27.110  23.151  1.00  0.00     0.180 HD
BRANCH  13  15
ATOM     15  S   UNL A   1      30.662  26.968  22.538  1.00  0.00     0.261 S 
ATOM     16  O   UNL A   1      30.029  25.797  23.116  1.00  0.00    -0.201 OA
ATOM     17  O   UNL A   1      31.143  26.929  21.173  1.00  0.00    -0.201 OA
BRANCH  15  18
ATOM     18  C   UNL A   1      29.466  28.294  22.625  1.00  0.00     0.088 A 
ATOM     19  C   UNL A   1      29.126  32.093  22.387  1.00  0.00     0.044 C 
ATOM     20  C   UNL A   1      28.798  30.638  22.557  1.00  0.00    -0.050 A 
ATOM     21  C   UNL A   1      27.564  30.297  23.104  1.00  0.00     0.003 A 
ATOM     22  C   UNL A   1      29.719  29.619  22.249  1.00  0.00     0.025 A 
ATOM     23  C   UNL A   1      27.278  28.967  23.378  1.00  0.00     0.002 A 
ATOM     24  C   UNL A   1      28.217  27.967  23.157  1.00  0.00     0.022 A 
ENDBRANCH  15  18
ENDBRANCH  13  15
ENDBRANCH   8  13
BRANCH  10  25
ATOM     25  N   UNL A   1      31.807  25.329  25.700  1.00  0.00    -0.369 N 
ATOM     26  C   UNL A   1      30.633  24.588  26.150  1.00  0.00     0.116 C 
ATOM     27  C   UNL A   1      32.735  24.655  24.793  1.00  0.00     0.126 C 
ATOM     28  C   UNL A   1      31.078  23.272  26.778  1.00  0.00     0.022 C 
ATOM     29  C   UNL A   1      33.235  23.339  25.413  1.00  0.00     0.064 C 
ATOM     30  C   UNL A   1      32.015  22.505  25.843  1.00  0.00     0.013 C 
BRANCH  29  31
ATOM     31  C   UNL A   1      34.269  23.663  26.522  1.00  0.00     0.267 C 
BRANCH  31  32
ATOM     32  N   UNL A   1      35.572  22.993  26.535  1.00  0.00    -0.335 N 
ATOM     33  C   UNL A   1      36.679  23.750  25.959  1.00  0.00     0.262 C 
ATOM     34  C   UNL A   1      35.607  21.645  25.977  1.00  0.00     0.262 C 
ATOM     35  H   UNL A   1      35.709  22.925  27.544  1.00  0.00     0.348 HD
ATOM     36  C   UNL A   1      36.901  23.148  24.586  1.00  0.00     0.067 C 
ATOM     37  C   UNL A   1      36.539  21.686  24.771  1.00  0.00     0.067 C 
ENDBRANCH  31  32
ENDBRANCH  29  31
ENDBRANCH  10  25
ENDBRANCH   4   7
ENDBRANCH   2   3
ENDBRANCH   1   2
BRANCH   1  38
ATOM     38  C   UNL A   1      35.042  32.288  29.652  1.00  0.00     0.023 C 
BRANCH  38  39
ATOM     39  C   UNL A   1      34.819  33.788  29.758  1.00  0.00     0.116 C 
BRANCH  39  40
ATOM     40  N   UNL A   1      33.930  34.185  30.842  1.00  0.00    -0.352 N 
ATOM     41  C   UNL A   1      34.133  34.155  32.214  1.00  0.00     0.251 C 
ATOM     42  H   UNL A   1      33.051  34.524  30.557  1.00  0.00     0.163 HD
ATOM     43  O   UNL A   1      33.234  34.475  32.970  1.00  0.00    -0.269 OA
BRANCH  41  44
ATOM     44  C   UNL A   1      35.496  33.893  32.752  1.00  0.00     0.039 A 
ATOM     45  C   UNL A   1      36.554  34.626  32.197  1.00  0.00     0.014 A 
ATOM     46  C   UNL A   1      35.760  32.807  33.578  1.00  0.00     0.014 A 
ATOM     47  C   UNL A   1      37.840  34.094  32.225  1.00  0.00     0.010 A 
ATOM     48  C   UNL A   1      37.005  32.219  33.514  1.00  0.00     0.010 A 
ATOM     49  C   UNL A   1      38.017  32.823  32.763  1.00  0.00    -0.014 A 
BRANCH  49  50
ATOM     50  C   UNL A   1      39.173  31.986  32.478  1.00  0.00     0.031 A 
ATOM     51  C   UNL A   1      39.020  30.759  31.671  1.00  0.00     0.074 A 
ATOM     52  C   UNL A   1      40.399  32.400  32.869  1.00  0.00     0.049 A 
ATOM     53  N   UNL A   1      39.886  29.806  31.624  1.00  0.00    -0.248 NA
ATOM     54  C   UNL A   1      37.829  30.483  30.882  1.00  0.00     0.031 C 
ATOM     55  C   UNL A   1      41.686  31.850  32.452  1.00  0.00     0.029 A 
ATOM     56  N   UNL A   1      40.740  33.281  33.897  1.00  0.00    -0.354 N 
ATOM     57  C   UNL A   1      39.541  28.971  30.586  1.00  0.00     0.074 A 
ATOM     58  C   UNL A   1      38.198  29.371  30.242  1.00  0.00     0.031 C 
ATOM     59  C   UNL A   1      42.595  32.119  33.402  1.00  0.00     0.029 A 
ATOM     60  C   UNL A   1      41.875  32.732  34.508  1.00  0.00     0.049 A 
ATOM     61  H   UNL A   1      40.277  34.114  34.142  1.00  0.00     0.167 HD
ATOM     62  C   UNL A   1      40.504  28.154  30.061  1.00  0.00     0.037 A 
ATOM     63  C   UNL A   1      41.950  32.328  35.807  1.00  0.00     0.037 A 
ATOM     64  C   UNL A   1      41.710  28.174  30.905  1.00  0.00     0.049 A 
ATOM     65  C   UNL A   1      42.387  30.885  35.897  1.00  0.00     0.074 A 
ATOM     66  C   UNL A   1      42.945  28.789  30.779  1.00  0.00     0.029 A 
ATOM     67  N   UNL A   1      41.630  27.738  32.230  1.00  0.00    -0.354 N 
ATOM     68  N   UNL A   1      42.222  30.030  34.921  1.00  0.00    -0.248 NA
ATOM     69  C   UNL A   1      43.072  30.296  37.043  1.00  0.00     0.031 C 
ATOM     70  C   UNL A   1      43.572  28.790  32.054  1.00  0.00     0.029 A 
ATOM     71  C   UNL A   1      42.735  28.150  32.952  1.00  0.00     0.049 A 
ATOM     72  H   UNL A   1      40.886  27.210  32.600  1.00  0.00     0.167 HD
ATOM     73  C   UNL A   1      42.825  28.846  35.242  1.00  0.00     0.074 A 
ATOM     74  C   UNL A   1      43.316  29.050  36.595  1.00  0.00     0.031 C 
ATOM     75  C   UNL A   1      42.898  27.804  34.361  1.00  0.00     0.037 A 
BRANCH  62  76
ATOM     76  C   UNL A   1      40.474  27.587  28.642  1.00  0.00     0.057 A 
ATOM     77  C   UNL A   1      39.841  26.355  28.370  1.00  0.00     0.134 A 
ATOM     78  C   UNL A   1      41.109  28.144  27.515  1.00  0.00     0.134 A 
ATOM     79  F   UNL A   1      39.102  25.721  29.291  1.00  0.00    -0.206 F 
ATOM     80  C   UNL A   1      39.930  25.694  27.132  1.00  0.00     0.040 A 
ATOM     81  C   UNL A   1      41.237  27.481  26.284  1.00  0.00     0.040 A 
ATOM     82  F   UNL A   1      41.594  29.386  27.511  1.00  0.00    -0.206 F 
ATOM     83  C   UNL A   1      40.658  26.241  26.090  1.00  0.00     0.006 A 
ENDBRANCH  62  76
BRANCH  63  84
ATOM     84  C   UNL A   1      41.029  33.044  36.721  1.00  0.00     0.057 A 
ATOM     85  C   UNL A   1      41.439  34.300  37.208  1.00  0.00     0.134 A 
ATOM     86  C   UNL A   1      39.662  32.760  36.769  1.00  0.00     0.134 A 
ATOM     87  F   UNL A   1      42.740  34.626  37.206  1.00  0.00    -0.206 F 
ATOM     88  C   UNL A   1      40.520  35.284  37.582  1.00  0.00     0.040 A 
ATOM     89  C   UNL A   1      38.732  33.733  37.157  1.00  0.00     0.040 A 
ATOM     90  F   UNL A   1      39.192  31.595  36.301  1.00  0.00    -0.206 F 
ATOM     91  C   UNL A   1      39.156  35.012  37.519  1.00  0.00     0.006 A 
ENDBRANCH  63  84
BRANCH  75  92
ATOM     92  C   UNL A   1      43.249  26.385  34.729  1.00  0.00     0.057 A 
ATOM     93  C   UNL A   1      42.305  25.431  35.138  1.00  0.00     0.134 A 
ATOM     94  C   UNL A   1      44.550  25.881  34.507  1.00  0.00     0.134 A 
ATOM     95  F   UNL A   1      41.009  25.741  35.278  1.00  0.00    -0.206 F 
ATOM     96  C   UNL A   1      42.639  24.090  35.365  1.00  0.00     0.040 A 
ATOM     97  C   UNL A   1      44.882  24.534  34.678  1.00  0.00     0.040 A 
ATOM     98  F   UNL A   1      45.551  26.667  34.084  1.00  0.00    -0.206 F 
ATOM     99  C   UNL A   1      43.928  23.634  35.121  1.00  0.00     0.006 A 
ENDBRANCH  75  92
ENDBRANCH  49  50
ENDBRANCH  41  44
ENDBRANCH  39  40
ENDBRANCH  38  39
ENDBRANCH   1  38
TORSDOF 17
ENDMDL
MODEL 3
REMARK VINA RESULT:     -12.7      2.159      3.123
REMARK SMILES Cc1cccc(S(=O)(=O)Nc2cc(C(=O)NCCCCNC(=O)c3ccc(-c4c5nc(c(-c6c(F)cccc6F)c6ccc([nH]6)c(-c6c(F)cccc6F)c6nc(c(-c7c(F)cccc7F)c7ccc4[nH]7)C=C6)C=C5)cc3)ccc2N2CCC[C@H](C[NH+]3CCCC3)C2)c1
REMARK SMILES IDX 18 1 17 2 16 3 14 4 15 5 13 7 11 8 12 9 80 10 79 11 78 12
REMARK SMILES IDX 10 13 7 15 8 16 9 17 6 18 1 19 2 20 3 21 93 22 4 23 5 24
REMARK SMILES IDX 81 25 82 26 92 27 83 28 85 29 84 30 86 31 87 32 88 33 91 34
REMARK SMILES IDX 89 36 90 37 19 38 20 39 21 40 22 41 23 43 24 44 25 45 77 46
REMARK SMILES IDX 26 47 76 48 27 49 28 50 29 51 70 52 30 53 75 54 69 55 71 56
REMARK SMILES IDX 31 57 74 58 68 59 67 60 32 62 58 63 41 64 57 65 42 66 45 67
REMARK SMILES IDX 56 68 72 69 43 70 44 71 55 73 73 74 46 75 33 76 34 77 39 78
REMARK SMILES IDX 35 79 36 80 38 81 40 82 37 83 59 84 60 85 65 86 61 87 62 88
REMARK SMILES IDX 64 89 66 90 63 91 47 92 48 93 53 94 49 95 50 96 52 97 54 98
REMARK SMILES IDX 51 99
REMARK H PARENT 16 6 10 14 87 35 21 42 71 61 45 72
REMARK Flexibility Score: inf
ROOT
ATOM      1  C   UNL A   1      35.768  20.742  24.996  1.00  0.00     0.023 C 
ENDROOT
BRANCH   1   2
ATOM      2  C   UNL A   1      34.399  20.385  25.592  1.00  0.00     0.116 C 
BRANCH   2   3
ATOM      3  N   UNL A   1      33.532  19.746  24.614  1.00  0.00    -0.352 N 
ATOM      4  C   UNL A   1      32.704  20.227  23.631  1.00  0.00     0.251 C 
ATOM      5  O   UNL A   1      32.117  19.398  22.934  1.00  0.00    -0.269 OA
ATOM      6  H   UNL A   1      33.542  18.763  24.668  1.00  0.00     0.163 HD
BRANCH   4   7
ATOM      7  C   UNL A   1      32.528  21.675  23.319  1.00  0.00     0.042 A 
ATOM      8  C   UNL A   1      31.892  23.942  23.879  1.00  0.00     0.073 A 
ATOM      9  C   UNL A   1      31.816  22.569  24.112  1.00  0.00     0.042 A 
ATOM     10  C   UNL A   1      32.531  24.462  22.739  1.00  0.00     0.061 A 
ATOM     11  C   UNL A   1      33.146  23.545  21.878  1.00  0.00     0.029 A 
ATOM     12  C   UNL A   1      33.172  22.177  22.179  1.00  0.00     0.016 A 
BRANCH   8  13
ATOM     13  N   UNL A   1      31.358  24.815  24.875  1.00  0.00    -0.277 N 
ATOM     14  H   UNL A   1      30.476  25.230  24.742  1.00  0.00     0.180 HD
BRANCH  13  15
ATOM     15  S   UNL A   1      32.247  25.139  26.294  1.00  0.00     0.261 S 
ATOM     16  O   UNL A   1      33.543  24.532  26.051  1.00  0.00    -0.201 OA
ATOM     17  O   UNL A   1      31.431  24.682  27.399  1.00  0.00    -0.201 OA
BRANCH  15  18
ATOM     18  C   UNL A   1      32.537  26.884  26.555  1.00  0.00     0.088 A 
ATOM     19  C   UNL A   1      35.301  29.427  27.257  1.00  0.00     0.044 C 
ATOM     20  C   UNL A   1      33.954  28.817  27.001  1.00  0.00    -0.050 A 
ATOM     21  C   UNL A   1      32.820  29.580  27.268  1.00  0.00     0.003 A 
ATOM     22  C   UNL A   1      33.801  27.486  26.569  1.00  0.00     0.025 A 
ATOM     23  C   UNL A   1      31.563  29.006  27.150  1.00  0.00     0.002 A 
ATOM     24  C   UNL A   1      31.410  27.668  26.810  1.00  0.00     0.022 A 
ENDBRANCH  15  18
ENDBRANCH  13  15
ENDBRANCH   8  13
BRANCH  10  25
ATOM     25  N   UNL A   1      32.577  25.810  22.433  1.00  0.00    -0.369 N 
ATOM     26  C   UNL A   1      33.793  26.541  22.773  1.00  0.00     0.116 C 
ATOM     27  C   UNL A   1      31.621  26.451  21.533  1.00  0.00     0.126 C 
ATOM     28  C   UNL A   1      33.419  27.909  23.332  1.00  0.00     0.022 C 
ATOM     29  C   UNL A   1      31.191  27.820  22.087  1.00  0.00     0.064 C 
ATOM     30  C   UNL A   1      32.454  28.642  22.398  1.00  0.00     0.013 C 
BRANCH  29  31
ATOM     31  C   UNL A   1      30.209  27.601  23.268  1.00  0.00     0.267 C 
BRANCH  31  32
ATOM     32  N   UNL A   1      29.308  28.678  23.687  1.00  0.00    -0.335 N 
ATOM     33  C   UNL A   1      27.979  28.664  23.081  1.00  0.00     0.262 C 
ATOM     34  C   UNL A   1      29.837  30.034  23.587  1.00  0.00     0.262 C 
ATOM     35  H   UNL A   1      29.222  28.441  24.676  1.00  0.00     0.348 HD
ATOM     36  C   UNL A   1      28.018  29.738  22.014  1.00  0.00     0.067 C 
ATOM     37  C   UNL A   1      28.962  30.781  22.585  1.00  0.00     0.067 C 
ENDBRANCH  31  32
ENDBRANCH  29  31
ENDBRANCH  10  25
ENDBRANCH   4   7
ENDBRANCH   2   3
ENDBRANCH   1   2
BRANCH   1  38
ATOM     38  C   UNL A   1      36.000  22.246  24.864  1.00  0.00     0.023 C 
BRANCH  38  39
ATOM     39  C   UNL A   1      37.462  22.602  24.641  1.00  0.00     0.116 C 
BRANCH  39  40
ATOM     40  N   UNL A   1      38.388  21.907  25.525  1.00  0.00    -0.352 N 
ATOM     41  C   UNL A   1      39.323  22.418  26.413  1.00  0.00     0.251 C 
ATOM     42  H   UNL A   1      38.344  20.924  25.485  1.00  0.00     0.163 HD
ATOM     43  O   UNL A   1      40.056  21.665  27.027  1.00  0.00    -0.269 OA
BRANCH  41  44
ATOM     44  C   UNL A   1      39.313  23.871  26.737  1.00  0.00     0.039 A 
ATOM     45  C   UNL A   1      40.018  24.723  25.876  1.00  0.00     0.014 A 
ATOM     46  C   UNL A   1      38.853  24.345  27.960  1.00  0.00     0.014 A 
ATOM     47  C   UNL A   1      40.510  25.930  26.363  1.00  0.00     0.010 A 
ATOM     48  C   UNL A   1      39.429  25.482  28.485  1.00  0.00     0.010 A 
ATOM     49  C   UNL A   1      40.326  26.222  27.711  1.00  0.00    -0.014 A 
BRANCH  49  50
ATOM     50  C   UNL A   1      41.128  27.195  28.438  1.00  0.00     0.031 A 
ATOM     51  C   UNL A   1      40.607  28.555  28.681  1.00  0.00     0.074 A 
ATOM     52  C   UNL A   1      42.305  26.807  28.979  1.00  0.00     0.049 A 
ATOM     53  N   UNL A   1      41.332  29.563  29.024  1.00  0.00    -0.248 NA
ATOM     54  C   UNL A   1      39.205  28.902  28.496  1.00  0.00     0.031 C 
ATOM     55  C   UNL A   1      43.110  27.541  29.952  1.00  0.00     0.029 A 
ATOM     56  N   UNL A   1      43.135  25.749  28.604  1.00  0.00    -0.354 N 
ATOM     57  C   UNL A   1      40.490  30.578  29.415  1.00  0.00     0.074 A 
ATOM     58  C   UNL A   1      39.190  30.156  28.954  1.00  0.00     0.031 C 
ATOM     59  C   UNL A   1      44.385  27.141  29.841  1.00  0.00     0.029 A 
ATOM     60  C   UNL A   1      44.444  26.238  28.702  1.00  0.00     0.049 A 
ATOM     61  H   UNL A   1      42.857  24.846  28.327  1.00  0.00     0.167 HD
ATOM     62  C   UNL A   1      40.992  31.569  30.213  1.00  0.00     0.037 A 
ATOM     63  C   UNL A   1      45.322  26.344  27.666  1.00  0.00     0.037 A 
ATOM     64  C   UNL A   1      42.457  31.460  30.306  1.00  0.00     0.049 A 
ATOM     65  C   UNL A   1      45.829  27.761  27.533  1.00  0.00     0.074 A 
ATOM     66  C   UNL A   1      43.313  30.993  31.292  1.00  0.00     0.029 A 
ATOM     67  N   UNL A   1      43.232  31.578  29.149  1.00  0.00    -0.354 N 
ATOM     68  N   UNL A   1      45.167  28.797  27.981  1.00  0.00    -0.248 NA
ATOM     69  C   UNL A   1      47.109  28.132  26.941  1.00  0.00     0.031 C 
ATOM     70  C   UNL A   1      44.583  30.757  30.701  1.00  0.00     0.029 A 
ATOM     71  C   UNL A   1      44.514  31.108  29.363  1.00  0.00     0.049 A 
ATOM     72  H   UNL A   1      42.907  31.946  28.295  1.00  0.00     0.167 HD
ATOM     73  C   UNL A   1      45.925  29.924  27.832  1.00  0.00     0.074 A 
ATOM     74  C   UNL A   1      47.121  29.463  27.147  1.00  0.00     0.031 C 
ATOM     75  C   UNL A   1      45.525  31.140  28.310  1.00  0.00     0.037 A 
BRANCH  62  76
ATOM     76  C   UNL A   1      40.147  32.436  31.146  1.00  0.00     0.057 A 
ATOM     77  C   UNL A   1      39.551  31.885  32.301  1.00  0.00     0.134 A 
ATOM     78  C   UNL A   1      39.806  33.786  30.937  1.00  0.00     0.134 A 
ATOM     79  F   UNL A   1      39.834  30.644  32.719  1.00  0.00    -0.206 F 
ATOM     80  C   UNL A   1      38.622  32.577  33.099  1.00  0.00     0.040 A 
ATOM     81  C   UNL A   1      38.854  34.478  31.703  1.00  0.00     0.040 A 
ATOM     82  F   UNL A   1      40.411  34.541  30.019  1.00  0.00    -0.206 F 
ATOM     83  C   UNL A   1      38.244  33.870  32.783  1.00  0.00     0.006 A 
ENDBRANCH  62  76
BRANCH  63  84
ATOM     84  C   UNL A   1      45.097  25.367  26.574  1.00  0.00     0.057 A 
ATOM     85  C   UNL A   1      45.558  24.052  26.771  1.00  0.00     0.134 A 
ATOM     86  C   UNL A   1      44.112  25.556  25.601  1.00  0.00     0.134 A 
ATOM     87  F   UNL A   1      46.515  23.807  27.678  1.00  0.00    -0.206 F 
ATOM     88  C   UNL A   1      44.961  22.957  26.140  1.00  0.00     0.040 A 
ATOM     89  C   UNL A   1      43.518  24.468  24.950  1.00  0.00     0.040 A 
ATOM     90  F   UNL A   1      43.605  26.776  25.373  1.00  0.00    -0.206 F 
ATOM     91  C   UNL A   1      43.909  23.163  25.253  1.00  0.00     0.006 A 
ENDBRANCH  63  84
BRANCH  75  92
ATOM     92  C   UNL A   1      46.129  32.465  27.919  1.00  0.00     0.057 A 
ATOM     93  C   UNL A   1      47.111  33.124  28.673  1.00  0.00     0.134 A 
ATOM     94  C   UNL A   1      45.860  33.038  26.656  1.00  0.00     0.134 A 
ATOM     95  F   UNL A   1      47.550  32.632  29.840  1.00  0.00    -0.206 F 
ATOM     96  C   UNL A   1      47.738  34.297  28.232  1.00  0.00     0.040 A 
ATOM     97  C   UNL A   1      46.518  34.176  26.183  1.00  0.00     0.040 A 
ATOM     98  F   UNL A   1      44.968  32.501  25.811  1.00  0.00    -0.206 F 
ATOM     99  C   UNL A   1      47.454  34.819  26.977  1.00  0.00     0.006 A 
ENDBRANCH  75  92
ENDBRANCH  49  50
ENDBRANCH  41  44
ENDBRANCH  39  40
ENDBRANCH  38  39
ENDBRANCH   1  38
TORSDOF 17
ENDMDL
