MODEL 1
REMARK VINA RESULT:     -11.1      0.000      0.000
REMARK SMILES NC(=O)C[C@H](NC(=O)[C@@H]1CC(=O)N(CC2CC2)C1)C(=O)NCCCCNC(=O)c1ccc(-c2c3nc(c(-c4c(F)cccc4F)c4ccc([nH]4)c(-c4c(F)cccc4F)c4nc(c(-c5c(F)cccc5F)c5ccc2[nH]5)C=C4)C=C3)cc1
REMARK SMILES IDX 22 1 21 2 19 3 20 4 5 6 4 7 2 8 1 9 3 12 6 13 7 14 8 16 9 17
REMARK SMILES IDX 10 18 18 19 11 20 13 21 12 22 14 23 15 24 16 25 17 26 23 27
REMARK SMILES IDX 24 28 25 29 26 30 27 31 28 33 29 34 30 35 82 36 31 37 81 38
REMARK SMILES IDX 32 39 33 40 34 41 75 42 35 43 80 44 74 45 76 46 36 47 79 48
REMARK SMILES IDX 73 49 72 50 37 52 63 53 46 54 62 55 47 56 50 57 61 58 77 59
REMARK SMILES IDX 48 60 49 61 60 63 78 64 51 65 38 66 39 67 44 68 40 69 41 70
REMARK SMILES IDX 43 71 45 72 42 73 64 74 65 75 70 76 66 77 67 78 69 79 71 80
REMARK SMILES IDX 68 81 52 82 53 83 58 84 54 85 55 86 57 87 59 88 56 89
REMARK H PARENT 21 5 1 10 1 11 6 15 26 32 76 51 50 62
REMARK Flexibility Score: inf
ROOT
ATOM      1  C   UNL A   1      32.197  29.568  24.965  1.00  0.00     0.116 C 
ENDROOT
BRANCH   1   2
ATOM      2  N   UNL A   1      31.117  29.544  23.985  1.00  0.00    -0.354 N 
ATOM      3  C   UNL A   1      30.583  28.459  23.331  1.00  0.00     0.243 C 
ATOM      4  O   UNL A   1      29.557  28.593  22.666  1.00  0.00    -0.273 OA
ATOM      5  H   UNL A   1      30.720  30.417  23.762  1.00  0.00     0.163 HD
BRANCH   3   6
ATOM      6  C   UNL A   1      31.212  27.072  23.566  1.00  0.00     0.180 C 
BRANCH   6   7
ATOM      7  C   UNL A   1      31.075  26.344  22.223  1.00  0.00     0.134 C 
BRANCH   7   8
ATOM      8  C   UNL A   1      32.381  26.055  21.514  1.00  0.00     0.220 C 
ATOM      9  N   UNL A   1      32.358  25.693  20.206  1.00  0.00    -0.370 N 
ATOM     10  H   UNL A   1      33.200  25.503  19.733  1.00  0.00     0.159 HD
ATOM     11  H   UNL A   1      31.499  25.621  19.731  1.00  0.00     0.159 HD
ATOM     12  O   UNL A   1      33.450  26.099  22.116  1.00  0.00    -0.275 OA
ENDBRANCH   7   8
ENDBRANCH   6   7
BRANCH   6  13
ATOM     13  N   UNL A   1      30.554  26.578  24.798  1.00  0.00    -0.343 N 
ATOM     14  C   UNL A   1      30.513  25.491  25.592  1.00  0.00     0.226 C 
ATOM     15  H   UNL A   1      29.949  27.271  25.150  1.00  0.00     0.164 HD
ATOM     16  O   UNL A   1      29.871  25.654  26.635  1.00  0.00    -0.275 OA
BRANCH  14  17
ATOM     17  C   UNL A   1      31.004  24.111  25.200  1.00  0.00     0.107 C 
ATOM     18  C   UNL A   1      30.867  23.115  26.365  1.00  0.00     0.115 C 
ATOM     19  C   UNL A   1      32.456  24.001  24.819  1.00  0.00     0.133 C 
ATOM     20  C   UNL A   1      32.262  23.044  26.937  1.00  0.00     0.223 C 
ATOM     21  N   UNL A   1      33.134  23.511  25.978  1.00  0.00    -0.342 N 
ATOM     22  O   UNL A   1      32.554  22.609  28.042  1.00  0.00    -0.275 OA
BRANCH  21  23
ATOM     23  C   UNL A   1      34.575  23.592  26.111  1.00  0.00     0.123 C 
BRANCH  23  24
ATOM     24  C   UNL A   1      35.360  23.169  24.902  1.00  0.00     0.008 C 
ATOM     25  C   UNL A   1      36.857  23.314  24.765  1.00  0.00     0.006 C 
ATOM     26  C   UNL A   1      36.246  21.944  24.883  1.00  0.00     0.006 C 
ENDBRANCH  23  24
ENDBRANCH  21  23
ENDBRANCH  14  17
ENDBRANCH   6  13
ENDBRANCH   3   6
ENDBRANCH   1   2
BRANCH   1  27
ATOM     27  C   UNL A   1      31.711  29.988  26.345  1.00  0.00     0.023 C 
BRANCH  27  28
ATOM     28  C   UNL A   1      31.537  31.496  26.496  1.00  0.00     0.023 C 
BRANCH  28  29
ATOM     29  C   UNL A   1      32.728  32.210  27.123  1.00  0.00     0.116 C 
BRANCH  29  30
ATOM     30  N   UNL A   1      32.435  33.585  27.503  1.00  0.00    -0.352 N 
ATOM     31  C   UNL A   1      33.133  34.393  28.369  1.00  0.00     0.251 C 
ATOM     32  H   UNL A   1      31.638  33.986  27.086  1.00  0.00     0.163 HD
ATOM     33  O   UNL A   1      32.692  35.487  28.700  1.00  0.00    -0.269 OA
BRANCH  31  34
ATOM     34  C   UNL A   1      34.411  33.903  28.922  1.00  0.00     0.039 A 
ATOM     35  C   UNL A   1      34.397  33.148  30.095  1.00  0.00     0.014 A 
ATOM     36  C   UNL A   1      35.608  34.137  28.239  1.00  0.00     0.014 A 
ATOM     37  C   UNL A   1      35.582  32.568  30.550  1.00  0.00     0.010 A 
ATOM     38  C   UNL A   1      36.767  33.490  28.647  1.00  0.00     0.010 A 
ATOM     39  C   UNL A   1      36.768  32.703  29.809  1.00  0.00    -0.014 A 
BRANCH  39  40
ATOM     40  C   UNL A   1      38.026  32.042  30.235  1.00  0.00     0.031 A 
ATOM     41  C   UNL A   1      38.930  32.722  31.226  1.00  0.00     0.074 A 
ATOM     42  C   UNL A   1      38.390  30.868  29.683  1.00  0.00     0.049 A 
ATOM     43  N   UNL A   1      40.108  32.354  31.661  1.00  0.00    -0.248 NA
ATOM     44  C   UNL A   1      38.458  34.002  31.778  1.00  0.00     0.031 C 
ATOM     45  C   UNL A   1      37.622  30.126  28.681  1.00  0.00     0.029 A 
ATOM     46  N   UNL A   1      39.508  30.097  29.881  1.00  0.00    -0.354 N 
ATOM     47  C   UNL A   1      40.521  33.361  32.524  1.00  0.00     0.074 A 
ATOM     48  C   UNL A   1      39.499  34.385  32.502  1.00  0.00     0.031 C 
ATOM     49  C   UNL A   1      38.277  28.996  28.372  1.00  0.00     0.029 A 
ATOM     50  C   UNL A   1      39.530  28.953  29.119  1.00  0.00     0.049 A 
ATOM     51  H   UNL A   1      40.225  30.339  30.509  1.00  0.00     0.167 HD
ATOM     52  C   UNL A   1      41.637  33.417  33.288  1.00  0.00     0.037 A 
ATOM     53  C   UNL A   1      40.461  27.984  29.029  1.00  0.00     0.037 A 
ATOM     54  C   UNL A   1      42.643  32.388  33.322  1.00  0.00     0.049 A 
ATOM     55  C   UNL A   1      41.705  28.080  29.867  1.00  0.00     0.074 A 
ATOM     56  C   UNL A   1      43.787  32.326  34.098  1.00  0.00     0.029 A 
ATOM     57  N   UNL A   1      42.625  31.240  32.542  1.00  0.00    -0.354 N 
ATOM     58  N   UNL A   1      42.056  29.007  30.726  1.00  0.00    -0.248 NA
ATOM     59  C   UNL A   1      42.683  26.992  29.729  1.00  0.00     0.031 C 
ATOM     60  C   UNL A   1      44.488  31.167  33.752  1.00  0.00     0.029 A 
ATOM     61  C   UNL A   1      43.751  30.477  32.802  1.00  0.00     0.049 A 
ATOM     62  H   UNL A   1      41.918  31.005  31.899  1.00  0.00     0.167 HD
ATOM     63  C   UNL A   1      43.273  28.599  31.254  1.00  0.00     0.074 A 
ATOM     64  C   UNL A   1      43.597  27.333  30.627  1.00  0.00     0.031 C 
ATOM     65  C   UNL A   1      44.053  29.213  32.178  1.00  0.00     0.037 A 
BRANCH  52  66
ATOM     66  C   UNL A   1      41.826  34.634  34.147  1.00  0.00     0.057 A 
ATOM     67  C   UNL A   1      42.458  35.790  33.665  1.00  0.00     0.134 A 
ATOM     68  C   UNL A   1      41.354  34.661  35.465  1.00  0.00     0.134 A 
ATOM     69  F   UNL A   1      42.946  35.827  32.416  1.00  0.00    -0.206 F 
ATOM     70  C   UNL A   1      42.643  36.913  34.473  1.00  0.00     0.040 A 
ATOM     71  C   UNL A   1      41.504  35.790  36.272  1.00  0.00     0.040 A 
ATOM     72  F   UNL A   1      40.735  33.592  35.990  1.00  0.00    -0.206 F 
ATOM     73  C   UNL A   1      42.158  36.917  35.780  1.00  0.00     0.006 A 
ENDBRANCH  52  66
BRANCH  53  74
ATOM     74  C   UNL A   1      40.244  26.825  28.126  1.00  0.00     0.057 A 
ATOM     75  C   UNL A   1      39.477  25.727  28.535  1.00  0.00     0.134 A 
ATOM     76  C   UNL A   1      40.803  26.777  26.844  1.00  0.00     0.134 A 
ATOM     77  F   UNL A   1      38.929  25.706  29.759  1.00  0.00    -0.206 F 
ATOM     78  C   UNL A   1      39.292  24.615  27.711  1.00  0.00     0.040 A 
ATOM     79  C   UNL A   1      40.604  25.683  25.999  1.00  0.00     0.040 A 
ATOM     80  F   UNL A   1      41.542  27.799  26.388  1.00  0.00    -0.206 F 
ATOM     81  C   UNL A   1      39.853  24.594  26.437  1.00  0.00     0.006 A 
ENDBRANCH  53  74
BRANCH  65  82
ATOM     82  C   UNL A   1      45.307  28.505  32.604  1.00  0.00     0.057 A 
ATOM     83  C   UNL A   1      45.318  27.576  33.651  1.00  0.00     0.134 A 
ATOM     84  C   UNL A   1      46.512  28.729  31.926  1.00  0.00     0.134 A 
ATOM     85  F   UNL A   1      44.201  27.324  34.350  1.00  0.00    -0.206 F 
ATOM     86  C   UNL A   1      46.488  26.910  34.022  1.00  0.00     0.040 A 
ATOM     87  C   UNL A   1      47.681  28.047  32.268  1.00  0.00     0.040 A 
ATOM     88  F   UNL A   1      46.570  29.601  30.906  1.00  0.00    -0.206 F 
ATOM     89  C   UNL A   1      47.672  27.140  33.324  1.00  0.00     0.006 A 
ENDBRANCH  65  82
ENDBRANCH  39  40
ENDBRANCH  31  34
ENDBRANCH  29  30
ENDBRANCH  28  29
ENDBRANCH  27  28
ENDBRANCH   1  27
TORSDOF 17
ENDMDL
MODEL 2
REMARK VINA RESULT:     -11.0      1.693      6.293
REMARK SMILES NC(=O)C[C@H](NC(=O)[C@@H]1CC(=O)N(CC2CC2)C1)C(=O)NCCCCNC(=O)c1ccc(-c2c3nc(c(-c4c(F)cccc4F)c4ccc([nH]4)c(-c4c(F)cccc4F)c4nc(c(-c5c(F)cccc5F)c5ccc2[nH]5)C=C4)C=C3)cc1
REMARK SMILES IDX 22 1 21 2 19 3 20 4 5 6 4 7 2 8 1 9 3 12 6 13 7 14 8 16 9 17
REMARK SMILES IDX 10 18 18 19 11 20 13 21 12 22 14 23 15 24 16 25 17 26 23 27
REMARK SMILES IDX 24 28 25 29 26 30 27 31 28 33 29 34 30 35 82 36 31 37 81 38
REMARK SMILES IDX 32 39 33 40 34 41 75 42 35 43 80 44 74 45 76 46 36 47 79 48
REMARK SMILES IDX 73 49 72 50 37 52 63 53 46 54 62 55 47 56 50 57 61 58 77 59
REMARK SMILES IDX 48 60 49 61 60 63 78 64 51 65 38 66 39 67 44 68 40 69 41 70
REMARK SMILES IDX 43 71 45 72 42 73 64 74 65 75 70 76 66 77 67 78 69 79 71 80
REMARK SMILES IDX 68 81 52 82 53 83 58 84 54 85 55 86 57 87 59 88 56 89
REMARK H PARENT 21 5 1 10 1 11 6 15 26 32 76 51 50 62
REMARK Flexibility Score: inf
ROOT
ATOM      1  C   UNL A   1      32.379  29.687  25.098  1.00  0.00     0.116 C 
ENDROOT
BRANCH   1   2
ATOM      2  N   UNL A   1      31.256  29.628  24.169  1.00  0.00    -0.354 N 
ATOM      3  C   UNL A   1      30.712  28.524  23.557  1.00  0.00     0.243 C 
ATOM      4  O   UNL A   1      29.655  28.629  22.938  1.00  0.00    -0.273 OA
ATOM      5  H   UNL A   1      30.834  30.491  23.950  1.00  0.00     0.163 HD
BRANCH   3   6
ATOM      6  C   UNL A   1      31.375  27.152  23.785  1.00  0.00     0.180 C 
BRANCH   6   7
ATOM      7  C   UNL A   1      31.483  26.529  22.388  1.00  0.00     0.134 C 
BRANCH   7   8
ATOM      8  C   UNL A   1      32.862  26.589  21.765  1.00  0.00     0.220 C 
ATOM      9  N   UNL A   1      33.624  27.697  21.949  1.00  0.00    -0.370 N 
ATOM     10  H   UNL A   1      34.522  27.749  21.550  1.00  0.00     0.159 HD
ATOM     11  H   UNL A   1      33.278  28.449  22.483  1.00  0.00     0.159 HD
ATOM     12  O   UNL A   1      33.278  25.673  21.061  1.00  0.00    -0.275 OA
ENDBRANCH   7   8
ENDBRANCH   6   7
BRANCH   6  13
ATOM     13  N   UNL A   1      30.567  26.532  24.861  1.00  0.00    -0.343 N 
ATOM     14  C   UNL A   1      30.475  25.387  25.566  1.00  0.00     0.226 C 
ATOM     15  H   UNL A   1      29.870  27.161  25.157  1.00  0.00     0.164 HD
ATOM     16  O   UNL A   1      29.669  25.437  26.501  1.00  0.00    -0.275 OA
BRANCH  14  17
ATOM     17  C   UNL A   1      31.111  24.069  25.168  1.00  0.00     0.107 C 
ATOM     18  C   UNL A   1      30.955  23.014  26.277  1.00  0.00     0.115 C 
ATOM     19  C   UNL A   1      32.596  24.093  24.919  1.00  0.00     0.133 C 
ATOM     20  C   UNL A   1      32.294  23.028  26.971  1.00  0.00     0.223 C 
ATOM     21  N   UNL A   1      33.206  23.606  26.115  1.00  0.00    -0.342 N 
ATOM     22  O   UNL A   1      32.523  22.568  28.081  1.00  0.00    -0.275 OA
BRANCH  21  23
ATOM     23  C   UNL A   1      34.619  23.794  26.382  1.00  0.00     0.123 C 
BRANCH  23  24
ATOM     24  C   UNL A   1      35.544  23.425  25.259  1.00  0.00     0.008 C 
ATOM     25  C   UNL A   1      37.029  23.704  25.251  1.00  0.00     0.006 C 
ATOM     26  C   UNL A   1      36.534  22.286  25.345  1.00  0.00     0.006 C 
ENDBRANCH  23  24
ENDBRANCH  21  23
ENDBRANCH  14  17
ENDBRANCH   6  13
ENDBRANCH   3   6
ENDBRANCH   1   2
BRANCH   1  27
ATOM     27  C   UNL A   1      31.956  30.161  26.481  1.00  0.00     0.023 C 
BRANCH  27  28
ATOM     28  C   UNL A   1      31.744  31.669  26.569  1.00  0.00     0.023 C 
BRANCH  28  29
ATOM     29  C   UNL A   1      32.872  32.427  27.259  1.00  0.00     0.116 C 
BRANCH  29  30
ATOM     30  N   UNL A   1      32.532  33.810  27.558  1.00  0.00    -0.352 N 
ATOM     31  C   UNL A   1      33.072  34.627  28.523  1.00  0.00     0.251 C 
ATOM     32  H   UNL A   1      31.828  34.211  26.998  1.00  0.00     0.163 HD
ATOM     33  O   UNL A   1      32.592  35.731  28.752  1.00  0.00    -0.269 OA
BRANCH  31  34
ATOM     34  C   UNL A   1      34.223  34.135  29.305  1.00  0.00     0.039 A 
ATOM     35  C   UNL A   1      33.994  33.282  30.385  1.00  0.00     0.014 A 
ATOM     36  C   UNL A   1      35.526  34.468  28.924  1.00  0.00     0.014 A 
ATOM     37  C   UNL A   1      35.081  32.705  31.045  1.00  0.00     0.010 A 
ATOM     38  C   UNL A   1      36.601  33.829  29.527  1.00  0.00     0.010 A 
ATOM     39  C   UNL A   1      36.391  32.944  30.597  1.00  0.00    -0.014 A 
BRANCH  39  40
ATOM     40  C   UNL A   1      37.559  32.293  31.238  1.00  0.00     0.031 A 
ATOM     41  C   UNL A   1      38.269  31.170  30.534  1.00  0.00     0.074 A 
ATOM     42  C   UNL A   1      37.939  32.662  32.478  1.00  0.00     0.049 A 
ATOM     43  N   UNL A   1      39.251  30.417  30.958  1.00  0.00    -0.248 NA
ATOM     44  C   UNL A   1      37.789  30.829  29.186  1.00  0.00     0.031 C 
ATOM     45  C   UNL A   1      37.307  33.709  33.283  1.00  0.00     0.029 A 
ATOM     46  N   UNL A   1      38.945  32.187  33.281  1.00  0.00    -0.354 N 
ATOM     47  C   UNL A   1      39.497  29.508  29.937  1.00  0.00     0.074 A 
ATOM     48  C   UNL A   1      38.519  29.761  28.901  1.00  0.00     0.031 C 
ATOM     49  C   UNL A   1      37.956  33.815  34.453  1.00  0.00     0.029 A 
ATOM     50  C   UNL A   1      39.020  32.818  34.500  1.00  0.00     0.049 A 
ATOM     51  H   UNL A   1      39.555  31.465  33.010  1.00  0.00     0.167 HD
ATOM     52  C   UNL A   1      40.465  28.566  29.855  1.00  0.00     0.037 A 
ATOM     53  C   UNL A   1      39.848  32.607  35.541  1.00  0.00     0.037 A 
ATOM     54  C   UNL A   1      41.448  28.330  30.879  1.00  0.00     0.049 A 
ATOM     55  C   UNL A   1      40.900  31.537  35.437  1.00  0.00     0.074 A 
ATOM     56  C   UNL A   1      42.501  27.432  30.872  1.00  0.00     0.029 A 
ATOM     57  N   UNL A   1      41.496  28.995  32.096  1.00  0.00    -0.354 N 
ATOM     58  N   UNL A   1      41.161  30.725  34.441  1.00  0.00    -0.248 NA
ATOM     59  C   UNL A   1      41.777  31.356  36.603  1.00  0.00     0.031 C 
ATOM     60  C   UNL A   1      43.156  27.517  32.105  1.00  0.00     0.029 A 
ATOM     61  C   UNL A   1      42.547  28.510  32.857  1.00  0.00     0.049 A 
ATOM     62  H   UNL A   1      40.875  29.705  32.376  1.00  0.00     0.167 HD
ATOM     63  C   UNL A   1      42.250  29.964  34.843  1.00  0.00     0.074 A 
ATOM     64  C   UNL A   1      42.609  30.418  36.171  1.00  0.00     0.031 C 
ATOM     65  C   UNL A   1      42.899  28.980  34.173  1.00  0.00     0.037 A 
BRANCH  52  66
ATOM     66  C   UNL A   1      40.504  27.721  28.614  1.00  0.00     0.057 A 
ATOM     67  C   UNL A   1      41.284  28.073  27.503  1.00  0.00     0.134 A 
ATOM     68  C   UNL A   1      39.768  26.532  28.532  1.00  0.00     0.134 A 
ATOM     69  F   UNL A   1      42.002  29.206  27.508  1.00  0.00    -0.206 F 
ATOM     70  C   UNL A   1      41.306  27.291  26.347  1.00  0.00     0.040 A 
ATOM     71  C   UNL A   1      39.806  25.725  27.394  1.00  0.00     0.040 A 
ATOM     72  F   UNL A   1      39.003  26.132  29.561  1.00  0.00    -0.206 F 
ATOM     73  C   UNL A   1      40.570  26.108  26.294  1.00  0.00     0.006 A 
ENDBRANCH  52  66
BRANCH  53  74
ATOM     74  C   UNL A   1      39.734  33.442  36.764  1.00  0.00     0.057 A 
ATOM     75  C   UNL A   1      40.469  34.626  36.900  1.00  0.00     0.134 A 
ATOM     76  C   UNL A   1      38.904  33.075  37.829  1.00  0.00     0.134 A 
ATOM     77  F   UNL A   1      41.296  35.021  35.921  1.00  0.00    -0.206 F 
ATOM     78  C   UNL A   1      40.399  35.403  38.057  1.00  0.00     0.040 A 
ATOM     79  C   UNL A   1      38.803  33.856  38.982  1.00  0.00     0.040 A 
ATOM     80  F   UNL A   1      38.167  31.956  37.760  1.00  0.00    -0.206 F 
ATOM     81  C   UNL A   1      39.560  35.021  39.100  1.00  0.00     0.006 A 
ENDBRANCH  53  74
BRANCH  65  82
ATOM     82  C   UNL A   1      44.091  28.358  34.841  1.00  0.00     0.057 A 
ATOM     83  C   UNL A   1      45.374  28.907  34.734  1.00  0.00     0.134 A 
ATOM     84  C   UNL A   1      43.941  27.217  35.640  1.00  0.00     0.134 A 
ATOM     85  F   UNL A   1      45.589  29.993  33.975  1.00  0.00    -0.206 F 
ATOM     86  C   UNL A   1      46.470  28.330  35.378  1.00  0.00     0.040 A 
ATOM     87  C   UNL A   1      45.023  26.649  36.313  1.00  0.00     0.040 A 
ATOM     88  F   UNL A   1      42.736  26.646  35.793  1.00  0.00    -0.206 F 
ATOM     89  C   UNL A   1      46.294  27.202  36.177  1.00  0.00     0.006 A 
ENDBRANCH  65  82
ENDBRANCH  39  40
ENDBRANCH  31  34
ENDBRANCH  29  30
ENDBRANCH  28  29
ENDBRANCH  27  28
ENDBRANCH   1  27
TORSDOF 17
ENDMDL
MODEL 3
REMARK VINA RESULT:     -10.7      1.397      2.245
REMARK SMILES NC(=O)C[C@H](NC(=O)[C@@H]1CC(=O)N(CC2CC2)C1)C(=O)NCCCCNC(=O)c1ccc(-c2c3nc(c(-c4c(F)cccc4F)c4ccc([nH]4)c(-c4c(F)cccc4F)c4nc(c(-c5c(F)cccc5F)c5ccc2[nH]5)C=C4)C=C3)cc1
REMARK SMILES IDX 22 1 21 2 19 3 20 4 5 6 4 7 2 8 1 9 3 12 6 13 7 14 8 16 9 17
REMARK SMILES IDX 10 18 18 19 11 20 13 21 12 22 14 23 15 24 16 25 17 26 23 27
REMARK SMILES IDX 24 28 25 29 26 30 27 31 28 33 29 34 30 35 82 36 31 37 81 38
REMARK SMILES IDX 32 39 33 40 34 41 75 42 35 43 80 44 74 45 76 46 36 47 79 48
REMARK SMILES IDX 73 49 72 50 37 52 63 53 46 54 62 55 47 56 50 57 61 58 77 59
REMARK SMILES IDX 48 60 49 61 60 63 78 64 51 65 38 66 39 67 44 68 40 69 41 70
REMARK SMILES IDX 43 71 45 72 42 73 64 74 65 75 70 76 66 77 67 78 69 79 71 80
REMARK SMILES IDX 68 81 52 82 53 83 58 84 54 85 55 86 57 87 59 88 56 89
REMARK H PARENT 21 5 1 10 1 11 6 15 26 32 76 51 50 62
REMARK Flexibility Score: inf
ROOT
ATOM      1  C   UNL A   1      34.114  29.620  27.067  1.00  0.00     0.116 C 
ENDROOT
BRANCH   1   2
ATOM      2  N   UNL A   1      32.898  29.110  27.692  1.00  0.00    -0.354 N 
ATOM      3  C   UNL A   1      32.031  28.156  27.218  1.00  0.00     0.243 C 
ATOM      4  O   UNL A   1      31.148  27.716  27.952  1.00  0.00    -0.273 OA
ATOM      5  H   UNL A   1      32.668  29.502  28.566  1.00  0.00     0.163 HD
BRANCH   3   6
ATOM      6  C   UNL A   1      32.279  27.562  25.819  1.00  0.00     0.180 C 
BRANCH   6   7
ATOM      7  C   UNL A   1      31.478  28.453  24.862  1.00  0.00     0.134 C 
BRANCH   7   8
ATOM      8  C   UNL A   1      32.159  28.754  23.543  1.00  0.00     0.220 C 
ATOM      9  N   UNL A   1      33.333  29.434  23.545  1.00  0.00    -0.370 N 
ATOM     10  H   UNL A   1      33.787  29.635  22.696  1.00  0.00     0.159 HD
ATOM     11  H   UNL A   1      33.732  29.725  24.397  1.00  0.00     0.159 HD
ATOM     12  O   UNL A   1      31.642  28.433  22.478  1.00  0.00    -0.275 OA
ENDBRANCH   7   8
ENDBRANCH   6   7
BRANCH   6  13
ATOM     13  N   UNL A   1      31.986  26.119  25.978  1.00  0.00    -0.343 N 
ATOM     14  C   UNL A   1      32.617  24.939  26.136  1.00  0.00     0.226 C 
ATOM     15  H   UNL A   1      31.012  25.975  25.963  1.00  0.00     0.164 HD
ATOM     16  O   UNL A   1      31.859  23.992  26.377  1.00  0.00    -0.275 OA
BRANCH  14  17
ATOM     17  C   UNL A   1      34.084  24.693  25.846  1.00  0.00     0.107 C 
ATOM     18  C   UNL A   1      34.406  24.910  24.356  1.00  0.00     0.115 C 
ATOM     19  C   UNL A   1      34.594  23.301  26.111  1.00  0.00     0.133 C 
ATOM     20  C   UNL A   1      34.440  23.511  23.794  1.00  0.00     0.223 C 
ATOM     21  N   UNL A   1      34.610  22.638  24.846  1.00  0.00    -0.342 N 
ATOM     22  O   UNL A   1      34.368  23.222  22.608  1.00  0.00    -0.275 OA
BRANCH  21  23
ATOM     23  C   UNL A   1      34.719  21.196  24.741  1.00  0.00     0.123 C 
BRANCH  23  24
ATOM     24  C   UNL A   1      33.426  20.441  24.859  1.00  0.00     0.008 C 
ATOM     25  C   UNL A   1      32.502  20.148  23.700  1.00  0.00     0.006 C 
ATOM     26  C   UNL A   1      33.251  19.024  24.362  1.00  0.00     0.006 C 
ENDBRANCH  23  24
ENDBRANCH  21  23
ENDBRANCH  14  17
ENDBRANCH   6  13
ENDBRANCH   3   6
ENDBRANCH   1   2
BRANCH   1  27
ATOM     27  C   UNL A   1      34.486  31.004  27.577  1.00  0.00     0.023 C 
BRANCH  27  28
ATOM     28  C   UNL A   1      33.279  31.871  27.920  1.00  0.00     0.023 C 
BRANCH  28  29
ATOM     29  C   UNL A   1      33.270  33.237  27.245  1.00  0.00     0.116 C 
BRANCH  29  30
ATOM     30  N   UNL A   1      32.751  34.295  28.100  1.00  0.00    -0.352 N 
ATOM     31  C   UNL A   1      33.265  34.752  29.290  1.00  0.00     0.251 C 
ATOM     32  H   UNL A   1      31.930  34.739  27.786  1.00  0.00     0.163 HD
ATOM     33  O   UNL A   1      32.645  35.559  29.973  1.00  0.00    -0.269 OA
BRANCH  31  34
ATOM     34  C   UNL A   1      34.565  34.226  29.750  1.00  0.00     0.039 A 
ATOM     35  C   UNL A   1      34.608  33.429  30.894  1.00  0.00     0.014 A 
ATOM     36  C   UNL A   1      35.724  34.470  29.007  1.00  0.00     0.014 A 
ATOM     37  C   UNL A   1      35.809  32.818  31.258  1.00  0.00     0.010 A 
ATOM     38  C   UNL A   1      36.895  33.794  29.323  1.00  0.00     0.010 A 
ATOM     39  C   UNL A   1      36.952  32.965  30.454  1.00  0.00    -0.014 A 
BRANCH  39  40
ATOM     40  C   UNL A   1      38.223  32.273  30.782  1.00  0.00     0.031 A 
ATOM     41  C   UNL A   1      39.186  32.899  31.753  1.00  0.00     0.074 A 
ATOM     42  C   UNL A   1      38.543  31.122  30.159  1.00  0.00     0.049 A 
ATOM     43  N   UNL A   1      40.381  32.500  32.107  1.00  0.00    -0.248 NA
ATOM     44  C   UNL A   1      38.760  34.156  32.387  1.00  0.00     0.031 C 
ATOM     45  C   UNL A   1      37.713  30.435  29.167  1.00  0.00     0.029 A 
ATOM     46  N   UNL A   1      39.660  30.332  30.262  1.00  0.00    -0.354 N 
ATOM     47  C   UNL A   1      40.852  33.462  32.991  1.00  0.00     0.074 A 
ATOM     48  C   UNL A   1      39.842  34.495  33.070  1.00  0.00     0.031 C 
ATOM     49  C   UNL A   1      38.338  29.313  28.773  1.00  0.00     0.029 A 
ATOM     50  C   UNL A   1      39.628  29.224  29.449  1.00  0.00     0.049 A 
ATOM     51  H   UNL A   1      40.412  30.538  30.861  1.00  0.00     0.167 HD
ATOM     52  C   UNL A   1      42.007  33.472  33.696  1.00  0.00     0.037 A 
ATOM     53  C   UNL A   1      40.541  28.251  29.265  1.00  0.00     0.037 A 
ATOM     54  C   UNL A   1      43.001  32.433  33.630  1.00  0.00     0.049 A 
ATOM     55  C   UNL A   1      41.829  28.297  30.040  1.00  0.00     0.074 A 
ATOM     56  C   UNL A   1      44.184  32.324  34.340  1.00  0.00     0.029 A 
ATOM     57  N   UNL A   1      42.928  31.322  32.801  1.00  0.00    -0.354 N 
ATOM     58  N   UNL A   1      42.236  29.180  30.919  1.00  0.00    -0.248 NA
ATOM     59  C   UNL A   1      42.785  27.206  29.800  1.00  0.00     0.031 C 
ATOM     60  C   UNL A   1      44.851  31.175  33.904  1.00  0.00     0.029 A 
ATOM     61  C   UNL A   1      44.056  30.537  32.966  1.00  0.00     0.049 A 
ATOM     62  H   UNL A   1      42.185  31.123  32.187  1.00  0.00     0.167 HD
ATOM     63  C   UNL A   1      43.474  28.736  31.362  1.00  0.00     0.074 A 
ATOM     64  C   UNL A   1      43.749  27.498  30.663  1.00  0.00     0.031 C 
ATOM     65  C   UNL A   1      44.309  29.299  32.270  1.00  0.00     0.037 A 
BRANCH  52  66
ATOM     66  C   UNL A   1      42.256  34.647  34.597  1.00  0.00     0.057 A 
ATOM     67  C   UNL A   1      41.851  34.648  35.941  1.00  0.00     0.134 A 
ATOM     68  C   UNL A   1      42.925  35.784  34.126  1.00  0.00     0.134 A 
ATOM     69  F   UNL A   1      41.193  33.598  36.453  1.00  0.00    -0.206 F 
ATOM     70  C   UNL A   1      42.073  35.748  36.770  1.00  0.00     0.040 A 
ATOM     71  C   UNL A   1      43.181  36.877  34.955  1.00  0.00     0.040 A 
ATOM     72  F   UNL A   1      43.345  35.848  32.853  1.00  0.00    -0.206 F 
ATOM     73  C   UNL A   1      42.747  36.865  36.279  1.00  0.00     0.006 A 
ENDBRANCH  52  66
BRANCH  53  74
ATOM     74  C   UNL A   1      40.262  27.136  28.324  1.00  0.00     0.057 A 
ATOM     75  C   UNL A   1      39.457  26.056  28.705  1.00  0.00     0.134 A 
ATOM     76  C   UNL A   1      40.799  27.115  27.032  1.00  0.00     0.134 A 
ATOM     77  F   UNL A   1      38.929  26.010  29.937  1.00  0.00    -0.206 F 
ATOM     78  C   UNL A   1      39.214  24.984  27.844  1.00  0.00     0.040 A 
ATOM     79  C   UNL A   1      40.542  26.062  26.150  1.00  0.00     0.040 A 
ATOM     80  F   UNL A   1      41.571  28.122  26.601  1.00  0.00    -0.206 F 
ATOM     81  C   UNL A   1      39.753  24.989  26.560  1.00  0.00     0.006 A 
ENDBRANCH  53  74
BRANCH  65  82
ATOM     82  C   UNL A   1      45.576  28.561  32.596  1.00  0.00     0.057 A 
ATOM     83  C   UNL A   1      45.630  27.582  33.595  1.00  0.00     0.134 A 
ATOM     84  C   UNL A   1      46.747  28.807  31.867  1.00  0.00     0.134 A 
ATOM     85  F   UNL A   1      44.547  27.307  34.339  1.00  0.00    -0.206 F 
ATOM     86  C   UNL A   1      46.810  26.889  33.873  1.00  0.00     0.040 A 
ATOM     87  C   UNL A   1      47.924  28.099  32.115  1.00  0.00     0.040 A 
ATOM     88  F   UNL A   1      46.761  29.726  30.889  1.00  0.00    -0.206 F 
ATOM     89  C   UNL A   1      47.958  27.142  33.125  1.00  0.00     0.006 A 
ENDBRANCH  65  82
ENDBRANCH  39  40
ENDBRANCH  31  34
ENDBRANCH  29  30
ENDBRANCH  28  29
ENDBRANCH  27  28
ENDBRANCH   1  27
TORSDOF 17
ENDMDL
