MODEL 1
REMARK VINA RESULT:     -11.7      0.000      0.000
REMARK SMILES CC[C@H](NC(=O)c1nn(C)cc1C(=O)NCCCCNC(=O)c1ccc(-c2c3nc(c(-c4c(F)cccc4F)c4ccc([nH]4)c(-c4c(F)cccc4F)c4nc(c(-c5c(F)cccc5F)c5ccc2[nH]5)C=C4)C=C3)cc1)c1ccccc1
REMARK SMILES IDX 17 1 16 2 15 3 13 4 14 5 12 7 7 8 8 9 9 10 11 11 10 12 5 13
REMARK SMILES IDX 4 14 6 16 3 17 2 18 1 19 77 20 78 21 82 22 79 23 81 24 80 25
REMARK SMILES IDX 18 26 19 27 20 28 21 29 22 31 23 32 24 33 76 34 25 35 75 36
REMARK SMILES IDX 26 37 27 38 28 39 69 40 29 41 74 42 68 43 70 44 30 45 73 46
REMARK SMILES IDX 67 47 66 48 31 50 57 51 40 52 56 53 41 54 44 55 55 56 71 57
REMARK SMILES IDX 42 58 43 59 54 61 72 62 45 63 32 64 33 65 38 66 34 67 35 68
REMARK SMILES IDX 37 69 39 70 36 71 58 72 59 73 64 74 60 75 61 76 63 77 65 78
REMARK SMILES IDX 62 79 46 80 47 81 52 82 48 83 49 84 51 85 53 86 50 87
REMARK H PARENT 15 6 4 15 20 30 70 49 44 60
REMARK Flexibility Score: inf
ROOT
ATOM      1  C   UNL A   1      31.428  27.225  26.472  1.00  0.00     0.023 C 
ENDROOT
BRANCH   1   2
ATOM      2  C   UNL A   1      32.167  25.936  26.061  1.00  0.00     0.116 C 
BRANCH   2   3
ATOM      3  N   UNL A   1      31.242  24.987  25.465  1.00  0.00    -0.352 N 
ATOM      4  C   UNL A   1      31.356  24.265  24.305  1.00  0.00     0.255 C 
ATOM      5  O   UNL A   1      30.333  23.810  23.803  1.00  0.00    -0.269 OA
ATOM      6  H   UNL A   1      30.410  24.839  25.969  1.00  0.00     0.163 HD
BRANCH   4   7
ATOM      7  C   UNL A   1      32.649  24.138  23.680  1.00  0.00     0.090 A 
ATOM      8  C   UNL A   1      33.261  24.805  22.559  1.00  0.00     0.162 A 
ATOM      9  N   UNL A   1      34.521  24.323  22.408  1.00  0.00    -0.167 NA
ATOM     10  N   UNL A   1      34.705  23.434  23.378  1.00  0.00    -0.274 N 
ATOM     11  C   UNL A   1      33.626  23.289  24.180  1.00  0.00     0.123 A 
ATOM     12  C   UNL A   1      35.969  22.741  23.468  1.00  0.00     0.173 C 
BRANCH   8  13
ATOM     13  C   UNL A   1      32.859  25.819  21.543  1.00  0.00     0.273 C 
ATOM     14  N   UNL A   1      32.349  27.068  21.762  1.00  0.00    -0.344 N 
ATOM     15  H   UNL A   1      32.227  27.570  20.923  1.00  0.00     0.164 HD
ATOM     16  O   UNL A   1      32.987  25.580  20.332  1.00  0.00    -0.267 OA
BRANCH  14  17
ATOM     17  C   UNL A   1      31.942  27.839  22.920  1.00  0.00     0.112 C 
BRANCH  17  18
ATOM     18  C   UNL A   1      32.899  29.032  23.139  1.00  0.00     0.026 C 
ATOM     19  C   UNL A   1      34.348  28.673  22.830  1.00  0.00     0.006 C 
ENDBRANCH  17  18
BRANCH  17  20
ATOM     20  C   UNL A   1      30.504  28.332  22.794  1.00  0.00    -0.026 A 
ATOM     21  C   UNL A   1      29.414  27.606  23.302  1.00  0.00     0.006 A 
ATOM     22  C   UNL A   1      30.238  29.540  22.125  1.00  0.00     0.006 A 
ATOM     23  C   UNL A   1      28.107  28.076  23.155  1.00  0.00     0.000 A 
ATOM     24  C   UNL A   1      28.928  30.008  21.975  1.00  0.00     0.000 A 
ATOM     25  C   UNL A   1      27.863  29.275  22.491  1.00  0.00     0.000 A 
ENDBRANCH  17  20
ENDBRANCH  14  17
ENDBRANCH   8  13
ENDBRANCH   4   7
ENDBRANCH   2   3
ENDBRANCH   1   2
BRANCH   1  26
ATOM     26  C   UNL A   1      32.070  27.987  27.651  1.00  0.00     0.023 C 
BRANCH  26  27
ATOM     27  C   UNL A   1      33.436  28.603  27.337  1.00  0.00     0.116 C 
BRANCH  27  28
ATOM     28  N   UNL A   1      33.482  30.013  27.685  1.00  0.00    -0.352 N 
ATOM     29  C   UNL A   1      34.494  30.737  28.263  1.00  0.00     0.251 C 
ATOM     30  H   UNL A   1      32.666  30.524  27.477  1.00  0.00     0.163 HD
ATOM     31  O   UNL A   1      34.268  31.874  28.670  1.00  0.00    -0.269 OA
BRANCH  29  32
ATOM     32  C   UNL A   1      35.855  30.173  28.411  1.00  0.00     0.039 A 
ATOM     33  C   UNL A   1      36.235  29.683  29.667  1.00  0.00     0.014 A 
ATOM     34  C   UNL A   1      36.787  30.214  27.368  1.00  0.00     0.014 A 
ATOM     35  C   UNL A   1      37.537  29.222  29.877  1.00  0.00     0.010 A 
ATOM     36  C   UNL A   1      38.087  29.741  27.576  1.00  0.00     0.010 A 
ATOM     37  C   UNL A   1      38.474  29.258  28.835  1.00  0.00    -0.014 A 
BRANCH  37  38
ATOM     38  C   UNL A   1      39.873  28.832  29.067  1.00  0.00     0.031 A 
ATOM     39  C   UNL A   1      40.843  29.756  29.745  1.00  0.00     0.074 A 
ATOM     40  C   UNL A   1      40.280  27.617  28.656  1.00  0.00     0.049 A 
ATOM     41  N   UNL A   1      42.124  29.591  29.962  1.00  0.00    -0.248 NA
ATOM     42  C   UNL A   1      40.305  31.035  30.233  1.00  0.00     0.031 C 
ATOM     43  C   UNL A   1      39.440  26.624  27.987  1.00  0.00     0.029 A 
ATOM     44  N   UNL A   1      41.510  27.018  28.741  1.00  0.00    -0.354 N 
ATOM     45  C   UNL A   1      42.552  30.753  30.588  1.00  0.00     0.074 A 
ATOM     46  C   UNL A   1      41.393  31.611  30.729  1.00  0.00     0.031 C 
ATOM     47  C   UNL A   1      40.180  25.535  27.724  1.00  0.00     0.029 A 
ATOM     48  C   UNL A   1      41.545  25.760  28.195  1.00  0.00     0.049 A 
ATOM     49  H   UNL A   1      42.292  27.448  29.154  1.00  0.00     0.167 HD
ATOM     50  C   UNL A   1      43.800  31.079  31.000  1.00  0.00     0.037 A 
ATOM     51  C   UNL A   1      42.565  24.889  28.084  1.00  0.00     0.037 A 
ATOM     52  C   UNL A   1      44.954  30.230  30.890  1.00  0.00     0.049 A 
ATOM     53  C   UNL A   1      43.924  25.251  28.604  1.00  0.00     0.074 A 
ATOM     54  C   UNL A   1      46.262  30.493  31.263  1.00  0.00     0.029 A 
ATOM     55  N   UNL A   1      44.935  28.943  30.381  1.00  0.00    -0.354 N 
ATOM     56  N   UNL A   1      44.321  26.366  29.162  1.00  0.00    -0.248 NA
ATOM     57  C   UNL A   1      44.976  24.230  28.476  1.00  0.00     0.031 C 
ATOM     58  C   UNL A   1      47.035  29.358  30.984  1.00  0.00     0.029 A 
ATOM     59  C   UNL A   1      46.205  28.392  30.440  1.00  0.00     0.049 A 
ATOM     60  H   UNL A   1      44.137  28.485  30.029  1.00  0.00     0.167 HD
ATOM     61  C   UNL A   1      45.667  26.188  29.448  1.00  0.00     0.074 A 
ATOM     62  C   UNL A   1      46.019  24.852  29.013  1.00  0.00     0.031 C 
ATOM     63  C   UNL A   1      46.536  27.060  30.012  1.00  0.00     0.037 A 
BRANCH  50  64
ATOM     64  C   UNL A   1      43.978  32.436  31.599  1.00  0.00     0.057 A 
ATOM     65  C   UNL A   1      43.886  32.640  32.980  1.00  0.00     0.134 A 
ATOM     66  C   UNL A   1      44.267  33.541  30.789  1.00  0.00     0.134 A 
ATOM     67  F   UNL A   1      43.601  31.620  33.802  1.00  0.00    -0.206 F 
ATOM     68  C   UNL A   1      44.071  33.906  33.538  1.00  0.00     0.040 A 
ATOM     69  C   UNL A   1      44.458  34.810  31.336  1.00  0.00     0.040 A 
ATOM     70  F   UNL A   1      44.360  33.405  29.458  1.00  0.00    -0.206 F 
ATOM     71  C   UNL A   1      44.360  34.994  32.715  1.00  0.00     0.006 A 
ENDBRANCH  50  64
BRANCH  51  72
ATOM     72  C   UNL A   1      42.334  23.577  27.444  1.00  0.00     0.057 A 
ATOM     73  C   UNL A   1      42.443  23.424  26.059  1.00  0.00     0.134 A 
ATOM     74  C   UNL A   1      42.008  22.451  28.205  1.00  0.00     0.134 A 
ATOM     75  F   UNL A   1      42.739  24.478  25.283  1.00  0.00    -0.206 F 
ATOM     76  C   UNL A   1      42.231  22.190  25.447  1.00  0.00     0.040 A 
ATOM     77  C   UNL A   1      41.798  21.209  27.607  1.00  0.00     0.040 A 
ATOM     78  F   UNL A   1      41.887  22.545  29.537  1.00  0.00    -0.206 F 
ATOM     79  C   UNL A   1      41.910  21.076  26.223  1.00  0.00     0.006 A 
ENDBRANCH  51  72
BRANCH  63  80
ATOM     80  C   UNL A   1      47.943  26.592  30.190  1.00  0.00     0.057 A 
ATOM     81  C   UNL A   1      48.342  25.935  31.359  1.00  0.00     0.134 A 
ATOM     82  C   UNL A   1      48.897  26.777  29.183  1.00  0.00     0.134 A 
ATOM     83  F   UNL A   1      47.472  25.738  32.361  1.00  0.00    -0.206 F 
ATOM     84  C   UNL A   1      49.651  25.480  31.523  1.00  0.00     0.040 A 
ATOM     85  C   UNL A   1      50.208  26.326  29.336  1.00  0.00     0.040 A 
ATOM     86  F   UNL A   1      48.571  27.407  28.045  1.00  0.00    -0.206 F 
ATOM     87  C   UNL A   1      50.588  25.674  30.509  1.00  0.00     0.006 A 
ENDBRANCH  63  80
ENDBRANCH  37  38
ENDBRANCH  29  32
ENDBRANCH  27  28
ENDBRANCH  26  27
ENDBRANCH   1  26
TORSDOF 15
ENDMDL
MODEL 2
REMARK VINA RESULT:     -11.6      1.076      3.754
REMARK SMILES CC[C@H](NC(=O)c1nn(C)cc1C(=O)NCCCCNC(=O)c1ccc(-c2c3nc(c(-c4c(F)cccc4F)c4ccc([nH]4)c(-c4c(F)cccc4F)c4nc(c(-c5c(F)cccc5F)c5ccc2[nH]5)C=C4)C=C3)cc1)c1ccccc1
REMARK SMILES IDX 17 1 16 2 15 3 13 4 14 5 12 7 7 8 8 9 9 10 11 11 10 12 5 13
REMARK SMILES IDX 4 14 6 16 3 17 2 18 1 19 77 20 78 21 82 22 79 23 81 24 80 25
REMARK SMILES IDX 18 26 19 27 20 28 21 29 22 31 23 32 24 33 76 34 25 35 75 36
REMARK SMILES IDX 26 37 27 38 28 39 69 40 29 41 74 42 68 43 70 44 30 45 73 46
REMARK SMILES IDX 67 47 66 48 31 50 57 51 40 52 56 53 41 54 44 55 55 56 71 57
REMARK SMILES IDX 42 58 43 59 54 61 72 62 45 63 32 64 33 65 38 66 34 67 35 68
REMARK SMILES IDX 37 69 39 70 36 71 58 72 59 73 64 74 60 75 61 76 63 77 65 78
REMARK SMILES IDX 62 79 46 80 47 81 52 82 48 83 49 84 51 85 53 86 50 87
REMARK H PARENT 15 6 4 15 20 30 70 49 44 60
REMARK Flexibility Score: inf
ROOT
ATOM      1  C   UNL A   1      33.318  29.349  24.866  1.00  0.00     0.023 C 
ENDROOT
BRANCH   1   2
ATOM      2  C   UNL A   1      33.479  29.016  23.370  1.00  0.00     0.116 C 
BRANCH   2   3
ATOM      3  N   UNL A   1      32.195  29.080  22.692  1.00  0.00    -0.352 N 
ATOM      4  C   UNL A   1      31.215  28.128  22.582  1.00  0.00     0.255 C 
ATOM      5  O   UNL A   1      30.389  28.248  21.683  1.00  0.00    -0.269 OA
ATOM      6  H   UNL A   1      31.999  29.935  22.246  1.00  0.00     0.163 HD
BRANCH   4   7
ATOM      7  C   UNL A   1      31.237  26.990  23.467  1.00  0.00     0.090 A 
ATOM      8  C   UNL A   1      32.122  25.858  23.579  1.00  0.00     0.162 A 
ATOM      9  N   UNL A   1      31.703  25.087  24.615  1.00  0.00    -0.167 NA
ATOM     10  N   UNL A   1      30.646  25.697  25.138  1.00  0.00    -0.274 N 
ATOM     11  C   UNL A   1      30.327  26.848  24.504  1.00  0.00     0.123 A 
ATOM     12  C   UNL A   1      29.974  25.098  26.267  1.00  0.00     0.173 C 
BRANCH   8  13
ATOM     13  C   UNL A   1      33.307  25.325  22.848  1.00  0.00     0.273 C 
ATOM     14  N   UNL A   1      34.056  24.224  23.156  1.00  0.00    -0.344 N 
ATOM     15  H   UNL A   1      34.746  24.045  22.477  1.00  0.00     0.164 HD
ATOM     16  O   UNL A   1      33.715  25.886  21.819  1.00  0.00    -0.267 OA
BRANCH  14  17
ATOM     17  C   UNL A   1      34.088  23.254  24.232  1.00  0.00     0.112 C 
BRANCH  17  18
ATOM     18  C   UNL A   1      33.484  21.909  23.766  1.00  0.00     0.026 C 
ATOM     19  C   UNL A   1      32.534  22.082  22.586  1.00  0.00     0.006 C 
ENDBRANCH  17  18
BRANCH  17  20
ATOM     20  C   UNL A   1      35.502  23.042  24.761  1.00  0.00    -0.026 A 
ATOM     21  C   UNL A   1      36.136  23.970  25.604  1.00  0.00     0.006 A 
ATOM     22  C   UNL A   1      36.225  21.897  24.380  1.00  0.00     0.006 A 
ATOM     23  C   UNL A   1      37.440  23.756  26.057  1.00  0.00     0.000 A 
ATOM     24  C   UNL A   1      37.531  21.685  24.832  1.00  0.00     0.000 A 
ATOM     25  C   UNL A   1      38.138  22.616  25.671  1.00  0.00     0.000 A 
ENDBRANCH  17  20
ENDBRANCH  14  17
ENDBRANCH   8  13
ENDBRANCH   4   7
ENDBRANCH   2   3
ENDBRANCH   1   2
BRANCH   1  26
ATOM     26  C   UNL A   1      33.904  28.293  25.826  1.00  0.00     0.023 C 
BRANCH  26  27
ATOM     27  C   UNL A   1      33.534  28.500  27.297  1.00  0.00     0.116 C 
BRANCH  27  28
ATOM     28  N   UNL A   1      33.557  29.906  27.665  1.00  0.00    -0.352 N 
ATOM     29  C   UNL A   1      34.559  30.639  28.246  1.00  0.00     0.251 C 
ATOM     30  H   UNL A   1      32.731  30.404  27.468  1.00  0.00     0.163 HD
ATOM     31  O   UNL A   1      34.316  31.766  28.671  1.00  0.00    -0.269 OA
BRANCH  29  32
ATOM     32  C   UNL A   1      35.931  30.097  28.380  1.00  0.00     0.039 A 
ATOM     33  C   UNL A   1      36.322  29.584  29.623  1.00  0.00     0.014 A 
ATOM     34  C   UNL A   1      36.861  30.181  27.337  1.00  0.00     0.014 A 
ATOM     35  C   UNL A   1      37.633  29.142  29.819  1.00  0.00     0.010 A 
ATOM     36  C   UNL A   1      38.170  29.727  27.531  1.00  0.00     0.010 A 
ATOM     37  C   UNL A   1      38.567  29.221  28.778  1.00  0.00    -0.014 A 
BRANCH  37  38
ATOM     38  C   UNL A   1      39.975  28.815  28.998  1.00  0.00     0.031 A 
ATOM     39  C   UNL A   1      40.942  29.763  29.646  1.00  0.00     0.074 A 
ATOM     40  C   UNL A   1      40.390  27.599  28.601  1.00  0.00     0.049 A 
ATOM     41  N   UNL A   1      42.228  29.617  29.849  1.00  0.00    -0.248 NA
ATOM     42  C   UNL A   1      40.396  31.043  30.121  1.00  0.00     0.031 C 
ATOM     43  C   UNL A   1      39.553  26.585  27.960  1.00  0.00     0.029 A 
ATOM     44  N   UNL A   1      41.628  27.016  28.680  1.00  0.00    -0.354 N 
ATOM     45  C   UNL A   1      42.650  30.794  30.450  1.00  0.00     0.074 A 
ATOM     46  C   UNL A   1      41.483  31.640  30.592  1.00  0.00     0.031 C 
ATOM     47  C   UNL A   1      40.303  25.500  27.706  1.00  0.00     0.029 A 
ATOM     48  C   UNL A   1      41.671  25.750  28.154  1.00  0.00     0.049 A 
ATOM     49  H   UNL A   1      42.411  27.463  29.075  1.00  0.00     0.167 HD
ATOM     50  C   UNL A   1      43.899  31.142  30.839  1.00  0.00     0.037 A 
ATOM     51  C   UNL A   1      42.700  24.889  28.043  1.00  0.00     0.037 A 
ATOM     52  C   UNL A   1      45.063  30.305  30.727  1.00  0.00     0.049 A 
ATOM     53  C   UNL A   1      44.062  25.276  28.538  1.00  0.00     0.074 A 
ATOM     54  C   UNL A   1      46.372  30.590  31.077  1.00  0.00     0.029 A 
ATOM     55  N   UNL A   1      45.052  29.009  30.240  1.00  0.00    -0.354 N 
ATOM     56  N   UNL A   1      44.453  26.406  29.072  1.00  0.00    -0.248 NA
ATOM     57  C   UNL A   1      45.124  24.266  28.413  1.00  0.00     0.031 C 
ATOM     58  C   UNL A   1      47.154  29.460  30.807  1.00  0.00     0.029 A 
ATOM     59  C   UNL A   1      46.329  28.475  30.291  1.00  0.00     0.049 A 
ATOM     60  H   UNL A   1      44.255  28.536  29.906  1.00  0.00     0.167 HD
ATOM     61  C   UNL A   1      45.805  26.248  29.343  1.00  0.00     0.074 A 
ATOM     62  C   UNL A   1      46.167  24.909  28.925  1.00  0.00     0.031 C 
ATOM     63  C   UNL A   1      46.670  27.140  29.880  1.00  0.00     0.037 A 
BRANCH  50  64
ATOM     64  C   UNL A   1      44.069  32.511  31.412  1.00  0.00     0.057 A 
ATOM     65  C   UNL A   1      43.980  32.739  32.790  1.00  0.00     0.134 A 
ATOM     66  C   UNL A   1      44.347  33.603  30.582  1.00  0.00     0.134 A 
ATOM     67  F   UNL A   1      43.705  31.732  33.631  1.00  0.00    -0.206 F 
ATOM     68  C   UNL A   1      44.157  34.016  33.324  1.00  0.00     0.040 A 
ATOM     69  C   UNL A   1      44.530  34.883  31.105  1.00  0.00     0.040 A 
ATOM     70  F   UNL A   1      44.437  33.444  29.254  1.00  0.00    -0.206 F 
ATOM     71  C   UNL A   1      44.435  35.092  32.481  1.00  0.00     0.006 A 
ENDBRANCH  50  64
BRANCH  51  72
ATOM     72  C   UNL A   1      42.477  23.565  27.429  1.00  0.00     0.057 A 
ATOM     73  C   UNL A   1      42.152  22.454  28.214  1.00  0.00     0.134 A 
ATOM     74  C   UNL A   1      42.579  23.384  26.046  1.00  0.00     0.134 A 
ATOM     75  F   UNL A   1      42.057  22.572  29.546  1.00  0.00    -0.206 F 
ATOM     76  C   UNL A   1      41.936  21.201  27.642  1.00  0.00     0.040 A 
ATOM     77  C   UNL A   1      42.361  22.138  25.461  1.00  0.00     0.040 A 
ATOM     78  F   UNL A   1      42.894  24.415  25.250  1.00  0.00    -0.206 F 
ATOM     79  C   UNL A   1      42.038  21.041  26.260  1.00  0.00     0.006 A 
ENDBRANCH  51  72
BRANCH  63  80
ATOM     80  C   UNL A   1      48.086  26.692  30.047  1.00  0.00     0.057 A 
ATOM     81  C   UNL A   1      49.038  26.927  29.049  1.00  0.00     0.134 A 
ATOM     82  C   UNL A   1      48.504  26.044  31.214  1.00  0.00     0.134 A 
ATOM     83  F   UNL A   1      48.692  27.536  27.905  1.00  0.00    -0.206 F 
ATOM     84  C   UNL A   1      50.366  26.526  29.207  1.00  0.00     0.040 A 
ATOM     85  C   UNL A   1      49.829  25.640  31.383  1.00  0.00     0.040 A 
ATOM     86  F   UNL A   1      47.631  25.786  32.199  1.00  0.00    -0.206 F 
ATOM     87  C   UNL A   1      50.764  25.882  30.377  1.00  0.00     0.006 A 
ENDBRANCH  63  80
ENDBRANCH  37  38
ENDBRANCH  29  32
ENDBRANCH  27  28
ENDBRANCH  26  27
ENDBRANCH   1  26
TORSDOF 15
ENDMDL
MODEL 3
REMARK VINA RESULT:     -11.5      2.473      7.393
REMARK SMILES CC[C@H](NC(=O)c1nn(C)cc1C(=O)NCCCCNC(=O)c1ccc(-c2c3nc(c(-c4c(F)cccc4F)c4ccc([nH]4)c(-c4c(F)cccc4F)c4nc(c(-c5c(F)cccc5F)c5ccc2[nH]5)C=C4)C=C3)cc1)c1ccccc1
REMARK SMILES IDX 17 1 16 2 15 3 13 4 14 5 12 7 7 8 8 9 9 10 11 11 10 12 5 13
REMARK SMILES IDX 4 14 6 16 3 17 2 18 1 19 77 20 78 21 82 22 79 23 81 24 80 25
REMARK SMILES IDX 18 26 19 27 20 28 21 29 22 31 23 32 24 33 76 34 25 35 75 36
REMARK SMILES IDX 26 37 27 38 28 39 69 40 29 41 74 42 68 43 70 44 30 45 73 46
REMARK SMILES IDX 67 47 66 48 31 50 57 51 40 52 56 53 41 54 44 55 55 56 71 57
REMARK SMILES IDX 42 58 43 59 54 61 72 62 45 63 32 64 33 65 38 66 34 67 35 68
REMARK SMILES IDX 37 69 39 70 36 71 58 72 59 73 64 74 60 75 61 76 63 77 65 78
REMARK SMILES IDX 62 79 46 80 47 81 52 82 48 83 49 84 51 85 53 86 50 87
REMARK H PARENT 15 6 4 15 20 30 70 49 44 60
REMARK Flexibility Score: inf
ROOT
ATOM      1  C   UNL A   1      37.392  21.008  24.595  1.00  0.00     0.023 C 
ENDROOT
BRANCH   1   2
ATOM      2  C   UNL A   1      36.737  21.664  25.826  1.00  0.00     0.116 C 
BRANCH   2   3
ATOM      3  N   UNL A   1      36.290  23.010  25.509  1.00  0.00    -0.352 N 
ATOM      4  C   UNL A   1      35.104  23.434  24.969  1.00  0.00     0.255 C 
ATOM      5  O   UNL A   1      35.067  24.546  24.452  1.00  0.00    -0.269 OA
ATOM      6  H   UNL A   1      36.936  23.724  25.713  1.00  0.00     0.163 HD
BRANCH   4   7
ATOM      7  C   UNL A   1      33.976  22.535  24.955  1.00  0.00     0.090 A 
ATOM      8  C   UNL A   1      32.769  22.473  25.738  1.00  0.00     0.162 A 
ATOM      9  N   UNL A   1      32.019  21.434  25.288  1.00  0.00    -0.167 NA
ATOM     10  N   UNL A   1      32.689  20.893  24.276  1.00  0.00    -0.274 N 
ATOM     11  C   UNL A   1      33.861  21.517  24.019  1.00  0.00     0.123 A 
ATOM     12  C   UNL A   1      32.132  19.749  23.594  1.00  0.00     0.173 C 
BRANCH   8  13
ATOM     13  C   UNL A   1      32.181  23.206  26.895  1.00  0.00     0.273 C 
ATOM     14  N   UNL A   1      31.589  24.438  26.893  1.00  0.00    -0.344 N 
ATOM     15  H   UNL A   1      31.221  24.672  27.776  1.00  0.00     0.164 HD
ATOM     16  O   UNL A   1      32.180  22.696  28.027  1.00  0.00    -0.267 OA
BRANCH  14  17
ATOM     17  C   UNL A   1      31.366  25.485  25.916  1.00  0.00     0.112 C 
BRANCH  17  18
ATOM     18  C   UNL A   1      29.852  25.730  25.721  1.00  0.00     0.026 C 
ATOM     19  C   UNL A   1      29.505  26.079  24.278  1.00  0.00     0.006 C 
ENDBRANCH  17  18
BRANCH  17  20
ATOM     20  C   UNL A   1      32.064  26.783  26.309  1.00  0.00    -0.026 A 
ATOM     21  C   UNL A   1      33.425  27.013  26.048  1.00  0.00     0.006 A 
ATOM     22  C   UNL A   1      31.344  27.785  26.984  1.00  0.00     0.006 A 
ATOM     23  C   UNL A   1      34.040  28.205  26.437  1.00  0.00     0.000 A 
ATOM     24  C   UNL A   1      31.962  28.977  27.376  1.00  0.00     0.000 A 
ATOM     25  C   UNL A   1      33.310  29.186  27.101  1.00  0.00     0.000 A 
ENDBRANCH  17  20
ENDBRANCH  14  17
ENDBRANCH   8  13
ENDBRANCH   4   7
ENDBRANCH   2   3
ENDBRANCH   1   2
BRANCH   1  26
ATOM     26  C   UNL A   1      38.292  19.796  24.915  1.00  0.00     0.023 C 
BRANCH  26  27
ATOM     27  C   UNL A   1      39.295  20.033  26.047  1.00  0.00     0.116 C 
BRANCH  27  28
ATOM     28  N   UNL A   1      40.479  19.202  25.899  1.00  0.00    -0.352 N 
ATOM     29  C   UNL A   1      41.804  19.550  25.975  1.00  0.00     0.251 C 
ATOM     30  H   UNL A   1      40.303  18.251  25.717  1.00  0.00     0.163 HD
ATOM     31  O   UNL A   1      42.660  18.746  25.615  1.00  0.00    -0.269 OA
BRANCH  29  32
ATOM     32  C   UNL A   1      42.223  20.879  26.477  1.00  0.00     0.039 A 
ATOM     33  C   UNL A   1      42.188  21.106  27.858  1.00  0.00     0.014 A 
ATOM     34  C   UNL A   1      42.547  21.925  25.606  1.00  0.00     0.014 A 
ATOM     35  C   UNL A   1      42.491  22.370  28.369  1.00  0.00     0.010 A 
ATOM     36  C   UNL A   1      42.861  23.188  26.120  1.00  0.00     0.010 A 
ATOM     37  C   UNL A   1      42.818  23.421  27.503  1.00  0.00    -0.014 A 
BRANCH  37  38
ATOM     38  C   UNL A   1      43.077  24.780  28.032  1.00  0.00     0.031 A 
ATOM     39  C   UNL A   1      44.476  25.205  28.374  1.00  0.00     0.074 A 
ATOM     40  C   UNL A   1      42.053  25.631  28.221  1.00  0.00     0.049 A 
ATOM     41  N   UNL A   1      44.888  26.320  28.922  1.00  0.00    -0.248 NA
ATOM     42  C   UNL A   1      45.551  24.247  28.069  1.00  0.00     0.031 C 
ATOM     43  C   UNL A   1      40.649  25.345  27.929  1.00  0.00     0.029 A 
ATOM     44  N   UNL A   1      42.043  26.913  28.708  1.00  0.00    -0.354 N 
ATOM     45  C   UNL A   1      46.263  26.191  29.052  1.00  0.00     0.074 A 
ATOM     46  C   UNL A   1      46.620  24.894  28.514  1.00  0.00     0.031 C 
ATOM     47  C   UNL A   1      39.911  26.424  28.241  1.00  0.00     0.029 A 
ATOM     48  C   UNL A   1      40.790  27.467  28.764  1.00  0.00     0.049 A 
ATOM     49  H   UNL A   1      42.857  27.389  28.991  1.00  0.00     0.167 HD
ATOM     50  C   UNL A   1      47.148  27.070  29.580  1.00  0.00     0.037 A 
ATOM     51  C   UNL A   1      40.394  28.680  29.194  1.00  0.00     0.037 A 
ATOM     52  C   UNL A   1      46.814  28.369  30.095  1.00  0.00     0.049 A 
ATOM     53  C   UNL A   1      41.403  29.659  29.718  1.00  0.00     0.074 A 
ATOM     54  C   UNL A   1      47.647  29.314  30.670  1.00  0.00     0.029 A 
ATOM     55  N   UNL A   1      45.541  28.914  30.083  1.00  0.00    -0.354 N 
ATOM     56  N   UNL A   1      42.694  29.508  29.867  1.00  0.00    -0.248 NA
ATOM     57  C   UNL A   1      40.894  30.975  30.134  1.00  0.00     0.031 C 
ATOM     58  C   UNL A   1      46.876  30.437  31.000  1.00  0.00     0.029 A 
ATOM     59  C   UNL A   1      45.566  30.187  30.628  1.00  0.00     0.049 A 
ATOM     60  H   UNL A   1      44.736  28.464  29.738  1.00  0.00     0.167 HD
ATOM     61  C   UNL A   1      43.156  30.705  30.398  1.00  0.00     0.074 A 
ATOM     62  C   UNL A   1      42.007  31.577  30.536  1.00  0.00     0.031 C 
ATOM     63  C   UNL A   1      44.418  31.044  30.750  1.00  0.00     0.037 A 
BRANCH  50  64
ATOM     64  C   UNL A   1      48.576  26.634  29.641  1.00  0.00     0.057 A 
ATOM     65  C   UNL A   1      49.063  25.887  30.719  1.00  0.00     0.134 A 
ATOM     66  C   UNL A   1      49.461  26.944  28.603  1.00  0.00     0.134 A 
ATOM     67  F   UNL A   1      48.262  25.570  31.747  1.00  0.00    -0.206 F 
ATOM     68  C   UNL A   1      50.392  25.466  30.765  1.00  0.00     0.040 A 
ATOM     69  C   UNL A   1      50.792  26.525  28.635  1.00  0.00     0.040 A 
ATOM     70  F   UNL A   1      49.050  27.663  27.548  1.00  0.00    -0.206 F 
ATOM     71  C   UNL A   1      51.260  25.783  29.720  1.00  0.00     0.006 A 
ENDBRANCH  50  64
BRANCH  51  72
ATOM     72  C   UNL A   1      38.962  29.037  29.147  1.00  0.00     0.057 A 
ATOM     73  C   UNL A   1      38.374  29.497  27.965  1.00  0.00     0.134 A 
ATOM     74  C   UNL A   1      38.151  28.918  30.280  1.00  0.00     0.134 A 
ATOM     75  F   UNL A   1      39.112  29.643  26.855  1.00  0.00    -0.206 F 
ATOM     76  C   UNL A   1      37.022  29.832  27.910  1.00  0.00     0.040 A 
ATOM     77  C   UNL A   1      36.796  29.245  30.238  1.00  0.00     0.040 A 
ATOM     78  F   UNL A   1      38.666  28.486  31.440  1.00  0.00    -0.206 F 
ATOM     79  C   UNL A   1      36.228  29.703  29.050  1.00  0.00     0.006 A 
ENDBRANCH  51  72
BRANCH  63  80
ATOM     80  C   UNL A   1      44.618  32.414  31.312  1.00  0.00     0.057 A 
ATOM     81  C   UNL A   1      44.528  32.648  32.689  1.00  0.00     0.134 A 
ATOM     82  C   UNL A   1      44.922  33.497  30.481  1.00  0.00     0.134 A 
ATOM     83  F   UNL A   1      44.230  31.648  33.532  1.00  0.00    -0.206 F 
ATOM     84  C   UNL A   1      44.731  33.921  33.221  1.00  0.00     0.040 A 
ATOM     85  C   UNL A   1      45.128  34.774  31.002  1.00  0.00     0.040 A 
ATOM     86  F   UNL A   1      45.013  33.331  29.153  1.00  0.00    -0.206 F 
ATOM     87  C   UNL A   1      45.033  34.989  32.377  1.00  0.00     0.006 A 
ENDBRANCH  63  80
ENDBRANCH  37  38
ENDBRANCH  29  32
ENDBRANCH  27  28
ENDBRANCH  26  27
ENDBRANCH   1  26
TORSDOF 15
ENDMDL
