MODEL 1
REMARK VINA RESULT:     -11.6      0.000      0.000
REMARK SMILES Cc1nc(C[N@@H+]2CCC[C@H]2C(=O)NCCCCNC(=O)c2ccc(-c3c4nc(c(-c5c(F)cccc5F)c5ccc([nH]5)c(-c5c(F)cccc5F)c5nc(c(-c6c(F)cccc6F)c6ccc3[nH]6)C=C5)C=C4)cc2)cs1
REMARK SMILES IDX 15 1 14 2 13 3 11 4 12 5 10 7 6 8 7 9 8 11 9 12 5 13 4 14
REMARK SMILES IDX 1 15 2 16 3 17 76 18 75 19 16 20 17 21 18 22 19 23 20 25
REMARK SMILES IDX 21 26 22 27 74 28 23 29 73 30 24 31 25 32 26 33 67 34 27 35
REMARK SMILES IDX 72 36 66 37 68 38 28 39 71 40 65 41 64 42 29 44 55 45 38 46
REMARK SMILES IDX 54 47 39 48 42 49 53 50 69 51 40 52 41 53 52 55 70 56 43 57
REMARK SMILES IDX 30 58 31 59 36 60 32 61 33 62 35 63 37 64 34 65 56 66 57 67
REMARK SMILES IDX 62 68 58 69 59 70 61 71 63 72 60 73 44 74 45 75 50 76 46 77
REMARK SMILES IDX 47 78 49 79 51 80 48 81
REMARK H PARENT 13 6 6 10 18 24 68 43 42 54
REMARK Flexibility Score: inf
ROOT
ATOM      1  C   UNL A   1      37.168  20.819  24.546  1.00  0.00     0.023 C 
ENDROOT
BRANCH   1   2
ATOM      2  C   UNL A   1      37.119  21.993  25.518  1.00  0.00     0.116 C 
BRANCH   2   3
ATOM      3  N   UNL A   1      36.065  21.838  26.501  1.00  0.00    -0.351 N 
ATOM      4  C   UNL A   1      34.718  21.667  26.405  1.00  0.00     0.278 C 
ATOM      5  O   UNL A   1      34.124  21.591  27.491  1.00  0.00    -0.268 OA
ATOM      6  H   UNL A   1      36.390  21.861  27.430  1.00  0.00     0.163 HD
BRANCH   4   7
ATOM      7  C   UNL A   1      33.915  21.634  25.080  1.00  0.00     0.274 C 
ATOM      8  N   UNL A   1      32.657  20.881  25.168  1.00  0.00    -0.320 N 
ATOM      9  C   UNL A   1      31.568  21.819  25.377  1.00  0.00     0.263 C 
ATOM     10  H   UNL A   1      32.680  20.275  25.988  1.00  0.00     0.349 HD
ATOM     11  C   UNL A   1      31.987  23.089  24.671  1.00  0.00     0.068 C 
ATOM     12  C   UNL A   1      33.508  23.064  24.689  1.00  0.00     0.081 C 
BRANCH   8  13
ATOM     13  C   UNL A   1      32.476  19.855  24.139  1.00  0.00     0.321 C 
BRANCH  13  14
ATOM     14  C   UNL A   1      33.011  18.498  24.485  1.00  0.00     0.106 A 
ATOM     15  C   UNL A   1      32.172  15.174  25.751  1.00  0.00     0.079 C 
ATOM     16  C   UNL A   1      32.794  16.413  25.209  1.00  0.00     0.090 A 
ATOM     17  N   UNL A   1      32.157  17.551  25.035  1.00  0.00    -0.241 NA
ATOM     18  S   UNL A   1      34.454  16.418  24.764  1.00  0.00    -0.127 S 
ATOM     19  C   UNL A   1      34.297  18.042  24.252  1.00  0.00     0.096 A 
ENDBRANCH  13  14
ENDBRANCH   8  13
ENDBRANCH   4   7
ENDBRANCH   2   3
ENDBRANCH   1   2
BRANCH   1  20
ATOM     20  C   UNL A   1      38.046  19.654  25.001  1.00  0.00     0.023 C 
BRANCH  20  21
ATOM     21  C   UNL A   1      39.279  20.045  25.810  1.00  0.00     0.116 C 
BRANCH  21  22
ATOM     22  N   UNL A   1      40.291  19.000  25.860  1.00  0.00    -0.352 N 
ATOM     23  C   UNL A   1      41.642  19.114  26.086  1.00  0.00     0.251 C 
ATOM     24  H   UNL A   1      39.962  18.084  25.712  1.00  0.00     0.163 HD
ATOM     25  O   UNL A   1      42.375  18.140  25.986  1.00  0.00    -0.269 OA
BRANCH  23  26
ATOM     26  C   UNL A   1      42.209  20.439  26.416  1.00  0.00     0.039 A 
ATOM     27  C   UNL A   1      42.643  21.263  25.376  1.00  0.00     0.014 A 
ATOM     28  C   UNL A   1      42.276  20.875  27.741  1.00  0.00     0.014 A 
ATOM     29  C   UNL A   1      43.076  22.559  25.660  1.00  0.00     0.010 A 
ATOM     30  C   UNL A   1      42.634  22.192  28.014  1.00  0.00     0.010 A 
ATOM     31  C   UNL A   1      43.037  23.046  26.977  1.00  0.00    -0.014 A 
BRANCH  31  32
ATOM     32  C   UNL A   1      43.407  24.448  27.291  1.00  0.00     0.031 A 
ATOM     33  C   UNL A   1      44.840  24.888  27.204  1.00  0.00     0.074 A 
ATOM     34  C   UNL A   1      42.463  25.306  27.725  1.00  0.00     0.049 A 
ATOM     35  N   UNL A   1      45.368  26.050  27.495  1.00  0.00    -0.248 NA
ATOM     36  C   UNL A   1      45.813  23.880  26.758  1.00  0.00     0.031 C 
ATOM     37  C   UNL A   1      41.045  24.986  27.900  1.00  0.00     0.029 A 
ATOM     38  N   UNL A   1      42.558  26.620  28.105  1.00  0.00    -0.354 N 
ATOM     39  C   UNL A   1      46.734  25.906  27.285  1.00  0.00     0.074 A 
ATOM     40  C   UNL A   1      46.958  24.530  26.899  1.00  0.00     0.031 C 
ATOM     41  C   UNL A   1      40.397  26.084  28.321  1.00  0.00     0.029 A 
ATOM     42  C   UNL A   1      41.358  27.171  28.482  1.00  0.00     0.049 A 
ATOM     43  H   UNL A   1      43.405  27.121  28.108  1.00  0.00     0.167 HD
ATOM     44  C   UNL A   1      47.709  26.841  27.380  1.00  0.00     0.037 A 
ATOM     45  C   UNL A   1      41.065  28.414  28.910  1.00  0.00     0.037 A 
ATOM     46  C   UNL A   1      47.479  28.214  27.747  1.00  0.00     0.049 A 
ATOM     47  C   UNL A   1      42.164  29.432  29.023  1.00  0.00     0.074 A 
ATOM     48  C   UNL A   1      48.389  29.255  27.810  1.00  0.00     0.029 A 
ATOM     49  N   UNL A   1      46.249  28.735  28.120  1.00  0.00    -0.354 N 
ATOM     50  N   UNL A   1      43.441  29.303  28.752  1.00  0.00    -0.248 NA
ATOM     51  C   UNL A   1      41.781  30.768  29.499  1.00  0.00     0.031 C 
ATOM     52  C   UNL A   1      47.718  30.395  28.266  1.00  0.00     0.029 A 
ATOM     53  C   UNL A   1      46.380  30.077  28.440  1.00  0.00     0.049 A 
ATOM     54  H   UNL A   1      45.407  28.227  28.153  1.00  0.00     0.167 HD
ATOM     55  C   UNL A   1      44.008  30.547  28.996  1.00  0.00     0.074 A 
ATOM     56  C   UNL A   1      42.935  31.418  29.428  1.00  0.00     0.031 C 
ATOM     57  C   UNL A   1      45.302  30.932  28.868  1.00  0.00     0.037 A 
BRANCH  44  58
ATOM     58  C   UNL A   1      49.113  26.396  27.086  1.00  0.00     0.057 A 
ATOM     59  C   UNL A   1      49.974  25.945  28.097  1.00  0.00     0.134 A 
ATOM     60  C   UNL A   1      49.613  26.424  25.778  1.00  0.00     0.134 A 
ATOM     61  F   UNL A   1      49.563  25.905  29.373  1.00  0.00    -0.206 F 
ATOM     62  C   UNL A   1      51.293  25.578  27.824  1.00  0.00     0.040 A 
ATOM     63  C   UNL A   1      50.921  26.031  25.489  1.00  0.00     0.040 A 
ATOM     64  F   UNL A   1      48.842  26.837  24.762  1.00  0.00    -0.206 F 
ATOM     65  C   UNL A   1      51.769  25.617  26.515  1.00  0.00     0.006 A 
ENDBRANCH  44  58
BRANCH  45  66
ATOM     66  C   UNL A   1      39.660  28.775  29.219  1.00  0.00     0.057 A 
ATOM     67  C   UNL A   1      38.804  29.240  28.214  1.00  0.00     0.134 A 
ATOM     68  C   UNL A   1      39.132  28.646  30.509  1.00  0.00     0.134 A 
ATOM     69  F   UNL A   1      39.257  29.401  26.962  1.00  0.00    -0.206 F 
ATOM     70  C   UNL A   1      37.476  29.576  28.482  1.00  0.00     0.040 A 
ATOM     71  C   UNL A   1      37.800  28.957  30.787  1.00  0.00     0.040 A 
ATOM     72  F   UNL A   1      39.900  28.198  31.513  1.00  0.00    -0.206 F 
ATOM     73  C   UNL A   1      36.969  29.428  29.772  1.00  0.00     0.006 A 
ENDBRANCH  45  66
BRANCH  57  74
ATOM     74  C   UNL A   1      45.623  32.368  29.169  1.00  0.00     0.057 A 
ATOM     75  C   UNL A   1      45.529  33.368  28.193  1.00  0.00     0.134 A 
ATOM     76  C   UNL A   1      45.994  32.758  30.462  1.00  0.00     0.134 A 
ATOM     77  F   UNL A   1      45.193  33.058  26.931  1.00  0.00    -0.206 F 
ATOM     78  C   UNL A   1      45.813  34.702  28.488  1.00  0.00     0.040 A 
ATOM     79  C   UNL A   1      46.255  34.093  30.775  1.00  0.00     0.040 A 
ATOM     80  F   UNL A   1      46.095  31.851  31.444  1.00  0.00    -0.206 F 
ATOM     81  C   UNL A   1      46.170  35.068  29.784  1.00  0.00     0.006 A 
ENDBRANCH  57  74
ENDBRANCH  31  32
ENDBRANCH  23  26
ENDBRANCH  21  22
ENDBRANCH  20  21
ENDBRANCH   1  20
TORSDOF 13
ENDMDL
MODEL 2
REMARK VINA RESULT:     -11.4      6.481     11.232
REMARK SMILES Cc1nc(C[N@@H+]2CCC[C@H]2C(=O)NCCCCNC(=O)c2ccc(-c3c4nc(c(-c5c(F)cccc5F)c5ccc([nH]5)c(-c5c(F)cccc5F)c5nc(c(-c6c(F)cccc6F)c6ccc3[nH]6)C=C5)C=C4)cc2)cs1
REMARK SMILES IDX 15 1 14 2 13 3 11 4 12 5 10 7 6 8 7 9 8 11 9 12 5 13 4 14
REMARK SMILES IDX 1 15 2 16 3 17 76 18 75 19 16 20 17 21 18 22 19 23 20 25
REMARK SMILES IDX 21 26 22 27 74 28 23 29 73 30 24 31 25 32 26 33 67 34 27 35
REMARK SMILES IDX 72 36 66 37 68 38 28 39 71 40 65 41 64 42 29 44 55 45 38 46
REMARK SMILES IDX 54 47 39 48 42 49 53 50 69 51 40 52 41 53 52 55 70 56 43 57
REMARK SMILES IDX 30 58 31 59 36 60 32 61 33 62 35 63 37 64 34 65 56 66 57 67
REMARK SMILES IDX 62 68 58 69 59 70 61 71 63 72 60 73 44 74 45 75 50 76 46 77
REMARK SMILES IDX 47 78 49 79 51 80 48 81
REMARK H PARENT 13 6 6 10 18 24 68 43 42 54
REMARK Flexibility Score: inf
ROOT
ATOM      1  C   UNL A   1      31.547  30.829  26.027  1.00  0.00     0.023 C 
ENDROOT
BRANCH   1   2
ATOM      2  C   UNL A   1      32.863  30.065  26.132  1.00  0.00     0.116 C 
BRANCH   2   3
ATOM      3  N   UNL A   1      33.389  29.713  24.827  1.00  0.00    -0.351 N 
ATOM      4  C   UNL A   1      32.959  28.879  23.842  1.00  0.00     0.278 C 
ATOM      5  O   UNL A   1      33.701  28.817  22.851  1.00  0.00    -0.268 OA
ATOM      6  H   UNL A   1      34.233  30.172  24.609  1.00  0.00     0.163 HD
BRANCH   4   7
ATOM      7  C   UNL A   1      31.690  27.991  23.915  1.00  0.00     0.274 C 
ATOM      8  N   UNL A   1      30.948  27.913  22.650  1.00  0.00    -0.320 N 
ATOM      9  C   UNL A   1      31.320  26.686  21.969  1.00  0.00     0.263 C 
ATOM     10  H   UNL A   1      31.231  28.681  22.042  1.00  0.00     0.349 HD
ATOM     11  C   UNL A   1      31.638  25.694  23.065  1.00  0.00     0.068 C 
ATOM     12  C   UNL A   1      32.093  26.544  24.243  1.00  0.00     0.081 C 
BRANCH   8  13
ATOM     13  C   UNL A   1      29.520  28.224  22.749  1.00  0.00     0.321 C 
BRANCH  13  14
ATOM     14  C   UNL A   1      29.160  29.662  22.530  1.00  0.00     0.106 A 
ATOM     15  C   UNL A   1      27.989  32.124  20.096  1.00  0.00     0.079 C 
ATOM     16  C   UNL A   1      28.459  31.356  21.281  1.00  0.00     0.090 A 
ATOM     17  N   UNL A   1      28.797  30.085  21.257  1.00  0.00    -0.241 NA
ATOM     18  S   UNL A   1      28.590  32.128  22.810  1.00  0.00    -0.127 S 
ATOM     19  C   UNL A   1      29.083  30.644  23.502  1.00  0.00     0.096 A 
ENDBRANCH  13  14
ENDBRANCH   8  13
ENDBRANCH   4   7
ENDBRANCH   2   3
ENDBRANCH   1   2
BRANCH   1  20
ATOM     20  C   UNL A   1      31.403  31.982  27.020  1.00  0.00     0.023 C 
BRANCH  20  21
ATOM     21  C   UNL A   1      32.651  32.836  27.212  1.00  0.00     0.116 C 
BRANCH  21  22
ATOM     22  N   UNL A   1      32.359  34.201  27.625  1.00  0.00    -0.352 N 
ATOM     23  C   UNL A   1      32.975  34.965  28.588  1.00  0.00     0.251 C 
ATOM     24  H   UNL A   1      31.617  34.638  27.148  1.00  0.00     0.163 HD
ATOM     25  O   UNL A   1      32.532  36.064  28.890  1.00  0.00    -0.269 OA
BRANCH  23  26
ATOM     26  C   UNL A   1      34.162  34.426  29.286  1.00  0.00     0.039 A 
ATOM     27  C   UNL A   1      33.981  33.737  30.488  1.00  0.00     0.014 A 
ATOM     28  C   UNL A   1      35.438  34.569  28.737  1.00  0.00     0.014 A 
ATOM     29  C   UNL A   1      35.075  33.126  31.102  1.00  0.00     0.010 A 
ATOM     30  C   UNL A   1      36.512  33.894  29.308  1.00  0.00     0.010 A 
ATOM     31  C   UNL A   1      36.341  33.166  30.496  1.00  0.00    -0.014 A 
BRANCH  31  32
ATOM     32  C   UNL A   1      37.500  32.449  31.082  1.00  0.00     0.031 A 
ATOM     33  C   UNL A   1      38.110  32.926  32.369  1.00  0.00     0.074 A 
ATOM     34  C   UNL A   1      38.048  31.413  30.419  1.00  0.00     0.049 A 
ATOM     35  N   UNL A   1      39.159  32.470  33.006  1.00  0.00    -0.248 NA
ATOM     36  C   UNL A   1      37.474  34.087  33.009  1.00  0.00     0.031 C 
ATOM     37  C   UNL A   1      37.579  30.885  29.136  1.00  0.00     0.029 A 
ATOM     38  N   UNL A   1      39.125  30.622  30.731  1.00  0.00    -0.354 N 
ATOM     39  C   UNL A   1      39.317  33.298  34.110  1.00  0.00     0.074 A 
ATOM     40  C   UNL A   1      38.294  34.317  34.023  1.00  0.00     0.031 C 
ATOM     41  C   UNL A   1      38.343  29.838  28.788  1.00  0.00     0.029 A 
ATOM     42  C   UNL A   1      39.377  29.644  29.800  1.00  0.00     0.049 A 
ATOM     43  H   UNL A   1      39.666  30.745  31.544  1.00  0.00     0.167 HD
ATOM     44  C   UNL A   1      40.218  33.204  35.118  1.00  0.00     0.037 A 
ATOM     45  C   UNL A   1      40.335  28.699  29.766  1.00  0.00     0.037 A 
ATOM     46  C   UNL A   1      41.222  32.178  35.211  1.00  0.00     0.049 A 
ATOM     47  C   UNL A   1      41.333  28.621  30.887  1.00  0.00     0.074 A 
ATOM     48  C   UNL A   1      42.140  31.957  36.223  1.00  0.00     0.029 A 
ATOM     49  N   UNL A   1      41.445  31.204  34.249  1.00  0.00    -0.354 N 
ATOM     50  N   UNL A   1      41.428  29.366  31.961  1.00  0.00    -0.248 NA
ATOM     51  C   UNL A   1      42.354  27.570  30.790  1.00  0.00     0.031 C 
ATOM     52  C   UNL A   1      42.948  30.877  35.851  1.00  0.00     0.029 A 
ATOM     53  C   UNL A   1      42.503  30.394  34.630  1.00  0.00     0.049 A 
ATOM     54  H   UNL A   1      40.929  31.103  33.417  1.00  0.00     0.167 HD
ATOM     55  C   UNL A   1      42.500  28.857  32.683  1.00  0.00     0.074 A 
ATOM     56  C   UNL A   1      43.016  27.734  31.927  1.00  0.00     0.031 C 
ATOM     57  C   UNL A   1      43.006  29.280  33.868  1.00  0.00     0.037 A 
BRANCH  44  58
ATOM     58  C   UNL A   1      40.150  34.250  36.194  1.00  0.00     0.057 A 
ATOM     59  C   UNL A   1      39.393  34.065  37.360  1.00  0.00     0.134 A 
ATOM     60  C   UNL A   1      40.845  35.459  36.062  1.00  0.00     0.134 A 
ATOM     61  F   UNL A   1      38.692  32.935  37.544  1.00  0.00    -0.206 F 
ATOM     62  C   UNL A   1      39.295  35.060  38.334  1.00  0.00     0.040 A 
ATOM     63  C   UNL A   1      40.779  36.449  37.044  1.00  0.00     0.040 A 
ATOM     64  F   UNL A   1      41.594  35.699  34.976  1.00  0.00    -0.206 F 
ATOM     65  C   UNL A   1      39.993  36.255  38.179  1.00  0.00     0.006 A 
ENDBRANCH  44  58
BRANCH  45  66
ATOM     66  C   UNL A   1      40.365  27.720  28.652  1.00  0.00     0.057 A 
ATOM     67  C   UNL A   1      41.131  27.964  27.506  1.00  0.00     0.134 A 
ATOM     68  C   UNL A   1      39.652  26.517  28.708  1.00  0.00     0.134 A 
ATOM     69  F   UNL A   1      41.822  29.108  27.388  1.00  0.00    -0.206 F 
ATOM     70  C   UNL A   1      41.180  27.052  26.451  1.00  0.00     0.040 A 
ATOM     71  C   UNL A   1      39.708  25.586  27.669  1.00  0.00     0.040 A 
ATOM     72  F   UNL A   1      38.905  26.222  29.782  1.00  0.00    -0.206 F 
ATOM     73  C   UNL A   1      40.471  25.855  26.534  1.00  0.00     0.006 A 
ENDBRANCH  45  66
BRANCH  57  74
ATOM     74  C   UNL A   1      44.159  28.504  34.436  1.00  0.00     0.057 A 
ATOM     75  C   UNL A   1      45.489  28.881  34.208  1.00  0.00     0.134 A 
ATOM     76  C   UNL A   1      43.934  27.388  35.251  1.00  0.00     0.134 A 
ATOM     77  F   UNL A   1      45.774  29.932  33.424  1.00  0.00    -0.206 F 
ATOM     78  C   UNL A   1      46.554  28.163  34.755  1.00  0.00     0.040 A 
ATOM     79  C   UNL A   1      44.989  26.678  35.825  1.00  0.00     0.040 A 
ATOM     80  F   UNL A   1      42.684  26.979  35.515  1.00  0.00    -0.206 F 
ATOM     81  C   UNL A   1      46.304  27.062  35.572  1.00  0.00     0.006 A 
ENDBRANCH  57  74
ENDBRANCH  31  32
ENDBRANCH  23  26
ENDBRANCH  21  22
ENDBRANCH  20  21
ENDBRANCH   1  20
TORSDOF 13
ENDMDL
MODEL 3
REMARK VINA RESULT:     -11.4      6.702     10.826
REMARK SMILES Cc1nc(C[N@@H+]2CCC[C@H]2C(=O)NCCCCNC(=O)c2ccc(-c3c4nc(c(-c5c(F)cccc5F)c5ccc([nH]5)c(-c5c(F)cccc5F)c5nc(c(-c6c(F)cccc6F)c6ccc3[nH]6)C=C5)C=C4)cc2)cs1
REMARK SMILES IDX 15 1 14 2 13 3 11 4 12 5 10 7 6 8 7 9 8 11 9 12 5 13 4 14
REMARK SMILES IDX 1 15 2 16 3 17 76 18 75 19 16 20 17 21 18 22 19 23 20 25
REMARK SMILES IDX 21 26 22 27 74 28 23 29 73 30 24 31 25 32 26 33 67 34 27 35
REMARK SMILES IDX 72 36 66 37 68 38 28 39 71 40 65 41 64 42 29 44 55 45 38 46
REMARK SMILES IDX 54 47 39 48 42 49 53 50 69 51 40 52 41 53 52 55 70 56 43 57
REMARK SMILES IDX 30 58 31 59 36 60 32 61 33 62 35 63 37 64 34 65 56 66 57 67
REMARK SMILES IDX 62 68 58 69 59 70 61 71 63 72 60 73 44 74 45 75 50 76 46 77
REMARK SMILES IDX 47 78 49 79 51 80 48 81
REMARK H PARENT 13 6 6 10 18 24 68 43 42 54
REMARK Flexibility Score: inf
ROOT
ATOM      1  C   UNL A   1      31.678  30.788  26.044  1.00  0.00     0.023 C 
ENDROOT
BRANCH   1   2
ATOM      2  C   UNL A   1      32.999  30.027  26.103  1.00  0.00     0.116 C 
BRANCH   2   3
ATOM      3  N   UNL A   1      33.498  29.708  24.780  1.00  0.00    -0.351 N 
ATOM      4  C   UNL A   1      33.053  28.890  23.788  1.00  0.00     0.278 C 
ATOM      5  O   UNL A   1      33.772  28.856  22.779  1.00  0.00    -0.268 OA
ATOM      6  H   UNL A   1      34.332  30.180  24.552  1.00  0.00     0.163 HD
BRANCH   4   7
ATOM      7  C   UNL A   1      31.794  27.989  23.871  1.00  0.00     0.274 C 
ATOM      8  N   UNL A   1      31.025  27.928  22.622  1.00  0.00    -0.320 N 
ATOM      9  C   UNL A   1      31.393  26.718  21.909  1.00  0.00     0.263 C 
ATOM     10  H   UNL A   1      31.287  28.711  22.023  1.00  0.00     0.349 HD
ATOM     11  C   UNL A   1      31.745  25.709  22.977  1.00  0.00     0.068 C 
ATOM     12  C   UNL A   1      32.218  26.539  24.161  1.00  0.00     0.081 C 
BRANCH   8  13
ATOM     13  C   UNL A   1      29.597  28.222  22.759  1.00  0.00     0.321 C 
BRANCH  13  14
ATOM     14  C   UNL A   1      29.214  29.656  22.550  1.00  0.00     0.106 A 
ATOM     15  C   UNL A   1      28.000  32.117  20.136  1.00  0.00     0.079 C 
ATOM     16  C   UNL A   1      28.485  31.348  21.314  1.00  0.00     0.090 A 
ATOM     17  N   UNL A   1      28.842  30.082  21.281  1.00  0.00    -0.241 NA
ATOM     18  S   UNL A   1      28.609  32.112  22.848  1.00  0.00    -0.127 S 
ATOM     19  C   UNL A   1      29.126  30.631  23.528  1.00  0.00     0.096 A 
ENDBRANCH  13  14
ENDBRANCH   8  13
ENDBRANCH   4   7
ENDBRANCH   2   3
ENDBRANCH   1   2
BRANCH   1  20
ATOM     20  C   UNL A   1      31.534  31.890  27.094  1.00  0.00     0.023 C 
BRANCH  20  21
ATOM     21  C   UNL A   1      32.764  32.770  27.288  1.00  0.00     0.116 C 
BRANCH  21  22
ATOM     22  N   UNL A   1      32.439  34.154  27.603  1.00  0.00    -0.352 N 
ATOM     23  C   UNL A   1      33.002  34.982  28.545  1.00  0.00     0.251 C 
ATOM     24  H   UNL A   1      31.716  34.552  27.066  1.00  0.00     0.163 HD
ATOM     25  O   UNL A   1      32.535  36.092  28.758  1.00  0.00    -0.269 OA
BRANCH  23  26
ATOM     26  C   UNL A   1      34.160  34.502  29.328  1.00  0.00     0.039 A 
ATOM     27  C   UNL A   1      33.932  33.910  30.572  1.00  0.00     0.014 A 
ATOM     28  C   UNL A   1      35.457  34.602  28.818  1.00  0.00     0.014 A 
ATOM     29  C   UNL A   1      35.001  33.351  31.274  1.00  0.00     0.010 A 
ATOM     30  C   UNL A   1      36.507  33.976  29.481  1.00  0.00     0.010 A 
ATOM     31  C   UNL A   1      36.290  33.344  30.715  1.00  0.00    -0.014 A 
BRANCH  31  32
ATOM     32  C   UNL A   1      37.423  32.677  31.400  1.00  0.00     0.031 A 
ATOM     33  C   UNL A   1      38.120  31.515  30.751  1.00  0.00     0.074 A 
ATOM     34  C   UNL A   1      37.780  33.070  32.639  1.00  0.00     0.049 A 
ATOM     35  N   UNL A   1      39.088  30.767  31.214  1.00  0.00    -0.248 NA
ATOM     36  C   UNL A   1      37.645  31.126  29.415  1.00  0.00     0.031 C 
ATOM     37  C   UNL A   1      37.151  34.152  33.397  1.00  0.00     0.029 A 
ATOM     38  N   UNL A   1      38.756  32.598  33.479  1.00  0.00    -0.354 N 
ATOM     39  C   UNL A   1      39.324  29.809  30.236  1.00  0.00     0.074 A 
ATOM     40  C   UNL A   1      38.360  30.037  29.182  1.00  0.00     0.031 C 
ATOM     41  C   UNL A   1      37.777  34.283  34.577  1.00  0.00     0.029 A 
ATOM     42  C   UNL A   1      38.825  33.272  34.674  1.00  0.00     0.049 A 
ATOM     43  H   UNL A   1      39.349  31.847  33.248  1.00  0.00     0.167 HD
ATOM     44  C   UNL A   1      40.274  28.844  30.207  1.00  0.00     0.037 A 
ATOM     45  C   UNL A   1      39.642  33.092  35.729  1.00  0.00     0.037 A 
ATOM     46  C   UNL A   1      41.245  28.633  31.249  1.00  0.00     0.049 A 
ATOM     47  C   UNL A   1      40.679  32.006  35.682  1.00  0.00     0.074 A 
ATOM     48  C   UNL A   1      42.288  27.724  31.286  1.00  0.00     0.029 A 
ATOM     49  N   UNL A   1      41.284  29.336  32.444  1.00  0.00    -0.354 N 
ATOM     50  N   UNL A   1      40.939  31.154  34.721  1.00  0.00    -0.248 NA
ATOM     51  C   UNL A   1      41.536  31.860  36.866  1.00  0.00     0.031 C 
ATOM     52  C   UNL A   1      42.930  27.848  32.523  1.00  0.00     0.029 A 
ATOM     53  C   UNL A   1      42.317  28.866  33.236  1.00  0.00     0.049 A 
ATOM     54  H   UNL A   1      40.668  30.062  32.691  1.00  0.00     0.167 HD
ATOM     55  C   UNL A   1      42.008  30.389  35.171  1.00  0.00     0.074 A 
ATOM     56  C   UNL A   1      42.352  30.886  36.487  1.00  0.00     0.031 C 
ATOM     57  C   UNL A   1      42.649  29.370  34.545  1.00  0.00     0.037 A 
BRANCH  44  58
ATOM     58  C   UNL A   1      40.297  27.944  29.004  1.00  0.00     0.057 A 
ATOM     59  C   UNL A   1      39.584  26.737  28.968  1.00  0.00     0.134 A 
ATOM     60  C   UNL A   1      41.045  28.285  27.870  1.00  0.00     0.134 A 
ATOM     61  F   UNL A   1      38.858  26.344  30.025  1.00  0.00    -0.206 F 
ATOM     62  C   UNL A   1      39.648  25.883  27.866  1.00  0.00     0.040 A 
ATOM     63  C   UNL A   1      41.092  27.452  26.750  1.00  0.00     0.040 A 
ATOM     64  F   UNL A   1      41.745  29.428  27.833  1.00  0.00    -0.206 F 
ATOM     65  C   UNL A   1      40.401  26.242  26.750  1.00  0.00     0.006 A 
ENDBRANCH  44  58
BRANCH  45  66
ATOM     66  C   UNL A   1      39.539  33.996  36.902  1.00  0.00     0.057 A 
ATOM     67  C   UNL A   1      38.787  33.629  38.023  1.00  0.00     0.134 A 
ATOM     68  C   UNL A   1      40.198  35.230  36.942  1.00  0.00     0.134 A 
ATOM     69  F   UNL A   1      38.119  32.466  38.036  1.00  0.00    -0.206 F 
ATOM     70  C   UNL A   1      38.685  34.460  39.140  1.00  0.00     0.040 A 
ATOM     71  C   UNL A   1      40.123  36.062  38.060  1.00  0.00     0.040 A 
ATOM     72  F   UNL A   1      40.941  35.635  35.901  1.00  0.00    -0.206 F 
ATOM     73  C   UNL A   1      39.360  35.679  39.162  1.00  0.00     0.006 A 
ENDBRANCH  45  66
BRANCH  57  74
ATOM     74  C   UNL A   1      43.809  28.746  35.265  1.00  0.00     0.057 A 
ATOM     75  C   UNL A   1      45.122  29.202  35.090  1.00  0.00     0.134 A 
ATOM     76  C   UNL A   1      43.603  27.699  36.172  1.00  0.00     0.134 A 
ATOM     77  F   UNL A   1      45.388  30.192  34.224  1.00  0.00    -0.206 F 
ATOM     78  C   UNL A   1      46.191  28.625  35.777  1.00  0.00     0.040 A 
ATOM     79  C   UNL A   1      44.661  27.132  36.885  1.00  0.00     0.040 A 
ATOM     80  F   UNL A   1      42.370  27.221  36.392  1.00  0.00    -0.206 F 
ATOM     81  C   UNL A   1      45.960  27.592  36.683  1.00  0.00     0.006 A 
ENDBRANCH  57  74
ENDBRANCH  31  32
ENDBRANCH  23  26
ENDBRANCH  21  22
ENDBRANCH  20  21
ENDBRANCH   1  20
TORSDOF 13
ENDMDL
