MODEL 1
REMARK VINA RESULT:     -12.0      0.000      0.000
REMARK SMILES O=C(COc1ccc(/C=N/NC(=O)c2cc3cc([N+](=O)[O-])ccc3o2)cc1)NCCCCNC(=O)c1ccc(-c2c3nc(c(-c4c(F)cccc4F)c4ccc([nH]4)c(-c4c(F)cccc4F)c4nc(c(-c5c(F)cccc5F)c5ccc2[nH]5)C=C4)C=C3)cc1
REMARK SMILES IDX 1 1 2 2 28 3 3 5 4 6 5 7 6 8 27 9 7 10 26 11 8 12 9 13 10 14
REMARK SMILES IDX 11 15 12 16 13 18 14 19 15 20 25 21 16 22 24 23 17 24 23 25
REMARK SMILES IDX 18 26 22 27 19 28 20 29 21 30 29 31 30 32 31 33 32 34 33 35
REMARK SMILES IDX 34 36 35 38 36 39 37 40 89 41 38 42 88 43 39 44 40 45 41 46
REMARK SMILES IDX 82 47 42 48 87 49 81 50 83 51 43 52 86 53 80 54 79 55 44 57
REMARK SMILES IDX 70 58 53 59 69 60 54 61 57 62 68 63 84 64 55 65 56 66 67 68
REMARK SMILES IDX 85 69 58 70 45 71 46 72 51 73 47 74 48 75 50 76 52 77 49 78
REMARK SMILES IDX 71 79 72 80 77 81 73 82 74 83 76 84 78 85 75 86 59 87 60 88
REMARK SMILES IDX 65 89 61 90 62 91 64 92 66 93 63 94
REMARK H PARENT 28 4 11 17 33 37 83 56 57 67
REMARK Flexibility Score: inf
ROOT
ATOM      1  O   UNL A   1      34.589  24.187  23.821  1.00  0.00    -0.271 OA
ATOM      2  C   UNL A   1      34.629  23.828  24.994  1.00  0.00     0.257 C 
ATOM      3  N   UNL A   1      35.564  22.937  25.486  1.00  0.00    -0.353 N 
ATOM      4  H   UNL A   1      35.669  22.843  26.460  1.00  0.00     0.163 HD
ENDROOT
BRANCH   2   5
ATOM      5  C   UNL A   1      33.598  24.294  26.028  1.00  0.00     0.329 C 
BRANCH   5   6
ATOM      6  O   UNL A   1      32.682  25.304  25.609  1.00  0.00    -0.484 OA
BRANCH   6   7
ATOM      7  C   UNL A   1      32.860  26.544  26.162  1.00  0.00     0.120 A 
ATOM      8  C   UNL A   1      31.738  27.121  26.760  1.00  0.00     0.047 A 
ATOM      9  C   UNL A   1      34.030  27.297  26.035  1.00  0.00     0.047 A 
ATOM     10  C   UNL A   1      31.786  28.442  27.219  1.00  0.00     0.013 A 
ATOM     11  C   UNL A   1      34.074  28.625  26.460  1.00  0.00     0.013 A 
ATOM     12  C   UNL A   1      32.951  29.199  27.045  1.00  0.00    -0.005 A 
BRANCH  12  13
ATOM     13  C   UNL A   1      32.985  30.644  27.348  1.00  0.00     0.141 C 
ATOM     14  N   UNL A   1      34.081  31.201  27.729  1.00  0.00    -0.180 NA
BRANCH  14  15
ATOM     15  N   UNL A   1      34.104  32.468  28.207  1.00  0.00    -0.240 N 
ATOM     16  C   UNL A   1      34.653  33.077  29.312  1.00  0.00     0.307 C 
ATOM     17  H   UNL A   1      33.614  33.100  27.631  1.00  0.00     0.194 HD
ATOM     18  O   UNL A   1      34.953  34.269  29.189  1.00  0.00    -0.264 OA
BRANCH  16  19
ATOM     19  C   UNL A   1      34.766  32.439  30.608  1.00  0.00     0.194 A 
ATOM     20  C   UNL A   1      35.904  31.930  31.223  1.00  0.00     0.065 A 
ATOM     21  O   UNL A   1      33.939  32.957  31.580  1.00  0.00    -0.451 OA
ATOM     22  C   UNL A   1      35.954  32.564  32.502  1.00  0.00     0.028 A 
ATOM     23  C   UNL A   1      34.720  33.178  32.669  1.00  0.00     0.135 A 
ATOM     24  C   UNL A   1      36.968  32.809  33.447  1.00  0.00     0.097 A 
ATOM     25  C   UNL A   1      34.393  34.025  33.726  1.00  0.00     0.055 A 
ATOM     26  C   UNL A   1      36.704  33.766  34.450  1.00  0.00     0.270 A 
ATOM     27  C   UNL A   1      35.437  34.355  34.597  1.00  0.00     0.089 A 
BRANCH  26  28
ATOM     28  N   UNL A   1      37.815  34.238  35.290  1.00  0.00     0.062 N 
ATOM     29  O   UNL A   1      37.938  33.735  36.416  1.00  0.00    -0.258 OA
ATOM     30  O   UNL A   1      38.576  35.092  34.815  1.00  0.00    -0.258 OA
ENDBRANCH  26  28
ENDBRANCH  16  19
ENDBRANCH  14  15
ENDBRANCH  12  13
ENDBRANCH   6   7
ENDBRANCH   5   6
ENDBRANCH   2   5
BRANCH   3  31
ATOM     31  C   UNL A   1      36.393  22.138  24.608  1.00  0.00     0.116 C 
BRANCH  31  32
ATOM     32  C   UNL A   1      36.510  20.684  25.042  1.00  0.00     0.023 C 
BRANCH  32  33
ATOM     33  C   UNL A   1      37.862  20.036  24.746  1.00  0.00     0.023 C 
BRANCH  33  34
ATOM     34  C   UNL A   1      38.945  20.265  25.796  1.00  0.00     0.116 C 
BRANCH  34  35
ATOM     35  N   UNL A   1      39.949  19.212  25.824  1.00  0.00    -0.352 N 
ATOM     36  C   UNL A   1      41.297  19.295  26.077  1.00  0.00     0.251 C 
ATOM     37  H   UNL A   1      39.612  18.307  25.633  1.00  0.00     0.163 HD
ATOM     38  O   UNL A   1      42.012  18.307  25.919  1.00  0.00    -0.269 OA
BRANCH  36  39
ATOM     39  C   UNL A   1      41.901  20.575  26.508  1.00  0.00     0.039 A 
ATOM     40  C   UNL A   1      42.477  21.408  25.543  1.00  0.00     0.014 A 
ATOM     41  C   UNL A   1      41.902  20.961  27.850  1.00  0.00     0.014 A 
ATOM     42  C   UNL A   1      42.982  22.656  25.914  1.00  0.00     0.010 A 
ATOM     43  C   UNL A   1      42.335  22.236  28.206  1.00  0.00     0.010 A 
ATOM     44  C   UNL A   1      42.877  23.100  27.242  1.00  0.00    -0.014 A 
BRANCH  44  45
ATOM     45  C   UNL A   1      43.314  24.465  27.637  1.00  0.00     0.031 A 
ATOM     46  C   UNL A   1      42.300  25.521  27.983  1.00  0.00     0.074 A 
ATOM     47  C   UNL A   1      44.627  24.776  27.621  1.00  0.00     0.049 A 
ATOM     48  N   UNL A   1      42.487  26.781  28.286  1.00  0.00    -0.248 NA
ATOM     49  C   UNL A   1      40.887  25.114  27.960  1.00  0.00     0.031 C 
ATOM     50  C   UNL A   1      45.710  23.859  27.263  1.00  0.00     0.029 A 
ATOM     51  N   UNL A   1      45.272  25.955  27.905  1.00  0.00    -0.354 N 
ATOM     52  C   UNL A   1      41.220  27.318  28.475  1.00  0.00     0.074 A 
ATOM     53  C   UNL A   1      40.270  26.262  28.201  1.00  0.00     0.031 C 
ATOM     54  C   UNL A   1      46.885  24.500  27.375  1.00  0.00     0.029 A 
ATOM     55  C   UNL A   1      46.637  25.884  27.768  1.00  0.00     0.049 A 
ATOM     56  H   UNL A   1      44.800  26.775  28.179  1.00  0.00     0.167 HD
ATOM     57  C   UNL A   1      40.879  28.570  28.863  1.00  0.00     0.037 A 
ATOM     58  C   UNL A   1      47.584  26.827  27.931  1.00  0.00     0.037 A 
ATOM     59  C   UNL A   1      41.827  29.616  29.155  1.00  0.00     0.049 A 
ATOM     60  C   UNL A   1      47.176  28.216  28.340  1.00  0.00     0.074 A 
ATOM     61  C   UNL A   1      41.579  30.898  29.616  1.00  0.00     0.029 A 
ATOM     62  N   UNL A   1      43.201  29.501  29.008  1.00  0.00    -0.354 N 
ATOM     63  N   UNL A   1      45.979  28.689  28.585  1.00  0.00    -0.248 NA
ATOM     64  C   UNL A   1      48.256  29.203  28.498  1.00  0.00     0.031 C 
ATOM     65  C   UNL A   1      42.800  31.577  29.694  1.00  0.00     0.029 A 
ATOM     66  C   UNL A   1      43.812  30.700  29.340  1.00  0.00     0.049 A 
ATOM     67  H   UNL A   1      43.672  28.690  28.712  1.00  0.00     0.167 HD
ATOM     68  C   UNL A   1      46.162  30.015  28.960  1.00  0.00     0.074 A 
ATOM     69  C   UNL A   1      47.588  30.267  28.920  1.00  0.00     0.031 C 
ATOM     70  C   UNL A   1      45.233  30.938  29.305  1.00  0.00     0.037 A 
BRANCH  57  71
ATOM     71  C   UNL A   1      39.415  28.885  28.990  1.00  0.00     0.057 A 
ATOM     72  C   UNL A   1      38.720  28.705  30.193  1.00  0.00     0.134 A 
ATOM     73  C   UNL A   1      38.701  29.411  27.906  1.00  0.00     0.134 A 
ATOM     74  F   UNL A   1      39.341  28.195  31.268  1.00  0.00    -0.206 F 
ATOM     75  C   UNL A   1      37.362  29.011  30.306  1.00  0.00     0.040 A 
ATOM     76  C   UNL A   1      37.351  29.748  28.015  1.00  0.00     0.040 A 
ATOM     77  F   UNL A   1      39.306  29.617  26.726  1.00  0.00    -0.206 F 
ATOM     78  C   UNL A   1      36.675  29.542  29.216  1.00  0.00     0.006 A 
ENDBRANCH  57  71
BRANCH  58  79
ATOM     79  C   UNL A   1      49.016  26.490  27.727  1.00  0.00     0.057 A 
ATOM     80  C   UNL A   1      49.803  26.015  28.783  1.00  0.00     0.134 A 
ATOM     81  C   UNL A   1      49.639  26.650  26.483  1.00  0.00     0.134 A 
ATOM     82  F   UNL A   1      49.270  25.859  30.004  1.00  0.00    -0.206 F 
ATOM     83  C   UNL A   1      51.160  25.733  28.617  1.00  0.00     0.040 A 
ATOM     84  C   UNL A   1      50.988  26.345  26.295  1.00  0.00     0.040 A 
ATOM     85  F   UNL A   1      48.939  27.095  25.428  1.00  0.00    -0.206 F 
ATOM     86  C   UNL A   1      51.754  25.893  27.367  1.00  0.00     0.006 A 
ENDBRANCH  58  79
BRANCH  70  87
ATOM     87  C   UNL A   1      45.728  32.298  29.711  1.00  0.00     0.057 A 
ATOM     88  C   UNL A   1      46.132  32.580  31.023  1.00  0.00     0.134 A 
ATOM     89  C   UNL A   1      45.836  33.327  28.766  1.00  0.00     0.134 A 
ATOM     90  F   UNL A   1      46.041  31.644  31.979  1.00  0.00    -0.206 F 
ATOM     91  C   UNL A   1      46.601  33.845  31.384  1.00  0.00     0.040 A 
ATOM     92  C   UNL A   1      46.334  34.584  29.109  1.00  0.00     0.040 A 
ATOM     93  F   UNL A   1      45.476  33.121  27.490  1.00  0.00    -0.206 F 
ATOM     94  C   UNL A   1      46.710  34.849  30.424  1.00  0.00     0.006 A 
ENDBRANCH  70  87
ENDBRANCH  44  45
ENDBRANCH  36  39
ENDBRANCH  34  35
ENDBRANCH  33  34
ENDBRANCH  32  33
ENDBRANCH  31  32
ENDBRANCH   3  31
TORSDOF 17
ENDMDL
MODEL 2
REMARK VINA RESULT:     -11.9      4.683     10.300
REMARK SMILES O=C(COc1ccc(/C=N/NC(=O)c2cc3cc([N+](=O)[O-])ccc3o2)cc1)NCCCCNC(=O)c1ccc(-c2c3nc(c(-c4c(F)cccc4F)c4ccc([nH]4)c(-c4c(F)cccc4F)c4nc(c(-c5c(F)cccc5F)c5ccc2[nH]5)C=C4)C=C3)cc1
REMARK SMILES IDX 1 1 2 2 28 3 3 5 4 6 5 7 6 8 27 9 7 10 26 11 8 12 9 13 10 14
REMARK SMILES IDX 11 15 12 16 13 18 14 19 15 20 25 21 16 22 24 23 17 24 23 25
REMARK SMILES IDX 18 26 22 27 19 28 20 29 21 30 29 31 30 32 31 33 32 34 33 35
REMARK SMILES IDX 34 36 35 38 36 39 37 40 89 41 38 42 88 43 39 44 40 45 41 46
REMARK SMILES IDX 82 47 42 48 87 49 81 50 83 51 43 52 86 53 80 54 79 55 44 57
REMARK SMILES IDX 70 58 53 59 69 60 54 61 57 62 68 63 84 64 55 65 56 66 67 68
REMARK SMILES IDX 85 69 58 70 45 71 46 72 51 73 47 74 48 75 50 76 52 77 49 78
REMARK SMILES IDX 71 79 72 80 77 81 73 82 74 83 76 84 78 85 75 86 59 87 60 88
REMARK SMILES IDX 65 89 61 90 62 91 64 92 66 93 63 94
REMARK H PARENT 28 4 11 17 33 37 83 56 57 67
REMARK Flexibility Score: inf
ROOT
ATOM      1  O   UNL A   1      41.113  21.073  27.974  1.00  0.00    -0.271 OA
ATOM      2  C   UNL A   1      40.817  21.399  26.829  1.00  0.00     0.257 C 
ATOM      3  N   UNL A   1      41.628  21.160  25.736  1.00  0.00    -0.353 N 
ATOM      4  H   UNL A   1      41.254  21.263  24.831  1.00  0.00     0.163 HD
ENDROOT
BRANCH   2   5
ATOM      5  C   UNL A   1      39.530  22.166  26.503  1.00  0.00     0.329 C 
BRANCH   5   6
ATOM      6  O   UNL A   1      38.754  21.678  25.410  1.00  0.00    -0.484 OA
BRANCH   6   7
ATOM      7  C   UNL A   1      37.702  22.464  25.021  1.00  0.00     0.120 A 
ATOM      8  C   UNL A   1      37.306  23.458  25.918  1.00  0.00     0.047 A 
ATOM      9  C   UNL A   1      36.939  22.237  23.873  1.00  0.00     0.047 A 
ATOM     10  C   UNL A   1      36.152  24.210  25.672  1.00  0.00     0.013 A 
ATOM     11  C   UNL A   1      35.769  22.961  23.638  1.00  0.00     0.013 A 
ATOM     12  C   UNL A   1      35.373  23.941  24.541  1.00  0.00    -0.005 A 
BRANCH  12  13
ATOM     13  C   UNL A   1      34.058  24.583  24.339  1.00  0.00     0.141 C 
ATOM     14  N   UNL A   1      33.812  25.734  24.858  1.00  0.00    -0.180 NA
BRANCH  14  15
ATOM     15  N   UNL A   1      32.562  26.256  24.864  1.00  0.00    -0.240 N 
ATOM     16  C   UNL A   1      31.420  26.028  25.599  1.00  0.00     0.307 C 
ATOM     17  H   UNL A   1      32.441  26.962  24.188  1.00  0.00     0.194 HD
ATOM     18  O   UNL A   1      30.654  26.987  25.736  1.00  0.00    -0.264 OA
BRANCH  16  19
ATOM     19  C   UNL A   1      31.027  24.721  26.086  1.00  0.00     0.194 A 
ATOM     20  C   UNL A   1      30.609  23.616  25.352  1.00  0.00     0.065 A 
ATOM     21  O   UNL A   1      31.733  24.276  27.180  1.00  0.00    -0.451 OA
ATOM     22  C   UNL A   1      31.464  22.548  25.763  1.00  0.00     0.028 A 
ATOM     23  C   UNL A   1      32.129  23.009  26.891  1.00  0.00     0.135 A 
ATOM     24  C   UNL A   1      31.851  21.317  25.202  1.00  0.00     0.097 A 
ATOM     25  C   UNL A   1      33.162  22.331  27.534  1.00  0.00     0.055 A 
ATOM     26  C   UNL A   1      32.981  20.678  25.754  1.00  0.00     0.270 A 
ATOM     27  C   UNL A   1      33.619  21.166  26.907  1.00  0.00     0.089 A 
BRANCH  26  28
ATOM     28  N   UNL A   1      33.570  19.535  25.039  1.00  0.00     0.062 N 
ATOM     29  O   UNL A   1      32.859  18.534  24.871  1.00  0.00    -0.258 OA
ATOM     30  O   UNL A   1      34.732  19.648  24.627  1.00  0.00    -0.258 OA
ENDBRANCH  26  28
ENDBRANCH  16  19
ENDBRANCH  14  15
ENDBRANCH  12  13
ENDBRANCH   6   7
ENDBRANCH   5   6
ENDBRANCH   2   5
BRANCH   3  31
ATOM     31  C   UNL A   1      43.011  20.761  25.884  1.00  0.00     0.116 C 
BRANCH  31  32
ATOM     32  C   UNL A   1      44.001  21.843  25.474  1.00  0.00     0.023 C 
BRANCH  32  33
ATOM     33  C   UNL A   1      44.621  22.615  26.638  1.00  0.00     0.023 C 
BRANCH  33  34
ATOM     34  C   UNL A   1      44.140  24.054  26.803  1.00  0.00     0.116 C 
BRANCH  34  35
ATOM     35  N   UNL A   1      43.152  24.445  25.809  1.00  0.00    -0.352 N 
ATOM     36  C   UNL A   1      42.113  25.339  25.913  1.00  0.00     0.251 C 
ATOM     37  H   UNL A   1      43.241  24.004  24.933  1.00  0.00     0.163 HD
ATOM     38  O   UNL A   1      41.295  25.435  25.001  1.00  0.00    -0.269 OA
BRANCH  36  39
ATOM     39  C   UNL A   1      41.954  26.163  27.132  1.00  0.00     0.039 A 
ATOM     40  C   UNL A   1      42.720  27.325  27.265  1.00  0.00     0.014 A 
ATOM     41  C   UNL A   1      41.057  25.801  28.140  1.00  0.00     0.014 A 
ATOM     42  C   UNL A   1      42.530  28.159  28.369  1.00  0.00     0.010 A 
ATOM     43  C   UNL A   1      40.813  26.672  29.199  1.00  0.00     0.010 A 
ATOM     44  C   UNL A   1      41.545  27.863  29.324  1.00  0.00    -0.014 A 
BRANCH  44  45
ATOM     45  C   UNL A   1      41.256  28.791  30.450  1.00  0.00     0.031 A 
ATOM     46  C   UNL A   1      42.051  28.717  31.724  1.00  0.00     0.074 A 
ATOM     47  C   UNL A   1      40.231  29.662  30.350  1.00  0.00     0.049 A 
ATOM     48  N   UNL A   1      41.903  29.396  32.833  1.00  0.00    -0.248 NA
ATOM     49  C   UNL A   1      43.142  27.730  31.767  1.00  0.00     0.031 C 
ATOM     50  C   UNL A   1      39.354  29.807  29.187  1.00  0.00     0.029 A 
ATOM     51  N   UNL A   1      39.747  30.584  31.246  1.00  0.00    -0.354 N 
ATOM     52  C   UNL A   1      42.868  28.911  33.707  1.00  0.00     0.074 A 
ATOM     53  C   UNL A   1      43.562  27.844  33.019  1.00  0.00     0.031 C 
ATOM     54  C   UNL A   1      38.458  30.778  29.429  1.00  0.00     0.029 A 
ATOM     55  C   UNL A   1      38.667  31.293  30.779  1.00  0.00     0.049 A 
ATOM     56  H   UNL A   1      40.136  30.722  32.139  1.00  0.00     0.167 HD
ATOM     57  C   UNL A   1      43.164  29.330  34.961  1.00  0.00     0.037 A 
ATOM     58  C   UNL A   1      37.922  32.245  31.372  1.00  0.00     0.037 A 
ATOM     59  C   UNL A   1      42.487  30.406  35.638  1.00  0.00     0.049 A 
ATOM     60  C   UNL A   1      38.258  32.676  32.774  1.00  0.00     0.074 A 
ATOM     61  C   UNL A   1      42.757  30.945  36.885  1.00  0.00     0.029 A 
ATOM     62  N   UNL A   1      41.400  31.101  35.129  1.00  0.00    -0.354 N 
ATOM     63  N   UNL A   1      39.219  32.258  33.560  1.00  0.00    -0.248 NA
ATOM     64  C   UNL A   1      37.405  33.717  33.368  1.00  0.00     0.031 C 
ATOM     65  C   UNL A   1      41.799  31.928  37.153  1.00  0.00     0.029 A 
ATOM     66  C   UNL A   1      40.970  32.044  36.050  1.00  0.00     0.049 A 
ATOM     67  H   UNL A   1      40.995  30.949  34.245  1.00  0.00     0.167 HD
ATOM     68  C   UNL A   1      39.110  33.006  34.726  1.00  0.00     0.074 A 
ATOM     69  C   UNL A   1      37.995  33.912  34.539  1.00  0.00     0.031 C 
ATOM     70  C   UNL A   1      39.865  32.947  35.850  1.00  0.00     0.037 A 
BRANCH  57  71
ATOM     71  C   UNL A   1      44.269  28.618  35.689  1.00  0.00     0.057 A 
ATOM     72  C   UNL A   1      44.020  27.518  36.521  1.00  0.00     0.134 A 
ATOM     73  C   UNL A   1      45.603  29.013  35.526  1.00  0.00     0.134 A 
ATOM     74  F   UNL A   1      42.764  27.093  36.730  1.00  0.00    -0.206 F 
ATOM     75  C   UNL A   1      45.054  26.854  37.185  1.00  0.00     0.040 A 
ATOM     76  C   UNL A   1      46.648  28.340  36.161  1.00  0.00     0.040 A 
ATOM     77  F   UNL A   1      45.914  30.053  34.738  1.00  0.00    -0.206 F 
ATOM     78  C   UNL A   1      46.374  27.261  36.999  1.00  0.00     0.006 A 
ENDBRANCH  57  71
BRANCH  58  79
ATOM     79  C   UNL A   1      36.793  32.874  30.639  1.00  0.00     0.057 A 
ATOM     80  C   UNL A   1      37.020  33.867  29.679  1.00  0.00     0.134 A 
ATOM     81  C   UNL A   1      35.463  32.514  30.891  1.00  0.00     0.134 A 
ATOM     82  F   UNL A   1      38.270  34.269  29.408  1.00  0.00    -0.206 F 
ATOM     83  C   UNL A   1      35.967  34.495  29.012  1.00  0.00     0.040 A 
ATOM     84  C   UNL A   1      34.401  33.114  30.212  1.00  0.00     0.040 A 
ATOM     85  F   UNL A   1      35.177  31.565  31.795  1.00  0.00    -0.206 F 
ATOM     86  C   UNL A   1      34.653  34.115  29.274  1.00  0.00     0.006 A 
ENDBRANCH  58  79
BRANCH  70  87
ATOM     87  C   UNL A   1      39.542  33.917  36.951  1.00  0.00     0.057 A 
ATOM     88  C   UNL A   1      38.755  33.556  38.052  1.00  0.00     0.134 A 
ATOM     89  C   UNL A   1      40.056  35.220  36.924  1.00  0.00     0.134 A 
ATOM     90  F   UNL A   1      38.220  32.329  38.134  1.00  0.00    -0.206 F 
ATOM     91  C   UNL A   1      38.472  34.465  39.075  1.00  0.00     0.040 A 
ATOM     92  C   UNL A   1      39.807  36.127  37.955  1.00  0.00     0.040 A 
ATOM     93  F   UNL A   1      40.825  35.629  35.902  1.00  0.00    -0.206 F 
ATOM     94  C   UNL A   1      39.005  35.752  39.031  1.00  0.00     0.006 A 
ENDBRANCH  70  87
ENDBRANCH  44  45
ENDBRANCH  36  39
ENDBRANCH  34  35
ENDBRANCH  33  34
ENDBRANCH  32  33
ENDBRANCH  31  32
ENDBRANCH   3  31
TORSDOF 17
ENDMDL
MODEL 3
REMARK VINA RESULT:     -11.9      2.935      7.919
REMARK SMILES O=C(COc1ccc(/C=N/NC(=O)c2cc3cc([N+](=O)[O-])ccc3o2)cc1)NCCCCNC(=O)c1ccc(-c2c3nc(c(-c4c(F)cccc4F)c4ccc([nH]4)c(-c4c(F)cccc4F)c4nc(c(-c5c(F)cccc5F)c5ccc2[nH]5)C=C4)C=C3)cc1
REMARK SMILES IDX 1 1 2 2 28 3 3 5 4 6 5 7 6 8 27 9 7 10 26 11 8 12 9 13 10 14
REMARK SMILES IDX 11 15 12 16 13 18 14 19 15 20 25 21 16 22 24 23 17 24 23 25
REMARK SMILES IDX 18 26 22 27 19 28 20 29 21 30 29 31 30 32 31 33 32 34 33 35
REMARK SMILES IDX 34 36 35 38 36 39 37 40 89 41 38 42 88 43 39 44 40 45 41 46
REMARK SMILES IDX 82 47 42 48 87 49 81 50 83 51 43 52 86 53 80 54 79 55 44 57
REMARK SMILES IDX 70 58 53 59 69 60 54 61 57 62 68 63 84 64 55 65 56 66 67 68
REMARK SMILES IDX 85 69 58 70 45 71 46 72 51 73 47 74 48 75 50 76 52 77 49 78
REMARK SMILES IDX 71 79 72 80 77 81 73 82 74 83 76 84 78 85 75 86 59 87 60 88
REMARK SMILES IDX 65 89 61 90 62 91 64 92 66 93 63 94
REMARK H PARENT 28 4 11 17 33 37 83 56 57 67
REMARK Flexibility Score: inf
ROOT
ATOM      1  O   UNL A   1      33.538  18.828  24.062  1.00  0.00    -0.271 OA
ATOM      2  C   UNL A   1      33.678  19.667  24.946  1.00  0.00     0.257 C 
ATOM      3  N   UNL A   1      34.903  20.187  25.316  1.00  0.00    -0.353 N 
ATOM      4  H   UNL A   1      34.931  20.991  25.884  1.00  0.00     0.163 HD
ENDROOT
BRANCH   2   5
ATOM      5  C   UNL A   1      32.498  20.183  25.779  1.00  0.00     0.329 C 
BRANCH   5   6
ATOM      6  O   UNL A   1      31.552  21.010  25.103  1.00  0.00    -0.484 OA
BRANCH   6   7
ATOM      7  C   UNL A   1      31.665  22.357  25.324  1.00  0.00     0.120 A 
ATOM      8  C   UNL A   1      32.781  22.985  24.767  1.00  0.00     0.047 A 
ATOM      9  C   UNL A   1      30.824  23.084  26.170  1.00  0.00     0.047 A 
ATOM     10  C   UNL A   1      33.056  24.325  25.063  1.00  0.00     0.013 A 
ATOM     11  C   UNL A   1      31.110  24.410  26.495  1.00  0.00     0.013 A 
ATOM     12  C   UNL A   1      32.230  25.027  25.947  1.00  0.00    -0.005 A 
BRANCH  12  13
ATOM     13  C   UNL A   1      32.584  26.379  26.426  1.00  0.00     0.141 C 
ATOM     14  N   UNL A   1      31.710  27.100  27.037  1.00  0.00    -0.180 NA
BRANCH  14  15
ATOM     15  N   UNL A   1      31.934  28.408  27.307  1.00  0.00    -0.240 N 
ATOM     16  C   UNL A   1      31.816  29.579  26.593  1.00  0.00     0.307 C 
ATOM     17  H   UNL A   1      32.257  28.556  28.226  1.00  0.00     0.194 HD
ATOM     18  O   UNL A   1      31.579  30.599  27.247  1.00  0.00    -0.264 OA
BRANCH  16  19
ATOM     19  C   UNL A   1      32.083  29.683  25.172  1.00  0.00     0.194 A 
ATOM     20  C   UNL A   1      33.246  29.353  24.486  1.00  0.00     0.065 A 
ATOM     21  O   UNL A   1      31.004  29.410  24.361  1.00  0.00    -0.451 OA
ATOM     22  C   UNL A   1      32.830  28.455  23.456  1.00  0.00     0.028 A 
ATOM     23  C   UNL A   1      31.444  28.532  23.422  1.00  0.00     0.135 A 
ATOM     24  C   UNL A   1      33.475  27.481  22.671  1.00  0.00     0.097 A 
ATOM     25  C   UNL A   1      30.623  27.714  22.650  1.00  0.00     0.055 A 
ATOM     26  C   UNL A   1      32.661  26.555  21.986  1.00  0.00     0.270 A 
ATOM     27  C   UNL A   1      31.261  26.675  21.963  1.00  0.00     0.089 A 
BRANCH  26  28
ATOM     28  N   UNL A   1      33.289  25.374  21.374  1.00  0.00     0.062 N 
ATOM     29  O   UNL A   1      34.045  24.693  22.081  1.00  0.00    -0.258 OA
ATOM     30  O   UNL A   1      33.008  25.116  20.195  1.00  0.00    -0.258 OA
ENDBRANCH  26  28
ENDBRANCH  16  19
ENDBRANCH  14  15
ENDBRANCH  12  13
ENDBRANCH   6   7
ENDBRANCH   5   6
ENDBRANCH   2   5
BRANCH   3  31
ATOM     31  C   UNL A   1      36.148  19.584  24.888  1.00  0.00     0.116 C 
BRANCH  31  32
ATOM     32  C   UNL A   1      37.325  20.550  24.903  1.00  0.00     0.023 C 
BRANCH  32  33
ATOM     33  C   UNL A   1      38.697  19.886  24.777  1.00  0.00     0.023 C 
BRANCH  33  34
ATOM     34  C   UNL A   1      39.515  19.816  26.062  1.00  0.00     0.116 C 
BRANCH  34  35
ATOM     35  N   UNL A   1      40.628  18.883  25.983  1.00  0.00    -0.352 N 
ATOM     36  C   UNL A   1      41.978  19.120  26.093  1.00  0.00     0.251 C 
ATOM     37  H   UNL A   1      40.378  17.944  25.827  1.00  0.00     0.163 HD
ATOM     38  O   UNL A   1      42.779  18.217  25.859  1.00  0.00    -0.269 OA
BRANCH  36  39
ATOM     39  C   UNL A   1      42.475  20.465  26.460  1.00  0.00     0.039 A 
ATOM     40  C   UNL A   1      42.986  21.292  25.455  1.00  0.00     0.014 A 
ATOM     41  C   UNL A   1      42.438  20.915  27.782  1.00  0.00     0.014 A 
ATOM     42  C   UNL A   1      43.388  22.593  25.765  1.00  0.00     0.010 A 
ATOM     43  C   UNL A   1      42.766  22.237  28.074  1.00  0.00     0.010 A 
ATOM     44  C   UNL A   1      43.241  23.093  27.069  1.00  0.00    -0.014 A 
BRANCH  44  45
ATOM     45  C   UNL A   1      43.565  24.507  27.395  1.00  0.00     0.031 A 
ATOM     46  C   UNL A   1      44.992  24.984  27.391  1.00  0.00     0.074 A 
ATOM     47  C   UNL A   1      42.578  25.350  27.761  1.00  0.00     0.049 A 
ATOM     48  N   UNL A   1      45.473  26.159  27.710  1.00  0.00    -0.248 NA
ATOM     49  C   UNL A   1      46.017  24.003  26.999  1.00  0.00     0.031 C 
ATOM     50  C   UNL A   1      41.158  25.004  27.849  1.00  0.00     0.029 A 
ATOM     51  N   UNL A   1      42.621  26.670  28.138  1.00  0.00    -0.354 N 
ATOM     52  C   UNL A   1      46.851  26.054  27.573  1.00  0.00     0.074 A 
ATOM     53  C   UNL A   1      47.135  24.687  27.193  1.00  0.00     0.031 C 
ATOM     54  C   UNL A   1      40.463  26.089  28.226  1.00  0.00     0.029 A 
ATOM     55  C   UNL A   1      41.390  27.194  28.450  1.00  0.00     0.049 A 
ATOM     56  H   UNL A   1      43.455  27.191  28.181  1.00  0.00     0.167 HD
ATOM     57  C   UNL A   1      47.794  27.015  27.729  1.00  0.00     0.037 A 
ATOM     58  C   UNL A   1      41.045  28.424  28.878  1.00  0.00     0.037 A 
ATOM     59  C   UNL A   1      47.510  28.380  28.088  1.00  0.00     0.049 A 
ATOM     60  C   UNL A   1      42.114  29.465  29.065  1.00  0.00     0.074 A 
ATOM     61  C   UNL A   1      48.392  29.441  28.208  1.00  0.00     0.029 A 
ATOM     62  N   UNL A   1      46.249  28.872  28.393  1.00  0.00    -0.354 N 
ATOM     63  N   UNL A   1      43.405  29.371  28.862  1.00  0.00    -0.248 NA
ATOM     64  C   UNL A   1      41.675  30.787  29.538  1.00  0.00     0.031 C 
ATOM     65  C   UNL A   1      47.673  30.561  28.639  1.00  0.00     0.029 A 
ATOM     66  C   UNL A   1      46.335  30.214  28.729  1.00  0.00     0.049 A 
ATOM     67  H   UNL A   1      45.417  28.347  28.372  1.00  0.00     0.167 HD
ATOM     68  C   UNL A   1      43.928  30.627  29.147  1.00  0.00     0.074 A 
ATOM     69  C   UNL A   1      42.812  31.468  29.527  1.00  0.00     0.031 C 
ATOM     70  C   UNL A   1      45.216  31.044  29.098  1.00  0.00     0.037 A 
BRANCH  57  71
ATOM     71  C   UNL A   1      49.229  26.622  27.517  1.00  0.00     0.057 A 
ATOM     72  C   UNL A   1      50.019  26.111  28.556  1.00  0.00     0.134 A 
ATOM     73  C   UNL A   1      49.816  26.717  26.249  1.00  0.00     0.134 A 
ATOM     74  F   UNL A   1      49.523  26.002  29.798  1.00  0.00    -0.206 F 
ATOM     75  C   UNL A   1      51.348  25.737  28.348  1.00  0.00     0.040 A 
ATOM     76  C   UNL A   1      51.135  26.319  26.022  1.00  0.00     0.040 A 
ATOM     77  F   UNL A   1      49.115  27.189  25.207  1.00  0.00    -0.206 F 
ATOM     78  C   UNL A   1      51.907  25.834  27.075  1.00  0.00     0.006 A 
ENDBRANCH  57  71
BRANCH  58  79
ATOM     79  C   UNL A   1      39.620  28.749  29.144  1.00  0.00     0.057 A 
ATOM     80  C   UNL A   1      39.062  28.562  30.414  1.00  0.00     0.134 A 
ATOM     81  C   UNL A   1      38.778  29.237  28.136  1.00  0.00     0.134 A 
ATOM     82  F   UNL A   1      39.812  28.079  31.415  1.00  0.00    -0.206 F 
ATOM     83  C   UNL A   1      37.715  28.825  30.668  1.00  0.00     0.040 A 
ATOM     84  C   UNL A   1      37.436  29.531  28.383  1.00  0.00     0.040 A 
ATOM     85  F   UNL A   1      39.252  29.445  26.899  1.00  0.00    -0.206 F 
ATOM     86  C   UNL A   1      36.899  29.316  29.652  1.00  0.00     0.006 A 
ENDBRANCH  58  79
BRANCH  70  87
ATOM     87  C   UNL A   1      45.488  32.486  29.422  1.00  0.00     0.057 A 
ATOM     88  C   UNL A   1      45.445  33.488  28.443  1.00  0.00     0.134 A 
ATOM     89  C   UNL A   1      45.759  32.881  30.739  1.00  0.00     0.134 A 
ATOM     90  F   UNL A   1      45.205  33.177  27.161  1.00  0.00    -0.206 F 
ATOM     91  C   UNL A   1      45.688  34.827  28.760  1.00  0.00     0.040 A 
ATOM     92  C   UNL A   1      45.972  34.219  31.072  1.00  0.00     0.040 A 
ATOM     93  F   UNL A   1      45.805  31.974  31.726  1.00  0.00    -0.206 F 
ATOM     94  C   UNL A   1      45.945  35.195  30.079  1.00  0.00     0.006 A 
ENDBRANCH  70  87
ENDBRANCH  44  45
ENDBRANCH  36  39
ENDBRANCH  34  35
ENDBRANCH  33  34
ENDBRANCH  32  33
ENDBRANCH  31  32
ENDBRANCH   3  31
TORSDOF 17
ENDMDL
