MODEL 1
REMARK VINA RESULT:     -12.0      0.000      0.000
REMARK SMILES CC(C)(C)c1cc(-n2cnc(C(=O)NCCCCNC(=O)c3ccc(-c4c5nc(c(-c6c(F)cccc6F)c6ccc([nH]6)c(-c6c(F)cccc6F)c6nc(c(-c7c(F)cccc7F)c7ccc4[nH]7)C=C6)C=C5)cc3)c2)nc(Cl)n1
REMARK SMILES IDX 16 1 15 2 14 3 12 4 13 5 11 7 8 8 9 9 76 10 10 11 7 12 5 13
REMARK SMILES IDX 6 14 80 15 78 16 77 17 79 18 2 19 1 20 3 21 4 22 17 23 18 24
REMARK SMILES IDX 19 25 20 26 21 28 22 29 23 30 75 31 24 32 74 33 25 34 26 35
REMARK SMILES IDX 27 36 68 37 28 38 73 39 67 40 69 41 29 42 72 43 66 44 65 45
REMARK SMILES IDX 30 47 56 48 39 49 55 50 40 51 43 52 54 53 70 54 41 55 42 56
REMARK SMILES IDX 53 58 71 59 44 60 31 61 32 62 37 63 33 64 34 65 36 66 38 67
REMARK SMILES IDX 35 68 57 69 58 70 63 71 59 72 60 73 62 74 64 75 61 76 45 77
REMARK SMILES IDX 46 78 51 79 47 80 48 81 50 82 52 83 49 84
REMARK H PARENT 14 6 19 27 69 46 43 57
REMARK Flexibility Score: inf
ROOT
ATOM      1  C   UNL A   1      40.345  21.711  26.773  1.00  0.00     0.023 C 
ENDROOT
BRANCH   1   2
ATOM      2  C   UNL A   1      39.040  22.069  26.050  1.00  0.00     0.116 C 
BRANCH   2   3
ATOM      3  N   UNL A   1      38.314  20.895  25.603  1.00  0.00    -0.351 N 
ATOM      4  C   UNL A   1      37.055  20.702  25.074  1.00  0.00     0.271 C 
ATOM      5  O   UNL A   1      36.778  19.542  24.763  1.00  0.00    -0.267 OA
ATOM      6  H   UNL A   1      38.828  20.060  25.699  1.00  0.00     0.163 HD
BRANCH   4   7
ATOM      7  C   UNL A   1      36.106  21.809  24.861  1.00  0.00     0.146 A 
ATOM      8  N   UNL A   1      34.435  23.251  24.979  1.00  0.00    -0.290 N 
ATOM      9  C   UNL A   1      35.337  23.683  24.052  1.00  0.00     0.206 A 
ATOM     10  C   UNL A   1      34.853  22.009  25.393  1.00  0.00     0.128 A 
ATOM     11  N   UNL A   1      36.380  22.876  24.005  1.00  0.00    -0.231 NA
BRANCH   8  12
ATOM     12  C   UNL A   1      33.310  23.926  25.491  1.00  0.00     0.143 A 
ATOM     13  C   UNL A   1      32.368  25.963  26.236  1.00  0.00     0.053 A 
ATOM     14  C   UNL A   1      33.440  25.296  25.680  1.00  0.00     0.072 A 
ATOM     15  N   UNL A   1      31.284  25.274  26.652  1.00  0.00    -0.222 NA
ATOM     16  C   UNL A   1      31.272  23.949  26.421  1.00  0.00     0.224 A 
ATOM     17  N   UNL A   1      32.213  23.224  25.807  1.00  0.00    -0.200 NA
ATOM     18  Cl  UNL A   1      29.947  23.086  27.062  1.00  0.00    -0.041 Cl
BRANCH  13  19
ATOM     19  C   UNL A   1      32.310  27.493  26.327  1.00  0.00     0.004 C 
ATOM     20  C   UNL A   1      31.734  28.031  27.656  1.00  0.00     0.017 C 
ATOM     21  C   UNL A   1      31.442  28.054  25.186  1.00  0.00     0.017 C 
ATOM     22  C   UNL A   1      33.750  28.021  26.187  1.00  0.00     0.017 C 
ENDBRANCH  13  19
ENDBRANCH   8  12
ENDBRANCH   4   7
ENDBRANCH   2   3
ENDBRANCH   1   2
BRANCH   1  23
ATOM     23  C   UNL A   1      40.934  20.342  26.391  1.00  0.00     0.023 C 
BRANCH  23  24
ATOM     24  C   UNL A   1      42.318  20.054  26.969  1.00  0.00     0.116 C 
BRANCH  24  25
ATOM     25  N   UNL A   1      43.350  19.877  25.944  1.00  0.00    -0.352 N 
ATOM     26  C   UNL A   1      43.924  20.847  25.137  1.00  0.00     0.251 C 
ATOM     27  H   UNL A   1      43.675  18.957  25.812  1.00  0.00     0.163 HD
ATOM     28  O   UNL A   1      44.468  20.565  24.085  1.00  0.00    -0.269 OA
BRANCH  26  29
ATOM     29  C   UNL A   1      43.894  22.243  25.611  1.00  0.00     0.039 A 
ATOM     30  C   UNL A   1      43.072  23.214  25.027  1.00  0.00     0.014 A 
ATOM     31  C   UNL A   1      44.695  22.542  26.704  1.00  0.00     0.014 A 
ATOM     32  C   UNL A   1      43.004  24.477  25.615  1.00  0.00     0.010 A 
ATOM     33  C   UNL A   1      44.497  23.714  27.375  1.00  0.00     0.010 A 
ATOM     34  C   UNL A   1      43.714  24.712  26.799  1.00  0.00    -0.014 A 
BRANCH  34  35
ATOM     35  C   UNL A   1      43.590  25.958  27.551  1.00  0.00     0.031 A 
ATOM     36  C   UNL A   1      44.588  27.009  27.191  1.00  0.00     0.074 A 
ATOM     37  C   UNL A   1      42.454  26.208  28.245  1.00  0.00     0.049 A 
ATOM     38  N   UNL A   1      45.410  27.637  27.967  1.00  0.00    -0.248 NA
ATOM     39  C   UNL A   1      44.777  27.326  25.761  1.00  0.00     0.031 C 
ATOM     40  C   UNL A   1      41.270  25.342  28.375  1.00  0.00     0.029 A 
ATOM     41  N   UNL A   1      42.040  27.351  28.854  1.00  0.00    -0.354 N 
ATOM     42  C   UNL A   1      46.067  28.571  27.163  1.00  0.00     0.074 A 
ATOM     43  C   UNL A   1      45.779  28.205  25.803  1.00  0.00     0.031 C 
ATOM     44  C   UNL A   1      40.209  26.074  28.777  1.00  0.00     0.029 A 
ATOM     45  C   UNL A   1      40.671  27.407  29.106  1.00  0.00     0.049 A 
ATOM     46  H   UNL A   1      42.657  28.079  29.097  1.00  0.00     0.167 HD
ATOM     47  C   UNL A   1      46.581  29.720  27.683  1.00  0.00     0.037 A 
ATOM     48  C   UNL A   1      39.964  28.492  29.514  1.00  0.00     0.037 A 
ATOM     49  C   UNL A   1      46.706  29.625  29.114  1.00  0.00     0.049 A 
ATOM     50  C   UNL A   1      40.943  29.472  30.043  1.00  0.00     0.074 A 
ATOM     51  C   UNL A   1      47.411  28.813  29.979  1.00  0.00     0.029 A 
ATOM     52  N   UNL A   1      45.730  30.225  29.871  1.00  0.00    -0.354 N 
ATOM     53  N   UNL A   1      41.654  29.274  31.120  1.00  0.00    -0.248 NA
ATOM     54  C   UNL A   1      41.482  30.446  29.108  1.00  0.00     0.031 C 
ATOM     55  C   UNL A   1      46.527  28.593  31.075  1.00  0.00     0.029 A 
ATOM     56  C   UNL A   1      45.370  29.343  30.854  1.00  0.00     0.049 A 
ATOM     57  H   UNL A   1      45.359  31.127  29.734  1.00  0.00     0.167 HD
ATOM     58  C   UNL A   1      42.914  29.760  30.805  1.00  0.00     0.074 A 
ATOM     59  C   UNL A   1      42.729  30.535  29.579  1.00  0.00     0.031 C 
ATOM     60  C   UNL A   1      44.034  29.245  31.395  1.00  0.00     0.037 A 
BRANCH  47  61
ATOM     61  C   UNL A   1      46.599  31.058  26.976  1.00  0.00     0.057 A 
ATOM     62  C   UNL A   1      47.797  31.798  26.945  1.00  0.00     0.134 A 
ATOM     63  C   UNL A   1      45.447  31.780  26.605  1.00  0.00     0.134 A 
ATOM     64  F   UNL A   1      48.967  31.231  27.279  1.00  0.00    -0.206 F 
ATOM     65  C   UNL A   1      47.830  33.169  26.660  1.00  0.00     0.040 A 
ATOM     66  C   UNL A   1      45.476  33.137  26.268  1.00  0.00     0.040 A 
ATOM     67  F   UNL A   1      44.219  31.251  26.646  1.00  0.00    -0.206 F 
ATOM     68  C   UNL A   1      46.664  33.846  26.330  1.00  0.00     0.006 A 
ENDBRANCH  47  61
BRANCH  48  69
ATOM     69  C   UNL A   1      38.569  28.864  29.184  1.00  0.00     0.057 A 
ATOM     70  C   UNL A   1      37.583  28.951  30.176  1.00  0.00     0.134 A 
ATOM     71  C   UNL A   1      38.232  29.409  27.932  1.00  0.00     0.134 A 
ATOM     72  F   UNL A   1      37.825  28.500  31.415  1.00  0.00    -0.206 F 
ATOM     73  C   UNL A   1      36.340  29.559  29.943  1.00  0.00     0.040 A 
ATOM     74  C   UNL A   1      36.995  30.015  27.684  1.00  0.00     0.040 A 
ATOM     75  F   UNL A   1      39.125  29.448  26.932  1.00  0.00    -0.206 F 
ATOM     76  C   UNL A   1      36.047  30.103  28.696  1.00  0.00     0.006 A 
ENDBRANCH  48  69
BRANCH  60  77
ATOM     77  C   UNL A   1      43.857  28.309  32.560  1.00  0.00     0.057 A 
ATOM     78  C   UNL A   1      43.808  26.911  32.448  1.00  0.00     0.134 A 
ATOM     79  C   UNL A   1      43.931  28.837  33.852  1.00  0.00     0.134 A 
ATOM     80  F   UNL A   1      43.828  26.308  31.255  1.00  0.00    -0.206 F 
ATOM     81  C   UNL A   1      43.810  26.079  33.573  1.00  0.00     0.040 A 
ATOM     82  C   UNL A   1      43.966  28.017  34.983  1.00  0.00     0.040 A 
ATOM     83  F   UNL A   1      44.036  30.162  34.034  1.00  0.00    -0.206 F 
ATOM     84  C   UNL A   1      43.901  26.632  34.846  1.00  0.00     0.006 A 
ENDBRANCH  60  77
ENDBRANCH  34  35
ENDBRANCH  26  29
ENDBRANCH  24  25
ENDBRANCH  23  24
ENDBRANCH   1  23
TORSDOF 13
ENDMDL
MODEL 2
REMARK VINA RESULT:     -11.5      3.139      7.733
REMARK SMILES CC(C)(C)c1cc(-n2cnc(C(=O)NCCCCNC(=O)c3ccc(-c4c5nc(c(-c6c(F)cccc6F)c6ccc([nH]6)c(-c6c(F)cccc6F)c6nc(c(-c7c(F)cccc7F)c7ccc4[nH]7)C=C6)C=C5)cc3)c2)nc(Cl)n1
REMARK SMILES IDX 16 1 15 2 14 3 12 4 13 5 11 7 8 8 9 9 76 10 10 11 7 12 5 13
REMARK SMILES IDX 6 14 80 15 78 16 77 17 79 18 2 19 1 20 3 21 4 22 17 23 18 24
REMARK SMILES IDX 19 25 20 26 21 28 22 29 23 30 75 31 24 32 74 33 25 34 26 35
REMARK SMILES IDX 27 36 68 37 28 38 73 39 67 40 69 41 29 42 72 43 66 44 65 45
REMARK SMILES IDX 30 47 56 48 39 49 55 50 40 51 43 52 54 53 70 54 41 55 42 56
REMARK SMILES IDX 53 58 71 59 44 60 31 61 32 62 37 63 33 64 34 65 36 66 38 67
REMARK SMILES IDX 35 68 57 69 58 70 63 71 59 72 60 73 62 74 64 75 61 76 45 77
REMARK SMILES IDX 46 78 51 79 47 80 48 81 50 82 52 83 49 84
REMARK H PARENT 14 6 19 27 69 46 43 57
REMARK Flexibility Score: inf
ROOT
ATOM      1  C   UNL A   1      33.182  28.376  25.676  1.00  0.00     0.023 C 
ENDROOT
BRANCH   1   2
ATOM      2  C   UNL A   1      32.771  26.979  25.193  1.00  0.00     0.116 C 
BRANCH   2   3
ATOM      3  N   UNL A   1      31.388  26.671  25.504  1.00  0.00    -0.351 N 
ATOM      4  C   UNL A   1      30.745  25.532  25.946  1.00  0.00     0.271 C 
ATOM      5  O   UNL A   1      29.535  25.646  26.148  1.00  0.00    -0.267 OA
ATOM      6  H   UNL A   1      30.779  27.434  25.371  1.00  0.00     0.163 HD
BRANCH   4   7
ATOM      7  C   UNL A   1      31.456  24.266  26.192  1.00  0.00     0.146 A 
ATOM      8  N   UNL A   1      32.653  22.414  26.034  1.00  0.00    -0.290 N 
ATOM      9  C   UNL A   1      32.344  22.639  27.343  1.00  0.00     0.206 A 
ATOM     10  C   UNL A   1      31.985  23.364  25.298  1.00  0.00     0.128 A 
ATOM     11  N   UNL A   1      31.685  23.774  27.478  1.00  0.00    -0.231 NA
BRANCH   8  12
ATOM     12  C   UNL A   1      33.522  21.449  25.489  1.00  0.00     0.143 A 
ATOM     13  C   UNL A   1      33.816  19.235  24.713  1.00  0.00     0.053 A 
ATOM     14  C   UNL A   1      32.967  20.210  25.193  1.00  0.00     0.072 A 
ATOM     15  N   UNL A   1      35.143  19.474  24.630  1.00  0.00    -0.222 NA
ATOM     16  C   UNL A   1      35.566  20.710  24.949  1.00  0.00     0.224 A 
ATOM     17  N   UNL A   1      34.818  21.750  25.331  1.00  0.00    -0.200 NA
ATOM     18  Cl  UNL A   1      37.256  20.949  24.950  1.00  0.00    -0.041 Cl
BRANCH  13  19
ATOM     19  C   UNL A   1      33.306  17.893  24.175  1.00  0.00     0.004 C 
ATOM     20  C   UNL A   1      34.420  16.881  23.824  1.00  0.00     0.017 C 
ATOM     21  C   UNL A   1      32.468  18.120  22.903  1.00  0.00     0.017 C 
ATOM     22  C   UNL A   1      32.422  17.262  25.268  1.00  0.00     0.017 C 
ENDBRANCH  13  19
ENDBRANCH   8  12
ENDBRANCH   4   7
ENDBRANCH   2   3
ENDBRANCH   1   2
BRANCH   1  23
ATOM     23  C   UNL A   1      33.647  28.436  27.141  1.00  0.00     0.023 C 
BRANCH  23  24
ATOM     24  C   UNL A   1      35.085  28.911  27.341  1.00  0.00     0.116 C 
BRANCH  24  25
ATOM     25  N   UNL A   1      35.223  29.918  28.395  1.00  0.00    -0.352 N 
ATOM     26  C   UNL A   1      36.224  30.020  29.350  1.00  0.00     0.251 C 
ATOM     27  H   UNL A   1      34.520  30.607  28.431  1.00  0.00     0.163 HD
ATOM     28  O   UNL A   1      36.057  30.631  30.389  1.00  0.00    -0.269 OA
BRANCH  26  29
ATOM     29  C   UNL A   1      37.524  29.394  29.054  1.00  0.00     0.039 A 
ATOM     30  C   UNL A   1      38.270  29.721  27.915  1.00  0.00     0.014 A 
ATOM     31  C   UNL A   1      38.003  28.488  29.991  1.00  0.00     0.014 A 
ATOM     32  C   UNL A   1      39.549  29.182  27.773  1.00  0.00     0.010 A 
ATOM     33  C   UNL A   1      39.312  28.103  29.938  1.00  0.00     0.010 A 
ATOM     34  C   UNL A   1      40.065  28.382  28.800  1.00  0.00    -0.014 A 
BRANCH  34  35
ATOM     35  C   UNL A   1      41.441  27.893  28.794  1.00  0.00     0.031 A 
ATOM     36  C   UNL A   1      41.648  26.613  28.053  1.00  0.00     0.074 A 
ATOM     37  C   UNL A   1      42.448  28.729  29.144  1.00  0.00     0.049 A 
ATOM     38  N   UNL A   1      42.177  25.513  28.480  1.00  0.00    -0.248 NA
ATOM     39  C   UNL A   1      41.092  26.503  26.690  1.00  0.00     0.031 C 
ATOM     40  C   UNL A   1      42.342  30.133  29.574  1.00  0.00     0.029 A 
ATOM     41  N   UNL A   1      43.794  28.563  29.038  1.00  0.00    -0.354 N 
ATOM     42  C   UNL A   1      42.213  24.648  27.384  1.00  0.00     0.074 A 
ATOM     43  C   UNL A   1      41.369  25.235  26.380  1.00  0.00     0.031 C 
ATOM     44  C   UNL A   1      43.538  30.746  29.436  1.00  0.00     0.029 A 
ATOM     45  C   UNL A   1      44.526  29.748  29.085  1.00  0.00     0.049 A 
ATOM     46  H   UNL A   1      44.215  27.679  28.937  1.00  0.00     0.167 HD
ATOM     47  C   UNL A   1      43.136  23.650  27.295  1.00  0.00     0.037 A 
ATOM     48  C   UNL A   1      45.846  29.896  28.808  1.00  0.00     0.037 A 
ATOM     49  C   UNL A   1      43.732  23.387  28.579  1.00  0.00     0.049 A 
ATOM     50  C   UNL A   1      46.454  28.545  28.860  1.00  0.00     0.074 A 
ATOM     51  C   UNL A   1      43.260  22.961  29.803  1.00  0.00     0.029 A 
ATOM     52  N   UNL A   1      44.971  23.928  28.819  1.00  0.00    -0.354 N 
ATOM     53  N   UNL A   1      46.554  27.839  29.953  1.00  0.00    -0.248 NA
ATOM     54  C   UNL A   1      46.503  27.788  27.619  1.00  0.00     0.031 C 
ATOM     55  C   UNL A   1      44.008  23.706  30.761  1.00  0.00     0.029 A 
ATOM     56  C   UNL A   1      44.943  24.480  30.072  1.00  0.00     0.049 A 
ATOM     57  H   UNL A   1      45.740  23.920  28.204  1.00  0.00     0.167 HD
ATOM     58  C   UNL A   1      46.246  26.543  29.565  1.00  0.00     0.074 A 
ATOM     59  C   UNL A   1      46.295  26.561  28.104  1.00  0.00     0.031 C 
ATOM     60  C   UNL A   1      45.691  25.659  30.446  1.00  0.00     0.037 A 
BRANCH  47  61
ATOM     61  C   UNL A   1      43.790  23.188  26.011  1.00  0.00     0.057 A 
ATOM     62  C   UNL A   1      43.813  21.811  25.714  1.00  0.00     0.134 A 
ATOM     63  C   UNL A   1      44.652  23.979  25.225  1.00  0.00     0.134 A 
ATOM     64  F   UNL A   1      43.042  20.947  26.391  1.00  0.00    -0.206 F 
ATOM     65  C   UNL A   1      44.693  21.258  24.775  1.00  0.00     0.040 A 
ATOM     66  C   UNL A   1      45.497  23.442  24.249  1.00  0.00     0.040 A 
ATOM     67  F   UNL A   1      44.805  25.293  25.420  1.00  0.00    -0.206 F 
ATOM     68  C   UNL A   1      45.547  22.073  24.046  1.00  0.00     0.006 A 
ENDBRANCH  47  61
BRANCH  48  69
ATOM     69  C   UNL A   1      46.537  31.053  28.193  1.00  0.00     0.057 A 
ATOM     70  C   UNL A   1      46.087  31.618  26.992  1.00  0.00     0.134 A 
ATOM     71  C   UNL A   1      47.489  31.804  28.906  1.00  0.00     0.134 A 
ATOM     72  F   UNL A   1      45.147  30.999  26.261  1.00  0.00    -0.206 F 
ATOM     73  C   UNL A   1      46.543  32.863  26.534  1.00  0.00     0.040 A 
ATOM     74  C   UNL A   1      47.955  33.046  28.461  1.00  0.00     0.040 A 
ATOM     75  F   UNL A   1      47.933  31.396  30.105  1.00  0.00    -0.206 F 
ATOM     76  C   UNL A   1      47.473  33.587  27.275  1.00  0.00     0.006 A 
ENDBRANCH  48  69
BRANCH  60  77
ATOM     77  C   UNL A   1      45.639  26.043  31.901  1.00  0.00     0.057 A 
ATOM     78  C   UNL A   1      44.510  26.589  32.533  1.00  0.00     0.134 A 
ATOM     79  C   UNL A   1      46.703  25.667  32.725  1.00  0.00     0.134 A 
ATOM     80  F   UNL A   1      43.407  26.895  31.842  1.00  0.00    -0.206 F 
ATOM     81  C   UNL A   1      44.455  26.774  33.918  1.00  0.00     0.040 A 
ATOM     82  C   UNL A   1      46.649  25.815  34.113  1.00  0.00     0.040 A 
ATOM     83  F   UNL A   1      47.792  25.087  32.197  1.00  0.00    -0.206 F 
ATOM     84  C   UNL A   1      45.524  26.375  34.714  1.00  0.00     0.006 A 
ENDBRANCH  60  77
ENDBRANCH  34  35
ENDBRANCH  26  29
ENDBRANCH  24  25
ENDBRANCH  23  24
ENDBRANCH   1  23
TORSDOF 13
ENDMDL
MODEL 3
REMARK VINA RESULT:     -11.4      5.044      9.825
REMARK SMILES CC(C)(C)c1cc(-n2cnc(C(=O)NCCCCNC(=O)c3ccc(-c4c5nc(c(-c6c(F)cccc6F)c6ccc([nH]6)c(-c6c(F)cccc6F)c6nc(c(-c7c(F)cccc7F)c7ccc4[nH]7)C=C6)C=C5)cc3)c2)nc(Cl)n1
REMARK SMILES IDX 16 1 15 2 14 3 12 4 13 5 11 7 8 8 9 9 76 10 10 11 7 12 5 13
REMARK SMILES IDX 6 14 80 15 78 16 77 17 79 18 2 19 1 20 3 21 4 22 17 23 18 24
REMARK SMILES IDX 19 25 20 26 21 28 22 29 23 30 75 31 24 32 74 33 25 34 26 35
REMARK SMILES IDX 27 36 68 37 28 38 73 39 67 40 69 41 29 42 72 43 66 44 65 45
REMARK SMILES IDX 30 47 56 48 39 49 55 50 40 51 43 52 54 53 70 54 41 55 42 56
REMARK SMILES IDX 53 58 71 59 44 60 31 61 32 62 37 63 33 64 34 65 36 66 38 67
REMARK SMILES IDX 35 68 57 69 58 70 63 71 59 72 60 73 62 74 64 75 61 76 45 77
REMARK SMILES IDX 46 78 51 79 47 80 48 81 50 82 52 83 49 84
REMARK H PARENT 14 6 19 27 69 46 43 57
REMARK Flexibility Score: inf
ROOT
ATOM      1  C   UNL A   1      34.071  34.047  28.440  1.00  0.00     0.023 C 
ENDROOT
BRANCH   1   2
ATOM      2  C   UNL A   1      33.636  32.643  28.001  1.00  0.00     0.116 C 
BRANCH   2   3
ATOM      3  N   UNL A   1      34.739  31.701  27.981  1.00  0.00    -0.351 N 
ATOM      4  C   UNL A   1      34.876  30.409  27.516  1.00  0.00     0.271 C 
ATOM      5  O   UNL A   1      35.999  29.916  27.632  1.00  0.00    -0.267 OA
ATOM      6  H   UNL A   1      35.563  32.059  28.385  1.00  0.00     0.163 HD
BRANCH   4   7
ATOM      7  C   UNL A   1      33.765  29.669  26.892  1.00  0.00     0.146 A 
ATOM      8  N   UNL A   1      32.206  28.888  25.533  1.00  0.00    -0.290 N 
ATOM      9  C   UNL A   1      32.280  28.092  26.639  1.00  0.00     0.206 A 
ATOM     10  C   UNL A   1      33.048  29.952  25.752  1.00  0.00     0.128 A 
ATOM     11  N   UNL A   1      33.247  28.495  27.440  1.00  0.00    -0.231 NA
BRANCH   8  12
ATOM     12  C   UNL A   1      31.474  28.681  24.349  1.00  0.00     0.143 A 
ATOM     13  C   UNL A   1      29.517  29.141  23.103  1.00  0.00     0.053 A 
ATOM     14  C   UNL A   1      30.276  29.376  24.230  1.00  0.00     0.072 A 
ATOM     15  N   UNL A   1      29.903  28.203  22.210  1.00  0.00    -0.222 NA
ATOM     16  C   UNL A   1      31.079  27.590  22.433  1.00  0.00     0.224 A 
ATOM     17  N   UNL A   1      31.932  27.812  23.438  1.00  0.00    -0.200 NA
ATOM     18  Cl  UNL A   1      31.485  26.328  21.358  1.00  0.00    -0.041 Cl
BRANCH  13  19
ATOM     19  C   UNL A   1      28.275  29.972  22.760  1.00  0.00     0.004 C 
ATOM     20  C   UNL A   1      26.934  29.294  23.124  1.00  0.00     0.017 C 
ATOM     21  C   UNL A   1      28.246  30.276  21.251  1.00  0.00     0.017 C 
ATOM     22  C   UNL A   1      28.368  31.291  23.550  1.00  0.00     0.017 C 
ENDBRANCH  13  19
ENDBRANCH   8  12
ENDBRANCH   4   7
ENDBRANCH   2   3
ENDBRANCH   1   2
BRANCH   1  23
ATOM     23  C   UNL A   1      32.913  35.002  28.775  1.00  0.00     0.023 C 
BRANCH  23  24
ATOM     24  C   UNL A   1      33.266  36.128  29.744  1.00  0.00     0.116 C 
BRANCH  24  25
ATOM     25  N   UNL A   1      32.529  36.061  31.008  1.00  0.00    -0.352 N 
ATOM     26  C   UNL A   1      32.727  35.184  32.064  1.00  0.00     0.251 C 
ATOM     27  H   UNL A   1      31.804  36.718  31.121  1.00  0.00     0.163 HD
ATOM     28  O   UNL A   1      31.850  34.953  32.876  1.00  0.00    -0.269 OA
BRANCH  26  29
ATOM     29  C   UNL A   1      34.055  34.562  32.203  1.00  0.00     0.039 A 
ATOM     30  C   UNL A   1      34.285  33.213  31.908  1.00  0.00     0.014 A 
ATOM     31  C   UNL A   1      35.091  35.398  32.601  1.00  0.00     0.014 A 
ATOM     32  C   UNL A   1      35.594  32.732  31.940  1.00  0.00     0.010 A 
ATOM     33  C   UNL A   1      36.381  34.972  32.463  1.00  0.00     0.010 A 
ATOM     34  C   UNL A   1      36.637  33.627  32.207  1.00  0.00    -0.014 A 
BRANCH  34  35
ATOM     35  C   UNL A   1      38.042  33.237  32.124  1.00  0.00     0.031 A 
ATOM     36  C   UNL A   1      38.790  33.308  33.416  1.00  0.00     0.074 A 
ATOM     37  C   UNL A   1      38.484  32.558  31.038  1.00  0.00     0.049 A 
ATOM     38  N   UNL A   1      39.882  33.947  33.679  1.00  0.00    -0.248 NA
ATOM     39  C   UNL A   1      38.183  32.674  34.603  1.00  0.00     0.031 C 
ATOM     40  C   UNL A   1      37.708  32.156  29.853  1.00  0.00     0.029 A 
ATOM     41  N   UNL A   1      39.676  31.940  30.823  1.00  0.00    -0.354 N 
ATOM     42  C   UNL A   1      40.211  33.627  34.998  1.00  0.00     0.074 A 
ATOM     43  C   UNL A   1      39.046  33.007  35.565  1.00  0.00     0.031 C 
ATOM     44  C   UNL A   1      38.353  31.168  29.197  1.00  0.00     0.029 A 
ATOM     45  C   UNL A   1      39.657  30.991  29.802  1.00  0.00     0.049 A 
ATOM     46  H   UNL A   1      40.484  32.145  31.346  1.00  0.00     0.167 HD
ATOM     47  C   UNL A   1      41.500  33.665  35.439  1.00  0.00     0.037 A 
ATOM     48  C   UNL A   1      40.634  30.096  29.509  1.00  0.00     0.037 A 
ATOM     49  C   UNL A   1      42.328  34.424  34.538  1.00  0.00     0.049 A 
ATOM     50  C   UNL A   1      41.871  30.571  30.175  1.00  0.00     0.074 A 
ATOM     51  C   UNL A   1      42.347  35.732  34.100  1.00  0.00     0.029 A 
ATOM     52  N   UNL A   1      43.103  33.718  33.652  1.00  0.00    -0.354 N 
ATOM     53  N   UNL A   1      42.494  31.668  29.843  1.00  0.00    -0.248 NA
ATOM     54  C   UNL A   1      42.131  30.086  31.521  1.00  0.00     0.031 C 
ATOM     55  C   UNL A   1      42.712  35.651  32.724  1.00  0.00     0.029 A 
ATOM     56  C   UNL A   1      42.972  34.312  32.425  1.00  0.00     0.049 A 
ATOM     57  H   UNL A   1      43.655  32.930  33.860  1.00  0.00     0.167 HD
ATOM     58  C   UNL A   1      42.874  32.237  31.049  1.00  0.00     0.074 A 
ATOM     59  C   UNL A   1      42.688  31.182  32.044  1.00  0.00     0.031 C 
ATOM     60  C   UNL A   1      43.018  33.590  31.175  1.00  0.00     0.037 A 
BRANCH  47  61
ATOM     61  C   UNL A   1      42.100  32.706  36.444  1.00  0.00     0.057 A 
ATOM     62  C   UNL A   1      42.794  33.226  37.554  1.00  0.00     0.134 A 
ATOM     63  C   UNL A   1      42.293  31.329  36.215  1.00  0.00     0.134 A 
ATOM     64  F   UNL A   1      42.699  34.524  37.880  1.00  0.00    -0.206 F 
ATOM     65  C   UNL A   1      43.682  32.456  38.315  1.00  0.00     0.040 A 
ATOM     66  C   UNL A   1      43.138  30.539  37.002  1.00  0.00     0.040 A 
ATOM     67  F   UNL A   1      41.764  30.689  35.166  1.00  0.00    -0.206 F 
ATOM     68  C   UNL A   1      43.865  31.109  38.033  1.00  0.00     0.006 A 
ENDBRANCH  47  61
BRANCH  48  69
ATOM     69  C   UNL A   1      40.497  28.719  28.980  1.00  0.00     0.057 A 
ATOM     70  C   UNL A   1      39.831  27.721  29.706  1.00  0.00     0.134 A 
ATOM     71  C   UNL A   1      40.775  28.418  27.635  1.00  0.00     0.134 A 
ATOM     72  F   UNL A   1      39.483  27.930  30.984  1.00  0.00    -0.206 F 
ATOM     73  C   UNL A   1      39.449  26.503  29.124  1.00  0.00     0.040 A 
ATOM     74  C   UNL A   1      40.403  27.207  27.042  1.00  0.00     0.040 A 
ATOM     75  F   UNL A   1      41.340  29.328  26.827  1.00  0.00    -0.206 F 
ATOM     76  C   UNL A   1      39.726  26.247  27.784  1.00  0.00     0.006 A 
ENDBRANCH  48  69
BRANCH  60  77
ATOM     77  C   UNL A   1      42.986  34.427  29.924  1.00  0.00     0.057 A 
ATOM     78  C   UNL A   1      44.071  34.573  29.045  1.00  0.00     0.134 A 
ATOM     79  C   UNL A   1      41.758  34.943  29.501  1.00  0.00     0.134 A 
ATOM     80  F   UNL A   1      45.263  34.033  29.318  1.00  0.00    -0.206 F 
ATOM     81  C   UNL A   1      43.942  35.223  27.813  1.00  0.00     0.040 A 
ATOM     82  C   UNL A   1      41.608  35.566  28.260  1.00  0.00     0.040 A 
ATOM     83  F   UNL A   1      40.665  34.791  30.265  1.00  0.00    -0.206 F 
ATOM     84  C   UNL A   1      42.703  35.713  27.413  1.00  0.00     0.006 A 
ENDBRANCH  60  77
ENDBRANCH  34  35
ENDBRANCH  26  29
ENDBRANCH  24  25
ENDBRANCH  23  24
ENDBRANCH   1  23
TORSDOF 13
ENDMDL
