MODEL 1
REMARK VINA RESULT:     -11.6      0.000      0.000
REMARK SMILES O=C(NCCCCNC(=O)C(Cl)(c1ccccc1)c1ccccc1)c1ccc(-c2c3nc(c(-c4c(F)cccc4F)c4ccc([nH]4)c(-c4c(F)cccc4F)c4nc(c(-c5c(F)cccc5F)c5ccc2[nH]5)C=C4)C=C3)cc1
REMARK SMILES IDX 5 1 4 2 3 3 1 4 2 5 25 7 26 8 78 9 27 10 77 11 28 12 29 13
REMARK SMILES IDX 30 14 71 15 31 16 76 17 70 18 72 19 32 20 75 21 69 22 68 23
REMARK SMILES IDX 33 25 59 26 42 27 58 28 43 29 46 30 57 31 73 32 44 33 45 34
REMARK SMILES IDX 56 36 74 37 47 38 34 39 35 40 40 41 36 42 37 43 39 44 41 45
REMARK SMILES IDX 38 46 60 47 61 48 66 49 62 50 63 51 65 52 67 53 64 54 48 55
REMARK SMILES IDX 49 56 54 57 50 58 51 59 53 60 55 61 52 62 6 63 7 64 8 65
REMARK SMILES IDX 9 66 10 68 11 69 12 70 13 71 14 72 18 73 15 74 17 75 16 76
REMARK SMILES IDX 19 77 20 78 24 79 21 80 23 81 22 82
REMARK H PARENT 3 6 72 24 46 35 8 67
REMARK Flexibility Score: inf
ROOT
ATOM      1  C   UNL A   1      37.847  19.618  24.906  1.00  0.00     0.023 C 
ENDROOT
BRANCH   1   2
ATOM      2  C   UNL A   1      39.017  20.138  25.733  1.00  0.00     0.116 C 
BRANCH   2   3
ATOM      3  N   UNL A   1      40.148  19.224  25.737  1.00  0.00    -0.352 N 
ATOM      4  O   UNL A   1      42.326  18.632  25.843  1.00  0.00    -0.269 OA
ATOM      5  C   UNL A   1      41.463  19.483  26.039  1.00  0.00     0.251 C 
ATOM      6  H   UNL A   1      39.944  18.293  25.490  1.00  0.00     0.163 HD
BRANCH   5   7
ATOM      7  C   UNL A   1      41.836  20.804  26.582  1.00  0.00     0.039 A 
ATOM      8  C   UNL A   1      41.777  21.043  27.957  1.00  0.00     0.014 A 
ATOM      9  C   UNL A   1      42.241  21.813  25.704  1.00  0.00     0.014 A 
ATOM     10  C   UNL A   1      41.997  22.326  28.441  1.00  0.00     0.010 A 
ATOM     11  C   UNL A   1      42.536  23.083  26.202  1.00  0.00     0.010 A 
ATOM     12  C   UNL A   1      42.391  23.357  27.570  1.00  0.00    -0.014 A 
BRANCH  12  13
ATOM     13  C   UNL A   1      42.709  24.694  28.128  1.00  0.00     0.031 A 
ATOM     14  C   UNL A   1      44.115  25.075  28.489  1.00  0.00     0.074 A 
ATOM     15  C   UNL A   1      41.704  25.579  28.283  1.00  0.00     0.049 A 
ATOM     16  N   UNL A   1      44.562  26.206  28.975  1.00  0.00    -0.248 NA
ATOM     17  C   UNL A   1      45.157  24.056  28.287  1.00  0.00     0.031 C 
ATOM     18  C   UNL A   1      40.296  25.314  27.977  1.00  0.00     0.029 A 
ATOM     19  N   UNL A   1      41.712  26.877  28.720  1.00  0.00    -0.354 N 
ATOM     20  C   UNL A   1      45.928  26.032  29.153  1.00  0.00     0.074 A 
ATOM     21  C   UNL A   1      46.236  24.678  28.744  1.00  0.00     0.031 C 
ATOM     22  C   UNL A   1      39.584  26.427  28.194  1.00  0.00     0.029 A 
ATOM     23  C   UNL A   1      40.470  27.464  28.708  1.00  0.00     0.049 A 
ATOM     24  H   UNL A   1      42.528  27.344  29.013  1.00  0.00     0.167 HD
ATOM     25  C   UNL A   1      46.840  26.924  29.611  1.00  0.00     0.037 A 
ATOM     26  C   UNL A   1      40.084  28.696  29.084  1.00  0.00     0.037 A 
ATOM     27  C   UNL A   1      46.528  28.275  30.002  1.00  0.00     0.049 A 
ATOM     28  C   UNL A   1      41.112  29.657  29.602  1.00  0.00     0.074 A 
ATOM     29  C   UNL A   1      47.388  29.267  30.444  1.00  0.00     0.029 A 
ATOM     30  N   UNL A   1      45.254  28.826  30.001  1.00  0.00    -0.354 N 
ATOM     31  N   UNL A   1      42.405  29.486  29.737  1.00  0.00    -0.248 NA
ATOM     32  C   UNL A   1      40.629  30.976  30.026  1.00  0.00     0.031 C 
ATOM     33  C   UNL A   1      46.631  30.402  30.748  1.00  0.00     0.029 A 
ATOM     34  C   UNL A   1      45.304  30.134  30.454  1.00  0.00     0.049 A 
ATOM     35  H   UNL A   1      44.436  28.355  29.719  1.00  0.00     0.167 HD
ATOM     36  C   UNL A   1      42.893  30.680  30.248  1.00  0.00     0.074 A 
ATOM     37  C   UNL A   1      41.759  31.573  30.380  1.00  0.00     0.031 C 
ATOM     38  C   UNL A   1      44.165  31.007  30.583  1.00  0.00     0.037 A 
BRANCH  25  39
ATOM     39  C   UNL A   1      48.264  26.466  29.729  1.00  0.00     0.057 A 
ATOM     40  C   UNL A   1      48.741  25.821  30.876  1.00  0.00     0.134 A 
ATOM     41  C   UNL A   1      49.155  26.626  28.659  1.00  0.00     0.134 A 
ATOM     42  F   UNL A   1      47.943  25.645  31.940  1.00  0.00    -0.206 F 
ATOM     43  C   UNL A   1      50.059  25.365  30.962  1.00  0.00     0.040 A 
ATOM     44  C   UNL A   1      50.468  26.155  28.725  1.00  0.00     0.040 A 
ATOM     45  F   UNL A   1      48.760  27.229  27.529  1.00  0.00    -0.206 F 
ATOM     46  C   UNL A   1      50.924  25.526  29.881  1.00  0.00     0.006 A 
ENDBRANCH  25  39
BRANCH  26  47
ATOM     47  C   UNL A   1      38.656  29.080  28.982  1.00  0.00     0.057 A 
ATOM     48  C   UNL A   1      37.803  28.994  30.087  1.00  0.00     0.134 A 
ATOM     49  C   UNL A   1      38.117  29.564  27.784  1.00  0.00     0.134 A 
ATOM     50  F   UNL A   1      38.259  28.522  31.257  1.00  0.00    -0.206 F 
ATOM     51  C   UNL A   1      36.461  29.367  30.003  1.00  0.00     0.040 A 
ATOM     52  C   UNL A   1      36.784  29.965  27.692  1.00  0.00     0.040 A 
ATOM     53  F   UNL A   1      38.887  29.679  26.693  1.00  0.00    -0.206 F 
ATOM     54  C   UNL A   1      35.951  29.861  28.804  1.00  0.00     0.006 A 
ENDBRANCH  26  47
BRANCH  38  55
ATOM     55  C   UNL A   1      44.393  32.393  31.103  1.00  0.00     0.057 A 
ATOM     56  C   UNL A   1      44.654  33.468  30.245  1.00  0.00     0.134 A 
ATOM     57  C   UNL A   1      44.330  32.658  32.477  1.00  0.00     0.134 A 
ATOM     58  F   UNL A   1      44.742  33.274  28.920  1.00  0.00    -0.206 F 
ATOM     59  C   UNL A   1      44.867  34.756  30.737  1.00  0.00     0.040 A 
ATOM     60  C   UNL A   1      44.519  33.946  32.979  1.00  0.00     0.040 A 
ATOM     61  F   UNL A   1      44.079  31.672  33.351  1.00  0.00    -0.206 F 
ATOM     62  C   UNL A   1      44.795  34.999  32.108  1.00  0.00     0.006 A 
ENDBRANCH  38  55
ENDBRANCH  12  13
ENDBRANCH   5   7
ENDBRANCH   2   3
ENDBRANCH   1   2
BRANCH   1  63
ATOM     63  C   UNL A   1      36.574  20.468  24.974  1.00  0.00     0.023 C 
BRANCH  63  64
ATOM     64  C   UNL A   1      36.777  21.874  25.538  1.00  0.00     0.116 C 
BRANCH  64  65
ATOM     65  N   UNL A   1      35.837  22.148  26.612  1.00  0.00    -0.354 N 
ATOM     66  C   UNL A   1      34.635  22.811  26.644  1.00  0.00     0.250 C 
ATOM     67  H   UNL A   1      36.115  21.789  27.485  1.00  0.00     0.163 HD
ATOM     68  O   UNL A   1      34.109  22.793  27.765  1.00  0.00    -0.272 OA
BRANCH  66  69
ATOM     69  C   UNL A   1      33.971  23.487  25.363  1.00  0.00     0.173 C 
ATOM     70  Cl  UNL A   1      35.442  24.239  24.507  1.00  0.00    -0.098 Cl
BRANCH  69  71
ATOM     71  C   UNL A   1      33.304  22.463  24.406  1.00  0.00    -0.013 A 
ATOM     72  C   UNL A   1      32.975  22.824  23.082  1.00  0.00     0.006 A 
ATOM     73  C   UNL A   1      32.971  21.153  24.804  1.00  0.00     0.006 A 
ATOM     74  C   UNL A   1      32.382  21.917  22.196  1.00  0.00     0.000 A 
ATOM     75  C   UNL A   1      32.413  20.233  23.908  1.00  0.00     0.000 A 
ATOM     76  C   UNL A   1      32.118  20.615  22.605  1.00  0.00     0.000 A 
ENDBRANCH  69  71
BRANCH  69  77
ATOM     77  C   UNL A   1      32.995  24.662  25.700  1.00  0.00    -0.013 A 
ATOM     78  C   UNL A   1      33.447  25.973  25.935  1.00  0.00     0.006 A 
ATOM     79  C   UNL A   1      31.603  24.445  25.848  1.00  0.00     0.006 A 
ATOM     80  C   UNL A   1      32.554  27.019  26.213  1.00  0.00     0.000 A 
ATOM     81  C   UNL A   1      30.716  25.481  26.154  1.00  0.00     0.000 A 
ATOM     82  C   UNL A   1      31.190  26.773  26.320  1.00  0.00     0.000 A 
ENDBRANCH  69  77
ENDBRANCH  66  69
ENDBRANCH  64  65
ENDBRANCH  63  64
ENDBRANCH   1  63
TORSDOF 13
ENDMDL
MODEL 2
REMARK VINA RESULT:     -11.6      4.441      9.423
REMARK SMILES O=C(NCCCCNC(=O)C(Cl)(c1ccccc1)c1ccccc1)c1ccc(-c2c3nc(c(-c4c(F)cccc4F)c4ccc([nH]4)c(-c4c(F)cccc4F)c4nc(c(-c5c(F)cccc5F)c5ccc2[nH]5)C=C4)C=C3)cc1
REMARK SMILES IDX 5 1 4 2 3 3 1 4 2 5 25 7 26 8 78 9 27 10 77 11 28 12 29 13
REMARK SMILES IDX 30 14 71 15 31 16 76 17 70 18 72 19 32 20 75 21 69 22 68 23
REMARK SMILES IDX 33 25 59 26 42 27 58 28 43 29 46 30 57 31 73 32 44 33 45 34
REMARK SMILES IDX 56 36 74 37 47 38 34 39 35 40 40 41 36 42 37 43 39 44 41 45
REMARK SMILES IDX 38 46 60 47 61 48 66 49 62 50 63 51 65 52 67 53 64 54 48 55
REMARK SMILES IDX 49 56 54 57 50 58 51 59 53 60 55 61 52 62 6 63 7 64 8 65
REMARK SMILES IDX 9 66 10 68 11 69 12 70 13 71 14 72 18 73 15 74 17 75 16 76
REMARK SMILES IDX 19 77 20 78 24 79 21 80 23 81 22 82
REMARK H PARENT 3 6 72 24 46 35 8 67
REMARK Flexibility Score: inf
ROOT
ATOM      1  C   UNL A   1      31.268  32.210  26.504  1.00  0.00     0.023 C 
ENDROOT
BRANCH   1   2
ATOM      2  C   UNL A   1      32.500  32.796  27.183  1.00  0.00     0.116 C 
BRANCH   2   3
ATOM      3  N   UNL A   1      32.295  34.166  27.626  1.00  0.00    -0.352 N 
ATOM      4  O   UNL A   1      32.568  35.970  28.958  1.00  0.00    -0.269 OA
ATOM      5  C   UNL A   1      32.967  34.867  28.597  1.00  0.00     0.251 C 
ATOM      6  H   UNL A   1      31.577  34.659  27.166  1.00  0.00     0.163 HD
BRANCH   5   7
ATOM      7  C   UNL A   1      34.166  34.272  29.222  1.00  0.00     0.039 A 
ATOM      8  C   UNL A   1      35.431  34.504  28.678  1.00  0.00     0.014 A 
ATOM      9  C   UNL A   1      34.017  33.471  30.357  1.00  0.00     0.014 A 
ATOM     10  C   UNL A   1      36.533  33.830  29.192  1.00  0.00     0.010 A 
ATOM     11  C   UNL A   1      35.138  32.855  30.918  1.00  0.00     0.010 A 
ATOM     12  C   UNL A   1      36.399  33.008  30.325  1.00  0.00    -0.014 A 
BRANCH  12  13
ATOM     13  C   UNL A   1      37.608  32.375  30.906  1.00  0.00     0.031 A 
ATOM     14  C   UNL A   1      38.219  32.883  32.179  1.00  0.00     0.074 A 
ATOM     15  C   UNL A   1      38.138  31.308  30.276  1.00  0.00     0.049 A 
ATOM     16  N   UNL A   1      39.267  32.434  32.825  1.00  0.00    -0.248 NA
ATOM     17  C   UNL A   1      37.580  34.049  32.809  1.00  0.00     0.031 C 
ATOM     18  C   UNL A   1      37.635  30.735  29.025  1.00  0.00     0.029 A 
ATOM     19  N   UNL A   1      39.201  30.509  30.605  1.00  0.00    -0.354 N 
ATOM     20  C   UNL A   1      39.424  33.268  33.923  1.00  0.00     0.074 A 
ATOM     21  C   UNL A   1      38.378  34.266  33.848  1.00  0.00     0.031 C 
ATOM     22  C   UNL A   1      38.361  29.653  28.715  1.00  0.00     0.029 A 
ATOM     23  C   UNL A   1      39.414  29.489  29.710  1.00  0.00     0.049 A 
ATOM     24  H   UNL A   1      39.758  30.652  31.404  1.00  0.00     0.167 HD
ATOM     25  C   UNL A   1      40.354  33.202  34.908  1.00  0.00     0.037 A 
ATOM     26  C   UNL A   1      40.362  28.535  29.684  1.00  0.00     0.037 A 
ATOM     27  C   UNL A   1      41.383  32.196  34.985  1.00  0.00     0.049 A 
ATOM     28  C   UNL A   1      41.388  28.496  30.777  1.00  0.00     0.074 A 
ATOM     29  C   UNL A   1      42.349  32.023  35.962  1.00  0.00     0.029 A 
ATOM     30  N   UNL A   1      41.583  31.195  34.046  1.00  0.00    -0.354 N 
ATOM     31  N   UNL A   1      41.505  29.274  31.825  1.00  0.00    -0.248 NA
ATOM     32  C   UNL A   1      42.415  27.452  30.681  1.00  0.00     0.031 C 
ATOM     33  C   UNL A   1      43.157  30.943  35.594  1.00  0.00     0.029 A 
ATOM     34  C   UNL A   1      42.669  30.414  34.410  1.00  0.00     0.049 A 
ATOM     35  H   UNL A   1      41.034  31.058  33.240  1.00  0.00     0.167 HD
ATOM     36  C   UNL A   1      42.610  28.807  32.521  1.00  0.00     0.074 A 
ATOM     37  C   UNL A   1      43.116  27.665  31.786  1.00  0.00     0.031 C 
ATOM     38  C   UNL A   1      43.160  29.284  33.665  1.00  0.00     0.037 A 
BRANCH  25  39
ATOM     39  C   UNL A   1      40.313  34.253  35.977  1.00  0.00     0.057 A 
ATOM     40  C   UNL A   1      41.007  35.463  35.852  1.00  0.00     0.134 A 
ATOM     41  C   UNL A   1      39.526  34.075  37.123  1.00  0.00     0.134 A 
ATOM     42  F   UNL A   1      41.787  35.693  34.786  1.00  0.00    -0.206 F 
ATOM     43  C   UNL A   1      40.933  36.452  36.837  1.00  0.00     0.040 A 
ATOM     44  C   UNL A   1      39.427  35.064  38.103  1.00  0.00     0.040 A 
ATOM     45  F   UNL A   1      38.830  32.942  37.301  1.00  0.00    -0.206 F 
ATOM     46  C   UNL A   1      40.135  36.256  37.963  1.00  0.00     0.006 A 
ENDBRANCH  25  39
BRANCH  26  47
ATOM     47  C   UNL A   1      40.376  27.546  28.580  1.00  0.00     0.057 A 
ATOM     48  C   UNL A   1      41.138  27.760  27.427  1.00  0.00     0.134 A 
ATOM     49  C   UNL A   1      39.648  26.353  28.663  1.00  0.00     0.134 A 
ATOM     50  F   UNL A   1      41.844  28.891  27.284  1.00  0.00    -0.206 F 
ATOM     51  C   UNL A   1      41.168  26.827  26.389  1.00  0.00     0.040 A 
ATOM     52  C   UNL A   1      39.689  25.400  27.646  1.00  0.00     0.040 A 
ATOM     53  F   UNL A   1      38.906  26.087  29.748  1.00  0.00    -0.206 F 
ATOM     54  C   UNL A   1      40.448  25.639  26.502  1.00  0.00     0.006 A 
ENDBRANCH  26  47
BRANCH  38  55
ATOM     55  C   UNL A   1      44.357  28.555  34.194  1.00  0.00     0.057 A 
ATOM     56  C   UNL A   1      45.661  28.939  33.857  1.00  0.00     0.134 A 
ATOM     57  C   UNL A   1      44.203  27.471  35.067  1.00  0.00     0.134 A 
ATOM     58  F   UNL A   1      45.873  29.960  33.013  1.00  0.00    -0.206 F 
ATOM     59  C   UNL A   1      46.771  28.255  34.353  1.00  0.00     0.040 A 
ATOM     60  C   UNL A   1      45.307  26.793  35.587  1.00  0.00     0.040 A 
ATOM     61  F   UNL A   1      42.981  27.058  35.433  1.00  0.00    -0.206 F 
ATOM     62  C   UNL A   1      46.596  27.181  35.225  1.00  0.00     0.006 A 
ENDBRANCH  38  55
ENDBRANCH  12  13
ENDBRANCH   5   7
ENDBRANCH   2   3
ENDBRANCH   1   2
BRANCH   1  63
ATOM     63  C   UNL A   1      31.458  30.811  25.908  1.00  0.00     0.023 C 
BRANCH  63  64
ATOM     64  C   UNL A   1      32.747  30.108  26.333  1.00  0.00     0.116 C 
BRANCH  64  65
ATOM     65  N   UNL A   1      33.528  29.703  25.176  1.00  0.00    -0.354 N 
ATOM     66  C   UNL A   1      33.630  28.513  24.498  1.00  0.00     0.250 C 
ATOM     67  H   UNL A   1      34.092  30.419  24.807  1.00  0.00     0.163 HD
ATOM     68  O   UNL A   1      34.387  28.584  23.521  1.00  0.00    -0.272 OA
BRANCH  66  69
ATOM     69  C   UNL A   1      32.824  27.200  24.903  1.00  0.00     0.173 C 
ATOM     70  Cl  UNL A   1      32.859  27.272  26.762  1.00  0.00    -0.098 Cl
BRANCH  69  71
ATOM     71  C   UNL A   1      31.346  27.218  24.429  1.00  0.00    -0.013 A 
ATOM     72  C   UNL A   1      30.904  28.169  23.484  1.00  0.00     0.006 A 
ATOM     73  C   UNL A   1      30.377  26.323  24.924  1.00  0.00     0.006 A 
ATOM     74  C   UNL A   1      29.580  28.200  23.034  1.00  0.00     0.000 A 
ATOM     75  C   UNL A   1      29.061  26.328  24.445  1.00  0.00     0.000 A 
ATOM     76  C   UNL A   1      28.663  27.267  23.501  1.00  0.00     0.000 A 
ENDBRANCH  69  71
BRANCH  69  77
ATOM     77  C   UNL A   1      33.532  25.868  24.489  1.00  0.00    -0.013 A 
ATOM     78  C   UNL A   1      33.295  25.243  23.252  1.00  0.00     0.006 A 
ATOM     79  C   UNL A   1      34.402  25.189  25.375  1.00  0.00     0.006 A 
ATOM     80  C   UNL A   1      33.955  24.060  22.888  1.00  0.00     0.000 A 
ATOM     81  C   UNL A   1      35.039  23.994  25.025  1.00  0.00     0.000 A 
ATOM     82  C   UNL A   1      34.828  23.438  23.773  1.00  0.00     0.000 A 
ENDBRANCH  69  77
ENDBRANCH  66  69
ENDBRANCH  64  65
ENDBRANCH  63  64
ENDBRANCH   1  63
TORSDOF 13
ENDMDL
MODEL 3
REMARK VINA RESULT:     -11.6      0.247      6.380
REMARK SMILES O=C(NCCCCNC(=O)C(Cl)(c1ccccc1)c1ccccc1)c1ccc(-c2c3nc(c(-c4c(F)cccc4F)c4ccc([nH]4)c(-c4c(F)cccc4F)c4nc(c(-c5c(F)cccc5F)c5ccc2[nH]5)C=C4)C=C3)cc1
REMARK SMILES IDX 5 1 4 2 3 3 1 4 2 5 25 7 26 8 78 9 27 10 77 11 28 12 29 13
REMARK SMILES IDX 30 14 71 15 31 16 76 17 70 18 72 19 32 20 75 21 69 22 68 23
REMARK SMILES IDX 33 25 59 26 42 27 58 28 43 29 46 30 57 31 73 32 44 33 45 34
REMARK SMILES IDX 56 36 74 37 47 38 34 39 35 40 40 41 36 42 37 43 39 44 41 45
REMARK SMILES IDX 38 46 60 47 61 48 66 49 62 50 63 51 65 52 67 53 64 54 48 55
REMARK SMILES IDX 49 56 54 57 50 58 51 59 53 60 55 61 52 62 6 63 7 64 8 65
REMARK SMILES IDX 9 66 10 68 11 69 12 70 13 71 14 72 18 73 15 74 17 75 16 76
REMARK SMILES IDX 19 77 20 78 24 79 21 80 23 81 22 82
REMARK H PARENT 3 6 72 24 46 35 8 67
REMARK Flexibility Score: inf
ROOT
ATOM      1  C   UNL A   1      37.905  19.673  24.835  1.00  0.00     0.023 C 
ENDROOT
BRANCH   1   2
ATOM      2  C   UNL A   1      39.042  20.159  25.726  1.00  0.00     0.116 C 
BRANCH   2   3
ATOM      3  N   UNL A   1      40.160  19.229  25.761  1.00  0.00    -0.352 N 
ATOM      4  O   UNL A   1      42.328  18.608  25.896  1.00  0.00    -0.269 OA
ATOM      5  C   UNL A   1      41.477  19.476  26.064  1.00  0.00     0.251 C 
ATOM      6  H   UNL A   1      39.945  18.295  25.536  1.00  0.00     0.163 HD
BRANCH   5   7
ATOM      7  C   UNL A   1      41.866  20.806  26.576  1.00  0.00     0.039 A 
ATOM      8  C   UNL A   1      41.804  21.079  27.944  1.00  0.00     0.014 A 
ATOM      9  C   UNL A   1      42.288  21.786  25.675  1.00  0.00     0.014 A 
ATOM     10  C   UNL A   1      42.040  22.371  28.398  1.00  0.00     0.010 A 
ATOM     11  C   UNL A   1      42.599  23.065  26.143  1.00  0.00     0.010 A 
ATOM     12  C   UNL A   1      42.452  23.374  27.503  1.00  0.00    -0.014 A 
BRANCH  12  13
ATOM     13  C   UNL A   1      42.785  24.720  28.029  1.00  0.00     0.031 A 
ATOM     14  C   UNL A   1      41.720  25.752  28.264  1.00  0.00     0.074 A 
ATOM     15  C   UNL A   1      44.073  24.995  28.317  1.00  0.00     0.049 A 
ATOM     16  N   UNL A   1      41.843  26.970  28.730  1.00  0.00    -0.248 NA
ATOM     17  C   UNL A   1      40.338  25.375  27.928  1.00  0.00     0.031 C 
ATOM     18  C   UNL A   1      45.194  24.073  28.117  1.00  0.00     0.029 A 
ATOM     19  N   UNL A   1      44.653  26.115  28.851  1.00  0.00    -0.354 N 
ATOM     20  C   UNL A   1      40.564  27.510  28.728  1.00  0.00     0.074 A 
ATOM     21  C   UNL A   1      39.680  26.496  28.194  1.00  0.00     0.031 C 
ATOM     22  C   UNL A   1      46.319  24.649  28.562  1.00  0.00     0.029 A 
ATOM     23  C   UNL A   1      46.010  25.996  29.023  1.00  0.00     0.049 A 
ATOM     24  H   UNL A   1      44.147  26.926  29.087  1.00  0.00     0.167 HD
ATOM     25  C   UNL A   1      40.166  28.738  29.141  1.00  0.00     0.037 A 
ATOM     26  C   UNL A   1      46.911  26.881  29.488  1.00  0.00     0.037 A 
ATOM     27  C   UNL A   1      41.050  29.737  29.686  1.00  0.00     0.049 A 
ATOM     28  C   UNL A   1      46.445  28.238  29.922  1.00  0.00     0.074 A 
ATOM     29  C   UNL A   1      40.737  30.998  30.166  1.00  0.00     0.029 A 
ATOM     30  N   UNL A   1      42.424  29.590  29.821  1.00  0.00    -0.354 N 
ATOM     31  N   UNL A   1      45.227  28.724  29.941  1.00  0.00    -0.248 NA
ATOM     32  C   UNL A   1      47.476  29.172  30.391  1.00  0.00     0.031 C 
ATOM     33  C   UNL A   1      41.924  31.628  30.554  1.00  0.00     0.029 A 
ATOM     34  C   UNL A   1      42.972  30.744  30.357  1.00  0.00     0.049 A 
ATOM     35  H   UNL A   1      42.932  28.784  29.573  1.00  0.00     0.167 HD
ATOM     36  C   UNL A   1      45.342  30.014  30.437  1.00  0.00     0.074 A 
ATOM     37  C   UNL A   1      46.747  30.228  30.724  1.00  0.00     0.031 C 
ATOM     38  C   UNL A   1      44.373  30.941  30.633  1.00  0.00     0.037 A 
BRANCH  25  39
ATOM     39  C   UNL A   1      38.712  29.080  29.007  1.00  0.00     0.057 A 
ATOM     40  C   UNL A   1      37.831  29.006  30.093  1.00  0.00     0.134 A 
ATOM     41  C   UNL A   1      38.197  29.540  27.787  1.00  0.00     0.134 A 
ATOM     42  F   UNL A   1      38.257  28.564  31.286  1.00  0.00    -0.206 F 
ATOM     43  C   UNL A   1      36.485  29.362  29.967  1.00  0.00     0.040 A 
ATOM     44  C   UNL A   1      36.860  29.918  27.655  1.00  0.00     0.040 A 
ATOM     45  F   UNL A   1      38.988  29.641  26.710  1.00  0.00    -0.206 F 
ATOM     46  C   UNL A   1      35.999  29.826  28.746  1.00  0.00     0.006 A 
ENDBRANCH  25  39
BRANCH  26  47
ATOM     47  C   UNL A   1      48.342  26.500  29.560  1.00  0.00     0.057 A 
ATOM     48  C   UNL A   1      49.225  26.806  28.520  1.00  0.00     0.134 A 
ATOM     49  C   UNL A   1      48.864  25.844  30.681  1.00  0.00     0.134 A 
ATOM     50  F   UNL A   1      48.780  27.420  27.413  1.00  0.00    -0.206 F 
ATOM     51  C   UNL A   1      50.577  26.464  28.586  1.00  0.00     0.040 A 
ATOM     52  C   UNL A   1      50.217  25.519  30.774  1.00  0.00     0.040 A 
ATOM     53  F   UNL A   1      48.068  25.533  31.715  1.00  0.00    -0.206 F 
ATOM     54  C   UNL A   1      51.077  25.825  29.720  1.00  0.00     0.006 A 
ENDBRANCH  26  47
BRANCH  38  55
ATOM     55  C   UNL A   1      44.801  32.259  31.201  1.00  0.00     0.057 A 
ATOM     56  C   UNL A   1      44.871  32.477  32.583  1.00  0.00     0.134 A 
ATOM     57  C   UNL A   1      45.168  33.314  30.357  1.00  0.00     0.134 A 
ATOM     58  F   UNL A   1      44.517  31.509  33.443  1.00  0.00    -0.206 F 
ATOM     59  C   UNL A   1      45.269  33.707  33.106  1.00  0.00     0.040 A 
ATOM     60  C   UNL A   1      45.590  34.542  30.869  1.00  0.00     0.040 A 
ATOM     61  F   UNL A   1      45.129  33.168  29.025  1.00  0.00    -0.206 F 
ATOM     62  C   UNL A   1      45.636  34.743  32.248  1.00  0.00     0.006 A 
ENDBRANCH  38  55
ENDBRANCH  12  13
ENDBRANCH   5   7
ENDBRANCH   2   3
ENDBRANCH   1   2
BRANCH   1  63
ATOM     63  C   UNL A   1      36.574  20.409  25.022  1.00  0.00     0.023 C 
BRANCH  63  64
ATOM     64  C   UNL A   1      36.708  21.861  25.482  1.00  0.00     0.116 C 
BRANCH  64  65
ATOM     65  N   UNL A   1      35.797  22.150  26.577  1.00  0.00    -0.354 N 
ATOM     66  C   UNL A   1      34.596  22.813  26.631  1.00  0.00     0.250 C 
ATOM     67  H   UNL A   1      36.098  21.803  27.447  1.00  0.00     0.163 HD
ATOM     68  O   UNL A   1      34.100  22.811  27.765  1.00  0.00    -0.272 OA
BRANCH  66  69
ATOM     69  C   UNL A   1      33.899  23.472  25.359  1.00  0.00     0.173 C 
ATOM     70  Cl  UNL A   1      35.334  24.283  24.496  1.00  0.00    -0.098 Cl
BRANCH  69  71
ATOM     71  C   UNL A   1      33.262  22.429  24.400  1.00  0.00    -0.013 A 
ATOM     72  C   UNL A   1      32.938  22.777  23.071  1.00  0.00     0.006 A 
ATOM     73  C   UNL A   1      32.955  21.114  24.802  1.00  0.00     0.006 A 
ATOM     74  C   UNL A   1      32.372  21.854  22.185  1.00  0.00     0.000 A 
ATOM     75  C   UNL A   1      32.426  20.178  23.904  1.00  0.00     0.000 A 
ATOM     76  C   UNL A   1      32.134  20.549  22.597  1.00  0.00     0.000 A 
ENDBRANCH  69  71
BRANCH  69  77
ATOM     77  C   UNL A   1      32.882  24.608  25.709  1.00  0.00    -0.013 A 
ATOM     78  C   UNL A   1      31.495  24.383  25.776  1.00  0.00     0.006 A 
ATOM     79  C   UNL A   1      33.309  25.942  25.914  1.00  0.00     0.006 A 
ATOM     80  C   UNL A   1      30.601  25.409  26.114  1.00  0.00     0.000 A 
ATOM     81  C   UNL A   1      32.415  26.972  26.222  1.00  0.00     0.000 A 
ATOM     82  C   UNL A   1      31.060  26.701  26.339  1.00  0.00     0.000 A 
ENDBRANCH  69  77
ENDBRANCH  66  69
ENDBRANCH  64  65
ENDBRANCH  63  64
ENDBRANCH   1  63
TORSDOF 13
ENDMDL
