MODEL 1
REMARK VINA RESULT:     -12.7      0.000      0.000
REMARK SMILES O=C(COc1c(Cl)cc(/C=C2/C(=O)NC(=O)N=C2O)cc1Cl)NCCCCNC(=O)c1ccc(-c2c3nc(c(-c4c(F)cccc4F)c4ccc([nH]4)c(-c4c(F)cccc4F)c4nc(c(-c5c(F)cccc5F)c5ccc2[nH]5)C=C4)C=C3)cc1
REMARK SMILES IDX 24 1 23 2 1 3 2 4 3 6 4 7 5 8 6 9 21 10 7 11 8 12 20 13
REMARK SMILES IDX 22 14 9 15 10 16 11 17 12 18 18 19 13 20 14 21 17 22 15 23
REMARK SMILES IDX 16 25 19 26 25 28 26 29 27 30 28 31 29 32 30 34 31 35 32 36
REMARK SMILES IDX 84 37 33 38 83 39 34 40 35 41 36 42 77 43 37 44 82 45 76 46
REMARK SMILES IDX 78 47 38 48 81 49 75 50 74 51 39 53 65 54 48 55 64 56 49 57
REMARK SMILES IDX 52 58 63 59 79 60 50 61 51 62 62 64 80 65 53 66 40 67 41 68
REMARK SMILES IDX 46 69 42 70 43 71 45 72 47 73 44 74 66 75 67 76 72 77 68 78
REMARK SMILES IDX 69 79 71 80 73 81 70 82 54 83 55 84 60 85 56 86 57 87 59 88
REMARK SMILES IDX 61 89 58 90
REMARK H PARENT 23 5 14 24 19 27 28 33 78 52 52 63
REMARK Flexibility Score: inf
ROOT
ATOM      1  C   UNL A   1      36.721  21.702  24.612  1.00  0.00     0.116 C 
ENDROOT
BRANCH   1   2
ATOM      2  N   UNL A   1      35.617  22.453  25.176  1.00  0.00    -0.353 N 
ATOM      3  O   UNL A   1      36.871  24.156  26.095  1.00  0.00    -0.271 OA
ATOM      4  C   UNL A   1      35.787  23.704  25.738  1.00  0.00     0.257 C 
ATOM      5  H   UNL A   1      34.715  22.057  25.158  1.00  0.00     0.163 HD
BRANCH   4   6
ATOM      6  C   UNL A   1      34.484  24.496  25.879  1.00  0.00     0.329 C 
BRANCH   6   7
ATOM      7  O   UNL A   1      34.372  25.480  24.842  1.00  0.00    -0.481 OA
BRANCH   7   8
ATOM      8  C   UNL A   1      33.073  25.855  24.598  1.00  0.00     0.157 A 
ATOM      9  C   UNL A   1      32.490  26.903  25.315  1.00  0.00     0.085 A 
ATOM     10  C   UNL A   1      32.361  25.311  23.519  1.00  0.00     0.085 A 
ATOM     11  Cl  UNL A   1      33.265  27.708  26.620  1.00  0.00    -0.080 Cl
ATOM     12  C   UNL A   1      31.237  27.399  24.957  1.00  0.00     0.032 A 
ATOM     13  C   UNL A   1      31.092  25.805  23.174  1.00  0.00     0.032 A 
ATOM     14  Cl  UNL A   1      33.038  24.057  22.541  1.00  0.00    -0.080 Cl
ATOM     15  C   UNL A   1      30.545  26.895  23.853  1.00  0.00    -0.021 A 
BRANCH  15  16
ATOM     16  C   UNL A   1      29.277  27.571  23.538  1.00  0.00     0.027 C 
ATOM     17  C   UNL A   1      28.988  28.679  22.828  1.00  0.00     0.102 C 
ATOM     18  C   UNL A   1      27.560  29.102  22.851  1.00  0.00     0.264 C 
ATOM     19  C   UNL A   1      29.843  29.568  22.040  1.00  0.00     0.228 C 
ATOM     20  O   UNL A   1      26.712  28.613  23.589  1.00  0.00    -0.269 OA
ATOM     21  N   UNL A   1      27.258  30.102  21.976  1.00  0.00    -0.272 N 
ATOM     22  N   UNL A   1      29.464  30.503  21.252  1.00  0.00    -0.157 NA
ATOM     23  C   UNL A   1      28.123  30.733  21.125  1.00  0.00     0.351 C 
ATOM     24  H   UNL A   1      26.319  30.400  21.954  1.00  0.00     0.175 HD
ATOM     25  O   UNL A   1      27.666  31.500  20.281  1.00  0.00    -0.246 OA
BRANCH  19  26
ATOM     26  O   UNL A   1      31.161  29.408  22.178  1.00  0.00    -0.493 OA
ATOM     27  H   UNL A   1      31.671  30.065  22.609  1.00  0.00     0.295 HD
ENDBRANCH  19  26
ENDBRANCH  15  16
ENDBRANCH   7   8
ENDBRANCH   6   7
ENDBRANCH   4   6
ENDBRANCH   1   2
BRANCH   1  28
ATOM     28  C   UNL A   1      36.725  20.230  24.988  1.00  0.00     0.023 C 
BRANCH  28  29
ATOM     29  C   UNL A   1      38.074  19.526  24.837  1.00  0.00     0.023 C 
BRANCH  29  30
ATOM     30  C   UNL A   1      39.195  20.029  25.744  1.00  0.00     0.116 C 
BRANCH  30  31
ATOM     31  N   UNL A   1      40.267  19.062  25.920  1.00  0.00    -0.352 N 
ATOM     32  C   UNL A   1      41.600  19.263  26.193  1.00  0.00     0.251 C 
ATOM     33  H   UNL A   1      39.998  18.119  25.831  1.00  0.00     0.163 HD
ATOM     34  O   UNL A   1      42.384  18.319  26.156  1.00  0.00    -0.269 OA
BRANCH  32  35
ATOM     35  C   UNL A   1      42.104  20.619  26.505  1.00  0.00     0.039 A 
ATOM     36  C   UNL A   1      42.444  21.471  25.451  1.00  0.00     0.014 A 
ATOM     37  C   UNL A   1      42.248  21.052  27.826  1.00  0.00     0.014 A 
ATOM     38  C   UNL A   1      42.850  22.782  25.720  1.00  0.00     0.010 A 
ATOM     39  C   UNL A   1      42.572  22.381  28.089  1.00  0.00     0.010 A 
ATOM     40  C   UNL A   1      42.874  23.263  27.040  1.00  0.00    -0.014 A 
BRANCH  40  41
ATOM     41  C   UNL A   1      43.195  24.685  27.335  1.00  0.00     0.031 A 
ATOM     42  C   UNL A   1      44.593  25.207  27.146  1.00  0.00     0.074 A 
ATOM     43  C   UNL A   1      42.240  25.495  27.835  1.00  0.00     0.049 A 
ATOM     44  N   UNL A   1      45.074  26.398  27.405  1.00  0.00    -0.248 NA
ATOM     45  C   UNL A   1      45.588  24.261  26.619  1.00  0.00     0.031 C 
ATOM     46  C   UNL A   1      40.855  25.103  28.107  1.00  0.00     0.029 A 
ATOM     47  N   UNL A   1      42.290  26.814  28.212  1.00  0.00    -0.354 N 
ATOM     48  C   UNL A   1      46.425  26.338  27.086  1.00  0.00     0.074 A 
ATOM     49  C   UNL A   1      46.699  24.980  26.667  1.00  0.00     0.031 C 
ATOM     50  C   UNL A   1      40.182  26.164  28.579  1.00  0.00     0.029 A 
ATOM     51  C   UNL A   1      41.095  27.298  28.688  1.00  0.00     0.049 A 
ATOM     52  H   UNL A   1      43.105  27.363  28.148  1.00  0.00     0.167 HD
ATOM     53  C   UNL A   1      47.348  27.329  27.115  1.00  0.00     0.037 A 
ATOM     54  C   UNL A   1      40.771  28.514  29.168  1.00  0.00     0.037 A 
ATOM     55  C   UNL A   1      47.070  28.684  27.519  1.00  0.00     0.049 A 
ATOM     56  C   UNL A   1      41.822  29.589  29.219  1.00  0.00     0.074 A 
ATOM     57  C   UNL A   1      47.925  29.773  27.528  1.00  0.00     0.029 A 
ATOM     58  N   UNL A   1      45.847  29.134  27.994  1.00  0.00    -0.354 N 
ATOM     59  N   UNL A   1      43.077  29.539  28.845  1.00  0.00    -0.248 NA
ATOM     60  C   UNL A   1      41.407  30.894  29.755  1.00  0.00     0.031 C 
ATOM     61  C   UNL A   1      47.238  30.865  28.067  1.00  0.00     0.029 A 
ATOM     62  C   UNL A   1      45.935  30.475  28.331  1.00  0.00     0.049 A 
ATOM     63  H   UNL A   1      45.036  28.581  28.080  1.00  0.00     0.167 HD
ATOM     64  C   UNL A   1      43.593  30.809  29.068  1.00  0.00     0.074 A 
ATOM     65  C   UNL A   1      42.510  31.612  29.597  1.00  0.00     0.031 C 
ATOM     66  C   UNL A   1      44.849  31.269  28.852  1.00  0.00     0.037 A 
BRANCH  53  67
ATOM     67  C   UNL A   1      48.753  26.983  26.707  1.00  0.00     0.057 A 
ATOM     68  C   UNL A   1      49.718  26.577  27.638  1.00  0.00     0.134 A 
ATOM     69  C   UNL A   1      49.136  27.021  25.359  1.00  0.00     0.134 A 
ATOM     70  F   UNL A   1      49.422  26.525  28.946  1.00  0.00    -0.206 F 
ATOM     71  C   UNL A   1      51.020  26.254  27.250  1.00  0.00     0.040 A 
ATOM     72  C   UNL A   1      50.425  26.669  24.956  1.00  0.00     0.040 A 
ATOM     73  F   UNL A   1      48.261  27.392  24.412  1.00  0.00    -0.206 F 
ATOM     74  C   UNL A   1      51.374  26.293  25.904  1.00  0.00     0.006 A 
ENDBRANCH  53  67
BRANCH  54  75
ATOM     75  C   UNL A   1      39.383  28.789  29.626  1.00  0.00     0.057 A 
ATOM     76  C   UNL A   1      38.427  29.322  28.754  1.00  0.00     0.134 A 
ATOM     77  C   UNL A   1      38.984  28.542  30.946  1.00  0.00     0.134 A 
ATOM     78  F   UNL A   1      38.753  29.598  27.483  1.00  0.00    -0.206 F 
ATOM     79  C   UNL A   1      37.131  29.618  29.180  1.00  0.00     0.040 A 
ATOM     80  C   UNL A   1      37.684  28.806  31.378  1.00  0.00     0.040 A 
ATOM     81  F   UNL A   1      39.850  28.026  31.830  1.00  0.00    -0.206 F 
ATOM     82  C   UNL A   1      36.755  29.355  30.496  1.00  0.00     0.006 A 
ENDBRANCH  54  75
BRANCH  66  83
ATOM     83  C   UNL A   1      45.116  32.718  29.146  1.00  0.00     0.057 A 
ATOM     84  C   UNL A   1      45.627  33.147  30.378  1.00  0.00     0.134 A 
ATOM     85  C   UNL A   1      44.893  33.694  28.166  1.00  0.00     0.134 A 
ATOM     86  F   UNL A   1      45.851  32.265  31.366  1.00  0.00    -0.206 F 
ATOM     87  C   UNL A   1      45.880  34.495  30.634  1.00  0.00     0.040 A 
ATOM     88  C   UNL A   1      45.173  35.042  28.399  1.00  0.00     0.040 A 
ATOM     89  F   UNL A   1      44.415  33.353  26.960  1.00  0.00    -0.206 F 
ATOM     90  C   UNL A   1      45.661  35.447  29.639  1.00  0.00     0.006 A 
ENDBRANCH  66  83
ENDBRANCH  40  41
ENDBRANCH  32  35
ENDBRANCH  30  31
ENDBRANCH  29  30
ENDBRANCH  28  29
ENDBRANCH   1  28
TORSDOF 15
ENDMDL
MODEL 2
REMARK VINA RESULT:     -12.7      0.930      6.098
REMARK SMILES O=C(COc1c(Cl)cc(/C=C2/C(=O)NC(=O)N=C2O)cc1Cl)NCCCCNC(=O)c1ccc(-c2c3nc(c(-c4c(F)cccc4F)c4ccc([nH]4)c(-c4c(F)cccc4F)c4nc(c(-c5c(F)cccc5F)c5ccc2[nH]5)C=C4)C=C3)cc1
REMARK SMILES IDX 24 1 23 2 1 3 2 4 3 6 4 7 5 8 6 9 21 10 7 11 8 12 20 13
REMARK SMILES IDX 22 14 9 15 10 16 11 17 12 18 18 19 13 20 14 21 17 22 15 23
REMARK SMILES IDX 16 25 19 26 25 28 26 29 27 30 28 31 29 32 30 34 31 35 32 36
REMARK SMILES IDX 84 37 33 38 83 39 34 40 35 41 36 42 77 43 37 44 82 45 76 46
REMARK SMILES IDX 78 47 38 48 81 49 75 50 74 51 39 53 65 54 48 55 64 56 49 57
REMARK SMILES IDX 52 58 63 59 79 60 50 61 51 62 62 64 80 65 53 66 40 67 41 68
REMARK SMILES IDX 46 69 42 70 43 71 45 72 47 73 44 74 66 75 67 76 72 77 68 78
REMARK SMILES IDX 69 79 71 80 73 81 70 82 54 83 55 84 60 85 56 86 57 87 59 88
REMARK SMILES IDX 61 89 58 90
REMARK H PARENT 23 5 14 24 19 27 28 33 78 52 52 63
REMARK Flexibility Score: inf
ROOT
ATOM      1  C   UNL A   1      37.211  22.144  24.190  1.00  0.00     0.116 C 
ENDROOT
BRANCH   1   2
ATOM      2  N   UNL A   1      36.477  23.337  24.561  1.00  0.00    -0.353 N 
ATOM      3  O   UNL A   1      35.084  23.396  22.724  1.00  0.00    -0.271 OA
ATOM      4  C   UNL A   1      35.366  23.766  23.859  1.00  0.00     0.257 C 
ATOM      5  H   UNL A   1      36.780  23.859  25.339  1.00  0.00     0.163 HD
BRANCH   4   6
ATOM      6  C   UNL A   1      34.498  24.761  24.634  1.00  0.00     0.329 C 
BRANCH   6   7
ATOM      7  O   UNL A   1      33.378  24.098  25.237  1.00  0.00    -0.481 OA
BRANCH   7   8
ATOM      8  C   UNL A   1      32.178  24.704  24.949  1.00  0.00     0.157 A 
ATOM      9  C   UNL A   1      31.829  25.911  25.559  1.00  0.00     0.085 A 
ATOM     10  C   UNL A   1      31.358  24.215  23.923  1.00  0.00     0.085 A 
ATOM     11  Cl  UNL A   1      32.767  26.663  26.786  1.00  0.00    -0.080 Cl
ATOM     12  C   UNL A   1      30.698  26.615  25.147  1.00  0.00     0.032 A 
ATOM     13  C   UNL A   1      30.211  24.921  23.523  1.00  0.00     0.032 A 
ATOM     14  Cl  UNL A   1      31.755  22.763  23.074  1.00  0.00    -0.080 Cl
ATOM     15  C   UNL A   1      29.904  26.159  24.090  1.00  0.00    -0.021 A 
BRANCH  15  16
ATOM     16  C   UNL A   1      28.796  27.045  23.703  1.00  0.00     0.027 C 
ATOM     17  C   UNL A   1      28.755  28.208  23.025  1.00  0.00     0.102 C 
ATOM     18  C   UNL A   1      27.418  28.860  22.949  1.00  0.00     0.264 C 
ATOM     19  C   UNL A   1      29.810  28.969  22.354  1.00  0.00     0.228 C 
ATOM     20  O   UNL A   1      26.439  28.494  23.589  1.00  0.00    -0.269 OA
ATOM     21  N   UNL A   1      27.361  29.925  22.100  1.00  0.00    -0.272 N 
ATOM     22  N   UNL A   1      29.659  29.979  21.582  1.00  0.00    -0.157 NA
ATOM     23  C   UNL A   1      28.389  30.432  21.355  1.00  0.00     0.351 C 
ATOM     24  H   UNL A   1      26.489  30.374  22.014  1.00  0.00     0.175 HD
ATOM     25  O   UNL A   1      28.140  31.291  20.512  1.00  0.00    -0.246 OA
BRANCH  19  26
ATOM     26  O   UNL A   1      31.067  28.589  22.593  1.00  0.00    -0.493 OA
ATOM     27  H   UNL A   1      31.304  28.258  23.437  1.00  0.00     0.295 HD
ENDBRANCH  19  26
ENDBRANCH  15  16
ENDBRANCH   7   8
ENDBRANCH   6   7
ENDBRANCH   4   6
ENDBRANCH   1   2
BRANCH   1  28
ATOM     28  C   UNL A   1      36.701  20.873  24.848  1.00  0.00     0.023 C 
BRANCH  28  29
ATOM     29  C   UNL A   1      37.756  19.788  25.067  1.00  0.00     0.023 C 
BRANCH  29  30
ATOM     30  C   UNL A   1      39.068  20.250  25.697  1.00  0.00     0.116 C 
BRANCH  30  31
ATOM     31  N   UNL A   1      40.067  19.195  25.781  1.00  0.00    -0.352 N 
ATOM     32  C   UNL A   1      41.412  19.273  26.053  1.00  0.00     0.251 C 
ATOM     33  H   UNL A   1      39.727  18.285  25.619  1.00  0.00     0.163 HD
ATOM     34  O   UNL A   1      42.124  18.280  25.930  1.00  0.00    -0.269 OA
BRANCH  32  35
ATOM     35  C   UNL A   1      42.018  20.558  26.467  1.00  0.00     0.039 A 
ATOM     36  C   UNL A   1      42.557  21.398  25.489  1.00  0.00     0.014 A 
ATOM     37  C   UNL A   1      42.063  20.938  27.812  1.00  0.00     0.014 A 
ATOM     38  C   UNL A   1      43.065  22.649  25.848  1.00  0.00     0.010 A 
ATOM     39  C   UNL A   1      42.494  22.217  28.158  1.00  0.00     0.010 A 
ATOM     40  C   UNL A   1      42.997  23.089  27.180  1.00  0.00    -0.014 A 
BRANCH  40  41
ATOM     41  C   UNL A   1      43.431  24.460  27.562  1.00  0.00     0.031 A 
ATOM     42  C   UNL A   1      42.415  25.504  27.941  1.00  0.00     0.074 A 
ATOM     43  C   UNL A   1      44.738  24.785  27.509  1.00  0.00     0.049 A 
ATOM     44  N   UNL A   1      42.599  26.764  28.246  1.00  0.00    -0.248 NA
ATOM     45  C   UNL A   1      41.006  25.083  27.955  1.00  0.00     0.031 C 
ATOM     46  C   UNL A   1      45.820  23.881  27.116  1.00  0.00     0.029 A 
ATOM     47  N   UNL A   1      45.378  25.970  27.777  1.00  0.00    -0.354 N 
ATOM     48  C   UNL A   1      41.332  27.287  28.474  1.00  0.00     0.074 A 
ATOM     49  C   UNL A   1      40.385  26.223  28.218  1.00  0.00     0.031 C 
ATOM     50  C   UNL A   1      46.990  24.533  27.197  1.00  0.00     0.029 A 
ATOM     51  C   UNL A   1      46.740  25.913  27.600  1.00  0.00     0.049 A 
ATOM     52  H   UNL A   1      44.907  26.784  28.068  1.00  0.00     0.167 HD
ATOM     53  C   UNL A   1      40.989  28.532  28.883  1.00  0.00     0.037 A 
ATOM     54  C   UNL A   1      47.682  26.866  27.737  1.00  0.00     0.037 A 
ATOM     55  C   UNL A   1      41.934  29.586  29.150  1.00  0.00     0.049 A 
ATOM     56  C   UNL A   1      47.272  28.250  28.163  1.00  0.00     0.074 A 
ATOM     57  C   UNL A   1      41.688  30.864  29.622  1.00  0.00     0.029 A 
ATOM     58  N   UNL A   1      43.304  29.489  28.959  1.00  0.00    -0.354 N 
ATOM     59  N   UNL A   1      46.077  28.710  28.446  1.00  0.00    -0.248 NA
ATOM     60  C   UNL A   1      48.345  29.247  28.292  1.00  0.00     0.031 C 
ATOM     61  C   UNL A   1      42.901  31.559  29.658  1.00  0.00     0.029 A 
ATOM     62  C   UNL A   1      43.913  30.694  29.272  1.00  0.00     0.049 A 
ATOM     63  H   UNL A   1      43.776  28.682  28.646  1.00  0.00     0.167 HD
ATOM     64  C   UNL A   1      46.257  30.036  28.818  1.00  0.00     0.074 A 
ATOM     65  C   UNL A   1      47.679  30.303  28.739  1.00  0.00     0.031 C 
ATOM     66  C   UNL A   1      45.330  30.949  29.195  1.00  0.00     0.037 A 
BRANCH  53  67
ATOM     67  C   UNL A   1      39.525  28.828  29.058  1.00  0.00     0.057 A 
ATOM     68  C   UNL A   1      38.876  28.663  30.289  1.00  0.00     0.134 A 
ATOM     69  C   UNL A   1      38.762  29.318  27.989  1.00  0.00     0.134 A 
ATOM     70  F   UNL A   1      39.544  28.189  31.352  1.00  0.00    -0.206 F 
ATOM     71  C   UNL A   1      37.517  28.942  30.443  1.00  0.00     0.040 A 
ATOM     72  C   UNL A   1      37.411  29.632  28.140  1.00  0.00     0.040 A 
ATOM     73  F   UNL A   1      39.320  29.509  26.784  1.00  0.00    -0.206 F 
ATOM     74  C   UNL A   1      36.782  29.436  29.368  1.00  0.00     0.006 A 
ENDBRANCH  53  67
BRANCH  54  75
ATOM     75  C   UNL A   1      49.111  26.545  27.485  1.00  0.00     0.057 A 
ATOM     76  C   UNL A   1      49.693  26.775  26.232  1.00  0.00     0.134 A 
ATOM     77  C   UNL A   1      49.925  25.989  28.480  1.00  0.00     0.134 A 
ATOM     78  F   UNL A   1      48.961  27.288  25.232  1.00  0.00    -0.206 F 
ATOM     79  C   UNL A   1      51.023  26.445  25.971  1.00  0.00     0.040 A 
ATOM     80  C   UNL A   1      51.265  25.681  28.241  1.00  0.00     0.040 A 
ATOM     81  F   UNL A   1      49.431  25.749  29.703  1.00  0.00    -0.206 F 
ATOM     82  C   UNL A   1      51.815  25.901  26.980  1.00  0.00     0.006 A 
ENDBRANCH  54  75
BRANCH  66  83
ATOM     83  C   UNL A   1      45.822  32.312  29.592  1.00  0.00     0.057 A 
ATOM     84  C   UNL A   1      45.862  33.382  28.689  1.00  0.00     0.134 A 
ATOM     85  C   UNL A   1      46.226  32.566  30.909  1.00  0.00     0.134 A 
ATOM     86  F   UNL A   1      45.501  33.205  27.408  1.00  0.00    -0.206 F 
ATOM     87  C   UNL A   1      46.311  34.646  29.073  1.00  0.00     0.040 A 
ATOM     88  C   UNL A   1      46.646  33.834  31.315  1.00  0.00     0.040 A 
ATOM     89  F   UNL A   1      46.203  31.590  31.829  1.00  0.00    -0.206 F 
ATOM     90  C   UNL A   1      46.697  34.877  30.393  1.00  0.00     0.006 A 
ENDBRANCH  66  83
ENDBRANCH  40  41
ENDBRANCH  32  35
ENDBRANCH  30  31
ENDBRANCH  29  30
ENDBRANCH  28  29
ENDBRANCH   1  28
TORSDOF 15
ENDMDL
MODEL 3
REMARK VINA RESULT:     -12.4      5.421     10.214
REMARK SMILES O=C(COc1c(Cl)cc(/C=C2/C(=O)NC(=O)N=C2O)cc1Cl)NCCCCNC(=O)c1ccc(-c2c3nc(c(-c4c(F)cccc4F)c4ccc([nH]4)c(-c4c(F)cccc4F)c4nc(c(-c5c(F)cccc5F)c5ccc2[nH]5)C=C4)C=C3)cc1
REMARK SMILES IDX 24 1 23 2 1 3 2 4 3 6 4 7 5 8 6 9 21 10 7 11 8 12 20 13
REMARK SMILES IDX 22 14 9 15 10 16 11 17 12 18 18 19 13 20 14 21 17 22 15 23
REMARK SMILES IDX 16 25 19 26 25 28 26 29 27 30 28 31 29 32 30 34 31 35 32 36
REMARK SMILES IDX 84 37 33 38 83 39 34 40 35 41 36 42 77 43 37 44 82 45 76 46
REMARK SMILES IDX 78 47 38 48 81 49 75 50 74 51 39 53 65 54 48 55 64 56 49 57
REMARK SMILES IDX 52 58 63 59 79 60 50 61 51 62 62 64 80 65 53 66 40 67 41 68
REMARK SMILES IDX 46 69 42 70 43 71 45 72 47 73 44 74 66 75 67 76 72 77 68 78
REMARK SMILES IDX 69 79 71 80 73 81 70 82 54 83 55 84 60 85 56 86 57 87 59 88
REMARK SMILES IDX 61 89 58 90
REMARK H PARENT 23 5 14 24 19 27 28 33 78 52 52 63
REMARK Flexibility Score: inf
ROOT
ATOM      1  C   UNL A   1      31.600  29.780  25.141  1.00  0.00     0.116 C 
ENDROOT
BRANCH   1   2
ATOM      2  N   UNL A   1      31.061  28.437  25.061  1.00  0.00    -0.353 N 
ATOM      3  O   UNL A   1      32.728  27.539  23.745  1.00  0.00    -0.271 OA
ATOM      4  C   UNL A   1      31.765  27.393  24.491  1.00  0.00     0.257 C 
ATOM      5  H   UNL A   1      30.162  28.263  25.425  1.00  0.00     0.163 HD
BRANCH   4   6
ATOM      6  C   UNL A   1      31.233  26.011  24.878  1.00  0.00     0.329 C 
BRANCH   6   7
ATOM      7  O   UNL A   1      32.171  25.320  25.715  1.00  0.00    -0.481 OA
BRANCH   7   8
ATOM      8  C   UNL A   1      32.376  24.018  25.328  1.00  0.00     0.157 A 
ATOM      9  C   UNL A   1      31.466  23.020  25.686  1.00  0.00     0.085 A 
ATOM     10  C   UNL A   1      33.405  23.690  24.434  1.00  0.00     0.085 A 
ATOM     11  Cl  UNL A   1      30.122  23.285  26.722  1.00  0.00    -0.080 Cl
ATOM     12  C   UNL A   1      31.576  21.734  25.156  1.00  0.00     0.032 A 
ATOM     13  C   UNL A   1      33.519  22.389  23.916  1.00  0.00     0.032 A 
ATOM     14  Cl  UNL A   1      34.532  24.883  23.891  1.00  0.00    -0.080 Cl
ATOM     15  C   UNL A   1      32.569  21.415  24.225  1.00  0.00    -0.021 A 
BRANCH  15  16
ATOM     16  C   UNL A   1      32.513  20.049  23.683  1.00  0.00     0.027 C 
ATOM     17  C   UNL A   1      32.687  18.838  24.247  1.00  0.00     0.102 C 
ATOM     18  C   UNL A   1      32.665  17.683  23.307  1.00  0.00     0.264 C 
ATOM     19  C   UNL A   1      32.917  18.449  25.639  1.00  0.00     0.228 C 
ATOM     20  O   UNL A   1      32.669  17.792  22.086  1.00  0.00    -0.269 OA
ATOM     21  N   UNL A   1      32.647  16.464  23.917  1.00  0.00    -0.272 N 
ATOM     22  N   UNL A   1      32.899  17.262  26.120  1.00  0.00    -0.157 NA
ATOM     23  C   UNL A   1      32.662  16.224  25.263  1.00  0.00     0.351 C 
ATOM     24  H   UNL A   1      32.619  15.676  23.327  1.00  0.00     0.175 HD
ATOM     25  O   UNL A   1      32.474  15.076  25.660  1.00  0.00    -0.246 OA
BRANCH  19  26
ATOM     26  O   UNL A   1      33.204  19.431  26.496  1.00  0.00    -0.493 OA
ATOM     27  H   UNL A   1      33.927  19.343  27.084  1.00  0.00     0.295 HD
ENDBRANCH  19  26
ENDBRANCH  15  16
ENDBRANCH   7   8
ENDBRANCH   6   7
ENDBRANCH   4   6
ENDBRANCH   1   2
BRANCH   1  28
ATOM     28  C   UNL A   1      31.697  30.324  26.556  1.00  0.00     0.023 C 
BRANCH  28  29
ATOM     29  C   UNL A   1      31.537  31.840  26.679  1.00  0.00     0.023 C 
BRANCH  29  30
ATOM     30  C   UNL A   1      32.752  32.599  27.211  1.00  0.00     0.116 C 
BRANCH  30  31
ATOM     31  N   UNL A   1      32.457  33.981  27.558  1.00  0.00    -0.352 N 
ATOM     32  C   UNL A   1      33.022  34.789  28.517  1.00  0.00     0.251 C 
ATOM     33  H   UNL A   1      31.744  34.403  27.025  1.00  0.00     0.163 HD
ATOM     34  O   UNL A   1      32.531  35.887  28.762  1.00  0.00    -0.269 OA
BRANCH  32  35
ATOM     35  C   UNL A   1      34.205  34.331  29.279  1.00  0.00     0.039 A 
ATOM     36  C   UNL A   1      34.011  33.700  30.511  1.00  0.00     0.014 A 
ATOM     37  C   UNL A   1      35.500  34.523  28.791  1.00  0.00     0.014 A 
ATOM     38  C   UNL A   1      35.109  33.192  31.212  1.00  0.00     0.010 A 
ATOM     39  C   UNL A   1      36.583  33.944  29.449  1.00  0.00     0.010 A 
ATOM     40  C   UNL A   1      36.400  33.269  30.666  1.00  0.00    -0.014 A 
BRANCH  40  41
ATOM     41  C   UNL A   1      37.563  32.635  31.344  1.00  0.00     0.031 A 
ATOM     42  C   UNL A   1      38.249  31.446  30.731  1.00  0.00     0.074 A 
ATOM     43  C   UNL A   1      37.964  33.094  32.547  1.00  0.00     0.049 A 
ATOM     44  N   UNL A   1      39.238  30.727  31.201  1.00  0.00    -0.248 NA
ATOM     45  C   UNL A   1      37.743  30.988  29.428  1.00  0.00     0.031 C 
ATOM     46  C   UNL A   1      37.358  34.211  33.273  1.00  0.00     0.029 A 
ATOM     47  N   UNL A   1      38.972  32.669  33.377  1.00  0.00    -0.354 N 
ATOM     48  C   UNL A   1      39.462  29.729  30.261  1.00  0.00     0.074 A 
ATOM     49  C   UNL A   1      38.470  29.900  29.221  1.00  0.00     0.031 C 
ATOM     50  C   UNL A   1      38.022  34.402  34.423  1.00  0.00     0.029 A 
ATOM     51  C   UNL A   1      39.071  33.394  34.541  1.00  0.00     0.049 A 
ATOM     52  H   UNL A   1      39.569  31.917  33.160  1.00  0.00     0.167 HD
ATOM     53  C   UNL A   1      40.420  28.771  30.252  1.00  0.00     0.037 A 
ATOM     54  C   UNL A   1      39.904  33.257  35.590  1.00  0.00     0.037 A 
ATOM     55  C   UNL A   1      41.416  28.611  31.282  1.00  0.00     0.049 A 
ATOM     56  C   UNL A   1      40.940  32.167  35.570  1.00  0.00     0.074 A 
ATOM     57  C   UNL A   1      42.463  27.708  31.334  1.00  0.00     0.029 A 
ATOM     58  N   UNL A   1      41.482  29.365  32.444  1.00  0.00    -0.354 N 
ATOM     59  N   UNL A   1      41.187  31.275  34.641  1.00  0.00    -0.248 NA
ATOM     60  C   UNL A   1      41.818  32.067  36.745  1.00  0.00     0.031 C 
ATOM     61  C   UNL A   1      43.124  27.873  32.555  1.00  0.00     0.029 A 
ATOM     62  C   UNL A   1      42.531  28.925  33.235  1.00  0.00     0.049 A 
ATOM     63  H   UNL A   1      40.872  30.104  32.674  1.00  0.00     0.167 HD
ATOM     64  C   UNL A   1      42.266  30.532  35.102  1.00  0.00     0.074 A 
ATOM     65  C   UNL A   1      42.636  31.087  36.387  1.00  0.00     0.031 C 
ATOM     66  C   UNL A   1      42.895  29.487  34.512  1.00  0.00     0.037 A 
BRANCH  53  67
ATOM     67  C   UNL A   1      40.434  27.812  29.094  1.00  0.00     0.057 A 
ATOM     68  C   UNL A   1      41.236  28.024  27.965  1.00  0.00     0.134 A 
ATOM     69  C   UNL A   1      39.661  26.644  29.125  1.00  0.00     0.134 A 
ATOM     70  F   UNL A   1      41.995  29.126  27.866  1.00  0.00    -0.206 F 
ATOM     71  C   UNL A   1      41.245  27.126  26.895  1.00  0.00     0.040 A 
ATOM     72  C   UNL A   1      39.686  25.724  28.076  1.00  0.00     0.040 A 
ATOM     73  F   UNL A   1      38.876  26.372  30.178  1.00  0.00    -0.206 F 
ATOM     74  C   UNL A   1      40.473  25.969  26.953  1.00  0.00     0.006 A 
ENDBRANCH  53  67
BRANCH  54  75
ATOM     75  C   UNL A   1      39.806  34.187  36.746  1.00  0.00     0.057 A 
ATOM     76  C   UNL A   1      39.046  33.858  37.875  1.00  0.00     0.134 A 
ATOM     77  C   UNL A   1      40.456  35.427  36.747  1.00  0.00     0.134 A 
ATOM     78  F   UNL A   1      38.384  32.693  37.927  1.00  0.00    -0.206 F 
ATOM     79  C   UNL A   1      38.917  34.737  38.952  1.00  0.00     0.040 A 
ATOM     80  C   UNL A   1      40.360  36.302  37.829  1.00  0.00     0.040 A 
ATOM     81  F   UNL A   1      41.206  35.800  35.700  1.00  0.00    -0.206 F 
ATOM     82  C   UNL A   1      39.581  35.962  38.933  1.00  0.00     0.006 A 
ENDBRANCH  54  75
BRANCH  66  83
ATOM     83  C   UNL A   1      44.078  28.897  35.228  1.00  0.00     0.057 A 
ATOM     84  C   UNL A   1      43.949  27.825  36.120  1.00  0.00     0.134 A 
ATOM     85  C   UNL A   1      45.368  29.387  34.991  1.00  0.00     0.134 A 
ATOM     86  F   UNL A   1      42.740  27.316  36.403  1.00  0.00    -0.206 F 
ATOM     87  C   UNL A   1      45.057  27.280  36.770  1.00  0.00     0.040 A 
ATOM     88  C   UNL A   1      46.488  28.829  35.610  1.00  0.00     0.040 A 
ATOM     89  F   UNL A   1      45.566  30.406  34.140  1.00  0.00    -0.206 F 
ATOM     90  C   UNL A   1      46.333  27.777  36.509  1.00  0.00     0.006 A 
ENDBRANCH  66  83
ENDBRANCH  40  41
ENDBRANCH  32  35
ENDBRANCH  30  31
ENDBRANCH  29  30
ENDBRANCH  28  29
ENDBRANCH   1  28
TORSDOF 15
ENDMDL
