MODEL 1
REMARK VINA RESULT:     -12.4      0.000      0.000
REMARK SMILES O=C(NCCCCNC(=O)c1ccc(-c2ccn(C(F)F)c(=O)c2)cc1O)c1ccc(-c2c3nc(c(-c4c(F)cccc4F)c4ccc([nH]4)c(-c4c(F)cccc4F)c4nc(c(-c5c(F)cccc5F)c5ccc2[nH]5)C=C4)C=C3)cc1
REMARK SMILES IDX 5 1 4 2 3 3 1 4 2 5 28 7 29 8 81 9 30 10 80 11 31 12 32 13
REMARK SMILES IDX 33 14 74 15 34 16 79 17 73 18 75 19 35 20 78 21 72 22 71 23
REMARK SMILES IDX 36 25 62 26 45 27 61 28 46 29 49 30 60 31 76 32 47 33 48 34
REMARK SMILES IDX 59 36 77 37 50 38 37 39 38 40 43 41 39 42 40 43 42 44 44 45
REMARK SMILES IDX 41 46 63 47 64 48 69 49 65 50 66 51 68 52 70 53 67 54 51 55
REMARK SMILES IDX 52 56 57 57 53 58 54 59 56 60 58 61 55 62 6 63 7 64 8 65
REMARK SMILES IDX 9 66 10 68 11 69 12 70 26 71 13 72 25 73 14 74 27 75 15 77
REMARK SMILES IDX 16 78 24 79 17 80 22 81 18 82 23 83 19 84 20 85 21 86
REMARK H PARENT 3 6 75 24 49 35 8 67 27 76
REMARK Flexibility Score: inf
ROOT
ATOM      1  C   UNL A   1      41.171  20.900  26.065  1.00  0.00     0.023 C 
ENDROOT
BRANCH   1   2
ATOM      2  C   UNL A   1      42.460  21.510  26.607  1.00  0.00     0.116 C 
BRANCH   2   3
ATOM      3  N   UNL A   1      43.232  22.182  25.574  1.00  0.00    -0.352 N 
ATOM      4  O   UNL A   1      43.922  23.863  24.254  1.00  0.00    -0.269 OA
ATOM      5  C   UNL A   1      43.360  23.517  25.292  1.00  0.00     0.251 C 
ATOM      6  H   UNL A   1      43.742  21.583  24.983  1.00  0.00     0.163 HD
BRANCH   5   7
ATOM      7  C   UNL A   1      42.841  24.550  26.217  1.00  0.00     0.039 A 
ATOM      8  C   UNL A   1      43.533  25.763  26.321  1.00  0.00     0.014 A 
ATOM      9  C   UNL A   1      41.748  24.301  27.049  1.00  0.00     0.014 A 
ATOM     10  C   UNL A   1      43.122  26.729  27.246  1.00  0.00     0.010 A 
ATOM     11  C   UNL A   1      41.302  25.287  27.929  1.00  0.00     0.010 A 
ATOM     12  C   UNL A   1      42.003  26.496  28.058  1.00  0.00    -0.014 A 
BRANCH  12  13
ATOM     13  C   UNL A   1      41.611  27.446  29.130  1.00  0.00     0.031 A 
ATOM     14  C   UNL A   1      42.337  27.396  30.448  1.00  0.00     0.074 A 
ATOM     15  C   UNL A   1      40.587  28.302  28.955  1.00  0.00     0.049 A 
ATOM     16  N   UNL A   1      42.067  28.015  31.569  1.00  0.00    -0.248 NA
ATOM     17  C   UNL A   1      43.510  26.511  30.520  1.00  0.00     0.031 C 
ATOM     18  C   UNL A   1      39.804  28.452  27.730  1.00  0.00     0.029 A 
ATOM     19  N   UNL A   1      40.019  29.198  29.827  1.00  0.00    -0.354 N 
ATOM     20  C   UNL A   1      43.010  27.565  32.485  1.00  0.00     0.074 A 
ATOM     21  C   UNL A   1      43.845  26.604  31.799  1.00  0.00     0.031 C 
ATOM     22  C   UNL A   1      38.854  29.384  27.928  1.00  0.00     0.029 A 
ATOM     23  C   UNL A   1      38.938  29.866  29.304  1.00  0.00     0.049 A 
ATOM     24  H   UNL A   1      40.355  29.348  30.740  1.00  0.00     0.167 HD
ATOM     25  C   UNL A   1      43.175  27.930  33.778  1.00  0.00     0.037 A 
ATOM     26  C   UNL A   1      38.097  30.746  29.880  1.00  0.00     0.037 A 
ATOM     27  C   UNL A   1      42.384  28.927  34.446  1.00  0.00     0.049 A 
ATOM     28  C   UNL A   1      38.295  31.122  31.325  1.00  0.00     0.074 A 
ATOM     29  C   UNL A   1      42.523  29.420  35.732  1.00  0.00     0.029 A 
ATOM     30  N   UNL A   1      41.310  29.590  33.875  1.00  0.00    -0.354 N 
ATOM     31  N   UNL A   1      39.217  30.721  32.167  1.00  0.00    -0.248 NA
ATOM     32  C   UNL A   1      37.329  32.070  31.902  1.00  0.00     0.031 C 
ATOM     33  C   UNL A   1      41.510  30.359  35.950  1.00  0.00     0.029 A 
ATOM     34  C   UNL A   1      40.764  30.473  34.790  1.00  0.00     0.049 A 
ATOM     35  H   UNL A   1      40.983  29.453  32.956  1.00  0.00     0.167 HD
ATOM     36  C   UNL A   1      38.962  31.389  33.358  1.00  0.00     0.074 A 
ATOM     37  C   UNL A   1      37.804  32.227  33.130  1.00  0.00     0.031 C 
ATOM     38  C   UNL A   1      39.626  31.316  34.536  1.00  0.00     0.037 A 
BRANCH  25  39
ATOM     39  C   UNL A   1      44.251  27.242  34.561  1.00  0.00     0.057 A 
ATOM     40  C   UNL A   1      43.981  26.051  35.248  1.00  0.00     0.134 A 
ATOM     41  C   UNL A   1      45.542  27.775  34.672  1.00  0.00     0.134 A 
ATOM     42  F   UNL A   1      42.764  25.491  35.185  1.00  0.00    -0.206 F 
ATOM     43  C   UNL A   1      44.955  25.418  36.021  1.00  0.00     0.040 A 
ATOM     44  C   UNL A   1      46.531  27.138  35.423  1.00  0.00     0.040 A 
ATOM     45  F   UNL A   1      45.868  28.905  34.027  1.00  0.00    -0.206 F 
ATOM     46  C   UNL A   1      46.236  25.960  36.106  1.00  0.00     0.006 A 
ENDBRANCH  25  39
BRANCH  26  47
ATOM     47  C   UNL A   1      36.975  31.334  29.107  1.00  0.00     0.057 A 
ATOM     48  C   UNL A   1      35.811  30.605  28.840  1.00  0.00     0.134 A 
ATOM     49  C   UNL A   1      37.022  32.661  28.665  1.00  0.00     0.134 A 
ATOM     50  F   UNL A   1      35.704  29.328  29.238  1.00  0.00    -0.206 F 
ATOM     51  C   UNL A   1      34.731  31.175  28.164  1.00  0.00     0.040 A 
ATOM     52  C   UNL A   1      35.941  33.251  28.008  1.00  0.00     0.040 A 
ATOM     53  F   UNL A   1      38.101  33.418  28.913  1.00  0.00    -0.206 F 
ATOM     54  C   UNL A   1      34.791  32.507  27.755  1.00  0.00     0.006 A 
ENDBRANCH  26  47
BRANCH  38  55
ATOM     55  C   UNL A   1      39.149  32.196  35.651  1.00  0.00     0.057 A 
ATOM     56  C   UNL A   1      39.617  33.512  35.768  1.00  0.00     0.134 A 
ATOM     57  C   UNL A   1      38.271  31.728  36.635  1.00  0.00     0.134 A 
ATOM     58  F   UNL A   1      40.466  34.016  34.861  1.00  0.00    -0.206 F 
ATOM     59  C   UNL A   1      39.232  34.329  36.831  1.00  0.00     0.040 A 
ATOM     60  C   UNL A   1      37.863  32.543  37.692  1.00  0.00     0.040 A 
ATOM     61  F   UNL A   1      37.779  30.482  36.571  1.00  0.00    -0.206 F 
ATOM     62  C   UNL A   1      38.350  33.846  37.795  1.00  0.00     0.006 A 
ENDBRANCH  38  55
ENDBRANCH  12  13
ENDBRANCH   5   7
ENDBRANCH   2   3
ENDBRANCH   1   2
BRANCH   1  63
ATOM     63  C   UNL A   1      39.879  21.406  26.710  1.00  0.00     0.023 C 
BRANCH  63  64
ATOM     64  C   UNL A   1      38.780  21.829  25.739  1.00  0.00     0.116 C 
BRANCH  64  65
ATOM     65  N   UNL A   1      37.953  20.714  25.314  1.00  0.00    -0.352 N 
ATOM     66  C   UNL A   1      36.617  20.716  25.001  1.00  0.00     0.255 C 
ATOM     67  H   UNL A   1      38.410  19.845  25.238  1.00  0.00     0.163 HD
ATOM     68  O   UNL A   1      36.050  19.666  24.708  1.00  0.00    -0.269 OA
BRANCH  66  69
ATOM     69  C   UNL A   1      35.832  21.963  25.090  1.00  0.00     0.081 A 
ATOM     70  C   UNL A   1      35.922  22.857  24.017  1.00  0.00     0.018 A 
ATOM     71  C   UNL A   1      35.048  22.288  26.202  1.00  0.00     0.128 A 
ATOM     72  C   UNL A   1      35.196  24.051  24.035  1.00  0.00     0.010 A 
ATOM     73  C   UNL A   1      34.313  23.474  26.215  1.00  0.00     0.055 A 
ATOM     74  C   UNL A   1      34.377  24.362  25.130  1.00  0.00    -0.014 A 
BRANCH  71  75
ATOM     75  O   UNL A   1      34.993  21.453  27.283  1.00  0.00    -0.507 OA
ATOM     76  H   UNL A   1      35.785  21.132  27.668  1.00  0.00     0.293 HD
ENDBRANCH  71  75
BRANCH  74  77
ATOM     77  C   UNL A   1      33.597  25.615  25.178  1.00  0.00    -0.011 A 
ATOM     78  C   UNL A   1      33.850  26.719  24.271  1.00  0.00     0.027 A 
ATOM     79  C   UNL A   1      32.652  25.756  26.124  1.00  0.00     0.080 A 
ATOM     80  C   UNL A   1      33.182  27.871  24.394  1.00  0.00     0.095 A 
ATOM     81  C   UNL A   1      31.886  27.026  26.261  1.00  0.00     0.255 A 
ATOM     82  N   UNL A   1      32.222  28.035  25.373  1.00  0.00    -0.258 N 
ATOM     83  O   UNL A   1      31.031  27.102  27.141  1.00  0.00    -0.269 OA
BRANCH  82  84
ATOM     84  C   UNL A   1      31.524  29.288  25.510  1.00  0.00     0.451 C 
ATOM     85  F   UNL A   1      32.391  30.315  25.672  1.00  0.00    -0.185 F 
ATOM     86  F   UNL A   1      30.766  29.543  24.416  1.00  0.00    -0.185 F 
ENDBRANCH  82  84
ENDBRANCH  74  77
ENDBRANCH  66  69
ENDBRANCH  64  65
ENDBRANCH  63  64
ENDBRANCH   1  63
TORSDOF 14
ENDMDL
MODEL 2
REMARK VINA RESULT:     -12.4      4.365      9.109
REMARK SMILES O=C(NCCCCNC(=O)c1ccc(-c2ccn(C(F)F)c(=O)c2)cc1O)c1ccc(-c2c3nc(c(-c4c(F)cccc4F)c4ccc([nH]4)c(-c4c(F)cccc4F)c4nc(c(-c5c(F)cccc5F)c5ccc2[nH]5)C=C4)C=C3)cc1
REMARK SMILES IDX 5 1 4 2 3 3 1 4 2 5 28 7 29 8 81 9 30 10 80 11 31 12 32 13
REMARK SMILES IDX 33 14 74 15 34 16 79 17 73 18 75 19 35 20 78 21 72 22 71 23
REMARK SMILES IDX 36 25 62 26 45 27 61 28 46 29 49 30 60 31 76 32 47 33 48 34
REMARK SMILES IDX 59 36 77 37 50 38 37 39 38 40 43 41 39 42 40 43 42 44 44 45
REMARK SMILES IDX 41 46 63 47 64 48 69 49 65 50 66 51 68 52 70 53 67 54 51 55
REMARK SMILES IDX 52 56 57 57 53 58 54 59 56 60 58 61 55 62 6 63 7 64 8 65
REMARK SMILES IDX 9 66 10 68 11 69 12 70 26 71 13 72 25 73 14 74 27 75 15 77
REMARK SMILES IDX 16 78 24 79 17 80 22 81 18 82 23 83 19 84 20 85 21 86
REMARK H PARENT 3 6 75 24 49 35 8 67 27 76
REMARK Flexibility Score: inf
ROOT
ATOM      1  C   UNL A   1      33.817  28.275  25.836  1.00  0.00     0.023 C 
ENDROOT
BRANCH   1   2
ATOM      2  C   UNL A   1      33.564  28.536  27.317  1.00  0.00     0.116 C 
BRANCH   2   3
ATOM      3  N   UNL A   1      33.651  29.948  27.653  1.00  0.00    -0.352 N 
ATOM      4  O   UNL A   1      34.473  31.819  28.584  1.00  0.00    -0.269 OA
ATOM      5  C   UNL A   1      34.675  30.663  28.216  1.00  0.00     0.251 C 
ATOM      6  H   UNL A   1      32.846  30.473  27.442  1.00  0.00     0.163 HD
BRANCH   5   7
ATOM      7  C   UNL A   1      36.023  30.073  28.384  1.00  0.00     0.039 A 
ATOM      8  C   UNL A   1      36.361  29.515  29.623  1.00  0.00     0.014 A 
ATOM      9  C   UNL A   1      36.984  30.151  27.373  1.00  0.00     0.014 A 
ATOM     10  C   UNL A   1      37.652  29.026  29.845  1.00  0.00     0.010 A 
ATOM     11  C   UNL A   1      38.253  29.610  27.573  1.00  0.00     0.010 A 
ATOM     12  C   UNL A   1      38.609  29.071  28.820  1.00  0.00    -0.014 A 
BRANCH  12  13
ATOM     13  C   UNL A   1      40.019  28.671  29.057  1.00  0.00     0.031 A 
ATOM     14  C   UNL A   1      40.969  29.672  29.659  1.00  0.00     0.074 A 
ATOM     15  C   UNL A   1      40.463  27.454  28.691  1.00  0.00     0.049 A 
ATOM     16  N   UNL A   1      42.267  29.599  29.810  1.00  0.00    -0.248 NA
ATOM     17  C   UNL A   1      40.381  30.936  30.130  1.00  0.00     0.031 C 
ATOM     18  C   UNL A   1      39.648  26.393  28.101  1.00  0.00     0.029 A 
ATOM     19  N   UNL A   1      41.725  26.915  28.748  1.00  0.00    -0.354 N 
ATOM     20  C   UNL A   1      42.652  30.817  30.356  1.00  0.00     0.074 A 
ATOM     21  C   UNL A   1      41.457  31.622  30.487  1.00  0.00     0.031 C 
ATOM     22  C   UNL A   1      40.431  25.330  27.847  1.00  0.00     0.029 A 
ATOM     23  C   UNL A   1      41.807  25.649  28.220  1.00  0.00     0.049 A 
ATOM     24  H   UNL A   1      42.497  27.390  29.130  1.00  0.00     0.167 HD
ATOM     25  C   UNL A   1      43.888  31.225  30.728  1.00  0.00     0.037 A 
ATOM     26  C   UNL A   1      42.876  24.850  28.036  1.00  0.00     0.037 A 
ATOM     27  C   UNL A   1      45.068  30.407  30.653  1.00  0.00     0.049 A 
ATOM     28  C   UNL A   1      44.241  25.336  28.444  1.00  0.00     0.074 A 
ATOM     29  C   UNL A   1      46.351  30.704  31.076  1.00  0.00     0.029 A 
ATOM     30  N   UNL A   1      45.103  29.126  30.127  1.00  0.00    -0.354 N 
ATOM     31  N   UNL A   1      44.585  26.474  28.998  1.00  0.00    -0.248 NA
ATOM     32  C   UNL A   1      45.371  24.427  28.195  1.00  0.00     0.031 C 
ATOM     33  C   UNL A   1      47.173  29.613  30.774  1.00  0.00     0.029 A 
ATOM     34  C   UNL A   1      46.392  28.626  30.195  1.00  0.00     0.049 A 
ATOM     35  H   UNL A   1      44.328  28.642  29.759  1.00  0.00     0.167 HD
ATOM     36  C   UNL A   1      45.959  26.403  29.192  1.00  0.00     0.074 A 
ATOM     37  C   UNL A   1      46.387  25.110  28.703  1.00  0.00     0.031 C 
ATOM     38  C   UNL A   1      46.793  27.327  29.726  1.00  0.00     0.037 A 
BRANCH  25  39
ATOM     39  C   UNL A   1      44.030  32.623  31.247  1.00  0.00     0.057 A 
ATOM     40  C   UNL A   1      44.331  33.678  30.375  1.00  0.00     0.134 A 
ATOM     41  C   UNL A   1      43.914  32.923  32.610  1.00  0.00     0.134 A 
ATOM     42  F   UNL A   1      44.459  33.457  29.058  1.00  0.00    -0.206 F 
ATOM     43  C   UNL A   1      44.513  34.980  30.841  1.00  0.00     0.040 A 
ATOM     44  C   UNL A   1      44.071  34.225  33.086  1.00  0.00     0.040 A 
ATOM     45  F   UNL A   1      43.614  31.960  33.494  1.00  0.00    -0.206 F 
ATOM     46  C   UNL A   1      44.380  35.257  32.201  1.00  0.00     0.006 A 
ENDBRANCH  25  39
BRANCH  26  47
ATOM     47  C   UNL A   1      42.717  23.508  27.423  1.00  0.00     0.057 A 
ATOM     48  C   UNL A   1      42.377  22.389  28.190  1.00  0.00     0.134 A 
ATOM     49  C   UNL A   1      42.851  23.328  26.041  1.00  0.00     0.134 A 
ATOM     50  F   UNL A   1      42.234  22.497  29.520  1.00  0.00    -0.206 F 
ATOM     51  C   UNL A   1      42.170  21.138  27.607  1.00  0.00     0.040 A 
ATOM     52  C   UNL A   1      42.625  22.088  25.441  1.00  0.00     0.040 A 
ATOM     53  F   UNL A   1      43.151  24.368  25.250  1.00  0.00    -0.206 F 
ATOM     54  C   UNL A   1      42.284  20.988  26.225  1.00  0.00     0.006 A 
ENDBRANCH  26  47
BRANCH  38  55
ATOM     55  C   UNL A   1      48.239  26.956  29.855  1.00  0.00     0.057 A 
ATOM     56  C   UNL A   1      48.698  26.262  30.982  1.00  0.00     0.134 A 
ATOM     57  C   UNL A   1      49.184  27.330  28.892  1.00  0.00     0.134 A 
ATOM     58  F   UNL A   1      47.842  25.883  31.943  1.00  0.00    -0.206 F 
ATOM     59  C   UNL A   1      50.049  25.959  31.149  1.00  0.00     0.040 A 
ATOM     60  C   UNL A   1      50.535  27.014  29.039  1.00  0.00     0.040 A 
ATOM     61  F   UNL A   1      48.805  27.985  27.785  1.00  0.00    -0.206 F 
ATOM     62  C   UNL A   1      50.972  26.333  30.175  1.00  0.00     0.006 A 
ENDBRANCH  38  55
ENDBRANCH  12  13
ENDBRANCH   5   7
ENDBRANCH   2   3
ENDBRANCH   1   2
BRANCH   1  63
ATOM     63  C   UNL A   1      33.307  29.355  24.878  1.00  0.00     0.023 C 
BRANCH  63  64
ATOM     64  C   UNL A   1      33.332  28.986  23.398  1.00  0.00     0.116 C 
BRANCH  64  65
ATOM     65  N   UNL A   1      32.011  29.011  22.795  1.00  0.00    -0.352 N 
ATOM     66  C   UNL A   1      31.203  27.950  22.473  1.00  0.00     0.255 C 
ATOM     67  H   UNL A   1      31.649  29.904  22.593  1.00  0.00     0.163 HD
ATOM     68  O   UNL A   1      30.125  28.142  21.913  1.00  0.00    -0.269 OA
BRANCH  66  69
ATOM     69  C   UNL A   1      31.652  26.566  22.724  1.00  0.00     0.081 A 
ATOM     70  C   UNL A   1      31.117  25.909  23.838  1.00  0.00     0.018 A 
ATOM     71  C   UNL A   1      32.599  25.920  21.923  1.00  0.00     0.128 A 
ATOM     72  C   UNL A   1      31.494  24.594  24.123  1.00  0.00     0.010 A 
ATOM     73  C   UNL A   1      32.966  24.603  22.201  1.00  0.00     0.055 A 
ATOM     74  C   UNL A   1      32.413  23.928  23.301  1.00  0.00    -0.014 A 
BRANCH  71  75
ATOM     75  O   UNL A   1      33.174  26.567  20.864  1.00  0.00    -0.507 OA
ATOM     76  H   UNL A   1      34.007  26.983  20.966  1.00  0.00     0.293 HD
ENDBRANCH  71  75
BRANCH  74  77
ATOM     77  C   UNL A   1      32.830  22.538  23.577  1.00  0.00    -0.011 A 
ATOM     78  C   UNL A   1      32.079  21.395  23.093  1.00  0.00     0.027 A 
ATOM     79  C   UNL A   1      33.915  22.326  24.342  1.00  0.00     0.080 A 
ATOM     80  C   UNL A   1      32.437  20.151  23.429  1.00  0.00     0.095 A 
ATOM     81  C   UNL A   1      34.337  20.945  24.708  1.00  0.00     0.255 A 
ATOM     82  N   UNL A   1      33.539  19.920  24.229  1.00  0.00    -0.258 N 
ATOM     83  O   UNL A   1      35.339  20.806  25.407  1.00  0.00    -0.269 OA
BRANCH  82  84
ATOM     84  C   UNL A   1      33.901  18.577  24.604  1.00  0.00     0.451 C 
ATOM     85  F   UNL A   1      33.009  18.055  25.478  1.00  0.00    -0.185 F 
ATOM     86  F   UNL A   1      33.950  17.768  23.517  1.00  0.00    -0.185 F 
ENDBRANCH  82  84
ENDBRANCH  74  77
ENDBRANCH  66  69
ENDBRANCH  64  65
ENDBRANCH  63  64
ENDBRANCH   1  63
TORSDOF 14
ENDMDL
MODEL 3
REMARK VINA RESULT:     -12.3      2.953      4.074
REMARK SMILES O=C(NCCCCNC(=O)c1ccc(-c2ccn(C(F)F)c(=O)c2)cc1O)c1ccc(-c2c3nc(c(-c4c(F)cccc4F)c4ccc([nH]4)c(-c4c(F)cccc4F)c4nc(c(-c5c(F)cccc5F)c5ccc2[nH]5)C=C4)C=C3)cc1
REMARK SMILES IDX 5 1 4 2 3 3 1 4 2 5 28 7 29 8 81 9 30 10 80 11 31 12 32 13
REMARK SMILES IDX 33 14 74 15 34 16 79 17 73 18 75 19 35 20 78 21 72 22 71 23
REMARK SMILES IDX 36 25 62 26 45 27 61 28 46 29 49 30 60 31 76 32 47 33 48 34
REMARK SMILES IDX 59 36 77 37 50 38 37 39 38 40 43 41 39 42 40 43 42 44 44 45
REMARK SMILES IDX 41 46 63 47 64 48 69 49 65 50 66 51 68 52 70 53 67 54 51 55
REMARK SMILES IDX 52 56 57 57 53 58 54 59 56 60 58 61 55 62 6 63 7 64 8 65
REMARK SMILES IDX 9 66 10 68 11 69 12 70 26 71 13 72 25 73 14 74 27 75 15 77
REMARK SMILES IDX 16 78 24 79 17 80 22 81 18 82 23 83 19 84 20 85 21 86
REMARK H PARENT 3 6 75 24 49 35 8 67 27 76
REMARK Flexibility Score: inf
ROOT
ATOM      1  C   UNL A   1      36.673  23.169  23.886  1.00  0.00     0.023 C 
ENDROOT
BRANCH   1   2
ATOM      2  C   UNL A   1      37.207  23.422  25.292  1.00  0.00     0.116 C 
BRANCH   2   3
ATOM      3  N   UNL A   1      38.396  22.637  25.582  1.00  0.00    -0.352 N 
ATOM      4  O   UNL A   1      40.525  22.223  26.166  1.00  0.00    -0.269 OA
ATOM      5  C   UNL A   1      39.573  23.002  26.182  1.00  0.00     0.251 C 
ATOM      6  H   UNL A   1      38.348  21.695  25.302  1.00  0.00     0.163 HD
BRANCH   5   7
ATOM      7  C   UNL A   1      39.718  24.311  26.857  1.00  0.00     0.039 A 
ATOM      8  C   UNL A   1      40.401  25.336  26.191  1.00  0.00     0.014 A 
ATOM      9  C   UNL A   1      39.279  24.508  28.169  1.00  0.00     0.014 A 
ATOM     10  C   UNL A   1      40.630  26.559  26.831  1.00  0.00     0.010 A 
ATOM     11  C   UNL A   1      39.457  25.746  28.786  1.00  0.00     0.010 A 
ATOM     12  C   UNL A   1      40.161  26.772  28.135  1.00  0.00    -0.014 A 
BRANCH  12  13
ATOM     13  C   UNL A   1      40.489  28.010  28.886  1.00  0.00     0.031 A 
ATOM     14  C   UNL A   1      41.826  28.112  29.572  1.00  0.00     0.074 A 
ATOM     15  C   UNL A   1      39.592  29.005  29.004  1.00  0.00     0.049 A 
ATOM     16  N   UNL A   1      42.264  29.021  30.405  1.00  0.00    -0.248 NA
ATOM     17  C   UNL A   1      42.788  27.031  29.304  1.00  0.00     0.031 C 
ATOM     18  C   UNL A   1      38.266  29.033  28.389  1.00  0.00     0.029 A 
ATOM     19  N   UNL A   1      39.660  30.185  29.705  1.00  0.00    -0.354 N 
ATOM     20  C   UNL A   1      43.533  28.602  30.787  1.00  0.00     0.074 A 
ATOM     21  C   UNL A   1      43.786  27.345  30.117  1.00  0.00     0.031 C 
ATOM     22  C   UNL A   1      37.643  30.172  28.741  1.00  0.00     0.029 A 
ATOM     23  C   UNL A   1      38.510  30.933  29.636  1.00  0.00     0.049 A 
ATOM     24  H   UNL A   1      40.458  30.467  30.208  1.00  0.00     0.167 HD
ATOM     25  C   UNL A   1      44.414  29.215  31.612  1.00  0.00     0.037 A 
ATOM     26  C   UNL A   1      38.186  32.089  30.248  1.00  0.00     0.037 A 
ATOM     27  C   UNL A   1      44.189  30.491  32.233  1.00  0.00     0.049 A 
ATOM     28  C   UNL A   1      39.180  32.740  31.173  1.00  0.00     0.074 A 
ATOM     29  C   UNL A   1      45.052  31.229  33.024  1.00  0.00     0.029 A 
ATOM     30  N   UNL A   1      43.017  31.222  32.125  1.00  0.00    -0.354 N 
ATOM     31  N   UNL A   1      40.392  32.354  31.492  1.00  0.00    -0.248 NA
ATOM     32  C   UNL A   1      38.757  33.987  31.829  1.00  0.00     0.031 C 
ATOM     33  C   UNL A   1      44.389  32.394  33.423  1.00  0.00     0.029 A 
ATOM     34  C   UNL A   1      43.127  32.395  32.852  1.00  0.00     0.049 A 
ATOM     35  H   UNL A   1      42.225  30.949  31.608  1.00  0.00     0.167 HD
ATOM     36  C   UNL A   1      40.885  33.324  32.356  1.00  0.00     0.074 A 
ATOM     37  C   UNL A   1      39.846  34.320  32.508  1.00  0.00     0.031 C 
ATOM     38  C   UNL A   1      42.091  33.385  32.971  1.00  0.00     0.037 A 
BRANCH  25  39
ATOM     39  C   UNL A   1      45.705  28.509  31.895  1.00  0.00     0.057 A 
ATOM     40  C   UNL A   1      46.817  28.700  31.064  1.00  0.00     0.134 A 
ATOM     41  C   UNL A   1      45.840  27.611  32.961  1.00  0.00     0.134 A 
ATOM     42  F   UNL A   1      46.752  29.544  30.024  1.00  0.00    -0.206 F 
ATOM     43  C   UNL A   1      48.015  28.019  31.281  1.00  0.00     0.040 A 
ATOM     44  C   UNL A   1      47.040  26.941  33.202  1.00  0.00     0.040 A 
ATOM     45  F   UNL A   1      44.816  27.396  33.801  1.00  0.00    -0.206 F 
ATOM     46  C   UNL A   1      48.130  27.139  32.356  1.00  0.00     0.006 A 
ENDBRANCH  25  39
BRANCH  26  47
ATOM     47  C   UNL A   1      36.857  32.711  30.028  1.00  0.00     0.057 A 
ATOM     48  C   UNL A   1      36.646  33.644  29.007  1.00  0.00     0.134 A 
ATOM     49  C   UNL A   1      35.752  32.343  30.805  1.00  0.00     0.134 A 
ATOM     50  F   UNL A   1      37.665  34.038  28.228  1.00  0.00    -0.206 F 
ATOM     51  C   UNL A   1      35.384  34.186  28.761  1.00  0.00     0.040 A 
ATOM     52  C   UNL A   1      34.479  32.860  30.556  1.00  0.00     0.040 A 
ATOM     53  F   UNL A   1      35.886  31.435  31.782  1.00  0.00    -0.206 F 
ATOM     54  C   UNL A   1      34.293  33.785  29.532  1.00  0.00     0.006 A 
ENDBRANCH  26  47
BRANCH  38  55
ATOM     55  C   UNL A   1      42.369  34.586  33.822  1.00  0.00     0.057 A 
ATOM     56  C   UNL A   1      42.112  34.556  35.199  1.00  0.00     0.134 A 
ATOM     57  C   UNL A   1      42.842  35.784  33.273  1.00  0.00     0.134 A 
ATOM     58  F   UNL A   1      41.651  33.440  35.782  1.00  0.00    -0.206 F 
ATOM     59  C   UNL A   1      42.309  35.682  36.000  1.00  0.00     0.040 A 
ATOM     60  C   UNL A   1      43.061  36.909  34.069  1.00  0.00     0.040 A 
ATOM     61  F   UNL A   1      43.119  35.870  31.965  1.00  0.00    -0.206 F 
ATOM     62  C   UNL A   1      42.787  36.862  35.435  1.00  0.00     0.006 A 
ENDBRANCH  38  55
ENDBRANCH  12  13
ENDBRANCH   5   7
ENDBRANCH   2   3
ENDBRANCH   1   2
BRANCH   1  63
ATOM     63  C   UNL A   1      35.186  22.816  23.798  1.00  0.00     0.023 C 
BRANCH  63  64
ATOM     64  C   UNL A   1      34.377  23.057  25.069  1.00  0.00     0.116 C 
BRANCH  64  65
ATOM     65  N   UNL A   1      33.370  22.035  25.291  1.00  0.00    -0.352 N 
ATOM     66  C   UNL A   1      32.005  22.154  25.213  1.00  0.00     0.255 C 
ATOM     67  H   UNL A   1      33.710  21.142  25.527  1.00  0.00     0.163 HD
ATOM     68  O   UNL A   1      31.285  21.195  25.486  1.00  0.00    -0.269 OA
BRANCH  66  69
ATOM     69  C   UNL A   1      31.387  23.451  24.877  1.00  0.00     0.081 A 
ATOM     70  C   UNL A   1      31.224  23.753  23.519  1.00  0.00     0.018 A 
ATOM     71  C   UNL A   1      31.000  24.381  25.847  1.00  0.00     0.128 A 
ATOM     72  C   UNL A   1      30.635  24.961  23.135  1.00  0.00     0.010 A 
ATOM     73  C   UNL A   1      30.401  25.582  25.464  1.00  0.00     0.055 A 
ATOM     74  C   UNL A   1      30.210  25.879  24.105  1.00  0.00    -0.014 A 
BRANCH  71  75
ATOM     75  O   UNL A   1      31.204  24.126  27.175  1.00  0.00    -0.507 OA
ATOM     76  H   UNL A   1      31.489  23.277  27.451  1.00  0.00     0.293 HD
ENDBRANCH  71  75
BRANCH  74  77
ATOM     77  C   UNL A   1      29.584  27.163  23.730  1.00  0.00    -0.011 A 
ATOM     78  C   UNL A   1      30.365  28.361  23.484  1.00  0.00     0.027 A 
ATOM     79  C   UNL A   1      28.243  27.236  23.662  1.00  0.00     0.080 A 
ATOM     80  C   UNL A   1      29.763  29.527  23.228  1.00  0.00     0.095 A 
ATOM     81  C   UNL A   1      27.560  28.525  23.358  1.00  0.00     0.255 A 
ATOM     82  N   UNL A   1      28.386  29.620  23.172  1.00  0.00    -0.258 N 
ATOM     83  O   UNL A   1      26.332  28.536  23.304  1.00  0.00    -0.269 OA
BRANCH  82  84
ATOM     84  C   UNL A   1      27.749  30.887  22.917  1.00  0.00     0.451 C 
ATOM     85  F   UNL A   1      27.191  31.390  24.044  1.00  0.00    -0.185 F 
ATOM     86  F   UNL A   1      28.641  31.792  22.447  1.00  0.00    -0.185 F 
ENDBRANCH  82  84
ENDBRANCH  74  77
ENDBRANCH  66  69
ENDBRANCH  64  65
ENDBRANCH  63  64
ENDBRANCH   1  63
TORSDOF 14
ENDMDL
