MODEL 1
REMARK VINA RESULT:      -9.4      0.000      0.000
REMARK SMILES CC[C@@H](NC(=O)[C@H](C)C[NH2+]C)C(=O)NCCCCNC(=O)c1ccc(-c2c3nc(c(-c4c(F)cccc4F)c4ccc([nH]4)c(-c4c(F)cccc4F)c4nc(c(-c5c(F)cccc5F)c5ccc2[nH]5)C=C4)C=C3)cc1
REMARK SMILES IDX 15 1 14 2 12 3 13 4 3 6 2 7 1 8 4 9 5 10 6 12 7 13 8 14 9 15
REMARK SMILES IDX 10 16 11 17 16 20 17 21 18 22 19 23 20 24 21 26 22 27 23 28
REMARK SMILES IDX 75 29 24 30 74 31 25 32 26 33 27 34 68 35 28 36 73 37 67 38
REMARK SMILES IDX 69 39 29 40 72 41 66 42 65 43 30 45 56 46 39 47 55 48 40 49
REMARK SMILES IDX 43 50 54 51 70 52 41 53 42 54 53 56 71 57 44 58 31 59 32 60
REMARK SMILES IDX 37 61 33 62 34 63 36 64 38 65 35 66 57 67 58 68 63 69 59 70
REMARK SMILES IDX 60 71 62 72 64 73 61 74 45 75 46 76 51 77 47 78 48 79 50 80
REMARK SMILES IDX 52 81 49 82
REMARK H PARENT 14 5 4 11 10 18 10 19 19 25 69 44 43 55
REMARK Flexibility Score: inf
ROOT
ATOM      1  C   UNL A   1      37.921  33.071  30.626  1.00  0.00     0.116 C 
ENDROOT
BRANCH   1   2
ATOM      2  N   UNL A   1      38.218  34.019  31.684  1.00  0.00    -0.354 N 
ATOM      3  C   UNL A   1      37.675  34.092  32.937  1.00  0.00     0.242 C 
ATOM      4  O   UNL A   1      38.085  34.972  33.697  1.00  0.00    -0.273 OA
ATOM      5  H   UNL A   1      38.900  34.696  31.473  1.00  0.00     0.163 HD
BRANCH   3   6
ATOM      6  C   UNL A   1      36.469  33.210  33.317  1.00  0.00     0.171 C 
BRANCH   6   7
ATOM      7  C   UNL A   1      37.059  32.134  34.264  1.00  0.00     0.031 C 
ATOM      8  C   UNL A   1      37.770  30.966  33.609  1.00  0.00     0.006 C 
ENDBRANCH   6   7
BRANCH   6   9
ATOM      9  N   UNL A   1      35.320  33.958  33.876  1.00  0.00    -0.344 N 
ATOM     10  C   UNL A   1      34.169  34.169  33.132  1.00  0.00     0.229 C 
ATOM     11  H   UNL A   1      35.375  34.313  34.792  1.00  0.00     0.164 HD
ATOM     12  O   UNL A   1      33.279  33.323  33.173  1.00  0.00    -0.275 OA
BRANCH  10  13
ATOM     13  C   UNL A   1      33.992  35.542  32.462  1.00  0.00     0.130 C 
ATOM     14  C   UNL A   1      34.077  36.693  33.477  1.00  0.00     0.024 C 
BRANCH  13  15
ATOM     15  C   UNL A   1      32.695  35.651  31.651  1.00  0.00     0.273 C 
BRANCH  15  16
ATOM     16  N   UNL A   1      32.849  35.043  30.318  1.00  0.00    -0.348 N 
ATOM     17  C   UNL A   1      33.086  36.062  29.302  1.00  0.00     0.330 C 
ATOM     18  H   UNL A   1      31.999  34.530  30.085  1.00  0.00     0.346 HD
ATOM     19  H   UNL A   1      33.652  34.413  30.340  1.00  0.00     0.346 HD
ENDBRANCH  15  16
ENDBRANCH  13  15
ENDBRANCH  10  13
ENDBRANCH   6   9
ENDBRANCH   3   6
ENDBRANCH   1   2
BRANCH   1  20
ATOM     20  C   UNL A   1      37.560  33.753  29.314  1.00  0.00     0.023 C 
BRANCH  20  21
ATOM     21  C   UNL A   1      36.082  33.646  28.945  1.00  0.00     0.023 C 
BRANCH  21  22
ATOM     22  C   UNL A   1      35.272  32.690  29.816  1.00  0.00     0.116 C 
BRANCH  22  23
ATOM     23  N   UNL A   1      34.429  31.795  29.039  1.00  0.00    -0.352 N 
ATOM     24  C   UNL A   1      34.756  30.622  28.405  1.00  0.00     0.251 C 
ATOM     25  H   UNL A   1      33.488  32.070  28.956  1.00  0.00     0.163 HD
ATOM     26  O   UNL A   1      33.937  30.059  27.683  1.00  0.00    -0.269 OA
BRANCH  24  27
ATOM     27  C   UNL A   1      36.111  30.056  28.559  1.00  0.00     0.039 A 
ATOM     28  C   UNL A   1      37.012  30.182  27.500  1.00  0.00     0.014 A 
ATOM     29  C   UNL A   1      36.499  29.421  29.742  1.00  0.00     0.014 A 
ATOM     30  C   UNL A   1      38.324  29.734  27.652  1.00  0.00     0.010 A 
ATOM     31  C   UNL A   1      37.827  29.041  29.919  1.00  0.00     0.010 A 
ATOM     32  C   UNL A   1      38.753  29.194  28.876  1.00  0.00    -0.014 A 
BRANCH  32  33
ATOM     33  C   UNL A   1      40.171  28.798  29.077  1.00  0.00     0.031 A 
ATOM     34  C   UNL A   1      41.142  29.750  29.715  1.00  0.00     0.074 A 
ATOM     35  C   UNL A   1      40.593  27.594  28.644  1.00  0.00     0.049 A 
ATOM     36  N   UNL A   1      42.422  29.593  29.946  1.00  0.00    -0.248 NA
ATOM     37  C   UNL A   1      40.613  31.058  30.130  1.00  0.00     0.031 C 
ATOM     38  C   UNL A   1      39.759  26.596  27.970  1.00  0.00     0.029 A 
ATOM     39  N   UNL A   1      41.833  27.007  28.702  1.00  0.00    -0.354 N 
ATOM     40  C   UNL A   1      42.850  30.781  30.524  1.00  0.00     0.074 A 
ATOM     41  C   UNL A   1      41.708  31.669  30.560  1.00  0.00     0.031 C 
ATOM     42  C   UNL A   1      40.505  25.512  27.698  1.00  0.00     0.029 A 
ATOM     43  C   UNL A   1      41.875  25.751  28.143  1.00  0.00     0.049 A 
ATOM     44  H   UNL A   1      42.618  27.443  29.104  1.00  0.00     0.167 HD
ATOM     45  C   UNL A   1      44.078  31.096  31.001  1.00  0.00     0.037 A 
ATOM     46  C   UNL A   1      42.902  24.893  27.999  1.00  0.00     0.037 A 
ATOM     47  C   UNL A   1      45.209  30.206  30.980  1.00  0.00     0.049 A 
ATOM     48  C   UNL A   1      44.259  25.274  28.521  1.00  0.00     0.074 A 
ATOM     49  C   UNL A   1      46.479  30.414  31.492  1.00  0.00     0.029 A 
ATOM     50  N   UNL A   1      45.211  28.942  30.410  1.00  0.00    -0.354 N 
ATOM     51  N   UNL A   1      44.632  26.372  29.132  1.00  0.00    -0.248 NA
ATOM     52  C   UNL A   1      45.339  24.292  28.340  1.00  0.00     0.031 C 
ATOM     53  C   UNL A   1      47.262  29.296  31.187  1.00  0.00     0.029 A 
ATOM     54  C   UNL A   1      46.466  28.370  30.533  1.00  0.00     0.049 A 
ATOM     55  H   UNL A   1      44.435  28.515  29.980  1.00  0.00     0.167 HD
ATOM     56  C   UNL A   1      45.977  26.204  29.433  1.00  0.00     0.074 A 
ATOM     57  C   UNL A   1      46.352  24.891  28.949  1.00  0.00     0.031 C 
ATOM     58  C   UNL A   1      46.826  27.060  30.054  1.00  0.00     0.037 A 
BRANCH  45  59
ATOM     59  C   UNL A   1      44.260  32.465  31.590  1.00  0.00     0.057 A 
ATOM     60  C   UNL A   1      44.645  33.562  30.808  1.00  0.00     0.134 A 
ATOM     61  C   UNL A   1      44.011  32.698  32.949  1.00  0.00     0.134 A 
ATOM     62  F   UNL A   1      44.910  33.406  29.502  1.00  0.00    -0.206 F 
ATOM     63  C   UNL A   1      44.803  34.834  31.361  1.00  0.00     0.040 A 
ATOM     64  C   UNL A   1      44.137  33.970  33.508  1.00  0.00     0.040 A 
ATOM     65  F   UNL A   1      43.631  31.693  33.754  1.00  0.00    -0.206 F 
ATOM     66  C   UNL A   1      44.541  35.042  32.714  1.00  0.00     0.006 A 
ENDBRANCH  45  59
BRANCH  46  67
ATOM     67  C   UNL A   1      42.685  23.578  27.343  1.00  0.00     0.057 A 
ATOM     68  C   UNL A   1      42.298  22.455  28.084  1.00  0.00     0.134 A 
ATOM     69  C   UNL A   1      42.870  23.409  25.966  1.00  0.00     0.134 A 
ATOM     70  F   UNL A   1      42.123  22.549  29.410  1.00  0.00    -0.206 F 
ATOM     71  C   UNL A   1      42.122  21.207  27.483  1.00  0.00     0.040 A 
ATOM     72  C   UNL A   1      42.672  22.174  25.348  1.00  0.00     0.040 A 
ATOM     73  F   UNL A   1      43.234  24.448  25.198  1.00  0.00    -0.206 F 
ATOM     74  C   UNL A   1      42.305  21.066  26.109  1.00  0.00     0.006 A 
ENDBRANCH  46  67
BRANCH  58  75
ATOM     75  C   UNL A   1      48.234  26.591  30.278  1.00  0.00     0.057 A 
ATOM     76  C   UNL A   1      49.272  26.911  29.394  1.00  0.00     0.134 A 
ATOM     77  C   UNL A   1      48.562  25.843  31.418  1.00  0.00     0.134 A 
ATOM     78  F   UNL A   1      49.023  27.613  28.279  1.00  0.00    -0.206 F 
ATOM     79  C   UNL A   1      50.582  26.485  29.622  1.00  0.00     0.040 A 
ATOM     80  C   UNL A   1      49.873  25.436  31.670  1.00  0.00     0.040 A 
ATOM     81  F   UNL A   1      47.618  25.509  32.309  1.00  0.00    -0.206 F 
ATOM     82  C   UNL A   1      50.886  25.752  30.768  1.00  0.00     0.006 A 
ENDBRANCH  58  75
ENDBRANCH  32  33
ENDBRANCH  24  27
ENDBRANCH  22  23
ENDBRANCH  21  22
ENDBRANCH  20  21
ENDBRANCH   1  20
TORSDOF 16
ENDMDL
MODEL 2
REMARK VINA RESULT:      -9.4      5.390     10.885
REMARK SMILES CC[C@@H](NC(=O)[C@H](C)C[NH2+]C)C(=O)NCCCCNC(=O)c1ccc(-c2c3nc(c(-c4c(F)cccc4F)c4ccc([nH]4)c(-c4c(F)cccc4F)c4nc(c(-c5c(F)cccc5F)c5ccc2[nH]5)C=C4)C=C3)cc1
REMARK SMILES IDX 15 1 14 2 12 3 13 4 3 6 2 7 1 8 4 9 5 10 6 12 7 13 8 14 9 15
REMARK SMILES IDX 10 16 11 17 16 20 17 21 18 22 19 23 20 24 21 26 22 27 23 28
REMARK SMILES IDX 75 29 24 30 74 31 25 32 26 33 27 34 68 35 28 36 73 37 67 38
REMARK SMILES IDX 69 39 29 40 72 41 66 42 65 43 30 45 56 46 39 47 55 48 40 49
REMARK SMILES IDX 43 50 54 51 70 52 41 53 42 54 53 56 71 57 44 58 31 59 32 60
REMARK SMILES IDX 37 61 33 62 34 63 36 64 38 65 35 66 57 67 58 68 63 69 59 70
REMARK SMILES IDX 60 71 62 72 64 73 61 74 45 75 46 76 51 77 47 78 48 79 50 80
REMARK SMILES IDX 52 81 49 82
REMARK H PARENT 14 5 4 11 10 18 10 19 19 25 69 44 43 55
REMARK Flexibility Score: inf
ROOT
ATOM      1  C   UNL A   1      36.312  21.839  24.942  1.00  0.00     0.116 C 
ENDROOT
BRANCH   1   2
ATOM      2  N   UNL A   1      35.423  22.284  23.886  1.00  0.00    -0.354 N 
ATOM      3  C   UNL A   1      34.056  22.232  23.848  1.00  0.00     0.242 C 
ATOM      4  O   UNL A   1      33.486  22.686  22.853  1.00  0.00    -0.273 OA
ATOM      5  H   UNL A   1      35.859  22.673  23.094  1.00  0.00     0.163 HD
BRANCH   3   6
ATOM      6  C   UNL A   1      33.273  21.476  24.939  1.00  0.00     0.171 C 
BRANCH   6   7
ATOM      7  C   UNL A   1      32.527  22.586  25.720  1.00  0.00     0.031 C 
ATOM      8  C   UNL A   1      31.023  22.435  25.851  1.00  0.00     0.006 C 
ENDBRANCH   6   7
BRANCH   6   9
ATOM      9  N   UNL A   1      32.403  20.394  24.424  1.00  0.00    -0.344 N 
ATOM     10  C   UNL A   1      32.652  19.065  24.729  1.00  0.00     0.229 C 
ATOM     11  H   UNL A   1      31.634  20.623  23.854  1.00  0.00     0.164 HD
ATOM     12  O   UNL A   1      32.159  18.593  25.751  1.00  0.00    -0.275 OA
BRANCH  10  13
ATOM     13  C   UNL A   1      33.361  18.208  23.666  1.00  0.00     0.130 C 
ATOM     14  C   UNL A   1      32.529  18.080  22.380  1.00  0.00     0.024 C 
BRANCH  13  15
ATOM     15  C   UNL A   1      33.751  16.817  24.180  1.00  0.00     0.273 C 
BRANCH  15  16
ATOM     16  N   UNL A   1      32.557  16.000  24.458  1.00  0.00    -0.348 N 
ATOM     17  C   UNL A   1      32.798  15.081  25.566  1.00  0.00     0.330 C 
ATOM     18  H   UNL A   1      32.319  15.463  23.625  1.00  0.00     0.346 HD
ATOM     19  H   UNL A   1      31.791  16.623  24.714  1.00  0.00     0.346 HD
ENDBRANCH  15  16
ENDBRANCH  13  15
ENDBRANCH  10  13
ENDBRANCH   6   9
ENDBRANCH   3   6
ENDBRANCH   1   2
BRANCH   1  20
ATOM     20  C   UNL A   1      36.439  20.323  25.001  1.00  0.00     0.023 C 
BRANCH  20  21
ATOM     21  C   UNL A   1      37.836  19.804  24.668  1.00  0.00     0.023 C 
BRANCH  21  22
ATOM     22  C   UNL A   1      38.892  20.075  25.736  1.00  0.00     0.116 C 
BRANCH  22  23
ATOM     23  N   UNL A   1      39.927  19.054  25.779  1.00  0.00    -0.352 N 
ATOM     24  C   UNL A   1      41.273  19.188  26.017  1.00  0.00     0.251 C 
ATOM     25  H   UNL A   1      39.619  18.135  25.612  1.00  0.00     0.163 HD
ATOM     26  O   UNL A   1      42.023  18.224  25.887  1.00  0.00    -0.269 OA
BRANCH  24  27
ATOM     27  C   UNL A   1      41.825  20.505  26.392  1.00  0.00     0.039 A 
ATOM     28  C   UNL A   1      42.220  21.376  25.374  1.00  0.00     0.014 A 
ATOM     29  C   UNL A   1      41.940  20.886  27.731  1.00  0.00     0.014 A 
ATOM     30  C   UNL A   1      42.664  22.659  25.699  1.00  0.00     0.010 A 
ATOM     31  C   UNL A   1      42.313  22.190  28.049  1.00  0.00     0.010 A 
ATOM     32  C   UNL A   1      42.678  23.090  27.035  1.00  0.00    -0.014 A 
BRANCH  32  33
ATOM     33  C   UNL A   1      43.063  24.482  27.381  1.00  0.00     0.031 A 
ATOM     34  C   UNL A   1      44.504  24.907  27.329  1.00  0.00     0.074 A 
ATOM     35  C   UNL A   1      42.119  25.354  27.785  1.00  0.00     0.049 A 
ATOM     36  N   UNL A   1      45.034  26.068  27.622  1.00  0.00    -0.248 NA
ATOM     37  C   UNL A   1      45.480  23.888  26.911  1.00  0.00     0.031 C 
ATOM     38  C   UNL A   1      40.692  25.054  27.920  1.00  0.00     0.029 A 
ATOM     39  N   UNL A   1      42.218  26.670  28.161  1.00  0.00    -0.354 N 
ATOM     40  C   UNL A   1      46.401  25.917  27.433  1.00  0.00     0.074 A 
ATOM     41  C   UNL A   1      46.626  24.539  27.052  1.00  0.00     0.031 C 
ATOM     42  C   UNL A   1      40.047  26.160  28.326  1.00  0.00     0.029 A 
ATOM     43  C   UNL A   1      41.016  27.235  28.516  1.00  0.00     0.049 A 
ATOM     44  H   UNL A   1      43.069  27.164  28.176  1.00  0.00     0.167 HD
ATOM     45  C   UNL A   1      47.380  26.847  27.546  1.00  0.00     0.037 A 
ATOM     46  C   UNL A   1      40.728  28.476  28.952  1.00  0.00     0.037 A 
ATOM     47  C   UNL A   1      47.154  28.221  27.909  1.00  0.00     0.049 A 
ATOM     48  C   UNL A   1      41.835  29.485  29.086  1.00  0.00     0.074 A 
ATOM     49  C   UNL A   1      48.073  29.253  27.993  1.00  0.00     0.029 A 
ATOM     50  N   UNL A   1      45.922  28.755  28.256  1.00  0.00    -0.354 N 
ATOM     51  N   UNL A   1      43.113  29.348  28.832  1.00  0.00    -0.248 NA
ATOM     52  C   UNL A   1      41.457  30.824  29.560  1.00  0.00     0.031 C 
ATOM     53  C   UNL A   1      47.407  30.398  28.440  1.00  0.00     0.029 A 
ATOM     54  C   UNL A   1      46.063  30.095  28.582  1.00  0.00     0.049 A 
ATOM     55  H   UNL A   1      45.074  28.257  28.270  1.00  0.00     0.167 HD
ATOM     56  C   UNL A   1      43.688  30.587  29.088  1.00  0.00     0.074 A 
ATOM     57  C   UNL A   1      42.615  31.466  29.504  1.00  0.00     0.031 C 
ATOM     58  C   UNL A   1      44.986  30.961  28.988  1.00  0.00     0.037 A 
BRANCH  45  59
ATOM     59  C   UNL A   1      48.788  26.406  27.270  1.00  0.00     0.057 A 
ATOM     60  C   UNL A   1      49.342  26.457  25.984  1.00  0.00     0.134 A 
ATOM     61  C   UNL A   1      49.614  25.960  28.310  1.00  0.00     0.134 A 
ATOM     62  F   UNL A   1      48.602  26.864  24.941  1.00  0.00    -0.206 F 
ATOM     63  C   UNL A   1      50.656  26.054  25.737  1.00  0.00     0.040 A 
ATOM     64  C   UNL A   1      50.938  25.582  28.082  1.00  0.00     0.040 A 
ATOM     65  F   UNL A   1      49.151  25.894  29.568  1.00  0.00    -0.206 F 
ATOM     66  C   UNL A   1      51.460  25.622  26.790  1.00  0.00     0.006 A 
ENDBRANCH  45  59
BRANCH  46  67
ATOM     67  C   UNL A   1      39.326  28.841  29.281  1.00  0.00     0.057 A 
ATOM     68  C   UNL A   1      38.492  29.439  28.329  1.00  0.00     0.134 A 
ATOM     69  C   UNL A   1      38.791  28.613  30.554  1.00  0.00     0.134 A 
ATOM     70  F   UNL A   1      38.953  29.700  27.097  1.00  0.00    -0.206 F 
ATOM     71  C   UNL A   1      37.184  29.816  28.636  1.00  0.00     0.040 A 
ATOM     72  C   UNL A   1      37.477  28.960  30.868  1.00  0.00     0.040 A 
ATOM     73  F   UNL A   1      39.537  28.037  31.509  1.00  0.00    -0.206 F 
ATOM     74  C   UNL A   1      36.672  29.572  29.909  1.00  0.00     0.006 A 
ENDBRANCH  46  67
BRANCH  58  75
ATOM     75  C   UNL A   1      45.316  32.393  29.299  1.00  0.00     0.057 A 
ATOM     76  C   UNL A   1      45.242  33.399  28.327  1.00  0.00     0.134 A 
ATOM     77  C   UNL A   1      45.672  32.775  30.600  1.00  0.00     0.134 A 
ATOM     78  F   UNL A   1      44.919  33.098  27.061  1.00  0.00    -0.206 F 
ATOM     79  C   UNL A   1      45.532  34.730  28.632  1.00  0.00     0.040 A 
ATOM     80  C   UNL A   1      45.937  34.107  30.922  1.00  0.00     0.040 A 
ATOM     81  F   UNL A   1      45.753  31.864  31.580  1.00  0.00    -0.206 F 
ATOM     82  C   UNL A   1      45.874  35.087  29.935  1.00  0.00     0.006 A 
ENDBRANCH  58  75
ENDBRANCH  32  33
ENDBRANCH  24  27
ENDBRANCH  22  23
ENDBRANCH  21  22
ENDBRANCH  20  21
ENDBRANCH   1  20
TORSDOF 16
ENDMDL
MODEL 3
REMARK VINA RESULT:      -9.3      5.197     10.505
REMARK SMILES CC[C@@H](NC(=O)[C@H](C)C[NH2+]C)C(=O)NCCCCNC(=O)c1ccc(-c2c3nc(c(-c4c(F)cccc4F)c4ccc([nH]4)c(-c4c(F)cccc4F)c4nc(c(-c5c(F)cccc5F)c5ccc2[nH]5)C=C4)C=C3)cc1
REMARK SMILES IDX 15 1 14 2 12 3 13 4 3 6 2 7 1 8 4 9 5 10 6 12 7 13 8 14 9 15
REMARK SMILES IDX 10 16 11 17 16 20 17 21 18 22 19 23 20 24 21 26 22 27 23 28
REMARK SMILES IDX 75 29 24 30 74 31 25 32 26 33 27 34 68 35 28 36 73 37 67 38
REMARK SMILES IDX 69 39 29 40 72 41 66 42 65 43 30 45 56 46 39 47 55 48 40 49
REMARK SMILES IDX 43 50 54 51 70 52 41 53 42 54 53 56 71 57 44 58 31 59 32 60
REMARK SMILES IDX 37 61 33 62 34 63 36 64 38 65 35 66 57 67 58 68 63 69 59 70
REMARK SMILES IDX 60 71 62 72 64 73 61 74 45 75 46 76 51 77 47 78 48 79 50 80
REMARK SMILES IDX 52 81 49 82
REMARK H PARENT 14 5 4 11 10 18 10 19 19 25 69 44 43 55
REMARK Flexibility Score: inf
ROOT
ATOM      1  C   UNL A   1      36.193  21.989  25.044  1.00  0.00     0.116 C 
ENDROOT
BRANCH   1   2
ATOM      2  N   UNL A   1      35.224  22.384  24.039  1.00  0.00    -0.354 N 
ATOM      3  C   UNL A   1      33.873  22.173  24.032  1.00  0.00     0.242 C 
ATOM      4  O   UNL A   1      33.222  22.611  23.081  1.00  0.00    -0.273 OA
ATOM      5  H   UNL A   1      35.586  22.866  23.261  1.00  0.00     0.163 HD
BRANCH   3   6
ATOM      6  C   UNL A   1      33.218  21.269  25.095  1.00  0.00     0.171 C 
BRANCH   6   7
ATOM      7  C   UNL A   1      32.483  22.252  26.041  1.00  0.00     0.031 C 
ATOM      8  C   UNL A   1      33.297  22.846  27.174  1.00  0.00     0.006 C 
ENDBRANCH   6   7
BRANCH   6   9
ATOM      9  N   UNL A   1      32.365  20.195  24.539  1.00  0.00    -0.344 N 
ATOM     10  C   UNL A   1      32.655  18.858  24.763  1.00  0.00     0.229 C 
ATOM     11  H   UNL A   1      31.578  20.435  24.000  1.00  0.00     0.164 HD
ATOM     12  O   UNL A   1      32.197  18.316  25.767  1.00  0.00    -0.275 OA
BRANCH  10  13
ATOM     13  C   UNL A   1      33.362  18.081  23.640  1.00  0.00     0.130 C 
ATOM     14  C   UNL A   1      32.514  18.023  22.358  1.00  0.00     0.024 C 
BRANCH  13  15
ATOM     15  C   UNL A   1      33.777  16.665  24.058  1.00  0.00     0.273 C 
BRANCH  15  16
ATOM     16  N   UNL A   1      34.440  16.674  25.374  1.00  0.00    -0.348 N 
ATOM     17  C   UNL A   1      35.603  15.793  25.380  1.00  0.00     0.330 C 
ATOM     18  H   UNL A   1      33.778  16.359  26.083  1.00  0.00     0.346 HD
ATOM     19  H   UNL A   1      34.752  17.625  25.573  1.00  0.00     0.346 HD
ENDBRANCH  15  16
ENDBRANCH  13  15
ENDBRANCH  10  13
ENDBRANCH   6   9
ENDBRANCH   3   6
ENDBRANCH   1   2
BRANCH   1  20
ATOM     20  C   UNL A   1      36.458  20.490  25.045  1.00  0.00     0.023 C 
BRANCH  20  21
ATOM     21  C   UNL A   1      37.889  20.112  24.667  1.00  0.00     0.023 C 
BRANCH  21  22
ATOM     22  C   UNL A   1      38.920  20.322  25.772  1.00  0.00     0.116 C 
BRANCH  22  23
ATOM     23  N   UNL A   1      39.902  19.251  25.839  1.00  0.00    -0.352 N 
ATOM     24  C   UNL A   1      41.245  19.318  26.112  1.00  0.00     0.251 C 
ATOM     25  H   UNL A   1      39.552  18.348  25.663  1.00  0.00     0.163 HD
ATOM     26  O   UNL A   1      41.950  18.318  26.000  1.00  0.00    -0.269 OA
BRANCH  24  27
ATOM     27  C   UNL A   1      41.853  20.605  26.503  1.00  0.00     0.039 A 
ATOM     28  C   UNL A   1      42.213  21.506  25.498  1.00  0.00     0.014 A 
ATOM     29  C   UNL A   1      42.053  20.932  27.847  1.00  0.00     0.014 A 
ATOM     30  C   UNL A   1      42.708  22.763  25.843  1.00  0.00     0.010 A 
ATOM     31  C   UNL A   1      42.478  22.213  28.191  1.00  0.00     0.010 A 
ATOM     32  C   UNL A   1      42.809  23.142  27.192  1.00  0.00    -0.014 A 
BRANCH  32  33
ATOM     33  C   UNL A   1      43.250  24.510  27.567  1.00  0.00     0.031 A 
ATOM     34  C   UNL A   1      42.241  25.550  27.968  1.00  0.00     0.074 A 
ATOM     35  C   UNL A   1      44.557  24.830  27.504  1.00  0.00     0.049 A 
ATOM     36  N   UNL A   1      42.433  26.802  28.299  1.00  0.00    -0.248 NA
ATOM     37  C   UNL A   1      40.830  25.134  27.980  1.00  0.00     0.031 C 
ATOM     38  C   UNL A   1      45.630  23.924  27.088  1.00  0.00     0.029 A 
ATOM     39  N   UNL A   1      45.205  26.007  27.785  1.00  0.00    -0.354 N 
ATOM     40  C   UNL A   1      41.171  27.324  28.550  1.00  0.00     0.074 A 
ATOM     41  C   UNL A   1      40.217  26.270  28.282  1.00  0.00     0.031 C 
ATOM     42  C   UNL A   1      46.805  24.572  27.162  1.00  0.00     0.029 A 
ATOM     43  C   UNL A   1      46.566  25.946  27.595  1.00  0.00     0.049 A 
ATOM     44  H   UNL A   1      44.741  26.818  28.092  1.00  0.00     0.167 HD
ATOM     45  C   UNL A   1      40.837  28.563  28.985  1.00  0.00     0.037 A 
ATOM     46  C   UNL A   1      47.512  26.892  27.745  1.00  0.00     0.037 A 
ATOM     47  C   UNL A   1      41.788  29.606  29.267  1.00  0.00     0.049 A 
ATOM     48  C   UNL A   1      47.114  28.264  28.212  1.00  0.00     0.074 A 
ATOM     49  C   UNL A   1      41.552  30.875  29.768  1.00  0.00     0.029 A 
ATOM     50  N   UNL A   1      43.157  29.504  29.067  1.00  0.00    -0.354 N 
ATOM     51  N   UNL A   1      45.924  28.722  28.516  1.00  0.00    -0.248 NA
ATOM     52  C   UNL A   1      48.193  29.252  28.364  1.00  0.00     0.031 C 
ATOM     53  C   UNL A   1      42.771  31.558  29.822  1.00  0.00     0.029 A 
ATOM     54  C   UNL A   1      43.774  30.697  29.408  1.00  0.00     0.049 A 
ATOM     55  H   UNL A   1      43.621  28.704  28.732  1.00  0.00     0.167 HD
ATOM     56  C   UNL A   1      46.112  30.037  28.921  1.00  0.00     0.074 A 
ATOM     57  C   UNL A   1      47.534  30.300  28.836  1.00  0.00     0.031 C 
ATOM     58  C   UNL A   1      45.191  30.945  29.326  1.00  0.00     0.037 A 
BRANCH  45  59
ATOM     59  C   UNL A   1      39.379  28.857  29.184  1.00  0.00     0.057 A 
ATOM     60  C   UNL A   1      38.751  28.682  30.424  1.00  0.00     0.134 A 
ATOM     61  C   UNL A   1      38.601  29.357  28.132  1.00  0.00     0.134 A 
ATOM     62  F   UNL A   1      39.436  28.195  31.471  1.00  0.00    -0.206 F 
ATOM     63  C   UNL A   1      37.396  28.966  30.604  1.00  0.00     0.040 A 
ATOM     64  C   UNL A   1      37.252  29.672  28.306  1.00  0.00     0.040 A 
ATOM     65  F   UNL A   1      39.140  29.556  26.920  1.00  0.00    -0.206 F 
ATOM     66  C   UNL A   1      36.644  29.471  29.545  1.00  0.00     0.006 A 
ENDBRANCH  45  59
BRANCH  46  67
ATOM     67  C   UNL A   1      48.935  26.570  27.466  1.00  0.00     0.057 A 
ATOM     68  C   UNL A   1      49.786  26.111  28.478  1.00  0.00     0.134 A 
ATOM     69  C   UNL A   1      49.481  26.724  26.185  1.00  0.00     0.134 A 
ATOM     70  F   UNL A   1      49.326  25.962  29.729  1.00  0.00    -0.206 F 
ATOM     71  C   UNL A   1      51.133  25.837  28.234  1.00  0.00     0.040 A 
ATOM     72  C   UNL A   1      50.818  26.428  25.921  1.00  0.00     0.040 A 
ATOM     73  F   UNL A   1      48.716  27.153  25.170  1.00  0.00    -0.206 F 
ATOM     74  C   UNL A   1      51.650  25.991  26.950  1.00  0.00     0.006 A 
ENDBRANCH  46  67
BRANCH  58  75
ATOM     75  C   UNL A   1      45.693  32.297  29.743  1.00  0.00     0.057 A 
ATOM     76  C   UNL A   1      45.771  33.369  28.844  1.00  0.00     0.134 A 
ATOM     77  C   UNL A   1      46.065  32.539  31.072  1.00  0.00     0.134 A 
ATOM     78  F   UNL A   1      45.442  33.201  27.555  1.00  0.00    -0.206 F 
ATOM     79  C   UNL A   1      46.223  34.627  29.248  1.00  0.00     0.040 A 
ATOM     80  C   UNL A   1      46.491  33.799  31.493  1.00  0.00     0.040 A 
ATOM     81  F   UNL A   1      46.007  31.559  31.986  1.00  0.00    -0.206 F 
ATOM     82  C   UNL A   1      46.577  34.846  30.578  1.00  0.00     0.006 A 
ENDBRANCH  58  75
ENDBRANCH  32  33
ENDBRANCH  24  27
ENDBRANCH  22  23
ENDBRANCH  21  22
ENDBRANCH  20  21
ENDBRANCH   1  20
TORSDOF 16
ENDMDL
