MODEL 1
REMARK VINA RESULT:     -11.6      0.000      0.000
REMARK SMILES CCc1n[nH]c(C(=O)N[C@@]2(C(=O)NCCCCNC(=O)c3ccc(-c4c5nc(c(-c6c(F)cccc6F)c6ccc([nH]6)c(-c6c(F)cccc6F)c6nc(c(-c7c(F)cccc7F)c7ccc4[nH]7)C=C6)C=C5)cc3)CCCC[C@H]2C)n1
REMARK SMILES IDX 15 1 14 2 13 3 11 4 12 5 10 7 75 8 79 9 76 10 78 11 80 12
REMARK SMILES IDX 77 13 9 14 7 15 8 16 6 18 3 19 4 20 81 21 5 22 2 24 1 25
REMARK SMILES IDX 16 26 17 27 18 28 19 29 20 31 21 32 22 33 74 34 23 35 73 36
REMARK SMILES IDX 24 37 25 38 26 39 67 40 27 41 72 42 66 43 68 44 28 45 71 46
REMARK SMILES IDX 65 47 64 48 29 50 55 51 38 52 54 53 39 54 42 55 53 56 69 57
REMARK SMILES IDX 40 58 41 59 52 61 70 62 43 63 30 64 31 65 36 66 32 67 33 68
REMARK SMILES IDX 35 69 37 70 34 71 56 72 57 73 62 74 58 75 59 76 61 77 63 78
REMARK SMILES IDX 60 79 44 80 45 81 50 82 46 83 47 84 49 85 51 86 48 87
REMARK H PARENT 13 6 9 17 5 23 18 30 68 49 42 60
REMARK Flexibility Score: inf
ROOT
ATOM      1  C   UNL A   1      38.880  22.793  26.432  1.00  0.00     0.023 C 
ENDROOT
BRANCH   1   2
ATOM      2  C   UNL A   1      37.742  23.609  25.850  1.00  0.00     0.116 C 
BRANCH   2   3
ATOM      3  N   UNL A   1      37.510  23.408  24.427  1.00  0.00    -0.354 N 
ATOM      4  C   UNL A   1      36.340  23.144  23.753  1.00  0.00     0.246 C 
ATOM      5  O   UNL A   1      36.402  23.090  22.519  1.00  0.00    -0.272 OA
ATOM      6  H   UNL A   1      38.313  23.469  23.861  1.00  0.00     0.163 HD
BRANCH   4   7
ATOM      7  C   UNL A   1      35.003  22.795  24.516  1.00  0.00     0.122 C 
ATOM      8  C   UNL A   1      34.464  24.078  25.181  1.00  0.00     0.039 C 
ATOM      9  C   UNL A   1      35.416  21.662  25.527  1.00  0.00     0.021 C 
ATOM     10  C   UNL A   1      33.766  23.890  26.534  1.00  0.00     0.003 C 
ATOM     11  C   UNL A   1      34.396  21.478  26.644  1.00  0.00     0.006 C 
ATOM     12  C   UNL A   1      35.784  20.318  24.886  1.00  0.00     0.011 C 
ATOM     13  C   UNL A   1      34.284  22.779  27.424  1.00  0.00     0.000 C 
BRANCH   7  14
ATOM     14  N   UNL A   1      34.063  22.250  23.471  1.00  0.00    -0.335 N 
ATOM     15  C   UNL A   1      32.977  22.700  22.746  1.00  0.00     0.289 C 
ATOM     16  O   UNL A   1      32.185  21.837  22.355  1.00  0.00    -0.266 OA
ATOM     17  H   UNL A   1      34.284  21.318  23.242  1.00  0.00     0.165 HD
BRANCH  15  18
ATOM     18  C   UNL A   1      32.738  24.095  22.446  1.00  0.00     0.214 A 
ATOM     19  C   UNL A   1      32.920  26.183  22.069  1.00  0.00     0.151 A 
ATOM     20  N   UNL A   1      31.615  26.042  22.334  1.00  0.00    -0.158 NA
ATOM     21  N   UNL A   1      33.602  24.994  22.016  1.00  0.00    -0.207 NA
ATOM     22  N   UNL A   1      31.512  24.701  22.472  1.00  0.00    -0.255 N 
ATOM     23  H   UNL A   1      30.659  24.219  22.578  1.00  0.00     0.192 HD
BRANCH  19  24
ATOM     24  C   UNL A   1      33.686  27.466  22.107  1.00  0.00     0.076 C 
ATOM     25  C   UNL A   1      33.803  28.150  23.454  1.00  0.00     0.012 C 
ENDBRANCH  19  24
ENDBRANCH  15  18
ENDBRANCH   7  14
ENDBRANCH   4   7
ENDBRANCH   2   3
ENDBRANCH   1   2
BRANCH   1  26
ATOM     26  C   UNL A   1      39.201  21.519  25.672  1.00  0.00     0.023 C 
BRANCH  26  27
ATOM     27  C   UNL A   1      39.495  20.303  26.541  1.00  0.00     0.116 C 
BRANCH  27  28
ATOM     28  N   UNL A   1      40.563  19.454  26.029  1.00  0.00    -0.352 N 
ATOM     29  C   UNL A   1      41.908  19.727  25.939  1.00  0.00     0.251 C 
ATOM     30  H   UNL A   1      40.284  18.567  25.703  1.00  0.00     0.163 HD
ATOM     31  O   UNL A   1      42.674  18.941  25.390  1.00  0.00    -0.269 OA
BRANCH  29  32
ATOM     32  C   UNL A   1      42.411  21.006  26.476  1.00  0.00     0.039 A 
ATOM     33  C   UNL A   1      42.798  22.010  25.587  1.00  0.00     0.014 A 
ATOM     34  C   UNL A   1      42.412  21.238  27.854  1.00  0.00     0.014 A 
ATOM     35  C   UNL A   1      43.103  23.280  26.077  1.00  0.00     0.010 A 
ATOM     36  C   UNL A   1      42.625  22.524  28.331  1.00  0.00     0.010 A 
ATOM     37  C   UNL A   1      42.971  23.559  27.448  1.00  0.00    -0.014 A 
BRANCH  37  38
ATOM     38  C   UNL A   1      43.183  24.928  27.981  1.00  0.00     0.031 A 
ATOM     39  C   UNL A   1      44.561  25.365  28.395  1.00  0.00     0.074 A 
ATOM     40  C   UNL A   1      42.129  25.748  28.163  1.00  0.00     0.049 A 
ATOM     41  N   UNL A   1      44.940  26.488  28.951  1.00  0.00    -0.248 NA
ATOM     42  C   UNL A   1      45.653  24.402  28.182  1.00  0.00     0.031 C 
ATOM     43  C   UNL A   1      40.736  25.421  27.854  1.00  0.00     0.029 A 
ATOM     44  N   UNL A   1      42.067  27.024  28.664  1.00  0.00    -0.354 N 
ATOM     45  C   UNL A   1      46.305  26.358  29.168  1.00  0.00     0.074 A 
ATOM     46  C   UNL A   1      46.678  25.027  28.740  1.00  0.00     0.031 C 
ATOM     47  C   UNL A   1      39.960  26.478  28.145  1.00  0.00     0.029 A 
ATOM     48  C   UNL A   1      40.794  27.542  28.698  1.00  0.00     0.049 A 
ATOM     49  H   UNL A   1      42.858  27.523  28.968  1.00  0.00     0.167 HD
ATOM     50  C   UNL A   1      47.176  27.274  29.653  1.00  0.00     0.037 A 
ATOM     51  C   UNL A   1      40.349  28.736  29.132  1.00  0.00     0.037 A 
ATOM     52  C   UNL A   1      46.807  28.605  30.053  1.00  0.00     0.049 A 
ATOM     53  C   UNL A   1      41.336  29.734  29.672  1.00  0.00     0.074 A 
ATOM     54  C   UNL A   1      47.625  29.627  30.502  1.00  0.00     0.029 A 
ATOM     55  N   UNL A   1      45.511  29.098  30.055  1.00  0.00    -0.354 N 
ATOM     56  N   UNL A   1      42.635  29.624  29.805  1.00  0.00    -0.248 NA
ATOM     57  C   UNL A   1      40.794  31.026  30.118  1.00  0.00     0.031 C 
ATOM     58  C   UNL A   1      46.817  30.725  30.817  1.00  0.00     0.029 A 
ATOM     59  C   UNL A   1      45.504  30.403  30.516  1.00  0.00     0.049 A 
ATOM     60  H   UNL A   1      44.714  28.594  29.769  1.00  0.00     0.167 HD
ATOM     61  C   UNL A   1      43.070  30.839  30.319  1.00  0.00     0.074 A 
ATOM     62  C   UNL A   1      41.897  31.676  30.462  1.00  0.00     0.031 C 
ATOM     63  C   UNL A   1      44.328  31.226  30.642  1.00  0.00     0.037 A 
BRANCH  50  64
ATOM     64  C   UNL A   1      48.616  26.863  29.769  1.00  0.00     0.057 A 
ATOM     65  C   UNL A   1      49.107  26.208  30.906  1.00  0.00     0.134 A 
ATOM     66  C   UNL A   1      49.514  27.101  28.723  1.00  0.00     0.134 A 
ATOM     67  F   UNL A   1      48.301  25.962  31.951  1.00  0.00    -0.206 F 
ATOM     68  C   UNL A   1      50.447  25.829  31.010  1.00  0.00     0.040 A 
ATOM     69  C   UNL A   1      50.850  26.701  28.803  1.00  0.00     0.040 A 
ATOM     70  F   UNL A   1      49.110  27.720  27.603  1.00  0.00    -0.206 F 
ATOM     71  C   UNL A   1      51.320  26.069  29.952  1.00  0.00     0.006 A 
ENDBRANCH  50  64
BRANCH  51  72
ATOM     72  C   UNL A   1      38.903  29.069  29.050  1.00  0.00     0.057 A 
ATOM     73  C   UNL A   1      38.331  29.507  27.851  1.00  0.00     0.134 A 
ATOM     74  C   UNL A   1      38.064  28.968  30.166  1.00  0.00     0.134 A 
ATOM     75  F   UNL A   1      39.087  29.641  26.752  1.00  0.00    -0.206 F 
ATOM     76  C   UNL A   1      36.982  29.856  27.768  1.00  0.00     0.040 A 
ATOM     77  C   UNL A   1      36.708  29.289  30.092  1.00  0.00     0.040 A 
ATOM     78  F   UNL A   1      38.548  28.545  31.343  1.00  0.00    -0.206 F 
ATOM     79  C   UNL A   1      36.165  29.742  28.891  1.00  0.00     0.006 A 
ENDBRANCH  51  72
BRANCH  63  80
ATOM     80  C   UNL A   1      44.506  32.630  31.144  1.00  0.00     0.057 A 
ATOM     81  C   UNL A   1      44.723  33.706  30.274  1.00  0.00     0.134 A 
ATOM     82  C   UNL A   1      44.416  32.911  32.513  1.00  0.00     0.134 A 
ATOM     83  F   UNL A   1      44.831  33.501  28.953  1.00  0.00    -0.206 F 
ATOM     84  C   UNL A   1      44.867  35.010  30.751  1.00  0.00     0.040 A 
ATOM     85  C   UNL A   1      44.530  34.214  33.000  1.00  0.00     0.040 A 
ATOM     86  F   UNL A   1      44.200  31.928  33.398  1.00  0.00    -0.206 F 
ATOM     87  C   UNL A   1      44.762  35.267  32.118  1.00  0.00     0.006 A 
ENDBRANCH  63  80
ENDBRANCH  37  38
ENDBRANCH  29  32
ENDBRANCH  27  28
ENDBRANCH  26  27
ENDBRANCH   1  26
TORSDOF 14
ENDMDL
MODEL 2
REMARK VINA RESULT:     -11.5      1.614      2.301
REMARK SMILES CCc1n[nH]c(C(=O)N[C@@]2(C(=O)NCCCCNC(=O)c3ccc(-c4c5nc(c(-c6c(F)cccc6F)c6ccc([nH]6)c(-c6c(F)cccc6F)c6nc(c(-c7c(F)cccc7F)c7ccc4[nH]7)C=C6)C=C5)cc3)CCCC[C@H]2C)n1
REMARK SMILES IDX 15 1 14 2 13 3 11 4 12 5 10 7 75 8 79 9 76 10 78 11 80 12
REMARK SMILES IDX 77 13 9 14 7 15 8 16 6 18 3 19 4 20 81 21 5 22 2 24 1 25
REMARK SMILES IDX 16 26 17 27 18 28 19 29 20 31 21 32 22 33 74 34 23 35 73 36
REMARK SMILES IDX 24 37 25 38 26 39 67 40 27 41 72 42 66 43 68 44 28 45 71 46
REMARK SMILES IDX 65 47 64 48 29 50 55 51 38 52 54 53 39 54 42 55 53 56 69 57
REMARK SMILES IDX 40 58 41 59 52 61 70 62 43 63 30 64 31 65 36 66 32 67 33 68
REMARK SMILES IDX 35 69 37 70 34 71 56 72 57 73 62 74 58 75 59 76 61 77 63 78
REMARK SMILES IDX 60 79 44 80 45 81 50 82 46 83 47 84 49 85 51 86 48 87
REMARK H PARENT 13 6 9 17 5 23 18 30 68 49 42 60
REMARK Flexibility Score: inf
ROOT
ATOM      1  C   UNL A   1      36.810  21.174  24.934  1.00  0.00     0.023 C 
ENDROOT
BRANCH   1   2
ATOM      2  C   UNL A   1      35.358  20.761  25.091  1.00  0.00     0.116 C 
BRANCH   2   3
ATOM      3  N   UNL A   1      34.770  21.074  26.385  1.00  0.00    -0.354 N 
ATOM      4  C   UNL A   1      33.859  22.046  26.728  1.00  0.00     0.246 C 
ATOM      5  O   UNL A   1      33.457  22.053  27.898  1.00  0.00    -0.272 OA
ATOM      6  H   UNL A   1      35.070  20.503  27.128  1.00  0.00     0.163 HD
BRANCH   4   7
ATOM      7  C   UNL A   1      33.439  23.184  25.717  1.00  0.00     0.122 C 
ATOM      8  C   UNL A   1      34.520  24.284  25.735  1.00  0.00     0.039 C 
ATOM      9  C   UNL A   1      32.025  23.653  26.223  1.00  0.00     0.021 C 
ATOM     10  C   UNL A   1      34.019  25.722  25.553  1.00  0.00     0.003 C 
ATOM     11  C   UNL A   1      31.628  25.014  25.664  1.00  0.00     0.006 C 
ATOM     12  C   UNL A   1      30.897  22.630  26.046  1.00  0.00     0.011 C 
ATOM     13  C   UNL A   1      32.649  26.045  26.115  1.00  0.00     0.000 C 
BRANCH   7  14
ATOM     14  N   UNL A   1      33.321  22.516  24.371  1.00  0.00    -0.335 N 
ATOM     15  C   UNL A   1      32.823  22.826  23.121  1.00  0.00     0.289 C 
ATOM     16  O   UNL A   1      32.472  21.873  22.420  1.00  0.00    -0.266 OA
ATOM     17  H   UNL A   1      33.706  21.609  24.387  1.00  0.00     0.165 HD
BRANCH  15  18
ATOM     18  C   UNL A   1      32.694  24.180  22.626  1.00  0.00     0.214 A 
ATOM     19  C   UNL A   1      33.012  26.209  22.068  1.00  0.00     0.151 A 
ATOM     20  N   UNL A   1      31.676  26.107  22.067  1.00  0.00    -0.158 NA
ATOM     21  N   UNL A   1      33.654  25.018  22.291  1.00  0.00    -0.207 NA
ATOM     22  N   UNL A   1      31.507  24.792  22.327  1.00  0.00    -0.255 N 
ATOM     23  H   UNL A   1      30.637  24.330  22.304  1.00  0.00     0.192 HD
BRANCH  19  24
ATOM     24  C   UNL A   1      33.791  27.484  22.124  1.00  0.00     0.076 C 
ATOM     25  C   UNL A   1      33.340  28.514  23.139  1.00  0.00     0.012 C 
ENDBRANCH  19  24
ENDBRANCH  15  18
ENDBRANCH   7  14
ENDBRANCH   4   7
ENDBRANCH   2   3
ENDBRANCH   1   2
BRANCH   1  26
ATOM     26  C   UNL A   1      37.805  20.031  24.999  1.00  0.00     0.023 C 
BRANCH  26  27
ATOM     27  C   UNL A   1      39.071  20.319  25.797  1.00  0.00     0.116 C 
BRANCH  27  28
ATOM     28  N   UNL A   1      40.008  19.203  25.842  1.00  0.00    -0.352 N 
ATOM     29  C   UNL A   1      41.363  19.230  26.081  1.00  0.00     0.251 C 
ATOM     30  H   UNL A   1      39.620  18.313  25.679  1.00  0.00     0.163 HD
ATOM     31  O   UNL A   1      42.037  18.209  25.990  1.00  0.00    -0.269 OA
BRANCH  29  32
ATOM     32  C   UNL A   1      42.002  20.519  26.408  1.00  0.00     0.039 A 
ATOM     33  C   UNL A   1      42.390  21.366  25.368  1.00  0.00     0.014 A 
ATOM     34  C   UNL A   1      42.133  20.922  27.740  1.00  0.00     0.014 A 
ATOM     35  C   UNL A   1      42.828  22.657  25.664  1.00  0.00     0.010 A 
ATOM     36  C   UNL A   1      42.480  22.235  28.025  1.00  0.00     0.010 A 
ATOM     37  C   UNL A   1      42.829  23.118  26.991  1.00  0.00    -0.014 A 
BRANCH  37  38
ATOM     38  C   UNL A   1      43.186  24.520  27.322  1.00  0.00     0.031 A 
ATOM     39  C   UNL A   1      44.624  24.955  27.285  1.00  0.00     0.074 A 
ATOM     40  C   UNL A   1      42.228  25.378  27.727  1.00  0.00     0.049 A 
ATOM     41  N   UNL A   1      45.147  26.109  27.612  1.00  0.00    -0.248 NA
ATOM     42  C   UNL A   1      45.608  23.951  26.853  1.00  0.00     0.031 C 
ATOM     43  C   UNL A   1      40.805  25.061  27.859  1.00  0.00     0.029 A 
ATOM     44  N   UNL A   1      42.313  26.692  28.114  1.00  0.00    -0.354 N 
ATOM     45  C   UNL A   1      46.517  25.963  27.440  1.00  0.00     0.074 A 
ATOM     46  C   UNL A   1      46.751  24.593  27.039  1.00  0.00     0.031 C 
ATOM     47  C   UNL A   1      40.146  26.157  28.268  1.00  0.00     0.029 A 
ATOM     48  C   UNL A   1      41.103  27.242  28.466  1.00  0.00     0.049 A 
ATOM     49  H   UNL A   1      43.159  27.194  28.136  1.00  0.00     0.167 HD
ATOM     50  C   UNL A   1      47.491  26.894  27.575  1.00  0.00     0.037 A 
ATOM     51  C   UNL A   1      40.802  28.478  28.906  1.00  0.00     0.037 A 
ATOM     52  C   UNL A   1      47.253  28.263  27.949  1.00  0.00     0.049 A 
ATOM     53  C   UNL A   1      41.903  29.492  29.054  1.00  0.00     0.074 A 
ATOM     54  C   UNL A   1      48.165  29.298  28.056  1.00  0.00     0.029 A 
ATOM     55  N   UNL A   1      46.012  28.786  28.279  1.00  0.00    -0.354 N 
ATOM     56  N   UNL A   1      43.186  29.361  28.819  1.00  0.00    -0.248 NA
ATOM     57  C   UNL A   1      41.512  30.829  29.524  1.00  0.00     0.031 C 
ATOM     58  C   UNL A   1      47.483  30.437  28.494  1.00  0.00     0.029 A 
ATOM     59  C   UNL A   1      46.138  30.125  28.610  1.00  0.00     0.049 A 
ATOM     60  H   UNL A   1      45.167  28.280  28.278  1.00  0.00     0.167 HD
ATOM     61  C   UNL A   1      43.750  30.603  29.081  1.00  0.00     0.074 A 
ATOM     62  C   UNL A   1      42.668  31.478  29.482  1.00  0.00     0.031 C 
ATOM     63  C   UNL A   1      45.048  30.984  28.997  1.00  0.00     0.037 A 
BRANCH  50  64
ATOM     64  C   UNL A   1      48.904  26.459  27.310  1.00  0.00     0.057 A 
ATOM     65  C   UNL A   1      49.732  25.977  28.332  1.00  0.00     0.134 A 
ATOM     66  C   UNL A   1      49.431  26.496  26.014  1.00  0.00     0.134 A 
ATOM     67  F   UNL A   1      49.291  25.928  29.599  1.00  0.00    -0.206 F 
ATOM     68  C   UNL A   1      51.045  25.574  28.079  1.00  0.00     0.040 A 
ATOM     69  C   UNL A   1      50.733  26.069  25.744  1.00  0.00     0.040 A 
ATOM     70  F   UNL A   1      48.692  26.943  24.988  1.00  0.00    -0.206 F 
ATOM     71  C   UNL A   1      51.546  25.613  26.781  1.00  0.00     0.006 A 
ENDBRANCH  50  64
BRANCH  51  72
ATOM     72  C   UNL A   1      39.394  28.839  29.213  1.00  0.00     0.057 A 
ATOM     73  C   UNL A   1      38.859  28.632  30.489  1.00  0.00     0.134 A 
ATOM     74  C   UNL A   1      38.549  29.386  28.240  1.00  0.00     0.134 A 
ATOM     75  F   UNL A   1      39.613  28.094  31.458  1.00  0.00    -0.206 F 
ATOM     76  C   UNL A   1      37.528  28.935  30.782  1.00  0.00     0.040 A 
ATOM     77  C   UNL A   1      37.224  29.718  28.527  1.00  0.00     0.040 A 
ATOM     78  F   UNL A   1      39.003  29.618  27.000  1.00  0.00    -0.206 F 
ATOM     79  C   UNL A   1      36.708  29.484  29.800  1.00  0.00     0.006 A 
ENDBRANCH  51  72
BRANCH  63  80
ATOM     80  C   UNL A   1      45.364  32.419  29.304  1.00  0.00     0.057 A 
ATOM     81  C   UNL A   1      45.299  33.419  28.325  1.00  0.00     0.134 A 
ATOM     82  C   UNL A   1      45.693  32.810  30.609  1.00  0.00     0.134 A 
ATOM     83  F   UNL A   1      45.002  33.108  27.055  1.00  0.00    -0.206 F 
ATOM     84  C   UNL A   1      45.575  34.753  28.628  1.00  0.00     0.040 A 
ATOM     85  C   UNL A   1      45.943  34.144  30.930  1.00  0.00     0.040 A 
ATOM     86  F   UNL A   1      45.761  31.903  31.595  1.00  0.00    -0.206 F 
ATOM     87  C   UNL A   1      45.890  35.120  29.936  1.00  0.00     0.006 A 
ENDBRANCH  63  80
ENDBRANCH  37  38
ENDBRANCH  29  32
ENDBRANCH  27  28
ENDBRANCH  26  27
ENDBRANCH   1  26
TORSDOF 14
ENDMDL
MODEL 3
REMARK VINA RESULT:     -11.5      1.582      2.319
REMARK SMILES CCc1n[nH]c(C(=O)N[C@@]2(C(=O)NCCCCNC(=O)c3ccc(-c4c5nc(c(-c6c(F)cccc6F)c6ccc([nH]6)c(-c6c(F)cccc6F)c6nc(c(-c7c(F)cccc7F)c7ccc4[nH]7)C=C6)C=C5)cc3)CCCC[C@H]2C)n1
REMARK SMILES IDX 15 1 14 2 13 3 11 4 12 5 10 7 75 8 79 9 76 10 78 11 80 12
REMARK SMILES IDX 77 13 9 14 7 15 8 16 6 18 3 19 4 20 81 21 5 22 2 24 1 25
REMARK SMILES IDX 16 26 17 27 18 28 19 29 20 31 21 32 22 33 74 34 23 35 73 36
REMARK SMILES IDX 24 37 25 38 26 39 67 40 27 41 72 42 66 43 68 44 28 45 71 46
REMARK SMILES IDX 65 47 64 48 29 50 55 51 38 52 54 53 39 54 42 55 53 56 69 57
REMARK SMILES IDX 40 58 41 59 52 61 70 62 43 63 30 64 31 65 36 66 32 67 33 68
REMARK SMILES IDX 35 69 37 70 34 71 56 72 57 73 62 74 58 75 59 76 61 77 63 78
REMARK SMILES IDX 60 79 44 80 45 81 50 82 46 83 47 84 49 85 51 86 48 87
REMARK H PARENT 13 6 9 17 5 23 18 30 68 49 42 60
REMARK Flexibility Score: inf
ROOT
ATOM      1  C   UNL A   1      36.791  19.833  24.999  1.00  0.00     0.023 C 
ENDROOT
BRANCH   1   2
ATOM      2  C   UNL A   1      35.523  20.599  24.674  1.00  0.00     0.116 C 
BRANCH   2   3
ATOM      3  N   UNL A   1      34.289  19.932  25.062  1.00  0.00    -0.354 N 
ATOM      4  C   UNL A   1      33.046  20.459  25.326  1.00  0.00     0.246 C 
ATOM      5  O   UNL A   1      32.134  19.659  25.564  1.00  0.00    -0.272 OA
ATOM      6  H   UNL A   1      34.353  18.953  25.148  1.00  0.00     0.163 HD
BRANCH   4   7
ATOM      7  C   UNL A   1      32.816  22.016  25.452  1.00  0.00     0.122 C 
ATOM      8  C   UNL A   1      32.798  22.630  24.037  1.00  0.00     0.039 C 
ATOM      9  C   UNL A   1      34.000  22.513  26.362  1.00  0.00     0.021 C 
ATOM     10  C   UNL A   1      33.401  24.034  23.906  1.00  0.00     0.003 C 
ATOM     11  C   UNL A   1      34.218  24.018  26.265  1.00  0.00     0.006 C 
ATOM     12  C   UNL A   1      33.935  22.056  27.825  1.00  0.00     0.011 C 
ATOM     13  C   UNL A   1      34.558  24.371  24.825  1.00  0.00     0.000 C 
BRANCH   7  14
ATOM     14  N   UNL A   1      31.498  22.181  26.167  1.00  0.00    -0.335 N 
ATOM     15  C   UNL A   1      30.720  23.219  26.638  1.00  0.00     0.289 C 
ATOM     16  O   UNL A   1      29.964  22.953  27.578  1.00  0.00    -0.266 OA
ATOM     17  H   UNL A   1      31.078  21.309  26.345  1.00  0.00     0.165 HD
BRANCH  15  18
ATOM     18  C   UNL A   1      30.763  24.560  26.097  1.00  0.00     0.214 A 
ATOM     19  C   UNL A   1      31.061  26.643  25.771  1.00  0.00     0.151 A 
ATOM     20  N   UNL A   1      30.136  26.329  24.855  1.00  0.00    -0.158 NA
ATOM     21  N   UNL A   1      31.544  25.559  26.460  1.00  0.00    -0.207 NA
ATOM     22  N   UNL A   1      30.040  24.991  25.019  1.00  0.00    -0.255 N 
ATOM     23  H   UNL A   1      29.513  24.398  24.434  1.00  0.00     0.192 HD
BRANCH  19  24
ATOM     24  C   UNL A   1      31.376  28.020  26.260  1.00  0.00     0.076 C 
ATOM     25  C   UNL A   1      31.474  28.205  27.761  1.00  0.00     0.012 C 
ENDBRANCH  19  24
ENDBRANCH  15  18
ENDBRANCH   7  14
ENDBRANCH   4   7
ENDBRANCH   2   3
ENDBRANCH   1   2
BRANCH   1  26
ATOM     26  C   UNL A   1      38.069  20.645  24.893  1.00  0.00     0.023 C 
BRANCH  26  27
ATOM     27  C   UNL A   1      39.027  20.500  26.069  1.00  0.00     0.116 C 
BRANCH  27  28
ATOM     28  N   UNL A   1      40.059  19.489  25.869  1.00  0.00    -0.352 N 
ATOM     29  C   UNL A   1      41.418  19.605  26.040  1.00  0.00     0.251 C 
ATOM     30  H   UNL A   1      39.739  18.606  25.572  1.00  0.00     0.163 HD
ATOM     31  O   UNL A   1      42.171  18.684  25.736  1.00  0.00    -0.269 OA
BRANCH  29  32
ATOM     32  C   UNL A   1      41.964  20.875  26.555  1.00  0.00     0.039 A 
ATOM     33  C   UNL A   1      42.357  21.862  25.649  1.00  0.00     0.014 A 
ATOM     34  C   UNL A   1      42.002  21.118  27.931  1.00  0.00     0.014 A 
ATOM     35  C   UNL A   1      42.704  23.127  26.122  1.00  0.00     0.010 A 
ATOM     36  C   UNL A   1      42.257  22.402  28.391  1.00  0.00     0.010 A 
ATOM     37  C   UNL A   1      42.608  23.421  27.493  1.00  0.00    -0.014 A 
BRANCH  37  38
ATOM     38  C   UNL A   1      42.866  24.789  28.009  1.00  0.00     0.031 A 
ATOM     39  C   UNL A   1      44.257  25.185  28.419  1.00  0.00     0.074 A 
ATOM     40  C   UNL A   1      41.840  25.646  28.179  1.00  0.00     0.049 A 
ATOM     41  N   UNL A   1      44.673  26.300  28.962  1.00  0.00    -0.248 NA
ATOM     42  C   UNL A   1      45.316  24.183  28.220  1.00  0.00     0.031 C 
ATOM     43  C   UNL A   1      40.437  25.362  27.871  1.00  0.00     0.029 A 
ATOM     44  N   UNL A   1      41.820  26.929  28.664  1.00  0.00    -0.354 N 
ATOM     45  C   UNL A   1      46.033  26.127  29.183  1.00  0.00     0.074 A 
ATOM     46  C   UNL A   1      46.361  24.779  28.772  1.00  0.00     0.031 C 
ATOM     47  C   UNL A   1      39.697  26.448  28.148  1.00  0.00     0.029 A 
ATOM     48  C   UNL A   1      40.565  27.490  28.689  1.00  0.00     0.049 A 
ATOM     49  H   UNL A   1      42.628  27.405  28.963  1.00  0.00     0.167 HD
ATOM     50  C   UNL A   1      46.934  27.019  29.658  1.00  0.00     0.037 A 
ATOM     51  C   UNL A   1      40.160  28.704  29.108  1.00  0.00     0.037 A 
ATOM     52  C   UNL A   1      46.609  28.368  30.041  1.00  0.00     0.049 A 
ATOM     53  C   UNL A   1      41.180  29.675  29.637  1.00  0.00     0.074 A 
ATOM     54  C   UNL A   1      47.460  29.367  30.478  1.00  0.00     0.029 A 
ATOM     55  N   UNL A   1      45.331  28.903  30.034  1.00  0.00    -0.354 N 
ATOM     56  N   UNL A   1      42.474  29.523  29.774  1.00  0.00    -0.248 NA
ATOM     57  C   UNL A   1      40.681  30.989  30.066  1.00  0.00     0.031 C 
ATOM     58  C   UNL A   1      46.690  30.495  30.779  1.00  0.00     0.029 A 
ATOM     59  C   UNL A   1      45.366  30.214  30.480  1.00  0.00     0.049 A 
ATOM     60  H   UNL A   1      44.518  28.423  29.754  1.00  0.00     0.167 HD
ATOM     61  C   UNL A   1      42.949  30.729  30.273  1.00  0.00     0.074 A 
ATOM     62  C   UNL A   1      41.805  31.606  30.404  1.00  0.00     0.031 C 
ATOM     63  C   UNL A   1      44.219  31.078  30.594  1.00  0.00     0.037 A 
BRANCH  50  64
ATOM     64  C   UNL A   1      48.359  26.562  29.782  1.00  0.00     0.057 A 
ATOM     65  C   UNL A   1      49.298  26.789  28.766  1.00  0.00     0.134 A 
ATOM     66  C   UNL A   1      48.803  25.913  30.939  1.00  0.00     0.134 A 
ATOM     67  F   UNL A   1      48.932  27.394  27.625  1.00  0.00    -0.206 F 
ATOM     68  C   UNL A   1      50.621  26.361  28.886  1.00  0.00     0.040 A 
ATOM     69  C   UNL A   1      50.132  25.506  31.082  1.00  0.00     0.040 A 
ATOM     70  F   UNL A   1      47.959  25.667  31.952  1.00  0.00    -0.206 F 
ATOM     71  C   UNL A   1      51.042  25.724  30.051  1.00  0.00     0.006 A 
ENDBRANCH  50  64
BRANCH  51  72
ATOM     72  C   UNL A   1      38.727  29.084  29.020  1.00  0.00     0.057 A 
ATOM     73  C   UNL A   1      38.176  29.546  27.820  1.00  0.00     0.134 A 
ATOM     74  C   UNL A   1      37.879  29.006  30.131  1.00  0.00     0.134 A 
ATOM     75  F   UNL A   1      38.942  29.660  26.725  1.00  0.00    -0.206 F 
ATOM     76  C   UNL A   1      36.839  29.939  27.731  1.00  0.00     0.040 A 
ATOM     77  C   UNL A   1      36.534  29.371  30.051  1.00  0.00     0.040 A 
ATOM     78  F   UNL A   1      38.342  28.563  31.309  1.00  0.00    -0.206 F 
ATOM     79  C   UNL A   1      36.012  29.847  28.849  1.00  0.00     0.006 A 
ENDBRANCH  51  72
BRANCH  63  80
ATOM     80  C   UNL A   1      44.444  32.480  31.078  1.00  0.00     0.057 A 
ATOM     81  C   UNL A   1      44.690  33.540  30.195  1.00  0.00     0.134 A 
ATOM     82  C   UNL A   1      44.370  32.780  32.445  1.00  0.00     0.134 A 
ATOM     83  F   UNL A   1      44.785  33.316  28.876  1.00  0.00    -0.206 F 
ATOM     84  C   UNL A   1      44.877  34.843  30.657  1.00  0.00     0.040 A 
ATOM     85  C   UNL A   1      44.527  34.084  32.915  1.00  0.00     0.040 A 
ATOM     86  F   UNL A   1      44.127  31.814  33.342  1.00  0.00    -0.206 F 
ATOM     87  C   UNL A   1      44.788  35.119  32.020  1.00  0.00     0.006 A 
ENDBRANCH  63  80
ENDBRANCH  37  38
ENDBRANCH  29  32
ENDBRANCH  27  28
ENDBRANCH  26  27
ENDBRANCH   1  26
TORSDOF 14
ENDMDL
