MODEL 1
REMARK VINA RESULT:     -11.5      0.000      0.000
REMARK SMILES Cc1cccc(S(=O)(=O)N[C@@H](CCC(N)=O)C(=O)NCCCCNC(=O)c2ccc(-c3c4nc(c(-c5c(F)cccc5F)c5ccc([nH]5)c(-c5c(F)cccc5F)c5nc(c(-c6c(F)cccc6F)c6ccc3[nH]6)C=C5)C=C4)cc2)c1
REMARK SMILES IDX 21 1 20 2 19 3 17 4 18 5 11 7 10 8 7 10 8 11 9 12 6 13 1 14
REMARK SMILES IDX 2 15 3 16 81 17 4 18 5 19 12 20 13 21 14 22 15 23 16 24
REMARK SMILES IDX 22 27 23 28 24 29 25 30 26 32 27 33 28 34 80 35 29 36 79 37
REMARK SMILES IDX 30 38 31 39 32 40 73 41 33 42 78 43 72 44 74 45 34 46 77 47
REMARK SMILES IDX 71 48 70 49 35 51 61 52 44 53 60 54 45 55 48 56 59 57 75 58
REMARK SMILES IDX 46 59 47 60 58 62 76 63 49 64 36 65 37 66 42 67 38 68 39 69
REMARK SMILES IDX 41 70 43 71 40 72 62 73 63 74 68 75 64 76 65 77 67 78 69 79
REMARK SMILES IDX 66 80 50 81 51 82 56 83 52 84 53 85 55 86 57 87 54 88
REMARK H PARENT 19 6 10 9 15 25 15 26 24 31 74 50 48 61
REMARK Flexibility Score: inf
ROOT
ATOM      1  C   UNL A   1      32.376  30.666  26.856  1.00  0.00     0.023 C 
ENDROOT
BRANCH   1   2
ATOM      2  C   UNL A   1      32.016  29.787  25.655  1.00  0.00     0.116 C 
BRANCH   2   3
ATOM      3  N   UNL A   1      33.083  29.698  24.667  1.00  0.00    -0.355 N 
ATOM      4  C   UNL A   1      33.506  28.660  23.881  1.00  0.00     0.238 C 
ATOM      5  O   UNL A   1      34.446  28.882  23.110  1.00  0.00    -0.273 OA
ATOM      6  H   UNL A   1      33.590  30.533  24.543  1.00  0.00     0.163 HD
BRANCH   4   7
ATOM      7  C   UNL A   1      32.940  27.231  24.033  1.00  0.00     0.159 C 
BRANCH   7   8
ATOM      8  N   UNL A   1      33.456  26.468  22.877  1.00  0.00    -0.199 NA
ATOM      9  H   UNL A   1      33.471  27.136  22.106  1.00  0.00     0.142 HD
BRANCH   8  10
ATOM     10  S   UNL A   1      32.810  25.081  22.233  1.00  0.00     0.241 S 
ATOM     11  O   UNL A   1      33.255  24.993  20.852  1.00  0.00    -0.207 OA
ATOM     12  O   UNL A   1      31.411  25.130  22.564  1.00  0.00    -0.207 OA
BRANCH  10  13
ATOM     13  C   UNL A   1      33.502  23.707  23.113  1.00  0.00     0.082 A 
ATOM     14  C   UNL A   1      36.843  22.411  24.381  1.00  0.00     0.044 C 
ATOM     15  C   UNL A   1      35.376  22.513  24.078  1.00  0.00    -0.050 A 
ATOM     16  C   UNL A   1      34.530  21.427  24.336  1.00  0.00     0.003 A 
ATOM     17  C   UNL A   1      34.840  23.679  23.517  1.00  0.00     0.025 A 
ATOM     18  C   UNL A   1      33.177  21.486  24.002  1.00  0.00     0.002 A 
ATOM     19  C   UNL A   1      32.666  22.617  23.368  1.00  0.00     0.022 A 
ENDBRANCH  10  13
ENDBRANCH   8  10
ENDBRANCH   7   8
BRANCH   7  20
ATOM     20  C   UNL A   1      33.030  26.564  25.408  1.00  0.00     0.040 C 
BRANCH  20  21
ATOM     21  C   UNL A   1      31.774  26.425  26.258  1.00  0.00     0.102 C 
BRANCH  21  22
ATOM     22  C   UNL A   1      31.264  25.002  26.309  1.00  0.00     0.217 C 
ATOM     23  N   UNL A   1      30.436  24.664  25.293  1.00  0.00    -0.370 N 
ATOM     24  O   UNL A   1      31.556  24.185  27.172  1.00  0.00    -0.275 OA
ATOM     25  H   UNL A   1      30.208  25.328  24.604  1.00  0.00     0.159 HD
ATOM     26  H   UNL A   1      30.064  23.754  25.244  1.00  0.00     0.159 HD
ENDBRANCH  21  22
ENDBRANCH  20  21
ENDBRANCH   7  20
ENDBRANCH   4   7
ENDBRANCH   2   3
ENDBRANCH   1   2
BRANCH   1  27
ATOM     27  C   UNL A   1      33.709  30.342  27.526  1.00  0.00     0.023 C 
BRANCH  27  28
ATOM     28  C   UNL A   1      34.723  31.475  27.522  1.00  0.00     0.116 C 
BRANCH  28  29
ATOM     29  N   UNL A   1      35.169  31.909  28.839  1.00  0.00    -0.352 N 
ATOM     30  C   UNL A   1      36.047  31.311  29.724  1.00  0.00     0.251 C 
ATOM     31  H   UNL A   1      34.785  32.763  29.146  1.00  0.00     0.163 HD
ATOM     32  O   UNL A   1      36.225  31.822  30.829  1.00  0.00    -0.269 OA
BRANCH  30  33
ATOM     33  C   UNL A   1      36.910  30.174  29.303  1.00  0.00     0.039 A 
ATOM     34  C   UNL A   1      37.007  29.077  30.176  1.00  0.00     0.014 A 
ATOM     35  C   UNL A   1      37.796  30.279  28.240  1.00  0.00     0.014 A 
ATOM     36  C   UNL A   1      38.151  28.287  30.161  1.00  0.00     0.010 A 
ATOM     37  C   UNL A   1      38.985  29.599  28.301  1.00  0.00     0.010 A 
ATOM     38  C   UNL A   1      39.182  28.654  29.303  1.00  0.00    -0.014 A 
BRANCH  38  39
ATOM     39  C   UNL A   1      40.541  28.174  29.413  1.00  0.00     0.031 A 
ATOM     40  C   UNL A   1      40.905  26.901  28.790  1.00  0.00     0.074 A 
ATOM     41  C   UNL A   1      41.475  28.983  29.957  1.00  0.00     0.049 A 
ATOM     42  N   UNL A   1      41.868  26.159  29.208  1.00  0.00    -0.248 NA
ATOM     43  C   UNL A   1      40.183  26.344  27.653  1.00  0.00     0.031 C 
ATOM     44  C   UNL A   1      42.925  28.843  29.914  1.00  0.00     0.029 A 
ATOM     45  N   UNL A   1      41.263  30.034  30.850  1.00  0.00    -0.354 N 
ATOM     46  C   UNL A   1      42.104  25.233  28.223  1.00  0.00     0.074 A 
ATOM     47  C   UNL A   1      40.970  25.316  27.331  1.00  0.00     0.031 C 
ATOM     48  C   UNL A   1      43.449  29.529  30.944  1.00  0.00     0.029 A 
ATOM     49  C   UNL A   1      42.335  30.000  31.753  1.00  0.00     0.049 A 
ATOM     50  H   UNL A   1      40.512  30.670  30.847  1.00  0.00     0.167 HD
ATOM     51  C   UNL A   1      43.320  24.625  28.161  1.00  0.00     0.037 A 
ATOM     52  C   UNL A   1      42.175  29.791  33.090  1.00  0.00     0.037 A 
ATOM     53  C   UNL A   1      44.205  25.115  29.216  1.00  0.00     0.049 A 
ATOM     54  C   UNL A   1      42.923  28.557  33.548  1.00  0.00     0.074 A 
ATOM     55  C   UNL A   1      45.207  26.073  29.226  1.00  0.00     0.029 A 
ATOM     56  N   UNL A   1      43.874  24.889  30.549  1.00  0.00    -0.354 N 
ATOM     57  N   UNL A   1      43.302  27.595  32.750  1.00  0.00    -0.248 NA
ATOM     58  C   UNL A   1      43.311  28.317  34.930  1.00  0.00     0.031 C 
ATOM     59  C   UNL A   1      45.475  26.424  30.573  1.00  0.00     0.029 A 
ATOM     60  C   UNL A   1      44.645  25.673  31.387  1.00  0.00     0.049 A 
ATOM     61  H   UNL A   1      43.184  24.256  30.854  1.00  0.00     0.167 HD
ATOM     62  C   UNL A   1      44.005  26.647  33.457  1.00  0.00     0.074 A 
ATOM     63  C   UNL A   1      43.978  27.154  34.818  1.00  0.00     0.031 C 
ATOM     64  C   UNL A   1      44.543  25.547  32.838  1.00  0.00     0.037 A 
BRANCH  51  65
ATOM     65  C   UNL A   1      43.762  23.866  26.940  1.00  0.00     0.057 A 
ATOM     66  C   UNL A   1      44.471  24.493  25.899  1.00  0.00     0.134 A 
ATOM     67  C   UNL A   1      43.472  22.508  26.720  1.00  0.00     0.134 A 
ATOM     68  F   UNL A   1      44.891  25.760  25.993  1.00  0.00    -0.206 F 
ATOM     69  C   UNL A   1      44.775  23.850  24.693  1.00  0.00     0.040 A 
ATOM     70  C   UNL A   1      43.727  21.864  25.500  1.00  0.00     0.040 A 
ATOM     71  F   UNL A   1      42.945  21.746  27.690  1.00  0.00    -0.206 F 
ATOM     72  C   UNL A   1      44.372  22.541  24.475  1.00  0.00     0.006 A 
ENDBRANCH  51  65
BRANCH  52  73
ATOM     73  C   UNL A   1      40.860  30.266  33.606  1.00  0.00     0.057 A 
ATOM     74  C   UNL A   1      40.718  31.643  33.871  1.00  0.00     0.134 A 
ATOM     75  C   UNL A   1      39.687  29.537  33.386  1.00  0.00     0.134 A 
ATOM     76  F   UNL A   1      41.805  32.403  34.081  1.00  0.00    -0.206 F 
ATOM     77  C   UNL A   1      39.486  32.294  33.760  1.00  0.00     0.040 A 
ATOM     78  C   UNL A   1      38.445  30.178  33.292  1.00  0.00     0.040 A 
ATOM     79  F   UNL A   1      39.742  28.232  33.092  1.00  0.00    -0.206 F 
ATOM     80  C   UNL A   1      38.349  31.564  33.428  1.00  0.00     0.006 A 
ENDBRANCH  52  73
BRANCH  64  81
ATOM     81  C   UNL A   1      45.119  24.282  33.467  1.00  0.00     0.057 A 
ATOM     82  C   UNL A   1      46.423  24.130  33.954  1.00  0.00     0.134 A 
ATOM     83  C   UNL A   1      44.281  23.160  33.721  1.00  0.00     0.134 A 
ATOM     84  F   UNL A   1      47.330  25.107  33.883  1.00  0.00    -0.206 F 
ATOM     85  C   UNL A   1      46.865  22.963  34.601  1.00  0.00     0.040 A 
ATOM     86  C   UNL A   1      44.692  22.021  34.420  1.00  0.00     0.040 A 
ATOM     87  F   UNL A   1      43.003  23.109  33.322  1.00  0.00    -0.206 F 
ATOM     88  C   UNL A   1      45.996  21.913  34.856  1.00  0.00     0.006 A 
ENDBRANCH  64  81
ENDBRANCH  38  39
ENDBRANCH  30  33
ENDBRANCH  28  29
ENDBRANCH  27  28
ENDBRANCH   1  27
TORSDOF 17
ENDMDL
MODEL 2
REMARK VINA RESULT:     -11.5      2.252      3.693
REMARK SMILES Cc1cccc(S(=O)(=O)N[C@@H](CCC(N)=O)C(=O)NCCCCNC(=O)c2ccc(-c3c4nc(c(-c5c(F)cccc5F)c5ccc([nH]5)c(-c5c(F)cccc5F)c5nc(c(-c6c(F)cccc6F)c6ccc3[nH]6)C=C5)C=C4)cc2)c1
REMARK SMILES IDX 21 1 20 2 19 3 17 4 18 5 11 7 10 8 7 10 8 11 9 12 6 13 1 14
REMARK SMILES IDX 2 15 3 16 81 17 4 18 5 19 12 20 13 21 14 22 15 23 16 24
REMARK SMILES IDX 22 27 23 28 24 29 25 30 26 32 27 33 28 34 80 35 29 36 79 37
REMARK SMILES IDX 30 38 31 39 32 40 73 41 33 42 78 43 72 44 74 45 34 46 77 47
REMARK SMILES IDX 71 48 70 49 35 51 61 52 44 53 60 54 45 55 48 56 59 57 75 58
REMARK SMILES IDX 46 59 47 60 58 62 76 63 49 64 36 65 37 66 42 67 38 68 39 69
REMARK SMILES IDX 41 70 43 71 40 72 62 73 63 74 68 75 64 76 65 77 67 78 69 79
REMARK SMILES IDX 66 80 50 81 51 82 56 83 52 84 53 85 55 86 57 87 54 88
REMARK H PARENT 19 6 10 9 15 25 15 26 24 31 74 50 48 61
REMARK Flexibility Score: inf
ROOT
ATOM      1  C   UNL A   1      34.410  29.210  26.957  1.00  0.00     0.023 C 
ENDROOT
BRANCH   1   2
ATOM      2  C   UNL A   1      33.085  29.641  26.324  1.00  0.00     0.116 C 
BRANCH   2   3
ATOM      3  N   UNL A   1      33.135  29.701  24.869  1.00  0.00    -0.355 N 
ATOM      4  C   UNL A   1      33.023  28.724  23.917  1.00  0.00     0.238 C 
ATOM      5  O   UNL A   1      33.093  29.075  22.734  1.00  0.00    -0.273 OA
ATOM      6  H   UNL A   1      33.274  30.606  24.506  1.00  0.00     0.163 HD
BRANCH   4   7
ATOM      7  C   UNL A   1      32.951  27.225  24.284  1.00  0.00     0.159 C 
BRANCH   7   8
ATOM      8  N   UNL A   1      31.516  26.925  24.471  1.00  0.00    -0.199 NA
ATOM      9  H   UNL A   1      31.053  27.834  24.457  1.00  0.00     0.142 HD
BRANCH   8  10
ATOM     10  S   UNL A   1      30.829  26.112  25.746  1.00  0.00     0.241 S 
ATOM     11  O   UNL A   1      29.423  25.919  25.432  1.00  0.00    -0.207 OA
ATOM     12  O   UNL A   1      31.239  26.837  26.918  1.00  0.00    -0.207 OA
BRANCH  10  13
ATOM     13  C   UNL A   1      31.587  24.513  25.835  1.00  0.00     0.082 A 
ATOM     14  C   UNL A   1      34.845  22.857  26.878  1.00  0.00     0.044 C 
ATOM     15  C   UNL A   1      33.451  23.057  26.361  1.00  0.00    -0.050 A 
ATOM     16  C   UNL A   1      32.765  21.991  25.765  1.00  0.00     0.003 A 
ATOM     17  C   UNL A   1      32.828  24.308  26.445  1.00  0.00     0.025 A 
ATOM     18  C   UNL A   1      31.492  22.179  25.224  1.00  0.00     0.002 A 
ATOM     19  C   UNL A   1      30.911  23.445  25.236  1.00  0.00     0.022 A 
ENDBRANCH  10  13
ENDBRANCH   8  10
ENDBRANCH   7   8
BRANCH   7  20
ATOM     20  C   UNL A   1      33.768  26.238  23.445  1.00  0.00     0.040 C 
BRANCH  20  21
ATOM     21  C   UNL A   1      33.049  25.189  22.609  1.00  0.00     0.102 C 
BRANCH  21  22
ATOM     22  C   UNL A   1      32.642  25.713  21.249  1.00  0.00     0.217 C 
ATOM     23  N   UNL A   1      31.679  26.663  21.276  1.00  0.00    -0.370 N 
ATOM     24  O   UNL A   1      33.123  25.345  20.186  1.00  0.00    -0.275 OA
ATOM     25  H   UNL A   1      31.298  26.952  22.136  1.00  0.00     0.159 HD
ATOM     26  H   UNL A   1      31.360  27.065  20.436  1.00  0.00     0.159 HD
ENDBRANCH  21  22
ENDBRANCH  20  21
ENDBRANCH   7  20
ENDBRANCH   4   7
ENDBRANCH   2   3
ENDBRANCH   1   2
BRANCH   1  27
ATOM     27  C   UNL A   1      34.942  30.132  28.050  1.00  0.00     0.023 C 
BRANCH  27  28
ATOM     28  C   UNL A   1      35.169  31.574  27.622  1.00  0.00     0.116 C 
BRANCH  28  29
ATOM     29  N   UNL A   1      34.319  32.555  28.281  1.00  0.00    -0.352 N 
ATOM     30  C   UNL A   1      34.495  33.227  29.477  1.00  0.00     0.251 C 
ATOM     31  H   UNL A   1      33.489  32.776  27.798  1.00  0.00     0.163 HD
ATOM     32  O   UNL A   1      33.602  33.967  29.886  1.00  0.00    -0.269 OA
BRANCH  30  33
ATOM     33  C   UNL A   1      35.805  33.212  30.183  1.00  0.00     0.039 A 
ATOM     34  C   UNL A   1      36.882  33.868  29.563  1.00  0.00     0.014 A 
ATOM     35  C   UNL A   1      36.047  32.374  31.263  1.00  0.00     0.014 A 
ATOM     36  C   UNL A   1      38.182  33.447  29.821  1.00  0.00     0.010 A 
ATOM     37  C   UNL A   1      37.306  31.857  31.428  1.00  0.00     0.010 A 
ATOM     38  C   UNL A   1      38.355  32.350  30.657  1.00  0.00    -0.014 A 
BRANCH  38  39
ATOM     39  C   UNL A   1      39.575  31.580  30.745  1.00  0.00     0.031 A 
ATOM     40  C   UNL A   1      39.702  30.344  29.971  1.00  0.00     0.074 A 
ATOM     41  C   UNL A   1      40.623  32.096  31.421  1.00  0.00     0.049 A 
ATOM     42  N   UNL A   1      40.463  29.368  30.318  1.00  0.00    -0.248 NA
ATOM     43  C   UNL A   1      38.948  30.099  28.748  1.00  0.00     0.031 C 
ATOM     44  C   UNL A   1      42.012  31.656  31.407  1.00  0.00     0.029 A 
ATOM     45  N   UNL A   1      40.582  33.051  32.438  1.00  0.00    -0.354 N 
ATOM     46  C   UNL A   1      40.559  28.541  29.227  1.00  0.00     0.074 A 
ATOM     47  C   UNL A   1      39.522  28.973  28.318  1.00  0.00     0.031 C 
ATOM     48  C   UNL A   1      42.606  32.082  32.535  1.00  0.00     0.029 A 
ATOM     49  C   UNL A   1      41.569  32.678  33.362  1.00  0.00     0.049 A 
ATOM     50  H   UNL A   1      39.982  33.829  32.495  1.00  0.00     0.167 HD
ATOM     51  C   UNL A   1      41.623  27.699  29.124  1.00  0.00     0.037 A 
ATOM     52  C   UNL A   1      41.290  32.346  34.654  1.00  0.00     0.037 A 
ATOM     53  C   UNL A   1      42.526  27.854  30.262  1.00  0.00     0.049 A 
ATOM     54  C   UNL A   1      41.735  30.933  34.968  1.00  0.00     0.074 A 
ATOM     55  C   UNL A   1      43.704  28.566  30.431  1.00  0.00     0.029 A 
ATOM     56  N   UNL A   1      42.077  27.543  31.542  1.00  0.00    -0.354 N 
ATOM     57  N   UNL A   1      41.952  30.018  34.063  1.00  0.00    -0.248 NA
ATOM     58  C   UNL A   1      41.982  30.448  36.318  1.00  0.00     0.031 C 
ATOM     59  C   UNL A   1      43.959  28.685  31.820  1.00  0.00     0.029 A 
ATOM     60  C   UNL A   1      42.944  28.035  32.501  1.00  0.00     0.049 A 
ATOM     61  H   UNL A   1      41.254  27.040  31.739  1.00  0.00     0.167 HD
ATOM     62  C   UNL A   1      42.399  28.862  34.660  1.00  0.00     0.074 A 
ATOM     63  C   UNL A   1      42.398  29.193  36.075  1.00  0.00     0.031 C 
ATOM     64  C   UNL A   1      42.732  27.757  33.918  1.00  0.00     0.037 A 
BRANCH  51  65
ATOM     65  C   UNL A   1      41.969  27.018  27.827  1.00  0.00     0.057 A 
ATOM     66  C   UNL A   1      42.539  27.726  26.754  1.00  0.00     0.134 A 
ATOM     67  C   UNL A   1      41.716  25.659  27.570  1.00  0.00     0.134 A 
ATOM     68  F   UNL A   1      42.911  29.005  26.868  1.00  0.00    -0.206 F 
ATOM     69  C   UNL A   1      42.744  27.153  25.492  1.00  0.00     0.040 A 
ATOM     70  C   UNL A   1      41.872  25.084  26.300  1.00  0.00     0.040 A 
ATOM     71  F   UNL A   1      41.325  24.829  28.549  1.00  0.00    -0.206 F 
ATOM     72  C   UNL A   1      42.377  25.837  25.250  1.00  0.00     0.006 A 
ENDBRANCH  51  65
BRANCH  52  73
ATOM     73  C   UNL A   1      40.074  33.024  35.186  1.00  0.00     0.057 A 
ATOM     74  C   UNL A   1      38.867  32.296  35.196  1.00  0.00     0.134 A 
ATOM     75  C   UNL A   1      40.173  34.101  36.073  1.00  0.00     0.134 A 
ATOM     76  F   UNL A   1      38.711  31.244  34.377  1.00  0.00    -0.206 F 
ATOM     77  C   UNL A   1      37.874  32.525  36.153  1.00  0.00     0.040 A 
ATOM     78  C   UNL A   1      39.174  34.351  37.023  1.00  0.00     0.040 A 
ATOM     79  F   UNL A   1      41.302  34.819  36.149  1.00  0.00    -0.206 F 
ATOM     80  C   UNL A   1      38.046  33.532  37.098  1.00  0.00     0.006 A 
ENDBRANCH  52  73
BRANCH  64  81
ATOM     81  C   UNL A   1      42.993  26.330  34.393  1.00  0.00     0.057 A 
ATOM     82  C   UNL A   1      42.066  25.497  35.030  1.00  0.00     0.134 A 
ATOM     83  C   UNL A   1      44.225  25.685  34.089  1.00  0.00     0.134 A 
ATOM     84  F   UNL A   1      40.826  25.899  35.322  1.00  0.00    -0.206 F 
ATOM     85  C   UNL A   1      42.344  24.161  35.366  1.00  0.00     0.040 A 
ATOM     86  C   UNL A   1      44.489  24.339  34.360  1.00  0.00     0.040 A 
ATOM     87  F   UNL A   1      45.242  26.319  33.490  1.00  0.00    -0.206 F 
ATOM     88  C   UNL A   1      43.548  23.570  35.013  1.00  0.00     0.006 A 
ENDBRANCH  64  81
ENDBRANCH  38  39
ENDBRANCH  30  33
ENDBRANCH  28  29
ENDBRANCH  27  28
ENDBRANCH   1  27
TORSDOF 17
ENDMDL
MODEL 3
REMARK VINA RESULT:     -11.4      1.275      2.187
REMARK SMILES Cc1cccc(S(=O)(=O)N[C@@H](CCC(N)=O)C(=O)NCCCCNC(=O)c2ccc(-c3c4nc(c(-c5c(F)cccc5F)c5ccc([nH]5)c(-c5c(F)cccc5F)c5nc(c(-c6c(F)cccc6F)c6ccc3[nH]6)C=C5)C=C4)cc2)c1
REMARK SMILES IDX 21 1 20 2 19 3 17 4 18 5 11 7 10 8 7 10 8 11 9 12 6 13 1 14
REMARK SMILES IDX 2 15 3 16 81 17 4 18 5 19 12 20 13 21 14 22 15 23 16 24
REMARK SMILES IDX 22 27 23 28 24 29 25 30 26 32 27 33 28 34 80 35 29 36 79 37
REMARK SMILES IDX 30 38 31 39 32 40 73 41 33 42 78 43 72 44 74 45 34 46 77 47
REMARK SMILES IDX 71 48 70 49 35 51 61 52 44 53 60 54 45 55 48 56 59 57 75 58
REMARK SMILES IDX 46 59 47 60 58 62 76 63 49 64 36 65 37 66 42 67 38 68 39 69
REMARK SMILES IDX 41 70 43 71 40 72 62 73 63 74 68 75 64 76 65 77 67 78 69 79
REMARK SMILES IDX 66 80 50 81 51 82 56 83 52 84 53 85 55 86 57 87 54 88
REMARK H PARENT 19 6 10 9 15 25 15 26 24 31 74 50 48 61
REMARK Flexibility Score: inf
ROOT
ATOM      1  C   UNL A   1      34.147  29.022  27.443  1.00  0.00     0.023 C 
ENDROOT
BRANCH   1   2
ATOM      2  C   UNL A   1      33.950  28.381  26.067  1.00  0.00     0.116 C 
BRANCH   2   3
ATOM      3  N   UNL A   1      33.015  27.264  26.081  1.00  0.00    -0.355 N 
ATOM      4  C   UNL A   1      32.092  26.841  25.162  1.00  0.00     0.238 C 
ATOM      5  O   UNL A   1      31.434  25.834  25.443  1.00  0.00    -0.273 OA
ATOM      6  H   UNL A   1      33.053  26.716  26.898  1.00  0.00     0.163 HD
BRANCH   4   7
ATOM      7  C   UNL A   1      31.776  27.651  23.885  1.00  0.00     0.159 C 
BRANCH   7   8
ATOM      8  N   UNL A   1      31.648  26.656  22.800  1.00  0.00    -0.199 NA
ATOM      9  H   UNL A   1      31.181  25.857  23.228  1.00  0.00     0.142 HD
BRANCH   8  10
ATOM     10  S   UNL A   1      32.881  26.003  21.899  1.00  0.00     0.241 S 
ATOM     11  O   UNL A   1      34.016  26.906  21.995  1.00  0.00    -0.207 OA
ATOM     12  O   UNL A   1      32.289  25.681  20.629  1.00  0.00    -0.207 OA
BRANCH  10  13
ATOM     13  C   UNL A   1      33.345  24.470  22.658  1.00  0.00     0.082 A 
ATOM     14  C   UNL A   1      32.156  20.875  22.990  1.00  0.00     0.044 C 
ATOM     15  C   UNL A   1      32.975  22.125  23.138  1.00  0.00    -0.050 A 
ATOM     16  C   UNL A   1      34.051  22.155  24.034  1.00  0.00     0.003 A 
ATOM     17  C   UNL A   1      32.663  23.276  22.405  1.00  0.00     0.025 A 
ATOM     18  C   UNL A   1      34.780  23.329  24.229  1.00  0.00     0.002 A 
ATOM     19  C   UNL A   1      34.414  24.494  23.558  1.00  0.00     0.022 A 
ENDBRANCH  10  13
ENDBRANCH   8  10
ENDBRANCH   7   8
BRANCH   7  20
ATOM     20  C   UNL A   1      30.700  28.737  23.970  1.00  0.00     0.040 C 
BRANCH  20  21
ATOM     21  C   UNL A   1      29.472  28.649  23.073  1.00  0.00     0.102 C 
BRANCH  21  22
ATOM     22  C   UNL A   1      29.533  29.618  21.913  1.00  0.00     0.217 C 
ATOM     23  N   UNL A   1      30.774  30.078  21.628  1.00  0.00    -0.370 N 
ATOM     24  O   UNL A   1      28.569  29.979  21.253  1.00  0.00    -0.275 OA
ATOM     25  H   UNL A   1      31.543  29.782  22.165  1.00  0.00     0.159 HD
ATOM     26  H   UNL A   1      30.906  30.708  20.883  1.00  0.00     0.159 HD
ENDBRANCH  21  22
ENDBRANCH  20  21
ENDBRANCH   7  20
ENDBRANCH   4   7
ENDBRANCH   2   3
ENDBRANCH   1   2
BRANCH   1  27
ATOM     27  C   UNL A   1      33.680  30.470  27.562  1.00  0.00     0.023 C 
BRANCH  27  28
ATOM     28  C   UNL A   1      34.795  31.502  27.627  1.00  0.00     0.116 C 
BRANCH  28  29
ATOM     29  N   UNL A   1      35.210  31.879  28.970  1.00  0.00    -0.352 N 
ATOM     30  C   UNL A   1      36.065  31.241  29.851  1.00  0.00     0.251 C 
ATOM     31  H   UNL A   1      34.823  32.722  29.303  1.00  0.00     0.163 HD
ATOM     32  O   UNL A   1      36.217  31.706  30.980  1.00  0.00    -0.269 OA
BRANCH  30  33
ATOM     33  C   UNL A   1      36.933  30.118  29.405  1.00  0.00     0.039 A 
ATOM     34  C   UNL A   1      37.020  28.994  30.243  1.00  0.00     0.014 A 
ATOM     35  C   UNL A   1      37.832  30.258  28.356  1.00  0.00     0.014 A 
ATOM     36  C   UNL A   1      38.164  28.205  30.217  1.00  0.00     0.010 A 
ATOM     37  C   UNL A   1      39.020  29.576  28.410  1.00  0.00     0.010 A 
ATOM     38  C   UNL A   1      39.206  28.600  29.385  1.00  0.00    -0.014 A 
BRANCH  38  39
ATOM     39  C   UNL A   1      40.563  28.116  29.496  1.00  0.00     0.031 A 
ATOM     40  C   UNL A   1      40.933  26.859  28.845  1.00  0.00     0.074 A 
ATOM     41  C   UNL A   1      41.491  28.910  30.070  1.00  0.00     0.049 A 
ATOM     42  N   UNL A   1      41.892  26.107  29.253  1.00  0.00    -0.248 NA
ATOM     43  C   UNL A   1      40.222  26.331  27.687  1.00  0.00     0.031 C 
ATOM     44  C   UNL A   1      42.942  28.771  30.038  1.00  0.00     0.029 A 
ATOM     45  N   UNL A   1      41.271  29.939  30.987  1.00  0.00    -0.354 N 
ATOM     46  C   UNL A   1      42.138  25.205  28.248  1.00  0.00     0.074 A 
ATOM     47  C   UNL A   1      41.013  25.311  27.347  1.00  0.00     0.031 C 
ATOM     48  C   UNL A   1      43.456  29.430  31.091  1.00  0.00     0.029 A 
ATOM     49  C   UNL A   1      42.334  29.882  31.899  1.00  0.00     0.049 A 
ATOM     50  H   UNL A   1      40.520  30.575  30.992  1.00  0.00     0.167 HD
ATOM     51  C   UNL A   1      43.354  24.599  28.183  1.00  0.00     0.037 A 
ATOM     52  C   UNL A   1      42.160  29.639  33.229  1.00  0.00     0.037 A 
ATOM     53  C   UNL A   1      44.228  25.061  29.259  1.00  0.00     0.049 A 
ATOM     54  C   UNL A   1      42.903  28.393  33.663  1.00  0.00     0.074 A 
ATOM     55  C   UNL A   1      45.230  26.018  29.303  1.00  0.00     0.029 A 
ATOM     56  N   UNL A   1      43.884  24.802  30.582  1.00  0.00    -0.354 N 
ATOM     57  N   UNL A   1      43.290  27.451  32.845  1.00  0.00    -0.248 NA
ATOM     58  C   UNL A   1      43.277  28.118  35.043  1.00  0.00     0.031 C 
ATOM     59  C   UNL A   1      45.485  26.335  30.661  1.00  0.00     0.029 A 
ATOM     60  C   UNL A   1      44.646  25.564  31.447  1.00  0.00     0.049 A 
ATOM     61  H   UNL A   1      43.191  24.162  30.864  1.00  0.00     0.167 HD
ATOM     62  C   UNL A   1      43.985  26.486  33.535  1.00  0.00     0.074 A 
ATOM     63  C   UNL A   1      43.945  26.958  34.908  1.00  0.00     0.031 C 
ATOM     64  C   UNL A   1      44.530  25.402  32.893  1.00  0.00     0.037 A 
BRANCH  51  65
ATOM     65  C   UNL A   1      43.808  23.871  26.947  1.00  0.00     0.057 A 
ATOM     66  C   UNL A   1      43.516  22.510  26.745  1.00  0.00     0.134 A 
ATOM     67  C   UNL A   1      44.583  24.463  25.934  1.00  0.00     0.134 A 
ATOM     68  F   UNL A   1      42.723  21.826  27.578  1.00  0.00    -0.206 F 
ATOM     69  C   UNL A   1      44.039  21.772  25.676  1.00  0.00     0.040 A 
ATOM     70  C   UNL A   1      45.152  23.728  24.885  1.00  0.00     0.040 A 
ATOM     71  F   UNL A   1      44.802  25.787  25.914  1.00  0.00    -0.206 F 
ATOM     72  C   UNL A   1      44.890  22.372  24.759  1.00  0.00     0.006 A 
ENDBRANCH  51  65
BRANCH  52  73
ATOM     73  C   UNL A   1      40.840  30.101  33.744  1.00  0.00     0.057 A 
ATOM     74  C   UNL A   1      40.701  31.469  34.056  1.00  0.00     0.134 A 
ATOM     75  C   UNL A   1      39.667  29.386  33.481  1.00  0.00     0.134 A 
ATOM     76  F   UNL A   1      41.788  32.215  34.307  1.00  0.00    -0.206 F 
ATOM     77  C   UNL A   1      39.472  32.128  33.950  1.00  0.00     0.040 A 
ATOM     78  C   UNL A   1      38.429  30.035  33.393  1.00  0.00     0.040 A 
ATOM     79  F   UNL A   1      39.721  28.092  33.142  1.00  0.00    -0.206 F 
ATOM     80  C   UNL A   1      38.337  31.416  33.578  1.00  0.00     0.006 A 
ENDBRANCH  52  73
BRANCH  64  81
ATOM     81  C   UNL A   1      45.099  24.120  33.497  1.00  0.00     0.057 A 
ATOM     82  C   UNL A   1      46.398  23.956  33.994  1.00  0.00     0.134 A 
ATOM     83  C   UNL A   1      44.258  22.992  33.712  1.00  0.00     0.134 A 
ATOM     84  F   UNL A   1      47.306  24.934  33.958  1.00  0.00    -0.206 F 
ATOM     85  C   UNL A   1      46.833  22.773  34.615  1.00  0.00     0.040 A 
ATOM     86  C   UNL A   1      44.662  21.836  34.386  1.00  0.00     0.040 A 
ATOM     87  F   UNL A   1      42.985  22.952  33.298  1.00  0.00    -0.206 F 
ATOM     88  C   UNL A   1      45.962  21.717  34.833  1.00  0.00     0.006 A 
ENDBRANCH  64  81
ENDBRANCH  38  39
ENDBRANCH  30  33
ENDBRANCH  28  29
ENDBRANCH  27  28
ENDBRANCH   1  27
TORSDOF 17
ENDMDL
