MODEL 1
REMARK VINA RESULT:     -10.3      0.000      0.000
REMARK SMILES NS(=O)(=O)c1ccc(-n2nc(NC(=O)NCCCCCCCCCCC(=O)NCCCCNC(=O)c3ccc(-c4c5nc(c(-c6c(F)cccc6F)c6ccc([nH]6)c(-c6c(F)cccc6F)c6nc(c(-c7c(F)cccc7F)c7ccc4[nH]7)C=C6)C=C5)cc3)cc2-c2ccccc2)cc1
REMARK SMILES IDX 22 1 21 2 20 3 19 4 18 5 17 6 16 7 15 8 12 9 13 10 14 12
REMARK SMILES IDX 11 14 9 15 10 16 91 17 90 18 8 19 5 20 6 21 99 22 7 23 98 24
REMARK SMILES IDX 2 25 3 26 4 27 1 28 92 31 93 32 97 33 94 34 96 35 95 36
REMARK SMILES IDX 23 37 24 38 25 39 26 40 27 41 28 42 29 44 30 45 31 46 32 47
REMARK SMILES IDX 33 48 34 49 35 51 36 52 37 53 89 54 38 55 88 56 39 57 40 58
REMARK SMILES IDX 41 59 82 60 42 61 87 62 81 63 83 64 43 65 86 66 80 67 79 68
REMARK SMILES IDX 44 70 70 71 53 72 69 73 54 74 57 75 68 76 84 77 55 78 56 79
REMARK SMILES IDX 67 81 85 82 58 83 45 84 46 85 51 86 47 87 48 88 50 89 52 90
REMARK SMILES IDX 49 91 71 92 72 93 77 94 73 95 74 96 76 97 78 98 75 99 59 100
REMARK SMILES IDX 60 101 65 102 61 103 62 104 64 105 66 106 63 107
REMARK H PARENT 12 11 15 13 1 29 1 30 28 43 33 50 83 69 57 80
REMARK Flexibility Score: inf
ROOT
ATOM      1  C   UNL A   1      39.943  22.680  27.330  1.00  0.00     0.000 C 
ENDROOT
BRANCH   1   2
ATOM      2  C   UNL A   1      39.741  22.009  25.987  1.00  0.00     0.000 C 
BRANCH   2   3
ATOM      3  C   UNL A   1      38.286  21.664  25.692  1.00  0.00     0.000 C 
BRANCH   3   4
ATOM      4  C   UNL A   1      37.384  22.822  25.245  1.00  0.00     0.000 C 
BRANCH   4   5
ATOM      5  C   UNL A   1      36.184  22.449  24.367  1.00  0.00     0.002 C 
BRANCH   5   6
ATOM      6  C   UNL A   1      35.689  23.529  23.409  1.00  0.00     0.021 C 
BRANCH   6   7
ATOM      7  C   UNL A   1      34.184  23.593  23.202  1.00  0.00     0.117 C 
BRANCH   7   8
ATOM      8  N   UNL A   1      33.589  22.499  22.480  1.00  0.00    -0.338 N 
ATOM      9  N   UNL A   1      31.412  22.502  23.447  1.00  0.00    -0.291 N 
ATOM     10  C   UNL A   1      32.338  21.992  22.599  1.00  0.00     0.320 C 
ATOM     11  H   UNL A   1      30.717  21.859  23.719  1.00  0.00     0.173 HD
ATOM     12  O   UNL A   1      32.081  20.943  22.001  1.00  0.00    -0.248 OA
ATOM     13  H   UNL A   1      34.166  22.062  21.813  1.00  0.00     0.165 HD
BRANCH   9  14
ATOM     14  C   UNL A   1      31.266  23.757  23.997  1.00  0.00     0.157 A 
ATOM     15  N   UNL A   1      30.704  25.791  24.198  1.00  0.00    -0.231 N 
ATOM     16  N   UNL A   1      30.253  24.595  23.763  1.00  0.00    -0.149 NA
ATOM     17  C   UNL A   1      31.764  25.640  25.085  1.00  0.00     0.076 A 
ATOM     18  C   UNL A   1      32.164  24.324  24.932  1.00  0.00     0.078 A 
BRANCH  15  19
ATOM     19  C   UNL A   1      30.140  26.999  23.704  1.00  0.00     0.065 A 
ATOM     20  C   UNL A   1      28.999  29.273  22.569  1.00  0.00     0.082 A 
ATOM     21  C   UNL A   1      28.192  28.379  23.277  1.00  0.00     0.024 A 
ATOM     22  C   UNL A   1      30.378  29.063  22.467  1.00  0.00     0.024 A 
ATOM     23  C   UNL A   1      28.762  27.237  23.841  1.00  0.00     0.030 A 
ATOM     24  C   UNL A   1      30.955  27.932  23.056  1.00  0.00     0.030 A 
BRANCH  20  25
ATOM     25  S   UNL A   1      28.204  30.655  21.806  1.00  0.00     0.238 S 
ATOM     26  O   UNL A   1      27.193  31.151  22.703  1.00  0.00    -0.207 OA
ATOM     27  O   UNL A   1      27.930  30.308  20.427  1.00  0.00    -0.207 OA
BRANCH  25  28
ATOM     28  N   UNL A   1      29.379  31.853  21.739  1.00  0.00    -0.225 NA
ATOM     29  H   UNL A   1      29.635  32.024  20.766  1.00  0.00     0.137 HD
ATOM     30  H   UNL A   1      30.204  31.550  22.257  1.00  0.00     0.137 HD
ENDBRANCH  25  28
ENDBRANCH  20  25
ENDBRANCH  15  19
BRANCH  17  31
ATOM     31  C   UNL A   1      32.248  26.711  25.954  1.00  0.00     0.000 A 
ATOM     32  C   UNL A   1      31.370  27.304  26.878  1.00  0.00     0.010 A 
ATOM     33  C   UNL A   1      33.549  27.210  25.841  1.00  0.00     0.010 A 
ATOM     34  C   UNL A   1      31.759  28.411  27.628  1.00  0.00     0.001 A 
ATOM     35  C   UNL A   1      33.944  28.310  26.607  1.00  0.00     0.001 A 
ATOM     36  C   UNL A   1      33.048  28.916  27.489  1.00  0.00     0.000 A 
ENDBRANCH  17  31
ENDBRANCH   9  14
ENDBRANCH   7   8
ENDBRANCH   6   7
ENDBRANCH   5   6
ENDBRANCH   4   5
ENDBRANCH   3   4
ENDBRANCH   2   3
ENDBRANCH   1   2
BRANCH   1  37
ATOM     37  C   UNL A   1      40.840  23.917  27.247  1.00  0.00     0.001 C 
BRANCH  37  38
ATOM     38  C   UNL A   1      40.121  25.201  26.851  1.00  0.00     0.010 C 
BRANCH  38  39
ATOM     39  C   UNL A   1      40.995  26.448  26.710  1.00  0.00     0.100 C 
BRANCH  39  40
ATOM     40  C   UNL A   1      41.364  27.138  28.011  1.00  0.00     0.219 C 
ATOM     41  O   UNL A   1      42.274  26.690  28.714  1.00  0.00    -0.275 OA
ATOM     42  N   UNL A   1      40.748  28.277  28.435  1.00  0.00    -0.356 N 
ATOM     43  H   UNL A   1      41.118  28.648  29.268  1.00  0.00     0.163 HD
BRANCH  42  44
ATOM     44  C   UNL A   1      39.645  29.046  27.882  1.00  0.00     0.116 C 
BRANCH  44  45
ATOM     45  C   UNL A   1      38.312  28.735  28.590  1.00  0.00     0.023 C 
BRANCH  45  46
ATOM     46  C   UNL A   1      37.050  29.394  28.022  1.00  0.00     0.023 C 
BRANCH  46  47
ATOM     47  C   UNL A   1      37.171  30.888  27.787  1.00  0.00     0.116 C 
BRANCH  47  48
ATOM     48  N   UNL A   1      35.898  31.618  27.869  1.00  0.00    -0.352 N 
ATOM     49  C   UNL A   1      35.163  31.872  29.021  1.00  0.00     0.251 C 
ATOM     50  H   UNL A   1      35.530  31.963  27.024  1.00  0.00     0.163 HD
ATOM     51  O   UNL A   1      33.971  32.146  28.997  1.00  0.00    -0.269 OA
BRANCH  49  52
ATOM     52  C   UNL A   1      35.904  31.854  30.289  1.00  0.00     0.039 A 
ATOM     53  C   UNL A   1      35.941  30.755  31.155  1.00  0.00     0.014 A 
ATOM     54  C   UNL A   1      36.708  32.967  30.489  1.00  0.00     0.014 A 
ATOM     55  C   UNL A   1      36.873  30.764  32.192  1.00  0.00     0.010 A 
ATOM     56  C   UNL A   1      37.776  32.846  31.321  1.00  0.00     0.010 A 
ATOM     57  C   UNL A   1      37.796  31.815  32.252  1.00  0.00    -0.014 A 
BRANCH  57  58
ATOM     58  C   UNL A   1      38.875  31.889  33.224  1.00  0.00     0.031 A 
ATOM     59  C   UNL A   1      38.598  32.748  34.407  1.00  0.00     0.074 A 
ATOM     60  C   UNL A   1      39.879  30.982  33.178  1.00  0.00     0.049 A 
ATOM     61  N   UNL A   1      39.212  33.824  34.769  1.00  0.00    -0.248 NA
ATOM     62  C   UNL A   1      37.401  32.452  35.215  1.00  0.00     0.031 C 
ATOM     63  C   UNL A   1      40.067  29.867  32.232  1.00  0.00     0.029 A 
ATOM     64  N   UNL A   1      40.898  30.790  34.053  1.00  0.00    -0.354 N 
ATOM     65  C   UNL A   1      38.624  34.216  35.972  1.00  0.00     0.074 A 
ATOM     66  C   UNL A   1      37.399  33.470  36.078  1.00  0.00     0.031 C 
ATOM     67  C   UNL A   1      40.978  28.998  32.718  1.00  0.00     0.029 A 
ATOM     68  C   UNL A   1      41.574  29.580  33.901  1.00  0.00     0.049 A 
ATOM     69  H   UNL A   1      41.139  31.451  34.742  1.00  0.00     0.167 HD
ATOM     70  C   UNL A   1      39.327  34.925  36.901  1.00  0.00     0.037 A 
ATOM     71  C   UNL A   1      42.547  29.099  34.712  1.00  0.00     0.037 A 
ATOM     72  C   UNL A   1      40.523  35.483  36.316  1.00  0.00     0.049 A 
ATOM     73  C   UNL A   1      43.069  30.256  35.484  1.00  0.00     0.074 A 
ATOM     74  C   UNL A   1      40.780  36.382  35.298  1.00  0.00     0.029 A 
ATOM     75  N   UNL A   1      41.701  34.808  36.521  1.00  0.00    -0.354 N 
ATOM     76  N   UNL A   1      43.705  31.255  34.933  1.00  0.00    -0.248 NA
ATOM     77  C   UNL A   1      42.432  30.546  36.759  1.00  0.00     0.031 C 
ATOM     78  C   UNL A   1      41.922  35.853  34.625  1.00  0.00     0.029 A 
ATOM     79  C   UNL A   1      42.345  34.716  35.314  1.00  0.00     0.049 A 
ATOM     80  H   UNL A   1      42.025  34.453  37.380  1.00  0.00     0.167 HD
ATOM     81  C   UNL A   1      43.207  32.387  35.563  1.00  0.00     0.074 A 
ATOM     82  C   UNL A   1      42.469  31.882  36.722  1.00  0.00     0.031 C 
ATOM     83  C   UNL A   1      43.178  33.598  34.927  1.00  0.00     0.037 A 
BRANCH  70  84
ATOM     84  C   UNL A   1      39.163  34.797  38.400  1.00  0.00     0.057 A 
ATOM     85  C   UNL A   1      39.268  35.955  39.196  1.00  0.00     0.134 A 
ATOM     86  C   UNL A   1      39.200  33.583  39.116  1.00  0.00     0.134 A 
ATOM     87  F   UNL A   1      39.238  37.177  38.644  1.00  0.00    -0.206 F 
ATOM     88  C   UNL A   1      39.495  35.903  40.578  1.00  0.00     0.040 A 
ATOM     89  C   UNL A   1      39.376  33.522  40.502  1.00  0.00     0.040 A 
ATOM     90  F   UNL A   1      39.170  32.388  38.518  1.00  0.00    -0.206 F 
ATOM     91  C   UNL A   1      39.563  34.682  41.233  1.00  0.00     0.006 A 
ENDBRANCH  70  84
BRANCH  71  92
ATOM     92  C   UNL A   1      42.808  27.692  35.090  1.00  0.00     0.057 A 
ATOM     93  C   UNL A   1      42.004  27.020  36.020  1.00  0.00     0.134 A 
ATOM     94  C   UNL A   1      43.690  26.888  34.344  1.00  0.00     0.134 A 
ATOM     95  F   UNL A   1      41.100  27.693  36.746  1.00  0.00    -0.206 F 
ATOM     96  C   UNL A   1      42.064  25.628  36.191  1.00  0.00     0.040 A 
ATOM     97  C   UNL A   1      43.761  25.499  34.505  1.00  0.00     0.040 A 
ATOM     98  F   UNL A   1      44.451  27.415  33.373  1.00  0.00    -0.206 F 
ATOM     99  C   UNL A   1      42.937  24.862  35.424  1.00  0.00     0.006 A 
ENDBRANCH  71  92
BRANCH  83 100
ATOM    100  C   UNL A   1      43.876  33.712  33.594  1.00  0.00     0.057 A 
ATOM    101  C   UNL A   1      43.232  33.574  32.354  1.00  0.00     0.134 A 
ATOM    102  C   UNL A   1      45.200  34.155  33.563  1.00  0.00     0.134 A 
ATOM    103  F   UNL A   1      41.939  33.250  32.277  1.00  0.00    -0.206 F 
ATOM    104  C   UNL A   1      43.881  33.834  31.142  1.00  0.00     0.040 A 
ATOM    105  C   UNL A   1      45.854  34.447  32.361  1.00  0.00     0.040 A 
ATOM    106  F   UNL A   1      45.867  34.369  34.707  1.00  0.00    -0.206 F 
ATOM    107  C   UNL A   1      45.198  34.280  31.144  1.00  0.00     0.006 A 
ENDBRANCH  83 100
ENDBRANCH  57  58
ENDBRANCH  49  52
ENDBRANCH  47  48
ENDBRANCH  46  47
ENDBRANCH  45  46
ENDBRANCH  44  45
ENDBRANCH  42  44
ENDBRANCH  39  40
ENDBRANCH  38  39
ENDBRANCH  37  38
ENDBRANCH   1  37
TORSDOF 26
ENDMDL
MODEL 2
REMARK VINA RESULT:     -10.3      2.334      6.221
REMARK SMILES NS(=O)(=O)c1ccc(-n2nc(NC(=O)NCCCCCCCCCCC(=O)NCCCCNC(=O)c3ccc(-c4c5nc(c(-c6c(F)cccc6F)c6ccc([nH]6)c(-c6c(F)cccc6F)c6nc(c(-c7c(F)cccc7F)c7ccc4[nH]7)C=C6)C=C5)cc3)cc2-c2ccccc2)cc1
REMARK SMILES IDX 22 1 21 2 20 3 19 4 18 5 17 6 16 7 15 8 12 9 13 10 14 12
REMARK SMILES IDX 11 14 9 15 10 16 91 17 90 18 8 19 5 20 6 21 99 22 7 23 98 24
REMARK SMILES IDX 2 25 3 26 4 27 1 28 92 31 93 32 97 33 94 34 96 35 95 36
REMARK SMILES IDX 23 37 24 38 25 39 26 40 27 41 28 42 29 44 30 45 31 46 32 47
REMARK SMILES IDX 33 48 34 49 35 51 36 52 37 53 89 54 38 55 88 56 39 57 40 58
REMARK SMILES IDX 41 59 82 60 42 61 87 62 81 63 83 64 43 65 86 66 80 67 79 68
REMARK SMILES IDX 44 70 70 71 53 72 69 73 54 74 57 75 68 76 84 77 55 78 56 79
REMARK SMILES IDX 67 81 85 82 58 83 45 84 46 85 51 86 47 87 48 88 50 89 52 90
REMARK SMILES IDX 49 91 71 92 72 93 77 94 73 95 74 96 76 97 78 98 75 99 59 100
REMARK SMILES IDX 60 101 65 102 61 103 62 104 64 105 66 106 63 107
REMARK H PARENT 12 11 15 13 1 29 1 30 28 43 33 50 83 69 57 80
REMARK Flexibility Score: inf
ROOT
ATOM      1  C   UNL A   1      40.171  22.498  27.286  1.00  0.00     0.000 C 
ENDROOT
BRANCH   1   2
ATOM      2  C   UNL A   1      39.686  22.023  25.931  1.00  0.00     0.000 C 
BRANCH   2   3
ATOM      3  C   UNL A   1      38.172  21.865  25.850  1.00  0.00     0.000 C 
BRANCH   3   4
ATOM      4  C   UNL A   1      37.379  23.088  25.372  1.00  0.00     0.000 C 
BRANCH   4   5
ATOM      5  C   UNL A   1      36.025  22.805  24.712  1.00  0.00     0.002 C 
BRANCH   5   6
ATOM      6  C   UNL A   1      35.624  23.735  23.570  1.00  0.00     0.021 C 
BRANCH   6   7
ATOM      7  C   UNL A   1      34.138  23.799  23.256  1.00  0.00     0.117 C 
BRANCH   7   8
ATOM      8  N   UNL A   1      33.593  22.696  22.507  1.00  0.00    -0.338 N 
ATOM      9  N   UNL A   1      31.341  22.745  23.283  1.00  0.00    -0.291 N 
ATOM     10  C   UNL A   1      32.331  22.206  22.529  1.00  0.00     0.320 C 
ATOM     11  H   UNL A   1      30.617  22.115  23.507  1.00  0.00     0.173 HD
ATOM     12  O   UNL A   1      32.112  21.147  21.932  1.00  0.00    -0.248 OA
ATOM     13  H   UNL A   1      34.220  22.238  21.902  1.00  0.00     0.165 HD
BRANCH   9  14
ATOM     14  C   UNL A   1      31.164  24.012  23.792  1.00  0.00     0.157 A 
ATOM     15  N   UNL A   1      30.548  26.036  23.930  1.00  0.00    -0.231 N 
ATOM     16  N   UNL A   1      30.127  24.814  23.539  1.00  0.00    -0.149 NA
ATOM     17  C   UNL A   1      31.618  25.944  24.812  1.00  0.00     0.076 A 
ATOM     18  C   UNL A   1      32.054  24.635  24.700  1.00  0.00     0.078 A 
BRANCH  15  19
ATOM     19  C   UNL A   1      29.946  27.210  23.401  1.00  0.00     0.065 A 
ATOM     20  C   UNL A   1      28.801  29.598  22.536  1.00  0.00     0.082 A 
ATOM     21  C   UNL A   1      30.164  29.372  22.326  1.00  0.00     0.024 A 
ATOM     22  C   UNL A   1      27.998  28.619  23.130  1.00  0.00     0.024 A 
ATOM     23  C   UNL A   1      30.738  28.180  22.764  1.00  0.00     0.030 A 
ATOM     24  C   UNL A   1      28.569  27.410  23.545  1.00  0.00     0.030 A 
BRANCH  20  25
ATOM     25  S   UNL A   1      28.150  31.163  22.035  1.00  0.00     0.238 S 
ATOM     26  O   UNL A   1      27.221  31.614  23.038  1.00  0.00    -0.207 OA
ATOM     27  O   UNL A   1      27.809  31.076  20.630  1.00  0.00    -0.207 OA
BRANCH  25  28
ATOM     28  N   UNL A   1      29.452  32.222  22.112  1.00  0.00    -0.225 NA
ATOM     29  H   UNL A   1      30.232  31.769  22.589  1.00  0.00     0.137 HD
ATOM     30  H   UNL A   1      29.179  33.058  22.629  1.00  0.00     0.137 HD
ENDBRANCH  25  28
ENDBRANCH  20  25
ENDBRANCH  15  19
BRANCH  17  31
ATOM     31  C   UNL A   1      32.080  27.056  25.641  1.00  0.00     0.000 A 
ATOM     32  C   UNL A   1      33.315  27.665  25.358  1.00  0.00     0.010 A 
ATOM     33  C   UNL A   1      31.353  27.485  26.755  1.00  0.00     0.010 A 
ATOM     34  C   UNL A   1      33.844  28.637  26.203  1.00  0.00     0.001 A 
ATOM     35  C   UNL A   1      31.879  28.474  27.593  1.00  0.00     0.001 A 
ATOM     36  C   UNL A   1      33.125  29.039  27.324  1.00  0.00     0.000 A 
ENDBRANCH  17  31
ENDBRANCH   9  14
ENDBRANCH   7   8
ENDBRANCH   6   7
ENDBRANCH   5   6
ENDBRANCH   4   5
ENDBRANCH   3   4
ENDBRANCH   2   3
ENDBRANCH   1   2
BRANCH   1  37
ATOM     37  C   UNL A   1      40.516  23.989  27.303  1.00  0.00     0.001 C 
BRANCH  37  38
ATOM     38  C   UNL A   1      39.488  24.874  27.997  1.00  0.00     0.010 C 
BRANCH  38  39
ATOM     39  C   UNL A   1      39.982  26.243  28.465  1.00  0.00     0.100 C 
BRANCH  39  40
ATOM     40  C   UNL A   1      40.971  26.932  27.542  1.00  0.00     0.219 C 
ATOM     41  O   UNL A   1      40.586  27.415  26.473  1.00  0.00    -0.275 OA
ATOM     42  N   UNL A   1      42.288  27.079  27.858  1.00  0.00    -0.356 N 
ATOM     43  H   UNL A   1      42.806  27.588  27.195  1.00  0.00     0.163 HD
BRANCH  42  44
ATOM     44  C   UNL A   1      43.067  26.621  28.997  1.00  0.00     0.116 C 
BRANCH  44  45
ATOM     45  C   UNL A   1      44.333  25.857  28.560  1.00  0.00     0.023 C 
BRANCH  45  46
ATOM     46  C   UNL A   1      44.875  24.795  29.523  1.00  0.00     0.023 C 
BRANCH  46  47
ATOM     47  C   UNL A   1      43.954  24.470  30.685  1.00  0.00     0.116 C 
BRANCH  47  48
ATOM     48  N   UNL A   1      44.649  24.020  31.900  1.00  0.00    -0.352 N 
ATOM     49  C   UNL A   1      45.310  24.824  32.821  1.00  0.00     0.251 C 
ATOM     50  H   UNL A   1      44.644  23.053  32.080  1.00  0.00     0.163 HD
ATOM     51  O   UNL A   1      46.160  24.391  33.586  1.00  0.00    -0.269 OA
BRANCH  49  52
ATOM     52  C   UNL A   1      44.898  26.233  32.877  1.00  0.00     0.039 A 
ATOM     53  C   UNL A   1      45.657  27.289  32.360  1.00  0.00     0.014 A 
ATOM     54  C   UNL A   1      43.604  26.424  33.342  1.00  0.00     0.014 A 
ATOM     55  C   UNL A   1      45.053  28.541  32.245  1.00  0.00     0.010 A 
ATOM     56  C   UNL A   1      42.953  27.559  32.979  1.00  0.00     0.010 A 
ATOM     57  C   UNL A   1      43.690  28.655  32.547  1.00  0.00    -0.014 A 
BRANCH  57  58
ATOM     58  C   UNL A   1      42.924  29.879  32.376  1.00  0.00     0.031 A 
ATOM     59  C   UNL A   1      42.321  30.423  33.623  1.00  0.00     0.074 A 
ATOM     60  C   UNL A   1      43.059  30.597  31.237  1.00  0.00     0.049 A 
ATOM     61  N   UNL A   1      41.068  30.572  33.899  1.00  0.00    -0.248 NA
ATOM     62  C   UNL A   1      43.214  30.709  34.760  1.00  0.00     0.031 C 
ATOM     63  C   UNL A   1      43.906  30.310  30.064  1.00  0.00     0.029 A 
ATOM     64  N   UNL A   1      42.549  31.817  30.930  1.00  0.00    -0.354 N 
ATOM     65  C   UNL A   1      41.021  31.180  35.155  1.00  0.00     0.074 A 
ATOM     66  C   UNL A   1      42.340  31.041  35.713  1.00  0.00     0.031 C 
ATOM     67  C   UNL A   1      44.029  31.417  29.301  1.00  0.00     0.029 A 
ATOM     68  C   UNL A   1      43.128  32.425  29.817  1.00  0.00     0.049 A 
ATOM     69  H   UNL A   1      41.829  32.239  31.452  1.00  0.00     0.167 HD
ATOM     70  C   UNL A   1      39.973  31.973  35.514  1.00  0.00     0.037 A 
ATOM     71  C   UNL A   1      42.881  33.682  29.371  1.00  0.00     0.037 A 
ATOM     72  C   UNL A   1      38.855  31.772  34.623  1.00  0.00     0.049 A 
ATOM     73  C   UNL A   1      41.592  34.102  29.976  1.00  0.00     0.074 A 
ATOM     74  C   UNL A   1      38.051  30.698  34.298  1.00  0.00     0.029 A 
ATOM     75  N   UNL A   1      38.684  32.685  33.610  1.00  0.00    -0.354 N 
ATOM     76  N   UNL A   1      40.450  33.532  29.696  1.00  0.00    -0.248 NA
ATOM     77  C   UNL A   1      41.650  34.787  31.258  1.00  0.00     0.031 C 
ATOM     78  C   UNL A   1      37.843  30.810  32.891  1.00  0.00     0.029 A 
ATOM     79  C   UNL A   1      38.456  31.984  32.452  1.00  0.00     0.049 A 
ATOM     80  H   UNL A   1      38.717  33.664  33.698  1.00  0.00     0.167 HD
ATOM     81  C   UNL A   1      39.795  33.422  30.915  1.00  0.00     0.074 A 
ATOM     82  C   UNL A   1      40.560  34.269  31.832  1.00  0.00     0.031 C 
ATOM     83  C   UNL A   1      38.885  32.428  31.144  1.00  0.00     0.037 A 
BRANCH  70  84
ATOM     84  C   UNL A   1      40.072  33.197  36.400  1.00  0.00     0.057 A 
ATOM     85  C   UNL A   1      39.174  33.329  37.477  1.00  0.00     0.134 A 
ATOM     86  C   UNL A   1      40.791  34.367  36.083  1.00  0.00     0.134 A 
ATOM     87  F   UNL A   1      38.432  32.290  37.889  1.00  0.00    -0.206 F 
ATOM     88  C   UNL A   1      38.938  34.553  38.117  1.00  0.00     0.040 A 
ATOM     89  C   UNL A   1      40.599  35.582  36.749  1.00  0.00     0.040 A 
ATOM     90  F   UNL A   1      41.643  34.439  35.056  1.00  0.00    -0.206 F 
ATOM     91  C   UNL A   1      39.643  35.688  37.744  1.00  0.00     0.006 A 
ENDBRANCH  70  84
BRANCH  71  92
ATOM     92  C   UNL A   1      43.829  34.632  28.747  1.00  0.00     0.057 A 
ATOM     93  C   UNL A   1      43.536  35.272  27.536  1.00  0.00     0.134 A 
ATOM     94  C   UNL A   1      44.930  35.139  29.462  1.00  0.00     0.134 A 
ATOM     95  F   UNL A   1      42.479  34.892  26.806  1.00  0.00    -0.206 F 
ATOM     96  C   UNL A   1      44.285  36.363  27.069  1.00  0.00     0.040 A 
ATOM     97  C   UNL A   1      45.687  36.225  29.007  1.00  0.00     0.040 A 
ATOM     98  F   UNL A   1      45.253  34.651  30.669  1.00  0.00    -0.206 F 
ATOM     99  C   UNL A   1      45.358  36.849  27.810  1.00  0.00     0.006 A 
ENDBRANCH  71  92
BRANCH  83 100
ATOM    100  C   UNL A   1      38.469  31.569  29.976  1.00  0.00     0.057 A 
ATOM    101  C   UNL A   1      39.063  30.338  29.653  1.00  0.00     0.134 A 
ATOM    102  C   UNL A   1      37.314  31.908  29.267  1.00  0.00     0.134 A 
ATOM    103  F   UNL A   1      40.113  29.876  30.336  1.00  0.00    -0.206 F 
ATOM    104  C   UNL A   1      38.553  29.501  28.654  1.00  0.00     0.040 A 
ATOM    105  C   UNL A   1      36.775  31.069  28.286  1.00  0.00     0.040 A 
ATOM    106  F   UNL A   1      36.653  33.039  29.557  1.00  0.00    -0.206 F 
ATOM    107  C   UNL A   1      37.399  29.864  27.971  1.00  0.00     0.006 A 
ENDBRANCH  83 100
ENDBRANCH  57  58
ENDBRANCH  49  52
ENDBRANCH  47  48
ENDBRANCH  46  47
ENDBRANCH  45  46
ENDBRANCH  44  45
ENDBRANCH  42  44
ENDBRANCH  39  40
ENDBRANCH  38  39
ENDBRANCH  37  38
ENDBRANCH   1  37
TORSDOF 26
ENDMDL
MODEL 3
REMARK VINA RESULT:      -9.4      5.907     10.626
REMARK SMILES NS(=O)(=O)c1ccc(-n2nc(NC(=O)NCCCCCCCCCCC(=O)NCCCCNC(=O)c3ccc(-c4c5nc(c(-c6c(F)cccc6F)c6ccc([nH]6)c(-c6c(F)cccc6F)c6nc(c(-c7c(F)cccc7F)c7ccc4[nH]7)C=C6)C=C5)cc3)cc2-c2ccccc2)cc1
REMARK SMILES IDX 22 1 21 2 20 3 19 4 18 5 17 6 16 7 15 8 12 9 13 10 14 12
REMARK SMILES IDX 11 14 9 15 10 16 91 17 90 18 8 19 5 20 6 21 99 22 7 23 98 24
REMARK SMILES IDX 2 25 3 26 4 27 1 28 92 31 93 32 97 33 94 34 96 35 95 36
REMARK SMILES IDX 23 37 24 38 25 39 26 40 27 41 28 42 29 44 30 45 31 46 32 47
REMARK SMILES IDX 33 48 34 49 35 51 36 52 37 53 89 54 38 55 88 56 39 57 40 58
REMARK SMILES IDX 41 59 82 60 42 61 87 62 81 63 83 64 43 65 86 66 80 67 79 68
REMARK SMILES IDX 44 70 70 71 53 72 69 73 54 74 57 75 68 76 84 77 55 78 56 79
REMARK SMILES IDX 67 81 85 82 58 83 45 84 46 85 51 86 47 87 48 88 50 89 52 90
REMARK SMILES IDX 49 91 71 92 72 93 77 94 73 95 74 96 76 97 78 98 75 99 59 100
REMARK SMILES IDX 60 101 65 102 61 103 62 104 64 105 66 106 63 107
REMARK H PARENT 12 11 15 13 1 29 1 30 28 43 33 50 83 69 57 80
REMARK Flexibility Score: inf
ROOT
ATOM      1  C   UNL A   1      48.054  28.845  26.897  1.00  0.00     0.000 C 
ENDROOT
BRANCH   1   2
ATOM      2  C   UNL A   1      46.561  28.752  26.657  1.00  0.00     0.000 C 
BRANCH   2   3
ATOM      3  C   UNL A   1      45.753  28.548  27.934  1.00  0.00     0.000 C 
BRANCH   3   4
ATOM      4  C   UNL A   1      44.231  28.707  27.815  1.00  0.00     0.000 C 
BRANCH   4   5
ATOM      5  C   UNL A   1      43.664  28.775  26.392  1.00  0.00     0.002 C 
BRANCH   5   6
ATOM      6  C   UNL A   1      42.262  29.364  26.253  1.00  0.00     0.021 C 
BRANCH   6   7
ATOM      7  C   UNL A   1      41.119  28.362  26.251  1.00  0.00     0.117 C 
BRANCH   7   8
ATOM      8  N   UNL A   1      40.083  28.569  27.230  1.00  0.00    -0.338 N 
ATOM      9  N   UNL A   1      39.910  26.365  28.117  1.00  0.00    -0.291 N 
ATOM     10  C   UNL A   1      39.523  27.663  28.066  1.00  0.00     0.320 C 
ATOM     11  H   UNL A   1      39.217  25.751  28.455  1.00  0.00     0.173 HD
ATOM     12  O   UNL A   1      38.531  28.012  28.714  1.00  0.00    -0.248 OA
ATOM     13  H   UNL A   1      39.737  29.487  27.300  1.00  0.00     0.165 HD
BRANCH   9  14
ATOM     14  C   UNL A   1      41.096  25.749  27.782  1.00  0.00     0.157 A 
ATOM     15  N   UNL A   1      42.454  24.239  27.175  1.00  0.00    -0.231 N 
ATOM     16  N   UNL A   1      41.232  24.746  26.910  1.00  0.00    -0.149 NA
ATOM     17  C   UNL A   1      43.245  25.153  27.861  1.00  0.00     0.076 A 
ATOM     18  C   UNL A   1      42.360  26.124  28.296  1.00  0.00     0.078 A 
BRANCH  15  19
ATOM     19  C   UNL A   1      42.775  22.902  26.811  1.00  0.00     0.065 A 
ATOM     20  C   UNL A   1      43.248  20.285  25.984  1.00  0.00     0.082 A 
ATOM     21  C   UNL A   1      43.825  21.344  25.279  1.00  0.00     0.024 A 
ATOM     22  C   UNL A   1      42.478  20.522  27.127  1.00  0.00     0.024 A 
ATOM     23  C   UNL A   1      43.584  22.655  25.689  1.00  0.00     0.030 A 
ATOM     24  C   UNL A   1      42.258  21.837  27.556  1.00  0.00     0.030 A 
BRANCH  20  25
ATOM     25  S   UNL A   1      43.521  18.652  25.363  1.00  0.00     0.238 S 
ATOM     26  O   UNL A   1      43.911  18.749  23.980  1.00  0.00    -0.207 OA
ATOM     27  O   UNL A   1      42.430  17.814  25.815  1.00  0.00    -0.207 OA
BRANCH  25  28
ATOM     28  N   UNL A   1      44.879  18.096  26.180  1.00  0.00    -0.225 NA
ATOM     29  H   UNL A   1      44.734  18.192  27.186  1.00  0.00     0.137 HD
ATOM     30  H   UNL A   1      45.692  18.645  25.901  1.00  0.00     0.137 HD
ENDBRANCH  25  28
ENDBRANCH  20  25
ENDBRANCH  15  19
BRANCH  17  31
ATOM     31  C   UNL A   1      44.693  25.020  28.008  1.00  0.00     0.000 A 
ATOM     32  C   UNL A   1      45.271  25.114  29.285  1.00  0.00     0.010 A 
ATOM     33  C   UNL A   1      45.527  24.870  26.896  1.00  0.00     0.010 A 
ATOM     34  C   UNL A   1      46.655  25.123  29.446  1.00  0.00     0.001 A 
ATOM     35  C   UNL A   1      46.916  24.861  27.061  1.00  0.00     0.001 A 
ATOM     36  C   UNL A   1      47.477  24.999  28.331  1.00  0.00     0.000 A 
ENDBRANCH  17  31
ENDBRANCH   9  14
ENDBRANCH   7   8
ENDBRANCH   6   7
ENDBRANCH   5   6
ENDBRANCH   4   5
ENDBRANCH   3   4
ENDBRANCH   2   3
ENDBRANCH   1   2
BRANCH   1  37
ATOM     37  C   UNL A   1      48.401  29.573  28.198  1.00  0.00     0.001 C 
BRANCH  37  38
ATOM     38  C   UNL A   1      49.312  28.796  29.140  1.00  0.00     0.010 C 
BRANCH  38  39
ATOM     39  C   UNL A   1      48.615  27.918  30.181  1.00  0.00     0.100 C 
BRANCH  39  40
ATOM     40  C   UNL A   1      48.195  28.626  31.457  1.00  0.00     0.219 C 
ATOM     41  O   UNL A   1      48.252  29.857  31.529  1.00  0.00    -0.275 OA
ATOM     42  N   UNL A   1      47.711  27.957  32.540  1.00  0.00    -0.356 N 
ATOM     43  H   UNL A   1      47.428  28.540  33.280  1.00  0.00     0.163 HD
BRANCH  42  44
ATOM     44  C   UNL A   1      47.536  26.538  32.803  1.00  0.00     0.116 C 
BRANCH  44  45
ATOM     45  C   UNL A   1      46.055  26.169  33.023  1.00  0.00     0.023 C 
BRANCH  45  46
ATOM     46  C   UNL A   1      45.764  24.842  33.731  1.00  0.00     0.023 C 
BRANCH  46  47
ATOM     47  C   UNL A   1      44.295  24.464  33.780  1.00  0.00     0.116 C 
BRANCH  47  48
ATOM     48  N   UNL A   1      43.803  24.121  35.123  1.00  0.00    -0.352 N 
ATOM     49  C   UNL A   1      43.557  25.006  36.166  1.00  0.00     0.251 C 
ATOM     50  H   UNL A   1      43.631  23.168  35.301  1.00  0.00     0.163 HD
ATOM     51  O   UNL A   1      43.509  24.653  37.335  1.00  0.00    -0.269 OA
BRANCH  49  52
ATOM     52  C   UNL A   1      43.295  26.402  35.792  1.00  0.00     0.039 A 
ATOM     53  C   UNL A   1      44.159  27.463  36.085  1.00  0.00     0.014 A 
ATOM     54  C   UNL A   1      42.187  26.568  34.972  1.00  0.00     0.014 A 
ATOM     55  C   UNL A   1      43.929  28.691  35.464  1.00  0.00     0.010 A 
ATOM     56  C   UNL A   1      42.136  27.670  34.179  1.00  0.00     0.010 A 
ATOM     57  C   UNL A   1      42.918  28.773  34.499  1.00  0.00    -0.014 A 
BRANCH  57  58
ATOM     58  C   UNL A   1      42.644  29.966  33.714  1.00  0.00     0.031 A 
ATOM     59  C   UNL A   1      43.591  30.214  32.593  1.00  0.00     0.074 A 
ATOM     60  C   UNL A   1      41.438  30.573  33.821  1.00  0.00     0.049 A 
ATOM     61  N   UNL A   1      44.393  31.213  32.438  1.00  0.00    -0.248 NA
ATOM     62  C   UNL A   1      43.772  29.151  31.588  1.00  0.00     0.031 C 
ATOM     63  C   UNL A   1      40.292  30.196  34.669  1.00  0.00     0.029 A 
ATOM     64  N   UNL A   1      40.932  31.602  33.095  1.00  0.00    -0.354 N 
ATOM     65  C   UNL A   1      45.016  31.018  31.204  1.00  0.00     0.074 A 
ATOM     66  C   UNL A   1      44.758  29.651  30.840  1.00  0.00     0.031 C 
ATOM     67  C   UNL A   1      39.176  30.825  34.242  1.00  0.00     0.029 A 
ATOM     68  C   UNL A   1      39.556  31.784  33.227  1.00  0.00     0.049 A 
ATOM     69  H   UNL A   1      41.492  32.173  32.520  1.00  0.00     0.167 HD
ATOM     70  C   UNL A   1      45.466  32.074  30.468  1.00  0.00     0.037 A 
ATOM     71  C   UNL A   1      38.794  32.661  32.529  1.00  0.00     0.037 A 
ATOM     72  C   UNL A   1      45.540  33.265  31.281  1.00  0.00     0.049 A 
ATOM     73  C   UNL A   1      39.720  33.675  31.964  1.00  0.00     0.074 A 
ATOM     74  C   UNL A   1      46.247  33.630  32.410  1.00  0.00     0.029 A 
ATOM     75  N   UNL A   1      44.499  34.156  31.190  1.00  0.00    -0.354 N 
ATOM     76  N   UNL A   1      40.406  34.507  32.702  1.00  0.00    -0.248 NA
ATOM     77  C   UNL A   1      40.268  33.413  30.643  1.00  0.00     0.031 C 
ATOM     78  C   UNL A   1      45.322  34.383  33.193  1.00  0.00     0.029 A 
ATOM     79  C   UNL A   1      44.136  34.506  32.466  1.00  0.00     0.049 A 
ATOM     80  H   UNL A   1      44.087  34.486  30.359  1.00  0.00     0.167 HD
ATOM     81  C   UNL A   1      41.666  34.547  32.120  1.00  0.00     0.074 A 
ATOM     82  C   UNL A   1      41.501  33.898  30.818  1.00  0.00     0.031 C 
ATOM     83  C   UNL A   1      42.781  34.823  32.861  1.00  0.00     0.037 A 
BRANCH  70  84
ATOM     84  C   UNL A   1      45.464  32.143  28.956  1.00  0.00     0.057 A 
ATOM     85  C   UNL A   1      46.635  32.565  28.295  1.00  0.00     0.134 A 
ATOM     86  C   UNL A   1      44.310  32.104  28.147  1.00  0.00     0.134 A 
ATOM     87  F   UNL A   1      47.806  32.640  28.945  1.00  0.00    -0.206 F 
ATOM     88  C   UNL A   1      46.633  33.008  26.966  1.00  0.00     0.040 A 
ATOM     89  C   UNL A   1      44.309  32.496  26.805  1.00  0.00     0.040 A 
ATOM     90  F   UNL A   1      43.103  31.782  28.622  1.00  0.00    -0.206 F 
ATOM     91  C   UNL A   1      45.463  32.987  26.220  1.00  0.00     0.006 A 
ENDBRANCH  70  84
BRANCH  71  92
ATOM     92  C   UNL A   1      37.402  32.486  32.057  1.00  0.00     0.057 A 
ATOM     93  C   UNL A   1      36.372  33.337  32.479  1.00  0.00     0.134 A 
ATOM     94  C   UNL A   1      37.100  31.644  30.970  1.00  0.00     0.134 A 
ATOM     95  F   UNL A   1      36.576  34.208  33.477  1.00  0.00    -0.206 F 
ATOM     96  C   UNL A   1      35.118  33.360  31.848  1.00  0.00     0.040 A 
ATOM     97  C   UNL A   1      35.854  31.656  30.333  1.00  0.00     0.040 A 
ATOM     98  F   UNL A   1      38.035  30.845  30.436  1.00  0.00    -0.206 F 
ATOM     99  C   UNL A   1      34.860  32.525  30.765  1.00  0.00     0.006 A 
ENDBRANCH  71  92
BRANCH  83 100
ATOM    100  C   UNL A   1      42.587  35.270  34.289  1.00  0.00     0.057 A 
ATOM    101  C   UNL A   1      42.551  34.398  35.389  1.00  0.00     0.134 A 
ATOM    102  C   UNL A   1      42.622  36.636  34.578  1.00  0.00     0.134 A 
ATOM    103  F   UNL A   1      42.612  33.074  35.226  1.00  0.00    -0.206 F 
ATOM    104  C   UNL A   1      42.519  34.861  36.709  1.00  0.00     0.040 A 
ATOM    105  C   UNL A   1      42.620  37.114  35.892  1.00  0.00     0.040 A 
ATOM    106  F   UNL A   1      42.718  37.533  33.584  1.00  0.00    -0.206 F 
ATOM    107  C   UNL A   1      42.561  36.227  36.964  1.00  0.00     0.006 A 
ENDBRANCH  83 100
ENDBRANCH  57  58
ENDBRANCH  49  52
ENDBRANCH  47  48
ENDBRANCH  46  47
ENDBRANCH  45  46
ENDBRANCH  44  45
ENDBRANCH  42  44
ENDBRANCH  39  40
ENDBRANCH  38  39
ENDBRANCH  37  38
ENDBRANCH   1  37
TORSDOF 26
ENDMDL
