MODEL 1
REMARK VINA RESULT:     -13.2      0.000      0.000
REMARK SMILES Cc1ccc(N2C(=O)C[C@H](Sc3ccccc3C(=O)NCCCCNC(=O)c3ccc(-c4c5nc(c(-c6c(F)cccc6F)c6ccc([nH]6)c(-c6c(F)cccc6F)c6nc(c(-c7c(F)cccc7F)c7ccc4[nH]7)C=C6)C=C5)cc3)C2=O)cc1
REMARK SMILES IDX 22 1 21 2 20 3 18 4 19 5 17 7 12 8 13 9 14 10 16 11 15 12
REMARK SMILES IDX 11 13 10 14 6 15 7 16 82 17 8 18 9 19 83 20 5 21 1 22 2 23
REMARK SMILES IDX 3 24 85 25 4 26 84 27 23 28 24 29 25 30 26 31 27 33 28 34
REMARK SMILES IDX 29 35 81 36 30 37 80 38 31 39 32 40 33 41 74 42 34 43 79 44
REMARK SMILES IDX 73 45 75 46 35 47 78 48 72 49 71 50 36 52 62 53 45 54 61 55
REMARK SMILES IDX 46 56 49 57 60 58 76 59 47 60 48 61 59 63 77 64 50 65 37 66
REMARK SMILES IDX 38 67 43 68 39 69 40 70 42 71 44 72 41 73 63 74 64 75 69 76
REMARK SMILES IDX 65 77 66 78 68 79 70 80 67 81 51 82 52 83 57 84 53 85 54 86
REMARK SMILES IDX 56 87 58 88 55 89
REMARK H PARENT 20 6 25 32 75 51 49 62
REMARK Flexibility Score: inf
ROOT
ATOM      1  C   UNL A   1      32.268  30.678  26.787  1.00  0.00     0.023 C 
ENDROOT
BRANCH   1   2
ATOM      2  C   UNL A   1      32.104  29.250  27.307  1.00  0.00     0.116 C 
BRANCH   2   3
ATOM      3  N   UNL A   1      32.959  28.245  26.683  1.00  0.00    -0.352 N 
ATOM      4  C   UNL A   1      32.966  27.622  25.451  1.00  0.00     0.252 C 
ATOM      5  O   UNL A   1      33.933  26.911  25.189  1.00  0.00    -0.269 OA
ATOM      6  H   UNL A   1      33.692  27.945  27.268  1.00  0.00     0.163 HD
BRANCH   4   7
ATOM      7  C   UNL A   1      31.841  27.748  24.482  1.00  0.00     0.053 A 
ATOM      8  C   UNL A   1      30.642  27.002  24.596  1.00  0.00     0.021 A 
ATOM      9  C   UNL A   1      29.611  27.232  23.663  1.00  0.00     0.016 A 
ATOM     10  C   UNL A   1      29.773  28.137  22.613  1.00  0.00     0.001 A 
ATOM     11  C   UNL A   1      32.020  28.572  23.358  1.00  0.00     0.015 A 
ATOM     12  C   UNL A   1      30.988  28.785  22.443  1.00  0.00     0.001 A 
BRANCH   8  13
ATOM     13  S   UNL A   1      30.413  25.519  25.592  1.00  0.00    -0.111 SA
BRANCH  13  14
ATOM     14  C   UNL A   1      31.171  24.157  24.654  1.00  0.00     0.151 C 
ATOM     15  N   UNL A   1      33.463  23.766  24.453  1.00  0.00    -0.250 N 
ATOM     16  C   UNL A   1      33.100  24.458  23.320  1.00  0.00     0.235 C 
ATOM     17  C   UNL A   1      32.394  23.564  25.300  1.00  0.00     0.247 C 
ATOM     18  O   UNL A   1      33.808  24.873  22.412  1.00  0.00    -0.274 OA
ATOM     19  C   UNL A   1      31.606  24.514  23.255  1.00  0.00     0.126 C 
ATOM     20  O   UNL A   1      32.395  23.029  26.401  1.00  0.00    -0.273 OA
BRANCH  15  21
ATOM     21  C   UNL A   1      34.767  23.255  24.676  1.00  0.00     0.052 A 
ATOM     22  C   UNL A   1      38.639  21.615  25.691  1.00  0.00     0.044 C 
ATOM     23  C   UNL A   1      37.312  22.194  25.300  1.00  0.00    -0.051 A 
ATOM     24  C   UNL A   1      36.989  23.508  25.642  1.00  0.00     0.005 A 
ATOM     25  C   UNL A   1      36.358  21.413  24.643  1.00  0.00     0.005 A 
ATOM     26  C   UNL A   1      35.738  24.042  25.311  1.00  0.00     0.027 A 
ATOM     27  C   UNL A   1      35.094  21.935  24.346  1.00  0.00     0.027 A 
ENDBRANCH  15  21
ENDBRANCH  13  14
ENDBRANCH   8  13
ENDBRANCH   4   7
ENDBRANCH   2   3
ENDBRANCH   1   2
BRANCH   1  28
ATOM     28  C   UNL A   1      33.276  31.563  27.515  1.00  0.00     0.023 C 
BRANCH  28  29
ATOM     29  C   UNL A   1      34.647  30.948  27.772  1.00  0.00     0.116 C 
BRANCH  29  30
ATOM     30  N   UNL A   1      35.590  31.781  28.512  1.00  0.00    -0.352 N 
ATOM     31  C   UNL A   1      36.815  31.431  29.068  1.00  0.00     0.251 C 
ATOM     32  H   UNL A   1      35.321  32.720  28.633  1.00  0.00     0.163 HD
ATOM     33  O   UNL A   1      37.485  32.263  29.662  1.00  0.00    -0.269 OA
BRANCH  31  34
ATOM     34  C   UNL A   1      37.371  30.076  28.815  1.00  0.00     0.039 A 
ATOM     35  C   UNL A   1      37.470  29.194  29.898  1.00  0.00     0.014 A 
ATOM     36  C   UNL A   1      37.994  29.769  27.610  1.00  0.00     0.014 A 
ATOM     37  C   UNL A   1      38.424  28.180  29.864  1.00  0.00     0.010 A 
ATOM     38  C   UNL A   1      39.014  28.838  27.610  1.00  0.00     0.010 A 
ATOM     39  C   UNL A   1      39.284  28.105  28.770  1.00  0.00    -0.014 A 
BRANCH  39  40
ATOM     40  C   UNL A   1      40.581  27.437  28.826  1.00  0.00     0.031 A 
ATOM     41  C   UNL A   1      40.714  25.998  28.527  1.00  0.00     0.074 A 
ATOM     42  C   UNL A   1      41.683  28.185  29.056  1.00  0.00     0.049 A 
ATOM     43  N   UNL A   1      41.710  25.264  28.893  1.00  0.00    -0.248 NA
ATOM     44  C   UNL A   1      39.679  25.252  27.829  1.00  0.00     0.031 C 
ATOM     45  C   UNL A   1      43.078  27.802  28.863  1.00  0.00     0.029 A 
ATOM     46  N   UNL A   1      41.750  29.416  29.729  1.00  0.00    -0.354 N 
ATOM     47  C   UNL A   1      41.598  24.047  28.256  1.00  0.00     0.074 A 
ATOM     48  C   UNL A   1      40.272  24.063  27.685  1.00  0.00     0.031 C 
ATOM     49  C   UNL A   1      43.852  28.588  29.628  1.00  0.00     0.029 A 
ATOM     50  C   UNL A   1      42.964  29.393  30.449  1.00  0.00     0.049 A 
ATOM     51  H   UNL A   1      41.086  30.143  29.704  1.00  0.00     0.167 HD
ATOM     52  C   UNL A   1      42.697  23.239  28.177  1.00  0.00     0.037 A 
ATOM     53  C   UNL A   1      42.982  29.431  31.813  1.00  0.00     0.037 A 
ATOM     54  C   UNL A   1      43.797  23.775  28.986  1.00  0.00     0.049 A 
ATOM     55  C   UNL A   1      43.652  28.235  32.451  1.00  0.00     0.074 A 
ATOM     56  C   UNL A   1      44.933  24.502  28.666  1.00  0.00     0.029 A 
ATOM     57  N   UNL A   1      43.666  23.843  30.369  1.00  0.00    -0.354 N 
ATOM     58  N   UNL A   1      43.865  27.106  31.835  1.00  0.00    -0.248 NA
ATOM     59  C   UNL A   1      44.099  28.206  33.842  1.00  0.00     0.031 C 
ATOM     60  C   UNL A   1      45.448  25.063  29.862  1.00  0.00     0.029 A 
ATOM     61  C   UNL A   1      44.640  24.661  30.910  1.00  0.00     0.049 A 
ATOM     62  H   UNL A   1      42.975  23.372  30.890  1.00  0.00     0.167 HD
ATOM     63  C   UNL A   1      44.421  26.207  32.709  1.00  0.00     0.074 A 
ATOM     64  C   UNL A   1      44.573  26.953  33.944  1.00  0.00     0.031 C 
ATOM     65  C   UNL A   1      44.688  24.919  32.342  1.00  0.00     0.037 A 
BRANCH  52  66
ATOM     66  C   UNL A   1      42.893  22.134  27.147  1.00  0.00     0.057 A 
ATOM     67  C   UNL A   1      42.137  20.942  27.217  1.00  0.00     0.134 A 
ATOM     68  C   UNL A   1      43.851  22.126  26.117  1.00  0.00     0.134 A 
ATOM     69  F   UNL A   1      41.099  20.814  28.053  1.00  0.00    -0.206 F 
ATOM     70  C   UNL A   1      42.401  19.811  26.429  1.00  0.00     0.040 A 
ATOM     71  C   UNL A   1      44.155  20.991  25.348  1.00  0.00     0.040 A 
ATOM     72  F   UNL A   1      44.503  23.229  25.744  1.00  0.00    -0.206 F 
ATOM     73  C   UNL A   1      43.441  19.819  25.514  1.00  0.00     0.006 A 
ENDBRANCH  52  66
BRANCH  53  74
ATOM     74  C   UNL A   1      41.844  30.181  32.404  1.00  0.00     0.057 A 
ATOM     75  C   UNL A   1      40.722  29.464  32.854  1.00  0.00     0.134 A 
ATOM     76  C   UNL A   1      41.981  31.497  32.854  1.00  0.00     0.134 A 
ATOM     77  F   UNL A   1      40.532  28.193  32.463  1.00  0.00    -0.206 F 
ATOM     78  C   UNL A   1      39.835  29.993  33.795  1.00  0.00     0.040 A 
ATOM     79  C   UNL A   1      41.091  32.041  33.788  1.00  0.00     0.040 A 
ATOM     80  F   UNL A   1      43.037  32.238  32.490  1.00  0.00    -0.206 F 
ATOM     81  C   UNL A   1      40.038  31.277  34.289  1.00  0.00     0.006 A 
ENDBRANCH  53  74
BRANCH  65  82
ATOM     82  C   UNL A   1      45.091  23.804  33.275  1.00  0.00     0.057 A 
ATOM     83  C   UNL A   1      46.367  23.670  33.839  1.00  0.00     0.134 A 
ATOM     84  C   UNL A   1      44.124  22.893  33.756  1.00  0.00     0.134 A 
ATOM     85  F   UNL A   1      47.353  24.534  33.558  1.00  0.00    -0.206 F 
ATOM     86  C   UNL A   1      46.676  22.669  34.771  1.00  0.00     0.040 A 
ATOM     87  C   UNL A   1      44.408  21.925  34.724  1.00  0.00     0.040 A 
ATOM     88  F   UNL A   1      42.855  22.920  33.323  1.00  0.00    -0.206 F 
ATOM     89  C   UNL A   1      45.694  21.800  35.225  1.00  0.00     0.006 A 
ENDBRANCH  65  82
ENDBRANCH  39  40
ENDBRANCH  31  34
ENDBRANCH  29  30
ENDBRANCH  28  29
ENDBRANCH   1  28
TORSDOF 14
ENDMDL
MODEL 2
REMARK VINA RESULT:     -13.0      0.940      1.651
REMARK SMILES Cc1ccc(N2C(=O)C[C@H](Sc3ccccc3C(=O)NCCCCNC(=O)c3ccc(-c4c5nc(c(-c6c(F)cccc6F)c6ccc([nH]6)c(-c6c(F)cccc6F)c6nc(c(-c7c(F)cccc7F)c7ccc4[nH]7)C=C6)C=C5)cc3)C2=O)cc1
REMARK SMILES IDX 22 1 21 2 20 3 18 4 19 5 17 7 12 8 13 9 14 10 16 11 15 12
REMARK SMILES IDX 11 13 10 14 6 15 7 16 82 17 8 18 9 19 83 20 5 21 1 22 2 23
REMARK SMILES IDX 3 24 85 25 4 26 84 27 23 28 24 29 25 30 26 31 27 33 28 34
REMARK SMILES IDX 29 35 81 36 30 37 80 38 31 39 32 40 33 41 74 42 34 43 79 44
REMARK SMILES IDX 73 45 75 46 35 47 78 48 72 49 71 50 36 52 62 53 45 54 61 55
REMARK SMILES IDX 46 56 49 57 60 58 76 59 47 60 48 61 59 63 77 64 50 65 37 66
REMARK SMILES IDX 38 67 43 68 39 69 40 70 42 71 44 72 41 73 63 74 64 75 69 76
REMARK SMILES IDX 65 77 66 78 68 79 70 80 67 81 51 82 52 83 57 84 53 85 54 86
REMARK SMILES IDX 56 87 58 88 55 89
REMARK H PARENT 20 6 25 32 75 51 49 62
REMARK Flexibility Score: inf
ROOT
ATOM      1  C   UNL A   1      32.294  30.264  27.082  1.00  0.00     0.023 C 
ENDROOT
BRANCH   1   2
ATOM      2  C   UNL A   1      31.458  30.406  25.811  1.00  0.00     0.116 C 
BRANCH   2   3
ATOM      3  N   UNL A   1      31.996  29.755  24.621  1.00  0.00    -0.352 N 
ATOM      4  C   UNL A   1      31.428  29.172  23.506  1.00  0.00     0.252 C 
ATOM      5  O   UNL A   1      32.189  28.835  22.601  1.00  0.00    -0.269 OA
ATOM      6  H   UNL A   1      32.980  29.724  24.610  1.00  0.00     0.163 HD
BRANCH   4   7
ATOM      7  C   UNL A   1      29.966  28.904  23.397  1.00  0.00     0.053 A 
ATOM      8  C   UNL A   1      29.407  27.613  23.565  1.00  0.00     0.021 A 
ATOM      9  C   UNL A   1      28.006  27.469  23.501  1.00  0.00     0.016 A 
ATOM     10  C   UNL A   1      27.178  28.559  23.229  1.00  0.00     0.001 A 
ATOM     11  C   UNL A   1      29.122  29.962  23.019  1.00  0.00     0.015 A 
ATOM     12  C   UNL A   1      27.738  29.800  22.957  1.00  0.00     0.001 A 
BRANCH   8  13
ATOM     13  S   UNL A   1      30.309  26.056  23.496  1.00  0.00    -0.111 SA
BRANCH  13  14
ATOM     14  C   UNL A   1      31.599  26.161  24.774  1.00  0.00     0.151 C 
ATOM     15  N   UNL A   1      33.242  24.553  25.173  1.00  0.00    -0.250 N 
ATOM     16  C   UNL A   1      32.240  24.300  26.083  1.00  0.00     0.235 C 
ATOM     17  C   UNL A   1      32.937  25.618  24.353  1.00  0.00     0.247 C 
ATOM     18  O   UNL A   1      32.149  23.387  26.893  1.00  0.00    -0.274 OA
ATOM     19  C   UNL A   1      31.278  25.445  26.062  1.00  0.00     0.126 C 
ATOM     20  O   UNL A   1      33.591  26.061  23.417  1.00  0.00    -0.273 OA
BRANCH  15  21
ATOM     21  C   UNL A   1      34.471  23.847  25.144  1.00  0.00     0.052 A 
ATOM     22  C   UNL A   1      38.150  21.585  25.393  1.00  0.00     0.044 C 
ATOM     23  C   UNL A   1      36.886  22.382  25.267  1.00  0.00    -0.051 A 
ATOM     24  C   UNL A   1      36.811  23.671  25.798  1.00  0.00     0.005 A 
ATOM     25  C   UNL A   1      35.749  21.830  24.673  1.00  0.00     0.005 A 
ATOM     26  C   UNL A   1      35.623  24.407  25.714  1.00  0.00     0.027 A 
ATOM     27  C   UNL A   1      34.551  22.551  24.624  1.00  0.00     0.027 A 
ENDBRANCH  15  21
ENDBRANCH  13  14
ENDBRANCH   8  13
ENDBRANCH   4   7
ENDBRANCH   2   3
ENDBRANCH   1   2
BRANCH   1  28
ATOM     28  C   UNL A   1      33.338  31.347  27.342  1.00  0.00     0.023 C 
BRANCH  28  29
ATOM     29  C   UNL A   1      34.777  30.869  27.502  1.00  0.00     0.116 C 
BRANCH  29  30
ATOM     30  N   UNL A   1      35.601  31.631  28.435  1.00  0.00    -0.352 N 
ATOM     31  C   UNL A   1      36.750  31.236  29.108  1.00  0.00     0.251 C 
ATOM     32  H   UNL A   1      35.301  32.553  28.611  1.00  0.00     0.163 HD
ATOM     33  O   UNL A   1      37.323  32.009  29.862  1.00  0.00    -0.269 OA
BRANCH  31  34
ATOM     34  C   UNL A   1      37.360  29.916  28.801  1.00  0.00     0.039 A 
ATOM     35  C   UNL A   1      37.435  28.970  29.831  1.00  0.00     0.014 A 
ATOM     36  C   UNL A   1      38.048  29.703  27.611  1.00  0.00     0.014 A 
ATOM     37  C   UNL A   1      38.420  27.987  29.781  1.00  0.00     0.010 A 
ATOM     38  C   UNL A   1      39.096  28.803  27.603  1.00  0.00     0.010 A 
ATOM     39  C   UNL A   1      39.333  28.006  28.728  1.00  0.00    -0.014 A 
BRANCH  39  40
ATOM     40  C   UNL A   1      40.646  27.373  28.806  1.00  0.00     0.031 A 
ATOM     41  C   UNL A   1      40.828  25.947  28.473  1.00  0.00     0.074 A 
ATOM     42  C   UNL A   1      41.719  28.144  29.091  1.00  0.00     0.049 A 
ATOM     43  N   UNL A   1      41.833  25.230  28.850  1.00  0.00    -0.248 NA
ATOM     44  C   UNL A   1      39.836  25.192  27.723  1.00  0.00     0.031 C 
ATOM     45  C   UNL A   1      43.129  27.804  28.931  1.00  0.00     0.029 A 
ATOM     46  N   UNL A   1      41.730  29.356  29.799  1.00  0.00    -0.354 N 
ATOM     47  C   UNL A   1      41.775  24.029  28.177  1.00  0.00     0.074 A 
ATOM     48  C   UNL A   1      40.467  24.024  27.565  1.00  0.00     0.031 C 
ATOM     49  C   UNL A   1      43.857  28.589  29.742  1.00  0.00     0.029 A 
ATOM     50  C   UNL A   1      42.922  29.347  30.556  1.00  0.00     0.049 A 
ATOM     51  H   UNL A   1      41.048  30.065  29.773  1.00  0.00     0.167 HD
ATOM     52  C   UNL A   1      42.898  23.253  28.111  1.00  0.00     0.037 A 
ATOM     53  C   UNL A   1      42.898  29.346  31.920  1.00  0.00     0.037 A 
ATOM     54  C   UNL A   1      43.957  23.797  28.968  1.00  0.00     0.049 A 
ATOM     55  C   UNL A   1      43.581  28.152  32.546  1.00  0.00     0.074 A 
ATOM     56  C   UNL A   1      45.082  24.563  28.703  1.00  0.00     0.029 A 
ATOM     57  N   UNL A   1      43.782  23.822  30.347  1.00  0.00    -0.354 N 
ATOM     58  N   UNL A   1      43.845  27.047  31.907  1.00  0.00    -0.248 NA
ATOM     59  C   UNL A   1      43.986  28.097  33.949  1.00  0.00     0.031 C 
ATOM     60  C   UNL A   1      45.544  25.104  29.930  1.00  0.00     0.029 A 
ATOM     61  C   UNL A   1      44.715  24.651  30.941  1.00  0.00     0.049 A 
ATOM     62  H   UNL A   1      43.090  23.319  30.834  1.00  0.00     0.167 HD
ATOM     63  C   UNL A   1      44.398  26.140  32.773  1.00  0.00     0.074 A 
ATOM     64  C   UNL A   1      44.491  26.854  34.032  1.00  0.00     0.031 C 
ATOM     65  C   UNL A   1      44.713  24.871  32.380  1.00  0.00     0.037 A 
BRANCH  52  66
ATOM     66  C   UNL A   1      43.157  22.183  27.057  1.00  0.00     0.057 A 
ATOM     67  C   UNL A   1      42.410  20.984  27.052  1.00  0.00     0.134 A 
ATOM     68  C   UNL A   1      44.165  22.216  26.078  1.00  0.00     0.134 A 
ATOM     69  F   UNL A   1      41.332  20.820  27.830  1.00  0.00    -0.206 F 
ATOM     70  C   UNL A   1      42.725  19.881  26.243  1.00  0.00     0.040 A 
ATOM     71  C   UNL A   1      44.519  21.108  25.290  1.00  0.00     0.040 A 
ATOM     72  F   UNL A   1      44.825  23.335  25.773  1.00  0.00    -0.206 F 
ATOM     73  C   UNL A   1      43.809  19.926  25.383  1.00  0.00     0.006 A 
ENDBRANCH  52  66
BRANCH  53  74
ATOM     74  C   UNL A   1      41.721  30.049  32.495  1.00  0.00     0.057 A 
ATOM     75  C   UNL A   1      41.698  31.455  32.477  1.00  0.00     0.134 A 
ATOM     76  C   UNL A   1      40.507  29.396  32.718  1.00  0.00     0.134 A 
ATOM     77  F   UNL A   1      42.830  32.146  32.263  1.00  0.00    -0.206 F 
ATOM     78  C   UNL A   1      40.505  32.176  32.569  1.00  0.00     0.040 A 
ATOM     79  C   UNL A   1      39.306  30.109  32.823  1.00  0.00     0.040 A 
ATOM     80  F   UNL A   1      40.441  28.057  32.724  1.00  0.00    -0.206 F 
ATOM     81  C   UNL A   1      39.299  31.499  32.710  1.00  0.00     0.006 A 
ENDBRANCH  53  74
BRANCH  65  82
ATOM     82  C   UNL A   1      45.119  23.741  33.294  1.00  0.00     0.057 A 
ATOM     83  C   UNL A   1      46.396  23.600  33.855  1.00  0.00     0.134 A 
ATOM     84  C   UNL A   1      44.153  22.821  33.762  1.00  0.00     0.134 A 
ATOM     85  F   UNL A   1      47.380  24.470  33.587  1.00  0.00    -0.206 F 
ATOM     86  C   UNL A   1      46.707  22.585  34.771  1.00  0.00     0.040 A 
ATOM     87  C   UNL A   1      44.440  21.838  34.714  1.00  0.00     0.040 A 
ATOM     88  F   UNL A   1      42.884  22.853  33.331  1.00  0.00    -0.206 F 
ATOM     89  C   UNL A   1      45.726  21.707  35.212  1.00  0.00     0.006 A 
ENDBRANCH  65  82
ENDBRANCH  39  40
ENDBRANCH  31  34
ENDBRANCH  29  30
ENDBRANCH  28  29
ENDBRANCH   1  28
TORSDOF 14
ENDMDL
MODEL 3
REMARK VINA RESULT:     -13.0      3.697      9.417
REMARK SMILES Cc1ccc(N2C(=O)C[C@H](Sc3ccccc3C(=O)NCCCCNC(=O)c3ccc(-c4c5nc(c(-c6c(F)cccc6F)c6ccc([nH]6)c(-c6c(F)cccc6F)c6nc(c(-c7c(F)cccc7F)c7ccc4[nH]7)C=C6)C=C5)cc3)C2=O)cc1
REMARK SMILES IDX 22 1 21 2 20 3 18 4 19 5 17 7 12 8 13 9 14 10 16 11 15 12
REMARK SMILES IDX 11 13 10 14 6 15 7 16 82 17 8 18 9 19 83 20 5 21 1 22 2 23
REMARK SMILES IDX 3 24 85 25 4 26 84 27 23 28 24 29 25 30 26 31 27 33 28 34
REMARK SMILES IDX 29 35 81 36 30 37 80 38 31 39 32 40 33 41 74 42 34 43 79 44
REMARK SMILES IDX 73 45 75 46 35 47 78 48 72 49 71 50 36 52 62 53 45 54 61 55
REMARK SMILES IDX 46 56 49 57 60 58 76 59 47 60 48 61 59 63 77 64 50 65 37 66
REMARK SMILES IDX 38 67 43 68 39 69 40 70 42 71 44 72 41 73 63 74 64 75 69 76
REMARK SMILES IDX 65 77 66 78 68 79 70 80 67 81 51 82 52 83 57 84 53 85 54 86
REMARK SMILES IDX 56 87 58 88 55 89
REMARK H PARENT 20 6 25 32 75 51 49 62
REMARK Flexibility Score: inf
ROOT
ATOM      1  C   UNL A   1      37.457  21.209  24.726  1.00  0.00     0.023 C 
ENDROOT
BRANCH   1   2
ATOM      2  C   UNL A   1      36.288  22.187  24.850  1.00  0.00     0.116 C 
BRANCH   2   3
ATOM      3  N   UNL A   1      35.384  21.958  25.973  1.00  0.00    -0.352 N 
ATOM      4  C   UNL A   1      34.286  21.144  26.170  1.00  0.00     0.252 C 
ATOM      5  O   UNL A   1      33.829  21.088  27.309  1.00  0.00    -0.269 OA
ATOM      6  H   UNL A   1      35.605  22.502  26.763  1.00  0.00     0.163 HD
BRANCH   4   7
ATOM      7  C   UNL A   1      33.632  20.396  25.060  1.00  0.00     0.053 A 
ATOM      8  C   UNL A   1      32.673  20.982  24.198  1.00  0.00     0.021 A 
ATOM      9  C   UNL A   1      32.153  20.211  23.140  1.00  0.00     0.016 A 
ATOM     10  C   UNL A   1      32.528  18.878  22.963  1.00  0.00     0.001 A 
ATOM     11  C   UNL A   1      33.912  19.025  24.926  1.00  0.00     0.015 A 
ATOM     12  C   UNL A   1      33.384  18.276  23.874  1.00  0.00     0.001 A 
BRANCH   8  13
ATOM     13  S   UNL A   1      31.763  22.505  24.513  1.00  0.00    -0.111 SA
BRANCH  13  14
ATOM     14  C   UNL A   1      32.894  23.866  24.091  1.00  0.00     0.151 C 
ATOM     15  N   UNL A   1      32.693  26.069  24.833  1.00  0.00    -0.250 N 
ATOM     16  C   UNL A   1      32.121  26.041  23.581  1.00  0.00     0.235 C 
ATOM     17  C   UNL A   1      33.155  24.828  25.217  1.00  0.00     0.247 C 
ATOM     18  O   UNL A   1      31.545  26.937  22.978  1.00  0.00    -0.274 OA
ATOM     19  C   UNL A   1      32.446  24.730  22.939  1.00  0.00     0.126 C 
ATOM     20  O   UNL A   1      33.666  24.511  26.284  1.00  0.00    -0.273 OA
BRANCH  15  21
ATOM     21  C   UNL A   1      32.855  27.254  25.595  1.00  0.00     0.052 A 
ATOM     22  C   UNL A   1      33.242  31.053  27.626  1.00  0.00     0.044 C 
ATOM     23  C   UNL A   1      33.122  29.716  26.958  1.00  0.00    -0.051 A 
ATOM     24  C   UNL A   1      34.149  29.245  26.137  1.00  0.00     0.005 A 
ATOM     25  C   UNL A   1      31.963  28.950  27.096  1.00  0.00     0.005 A 
ATOM     26  C   UNL A   1      34.028  28.014  25.482  1.00  0.00     0.027 A 
ATOM     27  C   UNL A   1      31.826  27.737  26.410  1.00  0.00     0.027 A 
ENDBRANCH  15  21
ENDBRANCH  13  14
ENDBRANCH   8  13
ENDBRANCH   4   7
ENDBRANCH   2   3
ENDBRANCH   1   2
BRANCH   1  28
ATOM     28  C   UNL A   1      38.580  21.349  25.751  1.00  0.00     0.023 C 
BRANCH  28  29
ATOM     29  C   UNL A   1      39.009  22.772  26.088  1.00  0.00     0.116 C 
BRANCH  29  30
ATOM     30  N   UNL A   1      40.346  22.916  26.654  1.00  0.00    -0.352 N 
ATOM     31  C   UNL A   1      40.958  24.052  27.170  1.00  0.00     0.251 C 
ATOM     32  H   UNL A   1      40.889  22.095  26.674  1.00  0.00     0.163 HD
ATOM     33  O   UNL A   1      42.097  23.996  27.610  1.00  0.00    -0.269 OA
BRANCH  31  34
ATOM     34  C   UNL A   1      40.171  25.305  27.314  1.00  0.00     0.039 A 
ATOM     35  C   UNL A   1      40.541  26.407  26.534  1.00  0.00     0.014 A 
ATOM     36  C   UNL A   1      39.257  25.462  28.351  1.00  0.00     0.014 A 
ATOM     37  C   UNL A   1      40.232  27.690  26.979  1.00  0.00     0.010 A 
ATOM     38  C   UNL A   1      39.042  26.730  28.857  1.00  0.00     0.010 A 
ATOM     39  C   UNL A   1      39.606  27.837  28.215  1.00  0.00    -0.014 A 
BRANCH  39  40
ATOM     40  C   UNL A   1      39.665  29.073  28.991  1.00  0.00     0.031 A 
ATOM     41  C   UNL A   1      38.647  30.128  28.827  1.00  0.00     0.074 A 
ATOM     42  C   UNL A   1      40.615  29.191  29.945  1.00  0.00     0.049 A 
ATOM     43  N   UNL A   1      38.807  31.360  29.177  1.00  0.00    -0.248 NA
ATOM     44  C   UNL A   1      37.366  29.878  28.185  1.00  0.00     0.031 C 
ATOM     45  C   UNL A   1      40.682  30.176  31.020  1.00  0.00     0.029 A 
ATOM     46  N   UNL A   1      41.856  28.537  29.995  1.00  0.00    -0.354 N 
ATOM     47  C   UNL A   1      37.587  31.993  29.077  1.00  0.00     0.074 A 
ATOM     48  C   UNL A   1      36.753  31.051  28.368  1.00  0.00     0.031 C 
ATOM     49  C   UNL A   1      41.955  30.278  31.434  1.00  0.00     0.029 A 
ATOM     50  C   UNL A   1      42.764  29.475  30.532  1.00  0.00     0.049 A 
ATOM     51  H   UNL A   1      42.052  27.614  29.712  1.00  0.00     0.167 HD
ATOM     52  C   UNL A   1      37.401  33.178  29.730  1.00  0.00     0.037 A 
ATOM     53  C   UNL A   1      43.817  29.943  29.803  1.00  0.00     0.037 A 
ATOM     54  C   UNL A   1      38.664  33.663  30.299  1.00  0.00     0.049 A 
ATOM     55  C   UNL A   1      43.813  31.442  29.610  1.00  0.00     0.074 A 
ATOM     56  C   UNL A   1      39.198  33.620  31.577  1.00  0.00     0.029 A 
ATOM     57  N   UNL A   1      39.703  34.033  29.452  1.00  0.00    -0.354 N 
ATOM     58  N   UNL A   1      42.762  32.194  29.777  1.00  0.00    -0.248 NA
ATOM     59  C   UNL A   1      44.983  32.206  29.180  1.00  0.00     0.031 C 
ATOM     60  C   UNL A   1      40.584  33.903  31.484  1.00  0.00     0.029 A 
ATOM     61  C   UNL A   1      40.889  34.140  30.155  1.00  0.00     0.049 A 
ATOM     62  H   UNL A   1      39.608  34.197  28.486  1.00  0.00     0.167 HD
ATOM     63  C   UNL A   1      43.071  33.490  29.455  1.00  0.00     0.074 A 
ATOM     64  C   UNL A   1      44.480  33.450  29.114  1.00  0.00     0.031 C 
ATOM     65  C   UNL A   1      42.131  34.481  29.478  1.00  0.00     0.037 A 
BRANCH  52  66
ATOM     66  C   UNL A   1      36.046  33.755  30.121  1.00  0.00     0.057 A 
ATOM     67  C   UNL A   1      35.167  34.256  29.135  1.00  0.00     0.134 A 
ATOM     68  C   UNL A   1      35.569  33.929  31.432  1.00  0.00     0.134 A 
ATOM     69  F   UNL A   1      35.393  34.071  27.828  1.00  0.00    -0.206 F 
ATOM     70  C   UNL A   1      33.999  34.975  29.434  1.00  0.00     0.040 A 
ATOM     71  C   UNL A   1      34.426  34.680  31.751  1.00  0.00     0.040 A 
ATOM     72  F   UNL A   1      36.138  33.329  32.481  1.00  0.00    -0.206 F 
ATOM     73  C   UNL A   1      33.644  35.224  30.749  1.00  0.00     0.006 A 
ENDBRANCH  52  66
BRANCH  53  74
ATOM     74  C   UNL A   1      44.343  28.963  28.818  1.00  0.00     0.057 A 
ATOM     75  C   UNL A   1      43.921  29.056  27.480  1.00  0.00     0.134 A 
ATOM     76  C   UNL A   1      45.484  28.199  29.073  1.00  0.00     0.134 A 
ATOM     77  F   UNL A   1      42.833  29.778  27.164  1.00  0.00    -0.206 F 
ATOM     78  C   UNL A   1      44.660  28.505  26.431  1.00  0.00     0.040 A 
ATOM     79  C   UNL A   1      46.228  27.632  28.030  1.00  0.00     0.040 A 
ATOM     80  F   UNL A   1      45.965  28.082  30.319  1.00  0.00    -0.206 F 
ATOM     81  C   UNL A   1      45.837  27.816  26.704  1.00  0.00     0.006 A 
ENDBRANCH  53  74
BRANCH  65  82
ATOM     82  C   UNL A   1      42.312  35.879  28.940  1.00  0.00     0.057 A 
ATOM     83  C   UNL A   1      43.025  36.892  29.597  1.00  0.00     0.134 A 
ATOM     84  C   UNL A   1      41.882  36.200  27.632  1.00  0.00     0.134 A 
ATOM     85  F   UNL A   1      43.586  36.688  30.797  1.00  0.00    -0.206 F 
ATOM     86  C   UNL A   1      43.245  38.151  29.022  1.00  0.00     0.040 A 
ATOM     87  C   UNL A   1      42.141  37.435  27.029  1.00  0.00     0.040 A 
ATOM     88  F   UNL A   1      41.210  35.319  26.877  1.00  0.00    -0.206 F 
ATOM     89  C   UNL A   1      42.813  38.423  27.731  1.00  0.00     0.006 A 
ENDBRANCH  65  82
ENDBRANCH  39  40
ENDBRANCH  31  34
ENDBRANCH  29  30
ENDBRANCH  28  29
ENDBRANCH   1  28
TORSDOF 14
ENDMDL
