MODEL 1
REMARK VINA RESULT:     -11.2      0.000      0.000
REMARK SMILES Cc1nn(C)c2c1NC(=O)[C@@H](CCC(=O)NCCCCNC(=O)c1ccc(-c3c4nc(c(-c5c(F)cccc5F)c5ccc([nH]5)c(-c5c(F)cccc5F)c5nc(c(-c6c(F)cccc6F)c6ccc3[nH]6)C=C5)C=C4)cc1)N2
REMARK SMILES IDX 18 1 17 2 16 3 14 4 15 5 13 7 12 8 11 9 1 10 2 11 3 12 7 13
REMARK SMILES IDX 4 14 6 15 8 16 5 17 78 18 9 19 10 22 19 23 20 24 21 25 22 26
REMARK SMILES IDX 23 28 24 29 25 30 77 31 26 32 76 33 27 34 28 35 29 36 70 37
REMARK SMILES IDX 30 38 75 39 69 40 71 41 31 42 74 43 68 44 67 45 32 47 58 48
REMARK SMILES IDX 41 49 57 50 42 51 45 52 56 53 72 54 43 55 44 56 55 58 73 59
REMARK SMILES IDX 46 60 33 61 34 62 39 63 35 64 36 65 38 66 40 67 37 68 59 69
REMARK SMILES IDX 60 70 65 71 61 72 62 73 64 74 66 75 63 76 47 77 48 78 53 79
REMARK SMILES IDX 49 80 50 81 52 82 54 83 51 84
REMARK H PARENT 16 6 8 20 78 21 21 27 71 46 45 57
REMARK Flexibility Score: inf
ROOT
ATOM      1  C   UNL A   1      31.785  28.588  27.352  1.00  0.00     0.023 C 
ENDROOT
BRANCH   1   2
ATOM      2  C   UNL A   1      31.452  27.449  26.355  1.00  0.00     0.116 C 
BRANCH   2   3
ATOM      3  N   UNL A   1      31.049  27.823  25.000  1.00  0.00    -0.356 N 
ATOM      4  C   UNL A   1      30.267  27.215  24.049  1.00  0.00     0.220 C 
ATOM      5  O   UNL A   1      29.895  27.931  23.114  1.00  0.00    -0.275 OA
ATOM      6  H   UNL A   1      31.412  28.689  24.709  1.00  0.00     0.163 HD
BRANCH   4   7
ATOM      7  C   UNL A   1      29.883  25.727  24.069  1.00  0.00     0.102 C 
BRANCH   7   8
ATOM      8  C   UNL A   1      30.788  24.815  23.155  1.00  0.00     0.045 C 
BRANCH   8   9
ATOM      9  C   UNL A   1      32.328  25.105  23.189  1.00  0.00     0.171 C 
ATOM     10  C   UNL A   1      32.464  19.924  23.534  1.00  0.00     0.071 C 
ATOM     11  C   UNL A   1      33.017  21.187  24.074  1.00  0.00     0.085 A 
ATOM     12  N   UNL A   1      33.585  21.240  25.294  1.00  0.00    -0.174 NA
ATOM     13  C   UNL A   1      33.034  22.460  23.489  1.00  0.00     0.107 A 
ATOM     14  N   UNL A   1      33.896  22.565  25.441  1.00  0.00    -0.251 N 
ATOM     15  C   UNL A   1      33.238  23.334  24.518  1.00  0.00     0.149 A 
ATOM     16  N   UNL A   1      32.906  22.951  22.218  1.00  0.00    -0.320 N 
ATOM     17  C   UNL A   1      35.152  22.911  26.068  1.00  0.00     0.176 C 
ATOM     18  N   UNL A   1      33.008  24.667  24.446  1.00  0.00    -0.357 N 
ATOM     19  C   UNL A   1      32.916  24.327  22.013  1.00  0.00     0.247 C 
ATOM     20  H   UNL A   1      32.808  22.337  21.455  1.00  0.00     0.170 HD
ATOM     21  H   UNL A   1      33.268  25.293  25.160  1.00  0.00     0.163 HD
ATOM     22  O   UNL A   1      33.153  24.877  20.937  1.00  0.00    -0.272 OA
ENDBRANCH   8   9
ENDBRANCH   7   8
ENDBRANCH   4   7
ENDBRANCH   2   3
ENDBRANCH   1   2
BRANCH   1  23
ATOM     23  C   UNL A   1      32.429  29.886  26.821  1.00  0.00     0.023 C 
BRANCH  23  24
ATOM     24  C   UNL A   1      33.834  30.091  27.390  1.00  0.00     0.116 C 
BRANCH  24  25
ATOM     25  N   UNL A   1      34.277  31.471  27.259  1.00  0.00    -0.352 N 
ATOM     26  C   UNL A   1      35.421  32.091  27.684  1.00  0.00     0.251 C 
ATOM     27  H   UNL A   1      33.647  32.059  26.782  1.00  0.00     0.163 HD
ATOM     28  O   UNL A   1      35.503  33.317  27.575  1.00  0.00    -0.269 OA
BRANCH  26  29
ATOM     29  C   UNL A   1      36.537  31.351  28.313  1.00  0.00     0.039 A 
ATOM     30  C   UNL A   1      36.807  31.618  29.662  1.00  0.00     0.014 A 
ATOM     31  C   UNL A   1      37.362  30.469  27.609  1.00  0.00     0.014 A 
ATOM     32  C   UNL A   1      37.843  30.954  30.316  1.00  0.00     0.010 A 
ATOM     33  C   UNL A   1      38.382  29.787  28.268  1.00  0.00     0.010 A 
ATOM     34  C   UNL A   1      38.611  30.009  29.629  1.00  0.00    -0.014 A 
BRANCH  34  35
ATOM     35  C   UNL A   1      39.574  29.201  30.397  1.00  0.00     0.031 A 
ATOM     36  C   UNL A   1      39.622  27.756  30.013  1.00  0.00     0.074 A 
ATOM     37  C   UNL A   1      40.648  29.760  30.990  1.00  0.00     0.049 A 
ATOM     38  N   UNL A   1      40.312  27.325  28.996  1.00  0.00    -0.248 NA
ATOM     39  C   UNL A   1      38.697  26.764  30.557  1.00  0.00     0.031 C 
ATOM     40  C   UNL A   1      41.320  30.959  30.475  1.00  0.00     0.029 A 
ATOM     41  N   UNL A   1      41.491  29.291  31.972  1.00  0.00    -0.354 N 
ATOM     42  C   UNL A   1      39.887  26.039  28.723  1.00  0.00     0.074 A 
ATOM     43  C   UNL A   1      38.900  25.723  29.733  1.00  0.00     0.031 C 
ATOM     44  C   UNL A   1      42.553  31.028  31.018  1.00  0.00     0.029 A 
ATOM     45  C   UNL A   1      42.703  29.979  32.027  1.00  0.00     0.049 A 
ATOM     46  H   UNL A   1      41.262  28.547  32.573  1.00  0.00     0.167 HD
ATOM     47  C   UNL A   1      40.351  25.318  27.669  1.00  0.00     0.037 A 
ATOM     48  C   UNL A   1      43.899  29.413  32.347  1.00  0.00     0.037 A 
ATOM     49  C   UNL A   1      41.306  25.980  26.831  1.00  0.00     0.049 A 
ATOM     50  C   UNL A   1      44.110  28.484  31.182  1.00  0.00     0.074 A 
ATOM     51  C   UNL A   1      41.306  26.667  25.637  1.00  0.00     0.029 A 
ATOM     52  N   UNL A   1      42.610  26.036  27.259  1.00  0.00    -0.354 N 
ATOM     53  N   UNL A   1      44.529  28.831  29.997  1.00  0.00    -0.248 NA
ATOM     54  C   UNL A   1      43.504  27.153  31.251  1.00  0.00     0.031 C 
ATOM     55  C   UNL A   1      42.480  27.486  25.670  1.00  0.00     0.029 A 
ATOM     56  C   UNL A   1      43.086  27.273  26.907  1.00  0.00     0.049 A 
ATOM     57  H   UNL A   1      43.106  25.326  27.728  1.00  0.00     0.167 HD
ATOM     58  C   UNL A   1      44.014  27.874  29.123  1.00  0.00     0.074 A 
ATOM     59  C   UNL A   1      43.426  26.849  29.962  1.00  0.00     0.031 C 
ATOM     60  C   UNL A   1      43.928  28.064  27.773  1.00  0.00     0.037 A 
BRANCH  47  61
ATOM     61  C   UNL A   1      40.060  23.895  27.416  1.00  0.00     0.057 A 
ATOM     62  C   UNL A   1      40.962  22.944  27.910  1.00  0.00     0.134 A 
ATOM     63  C   UNL A   1      39.090  23.470  26.510  1.00  0.00     0.134 A 
ATOM     64  F   UNL A   1      41.928  23.314  28.768  1.00  0.00    -0.206 F 
ATOM     65  C   UNL A   1      40.937  21.620  27.481  1.00  0.00     0.040 A 
ATOM     66  C   UNL A   1      39.047  22.141  26.076  1.00  0.00     0.040 A 
ATOM     67  F   UNL A   1      38.214  24.341  25.988  1.00  0.00    -0.206 F 
ATOM     68  C   UNL A   1      39.983  21.218  26.549  1.00  0.00     0.006 A 
ENDBRANCH  47  61
BRANCH  48  69
ATOM     69  C   UNL A   1      44.098  28.991  33.767  1.00  0.00     0.057 A 
ATOM     70  C   UNL A   1      45.147  29.564  34.514  1.00  0.00     0.134 A 
ATOM     71  C   UNL A   1      43.347  28.013  34.433  1.00  0.00     0.134 A 
ATOM     72  F   UNL A   1      46.005  30.420  33.938  1.00  0.00    -0.206 F 
ATOM     73  C   UNL A   1      45.357  29.268  35.865  1.00  0.00     0.040 A 
ATOM     74  C   UNL A   1      43.528  27.727  35.791  1.00  0.00     0.040 A 
ATOM     75  F   UNL A   1      42.409  27.301  33.795  1.00  0.00    -0.206 F 
ATOM     76  C   UNL A   1      44.525  28.367  36.517  1.00  0.00     0.006 A 
ENDBRANCH  48  69
BRANCH  60  77
ATOM     77  C   UNL A   1      44.521  29.343  27.281  1.00  0.00     0.057 A 
ATOM     78  C   UNL A   1      43.761  30.516  27.227  1.00  0.00     0.134 A 
ATOM     79  C   UNL A   1      45.849  29.412  26.835  1.00  0.00     0.134 A 
ATOM     80  F   UNL A   1      42.485  30.523  27.644  1.00  0.00    -0.206 F 
ATOM     81  C   UNL A   1      44.302  31.712  26.750  1.00  0.00     0.040 A 
ATOM     82  C   UNL A   1      46.409  30.609  26.386  1.00  0.00     0.040 A 
ATOM     83  F   UNL A   1      46.636  28.324  26.832  1.00  0.00    -0.206 F 
ATOM     84  C   UNL A   1      45.632  31.763  26.337  1.00  0.00     0.006 A 
ENDBRANCH  60  77
ENDBRANCH  34  35
ENDBRANCH  26  29
ENDBRANCH  24  25
ENDBRANCH  23  24
ENDBRANCH   1  23
TORSDOF 13
ENDMDL
MODEL 2
REMARK VINA RESULT:     -11.0      5.391      9.213
REMARK SMILES Cc1nn(C)c2c1NC(=O)[C@@H](CCC(=O)NCCCCNC(=O)c1ccc(-c3c4nc(c(-c5c(F)cccc5F)c5ccc([nH]5)c(-c5c(F)cccc5F)c5nc(c(-c6c(F)cccc6F)c6ccc3[nH]6)C=C5)C=C4)cc1)N2
REMARK SMILES IDX 18 1 17 2 16 3 14 4 15 5 13 7 12 8 11 9 1 10 2 11 3 12 7 13
REMARK SMILES IDX 4 14 6 15 8 16 5 17 78 18 9 19 10 22 19 23 20 24 21 25 22 26
REMARK SMILES IDX 23 28 24 29 25 30 77 31 26 32 76 33 27 34 28 35 29 36 70 37
REMARK SMILES IDX 30 38 75 39 69 40 71 41 31 42 74 43 68 44 67 45 32 47 58 48
REMARK SMILES IDX 41 49 57 50 42 51 45 52 56 53 72 54 43 55 44 56 55 58 73 59
REMARK SMILES IDX 46 60 33 61 34 62 39 63 35 64 36 65 38 66 40 67 37 68 59 69
REMARK SMILES IDX 60 70 65 71 61 72 62 73 64 74 66 75 63 76 47 77 48 78 53 79
REMARK SMILES IDX 49 80 50 81 52 82 54 83 51 84
REMARK H PARENT 16 6 8 20 78 21 21 27 71 46 45 57
REMARK Flexibility Score: inf
ROOT
ATOM      1  C   UNL A   1      44.184  32.263  26.378  1.00  0.00     0.023 C 
ENDROOT
BRANCH   1   2
ATOM      2  C   UNL A   1      45.336  31.387  26.933  1.00  0.00     0.116 C 
BRANCH   2   3
ATOM      3  N   UNL A   1      46.081  30.556  25.987  1.00  0.00    -0.356 N 
ATOM      4  C   UNL A   1      46.018  29.227  25.650  1.00  0.00     0.220 C 
ATOM      5  O   UNL A   1      46.596  28.905  24.607  1.00  0.00    -0.275 OA
ATOM      6  H   UNL A   1      46.768  31.053  25.489  1.00  0.00     0.163 HD
BRANCH   4   7
ATOM      7  C   UNL A   1      45.325  28.152  26.501  1.00  0.00     0.102 C 
BRANCH   7   8
ATOM      8  C   UNL A   1      45.867  26.692  26.262  1.00  0.00     0.045 C 
BRANCH   8   9
ATOM      9  C   UNL A   1      45.649  25.667  27.429  1.00  0.00     0.171 C 
ATOM     10  C   UNL A   1      44.649  22.542  23.403  1.00  0.00     0.071 C 
ATOM     11  C   UNL A   1      44.196  22.964  24.748  1.00  0.00     0.085 A 
ATOM     12  N   UNL A   1      42.923  22.783  25.150  1.00  0.00    -0.174 NA
ATOM     13  C   UNL A   1      44.926  23.598  25.762  1.00  0.00     0.107 A 
ATOM     14  N   UNL A   1      42.899  23.356  26.392  1.00  0.00    -0.251 N 
ATOM     15  C   UNL A   1      43.995  24.154  26.592  1.00  0.00     0.149 A 
ATOM     16  N   UNL A   1      46.253  23.750  26.060  1.00  0.00    -0.320 N 
ATOM     17  C   UNL A   1      42.146  22.700  27.438  1.00  0.00     0.176 C 
ATOM     18  N   UNL A   1      44.264  25.113  27.509  1.00  0.00    -0.357 N 
ATOM     19  C   UNL A   1      46.624  24.523  27.155  1.00  0.00     0.247 C 
ATOM     20  H   UNL A   1      46.940  23.317  25.504  1.00  0.00     0.170 HD
ATOM     21  H   UNL A   1      43.603  25.418  28.173  1.00  0.00     0.163 HD
ATOM     22  O   UNL A   1      47.715  24.462  27.723  1.00  0.00    -0.272 OA
ENDBRANCH   8   9
ENDBRANCH   7   8
ENDBRANCH   4   7
ENDBRANCH   2   3
ENDBRANCH   1   2
BRANCH   1  23
ATOM     23  C   UNL A   1      44.526  33.482  25.497  1.00  0.00     0.023 C 
BRANCH  23  24
ATOM     24  C   UNL A   1      43.298  34.363  25.253  1.00  0.00     0.116 C 
BRANCH  24  25
ATOM     25  N   UNL A   1      43.498  35.720  25.739  1.00  0.00    -0.352 N 
ATOM     26  C   UNL A   1      43.383  36.248  26.996  1.00  0.00     0.251 C 
ATOM     27  H   UNL A   1      43.761  36.368  25.046  1.00  0.00     0.163 HD
ATOM     28  O   UNL A   1      43.467  37.472  27.132  1.00  0.00    -0.269 OA
BRANCH  26  29
ATOM     29  C   UNL A   1      43.113  35.412  28.186  1.00  0.00     0.039 A 
ATOM     30  C   UNL A   1      41.772  35.182  28.520  1.00  0.00     0.014 A 
ATOM     31  C   UNL A   1      44.123  34.915  29.015  1.00  0.00     0.014 A 
ATOM     32  C   UNL A   1      41.447  34.402  29.628  1.00  0.00     0.010 A 
ATOM     33  C   UNL A   1      43.800  34.114  30.109  1.00  0.00     0.010 A 
ATOM     34  C   UNL A   1      42.462  33.835  30.405  1.00  0.00    -0.014 A 
BRANCH  34  35
ATOM     35  C   UNL A   1      42.083  32.873  31.455  1.00  0.00     0.031 A 
ATOM     36  C   UNL A   1      40.659  32.964  31.901  1.00  0.00     0.074 A 
ATOM     37  C   UNL A   1      42.753  31.715  31.623  1.00  0.00     0.049 A 
ATOM     38  N   UNL A   1      39.684  32.396  31.249  1.00  0.00    -0.248 NA
ATOM     39  C   UNL A   1      40.209  33.912  32.919  1.00  0.00     0.031 C 
ATOM     40  C   UNL A   1      43.418  31.002  30.526  1.00  0.00     0.029 A 
ATOM     41  N   UNL A   1      42.786  30.829  32.676  1.00  0.00    -0.354 N 
ATOM     42  C   UNL A   1      38.502  32.936  31.719  1.00  0.00     0.074 A 
ATOM     43  C   UNL A   1      38.876  33.855  32.773  1.00  0.00     0.031 C 
ATOM     44  C   UNL A   1      43.631  29.726  30.909  1.00  0.00     0.029 A 
ATOM     45  C   UNL A   1      43.265  29.570  32.317  1.00  0.00     0.049 A 
ATOM     46  H   UNL A   1      42.501  31.062  33.589  1.00  0.00     0.167 HD
ATOM     47  C   UNL A   1      37.288  32.616  31.199  1.00  0.00     0.037 A 
ATOM     48  C   UNL A   1      42.828  28.396  32.851  1.00  0.00     0.037 A 
ATOM     49  C   UNL A   1      37.301  31.689  30.107  1.00  0.00     0.049 A 
ATOM     50  C   UNL A   1      41.408  28.353  32.357  1.00  0.00     0.074 A 
ATOM     51  C   UNL A   1      37.248  31.739  28.731  1.00  0.00     0.029 A 
ATOM     52  N   UNL A   1      37.434  30.354  30.398  1.00  0.00    -0.354 N 
ATOM     53  N   UNL A   1      41.029  28.010  31.157  1.00  0.00    -0.248 NA
ATOM     54  C   UNL A   1      40.389  29.047  33.145  1.00  0.00     0.031 C 
ATOM     55  C   UNL A   1      37.830  30.510  28.284  1.00  0.00     0.029 A 
ATOM     56  C   UNL A   1      38.239  29.819  29.424  1.00  0.00     0.049 A 
ATOM     57  H   UNL A   1      37.031  29.873  31.156  1.00  0.00     0.167 HD
ATOM     58  C   UNL A   1      39.816  28.666  30.946  1.00  0.00     0.074 A 
ATOM     59  C   UNL A   1      39.460  29.256  32.221  1.00  0.00     0.031 C 
ATOM     60  C   UNL A   1      39.273  28.851  29.706  1.00  0.00     0.037 A 
BRANCH  47  61
ATOM     61  C   UNL A   1      35.988  33.032  31.754  1.00  0.00     0.057 A 
ATOM     62  C   UNL A   1      35.276  34.032  31.078  1.00  0.00     0.134 A 
ATOM     63  C   UNL A   1      35.558  32.670  33.030  1.00  0.00     0.134 A 
ATOM     64  F   UNL A   1      35.670  34.428  29.855  1.00  0.00    -0.206 F 
ATOM     65  C   UNL A   1      34.201  34.690  31.667  1.00  0.00     0.040 A 
ATOM     66  C   UNL A   1      34.473  33.318  33.631  1.00  0.00     0.040 A 
ATOM     67  F   UNL A   1      36.213  31.735  33.732  1.00  0.00    -0.206 F 
ATOM     68  C   UNL A   1      33.805  34.342  32.956  1.00  0.00     0.006 A 
ENDBRANCH  47  61
BRANCH  48  69
ATOM     69  C   UNL A   1      43.203  28.110  34.270  1.00  0.00     0.057 A 
ATOM     70  C   UNL A   1      44.391  28.658  34.792  1.00  0.00     0.134 A 
ATOM     71  C   UNL A   1      42.486  27.282  35.145  1.00  0.00     0.134 A 
ATOM     72  F   UNL A   1      45.217  29.366  34.005  1.00  0.00    -0.206 F 
ATOM     73  C   UNL A   1      44.776  28.489  36.125  1.00  0.00     0.040 A 
ATOM     74  C   UNL A   1      42.844  27.125  36.489  1.00  0.00     0.040 A 
ATOM     75  F   UNL A   1      41.412  26.596  34.731  1.00  0.00    -0.206 F 
ATOM     76  C   UNL A   1      43.984  27.743  36.988  1.00  0.00     0.006 A 
ENDBRANCH  48  69
BRANCH  60  77
ATOM     77  C   UNL A   1      40.027  28.209  28.589  1.00  0.00     0.057 A 
ATOM     78  C   UNL A   1      39.800  26.874  28.240  1.00  0.00     0.134 A 
ATOM     79  C   UNL A   1      41.001  28.911  27.864  1.00  0.00     0.134 A 
ATOM     80  F   UNL A   1      38.878  26.146  28.888  1.00  0.00    -0.206 F 
ATOM     81  C   UNL A   1      40.515  26.261  27.208  1.00  0.00     0.040 A 
ATOM     82  C   UNL A   1      41.698  28.317  26.810  1.00  0.00     0.040 A 
ATOM     83  F   UNL A   1      41.294  30.189  28.154  1.00  0.00    -0.206 F 
ATOM     84  C   UNL A   1      41.459  26.985  26.483  1.00  0.00     0.006 A 
ENDBRANCH  60  77
ENDBRANCH  34  35
ENDBRANCH  26  29
ENDBRANCH  24  25
ENDBRANCH  23  24
ENDBRANCH   1  23
TORSDOF 13
ENDMDL
MODEL 3
REMARK VINA RESULT:     -10.9      5.424      9.580
REMARK SMILES Cc1nn(C)c2c1NC(=O)[C@@H](CCC(=O)NCCCCNC(=O)c1ccc(-c3c4nc(c(-c5c(F)cccc5F)c5ccc([nH]5)c(-c5c(F)cccc5F)c5nc(c(-c6c(F)cccc6F)c6ccc3[nH]6)C=C5)C=C4)cc1)N2
REMARK SMILES IDX 18 1 17 2 16 3 14 4 15 5 13 7 12 8 11 9 1 10 2 11 3 12 7 13
REMARK SMILES IDX 4 14 6 15 8 16 5 17 78 18 9 19 10 22 19 23 20 24 21 25 22 26
REMARK SMILES IDX 23 28 24 29 25 30 77 31 26 32 76 33 27 34 28 35 29 36 70 37
REMARK SMILES IDX 30 38 75 39 69 40 71 41 31 42 74 43 68 44 67 45 32 47 58 48
REMARK SMILES IDX 41 49 57 50 42 51 45 52 56 53 72 54 43 55 44 56 55 58 73 59
REMARK SMILES IDX 46 60 33 61 34 62 39 63 35 64 36 65 38 66 40 67 37 68 59 69
REMARK SMILES IDX 60 70 65 71 61 72 62 73 64 74 66 75 63 76 47 77 48 78 53 79
REMARK SMILES IDX 49 80 50 81 52 82 54 83 51 84
REMARK H PARENT 16 6 8 20 78 21 21 27 71 46 45 57
REMARK Flexibility Score: inf
ROOT
ATOM      1  C   UNL A   1      41.878  27.535  35.053  1.00  0.00     0.023 C 
ENDROOT
BRANCH   1   2
ATOM      2  C   UNL A   1      41.751  29.034  35.428  1.00  0.00     0.116 C 
BRANCH   2   3
ATOM      3  N   UNL A   1      40.433  29.530  35.822  1.00  0.00    -0.356 N 
ATOM      4  C   UNL A   1      39.523  30.364  35.221  1.00  0.00     0.220 C 
ATOM      5  O   UNL A   1      38.382  30.353  35.695  1.00  0.00    -0.275 OA
ATOM      6  H   UNL A   1      40.136  29.197  36.699  1.00  0.00     0.163 HD
BRANCH   4   7
ATOM      7  C   UNL A   1      39.856  31.311  34.057  1.00  0.00     0.102 C 
BRANCH   7   8
ATOM      8  C   UNL A   1      38.608  31.739  33.197  1.00  0.00     0.045 C 
BRANCH   8   9
ATOM      9  C   UNL A   1      38.795  32.992  32.273  1.00  0.00     0.171 C 
ATOM     10  C   UNL A   1      33.715  33.452  33.252  1.00  0.00     0.071 C 
ATOM     11  C   UNL A   1      34.753  33.507  32.197  1.00  0.00     0.085 A 
ATOM     12  N   UNL A   1      34.444  33.337  30.897  1.00  0.00    -0.174 NA
ATOM     13  C   UNL A   1      36.134  33.699  32.333  1.00  0.00     0.107 A 
ATOM     14  N   UNL A   1      35.660  33.388  30.273  1.00  0.00    -0.251 N 
ATOM     15  C   UNL A   1      36.684  33.240  31.171  1.00  0.00     0.149 A 
ATOM     16  N   UNL A   1      36.958  34.211  33.299  1.00  0.00    -0.320 N 
ATOM     17  C   UNL A   1      35.756  34.082  29.009  1.00  0.00     0.176 C 
ATOM     18  N   UNL A   1      37.997  32.949  31.010  1.00  0.00    -0.357 N 
ATOM     19  C   UNL A   1      38.335  34.187  33.107  1.00  0.00     0.247 C 
ATOM     20  H   UNL A   1      36.579  34.592  34.124  1.00  0.00     0.170 HD
ATOM     21  H   UNL A   1      38.392  32.728  30.135  1.00  0.00     0.163 HD
ATOM     22  O   UNL A   1      39.142  34.898  33.706  1.00  0.00    -0.272 OA
ENDBRANCH   8   9
ENDBRANCH   7   8
ENDBRANCH   4   7
ENDBRANCH   2   3
ENDBRANCH   1   2
BRANCH   1  23
ATOM     23  C   UNL A   1      41.812  26.473  36.171  1.00  0.00     0.023 C 
BRANCH  23  24
ATOM     24  C   UNL A   1      41.466  25.090  35.615  1.00  0.00     0.116 C 
BRANCH  24  25
ATOM     25  N   UNL A   1      42.501  24.111  35.914  1.00  0.00    -0.352 N 
ATOM     26  C   UNL A   1      43.662  23.805  35.258  1.00  0.00     0.251 C 
ATOM     27  H   UNL A   1      42.337  23.578  36.726  1.00  0.00     0.163 HD
ATOM     28  O   UNL A   1      44.312  22.825  35.634  1.00  0.00    -0.269 OA
BRANCH  26  29
ATOM     29  C   UNL A   1      44.139  24.573  34.087  1.00  0.00     0.039 A 
ATOM     30  C   UNL A   1      43.805  24.083  32.817  1.00  0.00     0.014 A 
ATOM     31  C   UNL A   1      44.953  25.704  34.196  1.00  0.00     0.014 A 
ATOM     32  C   UNL A   1      44.220  24.760  31.672  1.00  0.00     0.010 A 
ATOM     33  C   UNL A   1      45.348  26.395  33.052  1.00  0.00     0.010 A 
ATOM     34  C   UNL A   1      44.963  25.939  31.787  1.00  0.00    -0.014 A 
BRANCH  34  35
ATOM     35  C   UNL A   1      45.228  26.720  30.567  1.00  0.00     0.031 A 
ATOM     36  C   UNL A   1      45.235  25.920  29.303  1.00  0.00     0.074 A 
ATOM     37  C   UNL A   1      44.970  28.042  30.507  1.00  0.00     0.049 A 
ATOM     38  N   UNL A   1      44.142  25.600  28.671  1.00  0.00    -0.248 NA
ATOM     39  C   UNL A   1      46.417  25.202  28.831  1.00  0.00     0.031 C 
ATOM     40  C   UNL A   1      43.903  28.691  31.279  1.00  0.00     0.029 A 
ATOM     41  N   UNL A   1      45.393  29.012  29.626  1.00  0.00    -0.354 N 
ATOM     42  C   UNL A   1      44.464  24.610  27.762  1.00  0.00     0.074 A 
ATOM     43  C   UNL A   1      45.893  24.412  27.879  1.00  0.00     0.031 C 
ATOM     44  C   UNL A   1      43.633  29.887  30.717  1.00  0.00     0.029 A 
ATOM     45  C   UNL A   1      44.600  30.159  29.652  1.00  0.00     0.049 A 
ATOM     46  H   UNL A   1      46.174  28.906  29.037  1.00  0.00     0.167 HD
ATOM     47  C   UNL A   1      43.535  23.994  26.985  1.00  0.00     0.037 A 
ATOM     48  C   UNL A   1      44.320  30.930  28.566  1.00  0.00     0.037 A 
ATOM     49  C   UNL A   1      42.180  24.418  27.175  1.00  0.00     0.049 A 
ATOM     50  C   UNL A   1      43.494  29.988  27.734  1.00  0.00     0.074 A 
ATOM     51  C   UNL A   1      41.068  23.987  27.864  1.00  0.00     0.029 A 
ATOM     52  N   UNL A   1      41.782  25.588  26.576  1.00  0.00    -0.354 N 
ATOM     53  N   UNL A   1      42.235  29.706  27.926  1.00  0.00    -0.248 NA
ATOM     54  C   UNL A   1      44.199  29.061  26.848  1.00  0.00     0.031 C 
ATOM     55  C   UNL A   1      40.247  25.149  28.026  1.00  0.00     0.029 A 
ATOM     56  C   UNL A   1      40.945  26.216  27.463  1.00  0.00     0.049 A 
ATOM     57  H   UNL A   1      42.045  25.912  25.685  1.00  0.00     0.167 HD
ATOM     58  C   UNL A   1      42.051  28.431  27.392  1.00  0.00     0.074 A 
ATOM     59  C   UNL A   1      43.288  28.106  26.710  1.00  0.00     0.031 C 
ATOM     60  C   UNL A   1      40.979  27.641  27.697  1.00  0.00     0.037 A 
BRANCH  47  61
ATOM     61  C   UNL A   1      43.830  23.050  25.892  1.00  0.00     0.057 A 
ATOM     62  C   UNL A   1      43.629  21.684  26.134  1.00  0.00     0.134 A 
ATOM     63  C   UNL A   1      44.527  23.416  24.742  1.00  0.00     0.134 A 
ATOM     64  F   UNL A   1      42.983  21.285  27.243  1.00  0.00    -0.206 F 
ATOM     65  C   UNL A   1      44.146  20.708  25.287  1.00  0.00     0.040 A 
ATOM     66  C   UNL A   1      45.045  22.447  23.877  1.00  0.00     0.040 A 
ATOM     67  F   UNL A   1      44.767  24.707  24.471  1.00  0.00    -0.206 F 
ATOM     68  C   UNL A   1      44.870  21.090  24.160  1.00  0.00     0.006 A 
ENDBRANCH  47  61
BRANCH  48  69
ATOM     69  C   UNL A   1      45.440  31.743  28.000  1.00  0.00     0.057 A 
ATOM     70  C   UNL A   1      45.249  33.123  27.785  1.00  0.00     0.134 A 
ATOM     71  C   UNL A   1      46.686  31.238  27.603  1.00  0.00     0.134 A 
ATOM     72  F   UNL A   1      44.053  33.688  28.013  1.00  0.00    -0.206 F 
ATOM     73  C   UNL A   1      46.267  33.960  27.319  1.00  0.00     0.040 A 
ATOM     74  C   UNL A   1      47.723  32.068  27.161  1.00  0.00     0.040 A 
ATOM     75  F   UNL A   1      46.946  29.924  27.632  1.00  0.00    -0.206 F 
ATOM     76  C   UNL A   1      47.521  33.437  27.033  1.00  0.00     0.006 A 
ENDBRANCH  48  69
BRANCH  60  77
ATOM     77  C   UNL A   1      39.956  28.283  28.575  1.00  0.00     0.057 A 
ATOM     78  C   UNL A   1      39.960  28.075  29.958  1.00  0.00     0.134 A 
ATOM     79  C   UNL A   1      38.944  29.097  28.046  1.00  0.00     0.134 A 
ATOM     80  F   UNL A   1      40.905  27.313  30.531  1.00  0.00    -0.206 F 
ATOM     81  C   UNL A   1      38.996  28.656  30.784  1.00  0.00     0.040 A 
ATOM     82  C   UNL A   1      37.994  29.709  28.866  1.00  0.00     0.040 A 
ATOM     83  F   UNL A   1      38.857  29.326  26.726  1.00  0.00    -0.206 F 
ATOM     84  C   UNL A   1      38.015  29.484  30.240  1.00  0.00     0.006 A 
ENDBRANCH  60  77
ENDBRANCH  34  35
ENDBRANCH  26  29
ENDBRANCH  24  25
ENDBRANCH  23  24
ENDBRANCH   1  23
TORSDOF 13
ENDMDL
