MODEL 1
REMARK VINA RESULT:     -12.4      0.000      0.000
REMARK SMILES N#C/C(=C\c1cn(CC(=O)NCCCCNC(=O)c2ccc(-c3c4nc(c(-c5c(F)cccc5F)c5ccc([nH]5)c(-c5c(F)cccc5F)c5nc(c(-c6c(F)cccc6F)c6ccc3[nH]6)C=C5)C=C4)cc2)c2ccccc12)C(=O)N1CCCC[C@@H]1C#N
REMARK SMILES IDX 12 1 11 2 9 3 10 4 8 6 7 7 5 8 6 9 78 10 73 11 77 12 74 13
REMARK SMILES IDX 76 14 75 15 4 16 3 17 2 18 1 19 79 20 80 21 81 22 82 23
REMARK SMILES IDX 86 24 83 25 85 26 84 27 87 28 88 29 13 30 14 31 15 32 16 33
REMARK SMILES IDX 17 34 18 36 19 37 20 38 72 39 21 40 71 41 22 42 23 43 24 44
REMARK SMILES IDX 65 45 25 46 70 47 64 48 66 49 26 50 69 51 63 52 62 53 27 55
REMARK SMILES IDX 53 56 36 57 52 58 37 59 40 60 51 61 67 62 38 63 39 64 50 66
REMARK SMILES IDX 68 67 41 68 28 69 29 70 34 71 30 72 31 73 33 74 35 75 32 76
REMARK SMILES IDX 54 77 55 78 60 79 56 80 57 81 59 82 61 83 58 84 42 85 43 86
REMARK SMILES IDX 48 87 44 88 45 89 47 90 49 91 46 92
REMARK H PARENT 11 5 16 35 66 54 40 65
REMARK Flexibility Score: inf
ROOT
ATOM      1  C   UNL A   1      40.429  19.664  26.116  1.00  0.00     0.116 C 
ENDROOT
BRANCH   1   2
ATOM      2  N   UNL A   1      39.837  20.968  26.339  1.00  0.00    -0.355 N 
ATOM      3  C   UNL A   1      38.688  21.501  25.827  1.00  0.00     0.239 C 
ATOM      4  O   UNL A   1      38.373  22.642  26.176  1.00  0.00    -0.273 OA
ATOM      5  H   UNL A   1      40.336  21.557  26.950  1.00  0.00     0.163 HD
BRANCH   3   6
ATOM      6  C   UNL A   1      37.787  20.686  24.921  1.00  0.00     0.222 C 
BRANCH   6   7
ATOM      7  N   UNL A   1      36.481  21.289  24.703  1.00  0.00    -0.337 N 
ATOM      8  C   UNL A   1      34.920  22.861  24.540  1.00  0.00     0.002 A 
ATOM      9  C   UNL A   1      36.278  22.636  24.516  1.00  0.00     0.095 A 
ATOM     10  C   UNL A   1      34.276  21.585  24.497  1.00  0.00     0.007 A 
ATOM     11  C   UNL A   1      35.276  20.619  24.670  1.00  0.00     0.049 A 
ATOM     12  C   UNL A   1      32.939  21.143  24.379  1.00  0.00     0.011 A 
ATOM     13  C   UNL A   1      34.977  19.253  24.807  1.00  0.00     0.027 A 
ATOM     14  C   UNL A   1      32.631  19.789  24.538  1.00  0.00     0.001 A 
ATOM     15  C   UNL A   1      33.637  18.860  24.763  1.00  0.00     0.002 A 
BRANCH   8  16
ATOM     16  C   UNL A   1      34.375  24.186  24.596  1.00  0.00     0.035 C 
ATOM     17  C   UNL A   1      33.475  24.684  25.476  1.00  0.00     0.118 C 
BRANCH  17  18
ATOM     18  C   UNL A   1      33.172  23.782  26.661  1.00  0.00     0.105 C 
ATOM     19  N   UNL A   1      32.921  23.033  27.645  1.00  0.00    -0.192 NA
ENDBRANCH  17  18
BRANCH  17  20
ATOM     20  C   UNL A   1      33.021  26.106  25.449  1.00  0.00     0.265 C 
ATOM     21  O   UNL A   1      33.161  26.775  26.473  1.00  0.00    -0.268 OA
BRANCH  20  22
ATOM     22  N   UNL A   1      32.545  26.683  24.269  1.00  0.00    -0.322 N 
ATOM     23  C   UNL A   1      31.107  26.586  24.004  1.00  0.00     0.121 C 
ATOM     24  C   UNL A   1      33.323  27.346  23.187  1.00  0.00     0.189 C 
ATOM     25  C   UNL A   1      30.526  27.989  23.834  1.00  0.00     0.022 C 
ATOM     26  C   UNL A   1      32.763  28.766  22.936  1.00  0.00     0.041 C 
ATOM     27  C   UNL A   1      31.244  28.772  22.735  1.00  0.00     0.005 C 
BRANCH  24  28
ATOM     28  C   UNL A   1      33.307  26.573  21.911  1.00  0.00     0.087 C 
ATOM     29  N   UNL A   1      33.263  25.948  20.943  1.00  0.00    -0.196 NA
ENDBRANCH  24  28
ENDBRANCH  20  22
ENDBRANCH  17  20
ENDBRANCH   8  16
ENDBRANCH   6   7
ENDBRANCH   3   6
ENDBRANCH   1   2
BRANCH   1  30
ATOM     30  C   UNL A   1      41.930  19.650  26.408  1.00  0.00     0.023 C 
BRANCH  30  31
ATOM     31  C   UNL A   1      42.579  18.257  26.368  1.00  0.00     0.023 C 
BRANCH  31  32
ATOM     32  C   UNL A   1      44.058  18.248  25.981  1.00  0.00     0.116 C 
BRANCH  32  33
ATOM     33  N   UNL A   1      44.306  18.666  24.617  1.00  0.00    -0.352 N 
ATOM     34  C   UNL A   1      44.726  19.824  24.024  1.00  0.00     0.251 C 
ATOM     35  H   UNL A   1      44.133  17.949  23.965  1.00  0.00     0.163 HD
ATOM     36  O   UNL A   1      45.047  19.728  22.836  1.00  0.00    -0.269 OA
BRANCH  34  37
ATOM     37  C   UNL A   1      44.728  21.171  24.656  1.00  0.00     0.039 A 
ATOM     38  C   UNL A   1      45.588  21.603  25.662  1.00  0.00     0.014 A 
ATOM     39  C   UNL A   1      43.685  22.032  24.251  1.00  0.00     0.014 A 
ATOM     40  C   UNL A   1      45.315  22.784  26.349  1.00  0.00     0.010 A 
ATOM     41  C   UNL A   1      43.422  23.222  24.920  1.00  0.00     0.010 A 
ATOM     42  C   UNL A   1      44.192  23.559  26.021  1.00  0.00    -0.014 A 
BRANCH  42  43
ATOM     43  C   UNL A   1      43.976  24.817  26.738  1.00  0.00     0.031 A 
ATOM     44  C   UNL A   1      45.082  25.783  26.492  1.00  0.00     0.074 A 
ATOM     45  C   UNL A   1      42.890  25.113  27.493  1.00  0.00     0.049 A 
ATOM     46  N   UNL A   1      46.004  26.127  27.329  1.00  0.00    -0.248 NA
ATOM     47  C   UNL A   1      45.335  26.237  25.115  1.00  0.00     0.031 C 
ATOM     48  C   UNL A   1      41.652  24.348  27.650  1.00  0.00     0.029 A 
ATOM     49  N   UNL A   1      42.647  26.225  28.260  1.00  0.00    -0.354 N 
ATOM     50  C   UNL A   1      46.821  27.028  26.653  1.00  0.00     0.074 A 
ATOM     51  C   UNL A   1      46.476  26.914  25.262  1.00  0.00     0.031 C 
ATOM     52  C   UNL A   1      40.713  25.114  28.260  1.00  0.00     0.029 A 
ATOM     53  C   UNL A   1      41.315  26.366  28.676  1.00  0.00     0.049 A 
ATOM     54  H   UNL A   1      43.351  26.870  28.500  1.00  0.00     0.167 HD
ATOM     55  C   UNL A   1      47.511  27.972  27.351  1.00  0.00     0.037 A 
ATOM     56  C   UNL A   1      40.765  27.450  29.299  1.00  0.00     0.037 A 
ATOM     57  C   UNL A   1      47.601  27.601  28.743  1.00  0.00     0.049 A 
ATOM     58  C   UNL A   1      41.877  28.221  29.906  1.00  0.00     0.074 A 
ATOM     59  C   UNL A   1      48.167  26.561  29.452  1.00  0.00     0.029 A 
ATOM     60  N   UNL A   1      46.694  28.185  29.590  1.00  0.00    -0.354 N 
ATOM     61  N   UNL A   1      42.572  27.792  30.920  1.00  0.00    -0.248 NA
ATOM     62  C   UNL A   1      42.528  29.210  29.063  1.00  0.00     0.031 C 
ATOM     63  C   UNL A   1      47.246  26.286  30.506  1.00  0.00     0.029 A 
ATOM     64  C   UNL A   1      46.220  27.228  30.443  1.00  0.00     0.049 A 
ATOM     65  H   UNL A   1      46.429  29.133  29.585  1.00  0.00     0.167 HD
ATOM     66  C   UNL A   1      43.884  28.068  30.571  1.00  0.00     0.074 A 
ATOM     67  C   UNL A   1      43.791  28.987  29.434  1.00  0.00     0.031 C 
ATOM     68  C   UNL A   1      44.908  27.292  31.035  1.00  0.00     0.037 A 
BRANCH  55  69
ATOM     69  C   UNL A   1      47.639  29.419  26.915  1.00  0.00     0.057 A 
ATOM     70  C   UNL A   1      46.551  30.278  26.665  1.00  0.00     0.134 A 
ATOM     71  C   UNL A   1      48.874  30.066  27.117  1.00  0.00     0.134 A 
ATOM     72  F   UNL A   1      45.308  29.836  26.453  1.00  0.00    -0.206 F 
ATOM     73  C   UNL A   1      46.662  31.671  26.719  1.00  0.00     0.040 A 
ATOM     74  C   UNL A   1      48.985  31.457  27.215  1.00  0.00     0.040 A 
ATOM     75  F   UNL A   1      49.995  29.361  27.338  1.00  0.00    -0.206 F 
ATOM     76  C   UNL A   1      47.870  32.264  27.038  1.00  0.00     0.006 A 
ENDBRANCH  55  69
BRANCH  56  77
ATOM     77  C   UNL A   1      39.416  28.061  29.158  1.00  0.00     0.057 A 
ATOM     78  C   UNL A   1      39.098  28.861  28.048  1.00  0.00     0.134 A 
ATOM     79  C   UNL A   1      38.525  28.150  30.245  1.00  0.00     0.134 A 
ATOM     80  F   UNL A   1      39.914  28.917  26.987  1.00  0.00    -0.206 F 
ATOM     81  C   UNL A   1      37.985  29.712  28.026  1.00  0.00     0.040 A 
ATOM     82  C   UNL A   1      37.405  28.999  30.236  1.00  0.00     0.040 A 
ATOM     83  F   UNL A   1      38.760  27.471  31.378  1.00  0.00    -0.206 F 
ATOM     84  C   UNL A   1      37.140  29.794  29.127  1.00  0.00     0.006 A 
ENDBRANCH  56  77
BRANCH  68  85
ATOM     85  C   UNL A   1      44.600  26.309  32.129  1.00  0.00     0.057 A 
ATOM     86  C   UNL A   1      44.708  26.743  33.452  1.00  0.00     0.134 A 
ATOM     87  C   UNL A   1      44.320  24.948  31.926  1.00  0.00     0.134 A 
ATOM     88  F   UNL A   1      45.028  28.020  33.719  1.00  0.00    -0.206 F 
ATOM     89  C   UNL A   1      44.532  25.877  34.532  1.00  0.00     0.040 A 
ATOM     90  C   UNL A   1      44.109  24.074  32.999  1.00  0.00     0.040 A 
ATOM     91  F   UNL A   1      44.293  24.419  30.695  1.00  0.00    -0.206 F 
ATOM     92  C   UNL A   1      44.217  24.540  34.307  1.00  0.00     0.006 A 
ENDBRANCH  68  85
ENDBRANCH  42  43
ENDBRANCH  34  37
ENDBRANCH  32  33
ENDBRANCH  31  32
ENDBRANCH  30  31
ENDBRANCH   1  30
TORSDOF 17
ENDMDL
MODEL 2
REMARK VINA RESULT:     -11.6      2.824      3.998
REMARK SMILES N#C/C(=C\c1cn(CC(=O)NCCCCNC(=O)c2ccc(-c3c4nc(c(-c5c(F)cccc5F)c5ccc([nH]5)c(-c5c(F)cccc5F)c5nc(c(-c6c(F)cccc6F)c6ccc3[nH]6)C=C5)C=C4)cc2)c2ccccc12)C(=O)N1CCCC[C@@H]1C#N
REMARK SMILES IDX 12 1 11 2 9 3 10 4 8 6 7 7 5 8 6 9 78 10 73 11 77 12 74 13
REMARK SMILES IDX 76 14 75 15 4 16 3 17 2 18 1 19 79 20 80 21 81 22 82 23
REMARK SMILES IDX 86 24 83 25 85 26 84 27 87 28 88 29 13 30 14 31 15 32 16 33
REMARK SMILES IDX 17 34 18 36 19 37 20 38 72 39 21 40 71 41 22 42 23 43 24 44
REMARK SMILES IDX 65 45 25 46 70 47 64 48 66 49 26 50 69 51 63 52 62 53 27 55
REMARK SMILES IDX 53 56 36 57 52 58 37 59 40 60 51 61 67 62 38 63 39 64 50 66
REMARK SMILES IDX 68 67 41 68 28 69 29 70 34 71 30 72 31 73 33 74 35 75 32 76
REMARK SMILES IDX 54 77 55 78 60 79 56 80 57 81 59 82 61 83 58 84 42 85 43 86
REMARK SMILES IDX 48 87 44 88 45 89 47 90 49 91 46 92
REMARK H PARENT 11 5 16 35 66 54 40 65
REMARK Flexibility Score: inf
ROOT
ATOM      1  C   UNL A   1      39.076  20.710  25.753  1.00  0.00     0.116 C 
ENDROOT
BRANCH   1   2
ATOM      2  N   UNL A   1      38.884  22.079  26.190  1.00  0.00    -0.355 N 
ATOM      3  C   UNL A   1      37.943  22.991  25.803  1.00  0.00     0.239 C 
ATOM      4  O   UNL A   1      37.966  24.106  26.330  1.00  0.00    -0.273 OA
ATOM      5  H   UNL A   1      39.525  22.399  26.865  1.00  0.00     0.163 HD
BRANCH   3   6
ATOM      6  C   UNL A   1      36.854  22.617  24.817  1.00  0.00     0.222 C 
BRANCH   6   7
ATOM      7  N   UNL A   1      35.610  23.344  25.020  1.00  0.00    -0.337 N 
ATOM      8  C   UNL A   1      34.135  25.002  24.931  1.00  0.00     0.002 A 
ATOM      9  C   UNL A   1      35.273  24.494  24.347  1.00  0.00     0.095 A 
ATOM     10  C   UNL A   1      33.634  24.004  25.824  1.00  0.00     0.007 A 
ATOM     11  C   UNL A   1      34.613  23.007  25.911  1.00  0.00     0.049 A 
ATOM     12  C   UNL A   1      32.468  23.861  26.611  1.00  0.00     0.011 A 
ATOM     13  C   UNL A   1      34.503  21.929  26.807  1.00  0.00     0.027 A 
ATOM     14  C   UNL A   1      32.361  22.806  27.521  1.00  0.00     0.001 A 
ATOM     15  C   UNL A   1      33.373  21.861  27.626  1.00  0.00     0.002 A 
BRANCH   8  16
ATOM     16  C   UNL A   1      33.643  26.311  24.614  1.00  0.00     0.035 C 
ATOM     17  C   UNL A   1      33.318  26.812  23.399  1.00  0.00     0.118 C 
BRANCH  17  18
ATOM     18  C   UNL A   1      33.281  25.790  22.275  1.00  0.00     0.105 C 
ATOM     19  N   UNL A   1      33.250  24.942  21.342  1.00  0.00    -0.192 NA
ENDBRANCH  17  18
BRANCH  17  20
ATOM     20  C   UNL A   1      32.770  28.188  23.214  1.00  0.00     0.265 C 
ATOM     21  O   UNL A   1      33.517  29.048  22.747  1.00  0.00    -0.268 OA
BRANCH  20  22
ATOM     22  N   UNL A   1      31.424  28.463  23.471  1.00  0.00    -0.322 N 
ATOM     23  C   UNL A   1      31.115  29.257  24.663  1.00  0.00     0.121 C 
ATOM     24  C   UNL A   1      30.228  27.999  22.717  1.00  0.00     0.189 C 
ATOM     25  C   UNL A   1      30.335  30.506  24.253  1.00  0.00     0.022 C 
ATOM     26  C   UNL A   1      29.370  29.216  22.299  1.00  0.00     0.041 C 
ATOM     27  C   UNL A   1      29.068  30.155  23.472  1.00  0.00     0.005 C 
BRANCH  24  28
ATOM     28  C   UNL A   1      29.390  27.045  23.501  1.00  0.00     0.087 C 
ATOM     29  N   UNL A   1      28.705  26.328  24.091  1.00  0.00    -0.196 NA
ENDBRANCH  24  28
ENDBRANCH  20  22
ENDBRANCH  17  20
ENDBRANCH   8  16
ENDBRANCH   6   7
ENDBRANCH   3   6
ENDBRANCH   1   2
BRANCH   1  30
ATOM     30  C   UNL A   1      40.440  20.155  26.169  1.00  0.00     0.023 C 
BRANCH  30  31
ATOM     31  C   UNL A   1      40.952  20.664  27.527  1.00  0.00     0.023 C 
BRANCH  31  32
ATOM     32  C   UNL A   1      42.180  21.573  27.451  1.00  0.00     0.116 C 
BRANCH  32  33
ATOM     33  N   UNL A   1      42.491  22.020  26.109  1.00  0.00    -0.352 N 
ATOM     34  C   UNL A   1      42.900  23.202  25.557  1.00  0.00     0.251 C 
ATOM     35  H   UNL A   1      42.383  21.307  25.439  1.00  0.00     0.163 HD
ATOM     36  O   UNL A   1      43.293  23.135  24.389  1.00  0.00    -0.269 OA
BRANCH  34  37
ATOM     37  C   UNL A   1      42.813  24.539  26.205  1.00  0.00     0.039 A 
ATOM     38  C   UNL A   1      43.594  24.986  27.268  1.00  0.00     0.014 A 
ATOM     39  C   UNL A   1      41.766  25.367  25.748  1.00  0.00     0.014 A 
ATOM     40  C   UNL A   1      43.236  26.146  27.951  1.00  0.00     0.010 A 
ATOM     41  C   UNL A   1      41.419  26.537  26.414  1.00  0.00     0.010 A 
ATOM     42  C   UNL A   1      42.107  26.885  27.565  1.00  0.00    -0.014 A 
BRANCH  42  43
ATOM     43  C   UNL A   1      41.801  28.123  28.283  1.00  0.00     0.031 A 
ATOM     44  C   UNL A   1      42.856  29.153  28.069  1.00  0.00     0.074 A 
ATOM     45  C   UNL A   1      40.683  28.351  29.012  1.00  0.00     0.049 A 
ATOM     46  N   UNL A   1      43.735  29.544  28.930  1.00  0.00    -0.248 NA
ATOM     47  C   UNL A   1      43.114  29.630  26.701  1.00  0.00     0.031 C 
ATOM     48  C   UNL A   1      39.487  27.514  29.135  1.00  0.00     0.029 A 
ATOM     49  N   UNL A   1      40.357  29.442  29.780  1.00  0.00    -0.354 N 
ATOM     50  C   UNL A   1      44.514  30.496  28.279  1.00  0.00     0.074 A 
ATOM     51  C   UNL A   1      44.211  30.371  26.879  1.00  0.00     0.031 C 
ATOM     52  C   UNL A   1      38.491  28.220  29.726  1.00  0.00     0.029 A 
ATOM     53  C   UNL A   1      39.010  29.503  30.164  1.00  0.00     0.049 A 
ATOM     54  H   UNL A   1      41.016  30.125  30.040  1.00  0.00     0.167 HD
ATOM     55  C   UNL A   1      45.132  31.473  28.998  1.00  0.00     0.037 A 
ATOM     56  C   UNL A   1      38.383  30.548  30.779  1.00  0.00     0.037 A 
ATOM     57  C   UNL A   1      45.210  31.099  30.390  1.00  0.00     0.049 A 
ATOM     58  C   UNL A   1      39.433  31.379  31.417  1.00  0.00     0.074 A 
ATOM     59  C   UNL A   1      45.819  30.088  31.107  1.00  0.00     0.029 A 
ATOM     60  N   UNL A   1      44.251  31.624  31.218  1.00  0.00    -0.354 N 
ATOM     61  N   UNL A   1      40.128  30.984  32.445  1.00  0.00    -0.248 NA
ATOM     62  C   UNL A   1      40.046  32.409  30.596  1.00  0.00     0.031 C 
ATOM     63  C   UNL A   1      44.890  29.753  32.136  1.00  0.00     0.029 A 
ATOM     64  C   UNL A   1      43.813  30.635  32.054  1.00  0.00     0.049 A 
ATOM     65  H   UNL A   1      43.931  32.555  31.212  1.00  0.00     0.167 HD
ATOM     66  C   UNL A   1      41.429  31.337  32.130  1.00  0.00     0.074 A 
ATOM     67  C   UNL A   1      41.311  32.257  30.996  1.00  0.00     0.031 C 
ATOM     68  C   UNL A   1      42.485  30.619  32.614  1.00  0.00     0.037 A 
BRANCH  55  69
ATOM     69  C   UNL A   1      45.186  32.928  28.573  1.00  0.00     0.057 A 
ATOM     70  C   UNL A   1      44.068  33.780  28.493  1.00  0.00     0.134 A 
ATOM     71  C   UNL A   1      46.432  33.584  28.611  1.00  0.00     0.134 A 
ATOM     72  F   UNL A   1      42.811  33.329  28.450  1.00  0.00    -0.206 F 
ATOM     73  C   UNL A   1      44.174  35.173  28.554  1.00  0.00     0.040 A 
ATOM     74  C   UNL A   1      46.545  34.975  28.717  1.00  0.00     0.040 A 
ATOM     75  F   UNL A   1      47.578  32.888  28.661  1.00  0.00    -0.206 F 
ATOM     76  C   UNL A   1      45.410  35.773  28.711  1.00  0.00     0.006 A 
ENDBRANCH  55  69
BRANCH  56  77
ATOM     77  C   UNL A   1      37.005  31.082  30.609  1.00  0.00     0.057 A 
ATOM     78  C   UNL A   1      36.546  31.509  29.353  1.00  0.00     0.134 A 
ATOM     79  C   UNL A   1      36.226  31.487  31.709  1.00  0.00     0.134 A 
ATOM     80  F   UNL A   1      37.247  31.249  28.241  1.00  0.00    -0.206 F 
ATOM     81  C   UNL A   1      35.405  32.308  29.198  1.00  0.00     0.040 A 
ATOM     82  C   UNL A   1      35.079  32.288  31.569  1.00  0.00     0.040 A 
ATOM     83  F   UNL A   1      36.599  31.181  32.961  1.00  0.00    -0.206 F 
ATOM     84  C   UNL A   1      34.673  32.712  30.309  1.00  0.00     0.006 A 
ENDBRANCH  56  77
BRANCH  68  85
ATOM     85  C   UNL A   1      42.209  29.612  33.695  1.00  0.00     0.057 A 
ATOM     86  C   UNL A   1      42.495  29.970  35.015  1.00  0.00     0.134 A 
ATOM     87  C   UNL A   1      41.789  28.291  33.470  1.00  0.00     0.134 A 
ATOM     88  F   UNL A   1      42.954  31.200  35.296  1.00  0.00    -0.206 F 
ATOM     89  C   UNL A   1      42.358  29.069  36.072  1.00  0.00     0.040 A 
ATOM     90  C   UNL A   1      41.616  27.386  34.524  1.00  0.00     0.040 A 
ATOM     91  F   UNL A   1      41.585  27.828  32.230  1.00  0.00    -0.206 F 
ATOM     92  C   UNL A   1      41.904  27.776  35.830  1.00  0.00     0.006 A 
ENDBRANCH  68  85
ENDBRANCH  42  43
ENDBRANCH  34  37
ENDBRANCH  32  33
ENDBRANCH  31  32
ENDBRANCH  30  31
ENDBRANCH   1  30
TORSDOF 17
ENDMDL
MODEL 3
REMARK VINA RESULT:     -11.5      3.177      4.471
REMARK SMILES N#C/C(=C\c1cn(CC(=O)NCCCCNC(=O)c2ccc(-c3c4nc(c(-c5c(F)cccc5F)c5ccc([nH]5)c(-c5c(F)cccc5F)c5nc(c(-c6c(F)cccc6F)c6ccc3[nH]6)C=C5)C=C4)cc2)c2ccccc12)C(=O)N1CCCC[C@@H]1C#N
REMARK SMILES IDX 12 1 11 2 9 3 10 4 8 6 7 7 5 8 6 9 78 10 73 11 77 12 74 13
REMARK SMILES IDX 76 14 75 15 4 16 3 17 2 18 1 19 79 20 80 21 81 22 82 23
REMARK SMILES IDX 86 24 83 25 85 26 84 27 87 28 88 29 13 30 14 31 15 32 16 33
REMARK SMILES IDX 17 34 18 36 19 37 20 38 72 39 21 40 71 41 22 42 23 43 24 44
REMARK SMILES IDX 65 45 25 46 70 47 64 48 66 49 26 50 69 51 63 52 62 53 27 55
REMARK SMILES IDX 53 56 36 57 52 58 37 59 40 60 51 61 67 62 38 63 39 64 50 66
REMARK SMILES IDX 68 67 41 68 28 69 29 70 34 71 30 72 31 73 33 74 35 75 32 76
REMARK SMILES IDX 54 77 55 78 60 79 56 80 57 81 59 82 61 83 58 84 42 85 43 86
REMARK SMILES IDX 48 87 44 88 45 89 47 90 49 91 46 92
REMARK H PARENT 11 5 16 35 66 54 40 65
REMARK Flexibility Score: inf
ROOT
ATOM      1  C   UNL A   1      38.357  23.672  26.107  1.00  0.00     0.116 C 
ENDROOT
BRANCH   1   2
ATOM      2  N   UNL A   1      38.318  22.423  25.374  1.00  0.00    -0.355 N 
ATOM      3  C   UNL A   1      37.353  21.456  25.355  1.00  0.00     0.239 C 
ATOM      4  O   UNL A   1      37.533  20.471  24.633  1.00  0.00    -0.273 OA
ATOM      5  H   UNL A   1      39.101  22.244  24.805  1.00  0.00     0.163 HD
BRANCH   3   6
ATOM      6  C   UNL A   1      36.063  21.626  26.133  1.00  0.00     0.222 C 
BRANCH   6   7
ATOM      7  N   UNL A   1      34.914  21.937  25.296  1.00  0.00    -0.337 N 
ATOM      8  C   UNL A   1      33.276  23.118  24.374  1.00  0.00     0.002 A 
ATOM      9  C   UNL A   1      34.486  23.214  25.021  1.00  0.00     0.095 A 
ATOM     10  C   UNL A   1      33.082  21.743  24.034  1.00  0.00     0.007 A 
ATOM     11  C   UNL A   1      34.088  21.017  24.684  1.00  0.00     0.049 A 
ATOM     12  C   UNL A   1      32.126  21.024  23.280  1.00  0.00     0.011 A 
ATOM     13  C   UNL A   1      34.122  19.613  24.671  1.00  0.00     0.027 A 
ATOM     14  C   UNL A   1      32.139  19.626  23.281  1.00  0.00     0.001 A 
ATOM     15  C   UNL A   1      33.117  18.932  23.980  1.00  0.00     0.002 A 
BRANCH   8  16
ATOM     16  C   UNL A   1      32.450  24.267  24.142  1.00  0.00     0.035 C 
ATOM     17  C   UNL A   1      31.391  24.697  24.867  1.00  0.00     0.118 C 
BRANCH  17  18
ATOM     18  C   UNL A   1      31.194  23.985  26.195  1.00  0.00     0.105 C 
ATOM     19  N   UNL A   1      31.031  23.395  27.298  1.00  0.00    -0.192 NA
ENDBRANCH  17  18
BRANCH  17  20
ATOM     20  C   UNL A   1      30.641  25.946  24.538  1.00  0.00     0.265 C 
ATOM     21  O   UNL A   1      29.440  25.983  24.806  1.00  0.00    -0.268 OA
BRANCH  20  22
ATOM     22  N   UNL A   1      31.304  27.067  24.034  1.00  0.00    -0.322 N 
ATOM     23  C   UNL A   1      31.830  28.031  25.005  1.00  0.00     0.121 C 
ATOM     24  C   UNL A   1      31.504  27.460  22.612  1.00  0.00     0.189 C 
ATOM     25  C   UNL A   1      33.335  28.194  24.795  1.00  0.00     0.022 C 
ATOM     26  C   UNL A   1      33.010  27.677  22.337  1.00  0.00     0.041 C 
ATOM     27  C   UNL A   1      33.668  28.609  23.362  1.00  0.00     0.005 C 
BRANCH  24  28
ATOM     28  C   UNL A   1      30.748  28.693  22.246  1.00  0.00     0.087 C 
ATOM     29  N   UNL A   1      30.129  29.620  21.951  1.00  0.00    -0.196 NA
ENDBRANCH  24  28
ENDBRANCH  20  22
ENDBRANCH  17  20
ENDBRANCH   8  16
ENDBRANCH   6   7
ENDBRANCH   3   6
ENDBRANCH   1   2
BRANCH   1  30
ATOM     30  C   UNL A   1      39.369  23.640  27.255  1.00  0.00     0.023 C 
BRANCH  30  31
ATOM     31  C   UNL A   1      40.795  24.062  26.864  1.00  0.00     0.023 C 
BRANCH  31  32
ATOM     32  C   UNL A   1      41.667  22.937  26.305  1.00  0.00     0.116 C 
BRANCH  32  33
ATOM     33  N   UNL A   1      42.661  23.389  25.354  1.00  0.00    -0.352 N 
ATOM     34  C   UNL A   1      43.487  24.475  25.265  1.00  0.00     0.251 C 
ATOM     35  H   UNL A   1      42.767  22.771  24.596  1.00  0.00     0.163 HD
ATOM     36  O   UNL A   1      44.378  24.397  24.413  1.00  0.00    -0.269 OA
BRANCH  34  37
ATOM     37  C   UNL A   1      43.337  25.745  26.025  1.00  0.00     0.039 A 
ATOM     38  C   UNL A   1      43.878  26.020  27.278  1.00  0.00     0.014 A 
ATOM     39  C   UNL A   1      42.475  26.701  25.444  1.00  0.00     0.014 A 
ATOM     40  C   UNL A   1      43.444  27.135  27.992  1.00  0.00     0.010 A 
ATOM     41  C   UNL A   1      42.056  27.826  26.145  1.00  0.00     0.010 A 
ATOM     42  C   UNL A   1      42.482  28.001  27.451  1.00  0.00    -0.014 A 
BRANCH  42  43
ATOM     43  C   UNL A   1      42.095  29.185  28.220  1.00  0.00     0.031 A 
ATOM     44  C   UNL A   1      43.137  30.247  28.146  1.00  0.00     0.074 A 
ATOM     45  C   UNL A   1      40.923  29.345  28.878  1.00  0.00     0.049 A 
ATOM     46  N   UNL A   1      43.943  30.602  29.091  1.00  0.00    -0.248 NA
ATOM     47  C   UNL A   1      43.482  30.814  26.832  1.00  0.00     0.031 C 
ATOM     48  C   UNL A   1      39.742  28.479  28.862  1.00  0.00     0.029 A 
ATOM     49  N   UNL A   1      40.516  30.379  29.684  1.00  0.00    -0.354 N 
ATOM     50  C   UNL A   1      44.744  31.607  28.558  1.00  0.00     0.074 A 
ATOM     51  C   UNL A   1      44.544  31.564  27.135  1.00  0.00     0.031 C 
ATOM     52  C   UNL A   1      38.689  29.127  29.420  1.00  0.00     0.029 A 
ATOM     53  C   UNL A   1      39.144  30.390  29.972  1.00  0.00     0.049 A 
ATOM     54  H   UNL A   1      41.138  31.058  30.033  1.00  0.00     0.167 HD
ATOM     55  C   UNL A   1      45.284  32.550  29.379  1.00  0.00     0.037 A 
ATOM     56  C   UNL A   1      38.449  31.382  30.602  1.00  0.00     0.037 A 
ATOM     57  C   UNL A   1      45.271  32.090  30.747  1.00  0.00     0.049 A 
ATOM     58  C   UNL A   1      39.431  32.192  31.365  1.00  0.00     0.074 A 
ATOM     59  C   UNL A   1      45.851  31.049  31.443  1.00  0.00     0.029 A 
ATOM     60  N   UNL A   1      44.243  32.544  31.533  1.00  0.00    -0.354 N 
ATOM     61  N   UNL A   1      40.059  31.747  32.414  1.00  0.00    -0.248 NA
ATOM     62  C   UNL A   1      40.076  33.283  30.655  1.00  0.00     0.031 C 
ATOM     63  C   UNL A   1      44.859  30.632  32.380  1.00  0.00     0.029 A 
ATOM     64  C   UNL A   1      43.770  31.496  32.273  1.00  0.00     0.049 A 
ATOM     65  H   UNL A   1      43.902  33.467  31.560  1.00  0.00     0.167 HD
ATOM     66  C   UNL A   1      41.371  32.145  32.217  1.00  0.00     0.074 A 
ATOM     67  C   UNL A   1      41.312  33.131  31.136  1.00  0.00     0.031 C 
ATOM     68  C   UNL A   1      42.406  31.419  32.733  1.00  0.00     0.037 A 
BRANCH  55  69
ATOM     69  C   UNL A   1      45.333  34.029  29.048  1.00  0.00     0.057 A 
ATOM     70  C   UNL A   1      46.516  34.759  28.819  1.00  0.00     0.134 A 
ATOM     71  C   UNL A   1      44.155  34.643  28.579  1.00  0.00     0.134 A 
ATOM     72  F   UNL A   1      47.723  34.326  29.195  1.00  0.00    -0.206 F 
ATOM     73  C   UNL A   1      46.538  35.950  28.089  1.00  0.00     0.040 A 
ATOM     74  C   UNL A   1      44.173  35.812  27.809  1.00  0.00     0.040 A 
ATOM     75  F   UNL A   1      42.957  34.065  28.756  1.00  0.00    -0.206 F 
ATOM     76  C   UNL A   1      45.372  36.457  27.543  1.00  0.00     0.006 A 
ENDBRANCH  55  69
BRANCH  56  77
ATOM     77  C   UNL A   1      37.074  31.898  30.365  1.00  0.00     0.057 A 
ATOM     78  C   UNL A   1      36.821  32.843  29.357  1.00  0.00     0.134 A 
ATOM     79  C   UNL A   1      36.046  31.733  31.313  1.00  0.00     0.134 A 
ATOM     80  F   UNL A   1      37.757  33.140  28.445  1.00  0.00    -0.206 F 
ATOM     81  C   UNL A   1      35.639  33.593  29.306  1.00  0.00     0.040 A 
ATOM     82  C   UNL A   1      34.856  32.478  31.273  1.00  0.00     0.040 A 
ATOM     83  F   UNL A   1      36.202  30.896  32.350  1.00  0.00    -0.206 F 
ATOM     84  C   UNL A   1      34.655  33.423  30.273  1.00  0.00     0.006 A 
ENDBRANCH  56  77
BRANCH  68  85
ATOM     85  C   UNL A   1      42.078  30.341  33.727  1.00  0.00     0.057 A 
ATOM     86  C   UNL A   1      42.209  30.639  35.086  1.00  0.00     0.134 A 
ATOM     87  C   UNL A   1      41.756  29.015  33.394  1.00  0.00     0.134 A 
ATOM     88  F   UNL A   1      42.570  31.873  35.475  1.00  0.00    -0.206 F 
ATOM     89  C   UNL A   1      42.016  29.675  36.076  1.00  0.00     0.040 A 
ATOM     90  C   UNL A   1      41.527  28.046  34.378  1.00  0.00     0.040 A 
ATOM     91  F   UNL A   1      41.703  28.613  32.117  1.00  0.00    -0.206 F 
ATOM     92  C   UNL A   1      41.659  28.377  35.724  1.00  0.00     0.006 A 
ENDBRANCH  68  85
ENDBRANCH  42  43
ENDBRANCH  34  37
ENDBRANCH  32  33
ENDBRANCH  31  32
ENDBRANCH  30  31
ENDBRANCH   1  30
TORSDOF 17
ENDMDL
