MODEL 1
REMARK VINA RESULT:     -10.1      0.000      0.000
REMARK SMILES CC(C)[C@H](C(=O)NCCCCNC(=O)c1ccc(-c2c3nc(c(-c4c(F)cccc4F)c4ccc([nH]4)c(-c4c(F)cccc4F)c4nc(c(-c5c(F)cccc5F)c5ccc2[nH]5)C=C4)C=C3)cc1)[C@H](C)[C@@H](C)O
REMARK SMILES IDX 9 1 8 2 7 3 5 4 6 5 4 7 2 8 1 9 3 10 69 11 70 12 71 13 72 14
REMARK SMILES IDX 73 15 10 17 11 18 12 19 13 20 14 22 15 23 16 24 68 25 17 26
REMARK SMILES IDX 67 27 18 28 19 29 20 30 61 31 21 32 66 33 60 34 62 35 22 36
REMARK SMILES IDX 65 37 59 38 58 39 23 41 49 42 32 43 48 44 33 45 36 46 47 47
REMARK SMILES IDX 63 48 34 49 35 50 46 52 64 53 37 54 24 55 25 56 30 57 26 58
REMARK SMILES IDX 27 59 29 60 31 61 28 62 50 63 51 64 56 65 52 66 53 67 55 68
REMARK SMILES IDX 57 69 54 70 38 71 39 72 44 73 40 74 41 75 43 76 45 77 42 78
REMARK H PARENT 7 6 73 16 12 21 62 40 36 51
REMARK Flexibility Score: inf
ROOT
ATOM      1  C   UNL A   1      36.724  20.870  24.955  1.00  0.00     0.023 C 
ENDROOT
BRANCH   1   2
ATOM      2  C   UNL A   1      37.118  22.235  24.401  1.00  0.00     0.116 C 
BRANCH   2   3
ATOM      3  N   UNL A   1      36.235  22.716  23.349  1.00  0.00    -0.356 N 
ATOM      4  C   UNL A   1      34.887  22.967  23.365  1.00  0.00     0.223 C 
ATOM      5  O   UNL A   1      34.420  23.560  22.395  1.00  0.00    -0.275 OA
ATOM      6  H   UNL A   1      36.678  22.889  22.487  1.00  0.00     0.163 HD
BRANCH   4   7
ATOM      7  C   UNL A   1      34.030  22.503  24.552  1.00  0.00     0.086 C 
BRANCH   7   8
ATOM      8  C   UNL A   1      33.933  23.528  25.736  1.00  0.00    -0.005 C 
ATOM      9  C   UNL A   1      34.447  22.985  27.079  1.00  0.00     0.008 C 
ATOM     10  C   UNL A   1      34.543  24.905  25.531  1.00  0.00     0.008 C 
ENDBRANCH   7   8
BRANCH   7  11
ATOM     11  C   UNL A   1      32.726  21.736  24.089  1.00  0.00     0.027 C 
ATOM     12  C   UNL A   1      31.515  22.668  24.341  1.00  0.00     0.011 C 
BRANCH  11  13
ATOM     13  C   UNL A   1      32.406  20.330  24.689  1.00  0.00     0.115 C 
ATOM     14  C   UNL A   1      33.415  19.247  24.286  1.00  0.00     0.038 C 
BRANCH  13  15
ATOM     15  O   UNL A   1      32.413  20.343  26.109  1.00  0.00    -0.393 OA
ATOM     16  H   UNL A   1      32.962  21.077  26.424  1.00  0.00     0.210 HD
ENDBRANCH  13  15
ENDBRANCH  11  13
ENDBRANCH   7  11
ENDBRANCH   4   7
ENDBRANCH   2   3
ENDBRANCH   1   2
BRANCH   1  17
ATOM     17  C   UNL A   1      37.852  19.841  25.026  1.00  0.00     0.023 C 
BRANCH  17  18
ATOM     18  C   UNL A   1      39.107  20.281  25.773  1.00  0.00     0.116 C 
BRANCH  18  19
ATOM     19  N   UNL A   1      40.140  19.257  25.828  1.00  0.00    -0.352 N 
ATOM     20  C   UNL A   1      41.468  19.389  26.176  1.00  0.00     0.251 C 
ATOM     21  H   UNL A   1      39.852  18.349  25.583  1.00  0.00     0.163 HD
ATOM     22  O   UNL A   1      42.238  18.447  26.075  1.00  0.00    -0.269 OA
BRANCH  20  23
ATOM     23  C   UNL A   1      41.958  20.705  26.641  1.00  0.00     0.039 A 
ATOM     24  C   UNL A   1      42.471  21.607  25.704  1.00  0.00     0.014 A 
ATOM     25  C   UNL A   1      41.860  21.059  27.988  1.00  0.00     0.014 A 
ATOM     26  C   UNL A   1      42.803  22.904  26.107  1.00  0.00     0.010 A 
ATOM     27  C   UNL A   1      42.126  22.370  28.372  1.00  0.00     0.010 A 
ATOM     28  C   UNL A   1      42.590  23.307  27.435  1.00  0.00    -0.014 A 
BRANCH  28  29
ATOM     29  C   UNL A   1      42.848  24.698  27.886  1.00  0.00     0.031 A 
ATOM     30  C   UNL A   1      44.241  25.100  28.286  1.00  0.00     0.074 A 
ATOM     31  C   UNL A   1      41.828  25.566  28.029  1.00  0.00     0.049 A 
ATOM     32  N   UNL A   1      44.652  26.192  28.877  1.00  0.00    -0.248 NA
ATOM     33  C   UNL A   1      45.310  24.125  28.010  1.00  0.00     0.031 C 
ATOM     34  C   UNL A   1      40.428  25.297  27.696  1.00  0.00     0.029 A 
ATOM     35  N   UNL A   1      41.812  26.850  28.516  1.00  0.00    -0.354 N 
ATOM     36  C   UNL A   1      46.016  26.026  29.067  1.00  0.00     0.074 A 
ATOM     37  C   UNL A   1      46.358  24.711  28.567  1.00  0.00     0.031 C 
ATOM     38  C   UNL A   1      39.691  26.384  27.979  1.00  0.00     0.029 A 
ATOM     39  C   UNL A   1      40.556  27.410  28.554  1.00  0.00     0.049 A 
ATOM     40  H   UNL A   1      42.621  27.325  28.810  1.00  0.00     0.167 HD
ATOM     41  C   UNL A   1      46.910  26.896  29.594  1.00  0.00     0.037 A 
ATOM     42  C   UNL A   1      40.149  28.607  29.018  1.00  0.00     0.037 A 
ATOM     43  C   UNL A   1      46.576  28.214  30.062  1.00  0.00     0.049 A 
ATOM     44  C   UNL A   1      41.160  29.550  29.612  1.00  0.00     0.074 A 
ATOM     45  C   UNL A   1      47.414  29.180  30.592  1.00  0.00     0.029 A 
ATOM     46  N   UNL A   1      45.300  28.755  30.048  1.00  0.00    -0.354 N 
ATOM     47  N   UNL A   1      42.451  29.390  29.766  1.00  0.00    -0.248 NA
ATOM     48  C   UNL A   1      40.655  30.844  30.099  1.00  0.00     0.031 C 
ATOM     49  C   UNL A   1      46.641  30.299  30.917  1.00  0.00     0.029 A 
ATOM     50  C   UNL A   1      45.328  30.042  30.557  1.00  0.00     0.049 A 
ATOM     51  H   UNL A   1      44.493  28.293  29.723  1.00  0.00     0.167 HD
ATOM     52  C   UNL A   1      42.918  30.572  30.324  1.00  0.00     0.074 A 
ATOM     53  C   UNL A   1      41.773  31.442  30.484  1.00  0.00     0.031 C 
ATOM     54  C   UNL A   1      44.184  30.907  30.672  1.00  0.00     0.037 A 
BRANCH  41  55
ATOM     55  C   UNL A   1      48.339  26.449  29.681  1.00  0.00     0.057 A 
ATOM     56  C   UNL A   1      49.251  26.700  28.648  1.00  0.00     0.134 A 
ATOM     57  C   UNL A   1      48.817  25.790  30.820  1.00  0.00     0.134 A 
ATOM     58  F   UNL A   1      48.851  27.315  27.523  1.00  0.00    -0.206 F 
ATOM     59  C   UNL A   1      50.581  26.289  28.732  1.00  0.00     0.040 A 
ATOM     60  C   UNL A   1      50.151  25.397  30.928  1.00  0.00     0.040 A 
ATOM     61  F   UNL A   1      47.997  25.523  31.848  1.00  0.00    -0.206 F 
ATOM     62  C   UNL A   1      51.036  25.641  29.879  1.00  0.00     0.006 A 
ENDBRANCH  41  55
BRANCH  42  63
ATOM     63  C   UNL A   1      38.719  28.999  28.931  1.00  0.00     0.057 A 
ATOM     64  C   UNL A   1      38.193  29.531  27.748  1.00  0.00     0.134 A 
ATOM     65  C   UNL A   1      37.856  28.883  30.026  1.00  0.00     0.134 A 
ATOM     66  F   UNL A   1      38.977  29.686  26.671  1.00  0.00    -0.206 F 
ATOM     67  C   UNL A   1      36.867  29.958  27.663  1.00  0.00     0.040 A 
ATOM     68  C   UNL A   1      36.521  29.284  29.949  1.00  0.00     0.040 A 
ATOM     69  F   UNL A   1      38.298  28.376  31.187  1.00  0.00    -0.206 F 
ATOM     70  C   UNL A   1      36.026  29.831  28.767  1.00  0.00     0.006 A 
ENDBRANCH  42  63
BRANCH  54  71
ATOM     71  C   UNL A   1      44.413  32.295  31.191  1.00  0.00     0.057 A 
ATOM     72  C   UNL A   1      44.390  32.589  32.559  1.00  0.00     0.134 A 
ATOM     73  C   UNL A   1      44.720  33.337  30.306  1.00  0.00     0.134 A 
ATOM     74  F   UNL A   1      44.090  31.637  33.454  1.00  0.00    -0.206 F 
ATOM     75  C   UNL A   1      44.652  33.877  33.030  1.00  0.00     0.040 A 
ATOM     76  C   UNL A   1      45.004  34.623  30.766  1.00  0.00     0.040 A 
ATOM     77  F   UNL A   1      44.764  33.117  28.984  1.00  0.00    -0.206 F 
ATOM     78  C   UNL A   1      44.967  34.896  32.132  1.00  0.00     0.006 A 
ENDBRANCH  54  71
ENDBRANCH  28  29
ENDBRANCH  20  23
ENDBRANCH  18  19
ENDBRANCH  17  18
ENDBRANCH   1  17
TORSDOF 15
ENDMDL
MODEL 2
REMARK VINA RESULT:     -10.0      2.251      7.535
REMARK SMILES CC(C)[C@H](C(=O)NCCCCNC(=O)c1ccc(-c2c3nc(c(-c4c(F)cccc4F)c4ccc([nH]4)c(-c4c(F)cccc4F)c4nc(c(-c5c(F)cccc5F)c5ccc2[nH]5)C=C4)C=C3)cc1)[C@H](C)[C@@H](C)O
REMARK SMILES IDX 9 1 8 2 7 3 5 4 6 5 4 7 2 8 1 9 3 10 69 11 70 12 71 13 72 14
REMARK SMILES IDX 73 15 10 17 11 18 12 19 13 20 14 22 15 23 16 24 68 25 17 26
REMARK SMILES IDX 67 27 18 28 19 29 20 30 61 31 21 32 66 33 60 34 62 35 22 36
REMARK SMILES IDX 65 37 59 38 58 39 23 41 49 42 32 43 48 44 33 45 36 46 47 47
REMARK SMILES IDX 63 48 34 49 35 50 46 52 64 53 37 54 24 55 25 56 30 57 26 58
REMARK SMILES IDX 27 59 29 60 31 61 28 62 50 63 51 64 56 65 52 66 53 67 55 68
REMARK SMILES IDX 57 69 54 70 38 71 39 72 44 73 40 74 41 75 43 76 45 77 42 78
REMARK H PARENT 7 6 73 16 12 21 62 40 36 51
REMARK Flexibility Score: inf
ROOT
ATOM      1  C   UNL A   1      32.384  27.136  25.929  1.00  0.00     0.023 C 
ENDROOT
BRANCH   1   2
ATOM      2  C   UNL A   1      33.616  26.260  25.728  1.00  0.00     0.116 C 
BRANCH   2   3
ATOM      3  N   UNL A   1      33.943  26.022  24.330  1.00  0.00    -0.356 N 
ATOM      4  C   UNL A   1      33.880  24.872  23.587  1.00  0.00     0.223 C 
ATOM      5  O   UNL A   1      34.023  24.987  22.371  1.00  0.00    -0.275 OA
ATOM      6  H   UNL A   1      34.261  26.814  23.840  1.00  0.00     0.163 HD
BRANCH   4   7
ATOM      7  C   UNL A   1      33.650  23.518  24.275  1.00  0.00     0.086 C 
BRANCH   7   8
ATOM      8  C   UNL A   1      32.145  23.100  24.423  1.00  0.00    -0.005 C 
ATOM      9  C   UNL A   1      31.607  23.193  25.860  1.00  0.00     0.008 C 
ATOM     10  C   UNL A   1      31.132  23.768  23.508  1.00  0.00     0.008 C 
ENDBRANCH   7   8
BRANCH   7  11
ATOM     11  C   UNL A   1      34.712  22.432  23.834  1.00  0.00     0.027 C 
ATOM     12  C   UNL A   1      34.587  21.229  24.804  1.00  0.00     0.011 C 
BRANCH  11  13
ATOM     13  C   UNL A   1      36.218  22.828  23.724  1.00  0.00     0.115 C 
ATOM     14  C   UNL A   1      37.169  21.799  24.351  1.00  0.00     0.038 C 
BRANCH  13  15
ATOM     15  O   UNL A   1      36.639  22.955  22.373  1.00  0.00    -0.393 OA
ATOM     16  H   UNL A   1      36.666  23.893  22.130  1.00  0.00     0.210 HD
ENDBRANCH  13  15
ENDBRANCH  11  13
ENDBRANCH   7  11
ENDBRANCH   4   7
ENDBRANCH   2   3
ENDBRANCH   1   2
BRANCH   1  17
ATOM     17  C   UNL A   1      32.512  28.209  27.010  1.00  0.00     0.023 C 
BRANCH  17  18
ATOM     18  C   UNL A   1      33.897  28.829  27.171  1.00  0.00     0.116 C 
BRANCH  18  19
ATOM     19  N   UNL A   1      33.879  30.126  27.830  1.00  0.00    -0.352 N 
ATOM     20  C   UNL A   1      34.887  30.749  28.535  1.00  0.00     0.251 C 
ATOM     21  H   UNL A   1      33.034  30.626  27.763  1.00  0.00     0.163 HD
ATOM     22  O   UNL A   1      34.685  31.802  29.120  1.00  0.00    -0.269 OA
BRANCH  20  23
ATOM     23  C   UNL A   1      36.216  30.103  28.606  1.00  0.00     0.039 A 
ATOM     24  C   UNL A   1      37.069  30.182  27.502  1.00  0.00     0.014 A 
ATOM     25  C   UNL A   1      36.632  29.471  29.780  1.00  0.00     0.014 A 
ATOM     26  C   UNL A   1      38.378  29.703  27.607  1.00  0.00     0.010 A 
ATOM     27  C   UNL A   1      37.954  29.057  29.904  1.00  0.00     0.010 A 
ATOM     28  C   UNL A   1      38.842  29.178  28.823  1.00  0.00    -0.014 A 
BRANCH  28  29
ATOM     29  C   UNL A   1      40.249  28.736  29.003  1.00  0.00     0.031 A 
ATOM     30  C   UNL A   1      41.269  29.709  29.525  1.00  0.00     0.074 A 
ATOM     31  C   UNL A   1      40.629  27.504  28.612  1.00  0.00     0.049 A 
ATOM     32  N   UNL A   1      42.571  29.594  29.585  1.00  0.00    -0.248 NA
ATOM     33  C   UNL A   1      40.755  30.998  30.017  1.00  0.00     0.031 C 
ATOM     34  C   UNL A   1      39.743  26.471  28.072  1.00  0.00     0.029 A 
ATOM     35  N   UNL A   1      41.871  26.920  28.589  1.00  0.00    -0.354 N 
ATOM     36  C   UNL A   1      43.032  30.800  30.094  1.00  0.00     0.074 A 
ATOM     37  C   UNL A   1      41.876  31.649  30.287  1.00  0.00     0.031 C 
ATOM     38  C   UNL A   1      40.468  25.378  27.780  1.00  0.00     0.029 A 
ATOM     39  C   UNL A   1      41.873  25.646  28.069  1.00  0.00     0.049 A 
ATOM     40  H   UNL A   1      42.684  27.369  28.914  1.00  0.00     0.167 HD
ATOM     41  C   UNL A   1      44.301  31.163  30.392  1.00  0.00     0.037 A 
ATOM     42  C   UNL A   1      42.895  24.802  27.836  1.00  0.00     0.037 A 
ATOM     43  C   UNL A   1      45.447  30.308  30.228  1.00  0.00     0.049 A 
ATOM     44  C   UNL A   1      44.299  25.234  28.162  1.00  0.00     0.074 A 
ATOM     45  C   UNL A   1      46.772  30.575  30.523  1.00  0.00     0.029 A 
ATOM     46  N   UNL A   1      45.399  29.014  29.735  1.00  0.00    -0.354 N 
ATOM     47  N   UNL A   1      44.720  26.370  28.664  1.00  0.00    -0.248 NA
ATOM     48  C   UNL A   1      45.373  24.267  27.889  1.00  0.00     0.031 C 
ATOM     49  C   UNL A   1      47.531  29.449  30.188  1.00  0.00     0.029 A 
ATOM     50  C   UNL A   1      46.672  28.469  29.718  1.00  0.00     0.049 A 
ATOM     51  H   UNL A   1      44.582  28.550  29.440  1.00  0.00     0.167 HD
ATOM     52  C   UNL A   1      46.094  26.238  28.806  1.00  0.00     0.074 A 
ATOM     53  C   UNL A   1      46.440  24.912  28.337  1.00  0.00     0.031 C 
ATOM     54  C   UNL A   1      46.990  27.134  29.284  1.00  0.00     0.037 A 
BRANCH  41  55
ATOM     55  C   UNL A   1      44.515  32.544  30.934  1.00  0.00     0.057 A 
ATOM     56  C   UNL A   1      44.502  32.802  32.311  1.00  0.00     0.134 A 
ATOM     57  C   UNL A   1      44.767  33.621  30.077  1.00  0.00     0.134 A 
ATOM     58  F   UNL A   1      44.251  31.814  33.185  1.00  0.00    -0.206 F 
ATOM     59  C   UNL A   1      44.706  34.087  32.815  1.00  0.00     0.040 A 
ATOM     60  C   UNL A   1      44.998  34.906  30.569  1.00  0.00     0.040 A 
ATOM     61  F   UNL A   1      44.798  33.442  28.747  1.00  0.00    -0.206 F 
ATOM     62  C   UNL A   1      44.962  35.143  31.943  1.00  0.00     0.006 A 
ENDBRANCH  41  55
BRANCH  42  63
ATOM     63  C   UNL A   1      42.640  23.450  27.276  1.00  0.00     0.057 A 
ATOM     64  C   UNL A   1      42.327  22.375  28.117  1.00  0.00     0.134 A 
ATOM     65  C   UNL A   1      42.731  23.192  25.905  1.00  0.00     0.134 A 
ATOM     66  F   UNL A   1      42.247  22.556  29.443  1.00  0.00    -0.206 F 
ATOM     67  C   UNL A   1      42.139  21.086  27.617  1.00  0.00     0.040 A 
ATOM     68  C   UNL A   1      42.522  21.912  25.388  1.00  0.00     0.040 A 
ATOM     69  F   UNL A   1      43.022  24.180  25.047  1.00  0.00    -0.206 F 
ATOM     70  C   UNL A   1      42.233  20.853  26.246  1.00  0.00     0.006 A 
ENDBRANCH  42  63
BRANCH  54  71
ATOM     71  C   UNL A   1      48.419  26.692  29.394  1.00  0.00     0.057 A 
ATOM     72  C   UNL A   1      48.884  25.949  30.485  1.00  0.00     0.134 A 
ATOM     73  C   UNL A   1      49.323  26.964  28.359  1.00  0.00     0.134 A 
ATOM     74  F   UNL A   1      48.070  25.667  31.512  1.00  0.00    -0.206 F 
ATOM     75  C   UNL A   1      50.205  25.503  30.550  1.00  0.00     0.040 A 
ATOM     76  C   UNL A   1      50.640  26.506  28.402  1.00  0.00     0.040 A 
ATOM     77  F   UNL A   1      48.936  27.665  27.283  1.00  0.00    -0.206 F 
ATOM     78  C   UNL A   1      51.084  25.776  29.503  1.00  0.00     0.006 A 
ENDBRANCH  54  71
ENDBRANCH  28  29
ENDBRANCH  20  23
ENDBRANCH  18  19
ENDBRANCH  17  18
ENDBRANCH   1  17
TORSDOF 15
ENDMDL
MODEL 3
REMARK VINA RESULT:      -9.9      4.534      9.291
REMARK SMILES CC(C)[C@H](C(=O)NCCCCNC(=O)c1ccc(-c2c3nc(c(-c4c(F)cccc4F)c4ccc([nH]4)c(-c4c(F)cccc4F)c4nc(c(-c5c(F)cccc5F)c5ccc2[nH]5)C=C4)C=C3)cc1)[C@H](C)[C@@H](C)O
REMARK SMILES IDX 9 1 8 2 7 3 5 4 6 5 4 7 2 8 1 9 3 10 69 11 70 12 71 13 72 14
REMARK SMILES IDX 73 15 10 17 11 18 12 19 13 20 14 22 15 23 16 24 68 25 17 26
REMARK SMILES IDX 67 27 18 28 19 29 20 30 61 31 21 32 66 33 60 34 62 35 22 36
REMARK SMILES IDX 65 37 59 38 58 39 23 41 49 42 32 43 48 44 33 45 36 46 47 47
REMARK SMILES IDX 63 48 34 49 35 50 46 52 64 53 37 54 24 55 25 56 30 57 26 58
REMARK SMILES IDX 27 59 29 60 31 61 28 62 50 63 51 64 56 65 52 66 53 67 55 68
REMARK SMILES IDX 57 69 54 70 38 71 39 72 44 73 40 74 41 75 43 76 45 77 42 78
REMARK H PARENT 7 6 73 16 12 21 62 40 36 51
REMARK Flexibility Score: inf
ROOT
ATOM      1  C   UNL A   1      31.972  29.950  26.876  1.00  0.00     0.023 C 
ENDROOT
BRANCH   1   2
ATOM      2  C   UNL A   1      33.334  29.412  26.452  1.00  0.00     0.116 C 
BRANCH   2   3
ATOM      3  N   UNL A   1      33.602  29.552  25.028  1.00  0.00    -0.356 N 
ATOM      4  C   UNL A   1      33.315  28.712  23.983  1.00  0.00     0.223 C 
ATOM      5  O   UNL A   1      33.470  29.162  22.849  1.00  0.00    -0.275 OA
ATOM      6  H   UNL A   1      34.062  30.385  24.775  1.00  0.00     0.163 HD
BRANCH   4   7
ATOM      7  C   UNL A   1      32.834  27.279  24.254  1.00  0.00     0.086 C 
BRANCH   7   8
ATOM      8  C   UNL A   1      31.278  27.114  24.360  1.00  0.00    -0.005 C 
ATOM      9  C   UNL A   1      30.786  26.687  25.752  1.00  0.00     0.008 C 
ATOM     10  C   UNL A   1      30.410  28.274  23.900  1.00  0.00     0.008 C 
ENDBRANCH   7   8
BRANCH   7  11
ATOM     11  C   UNL A   1      33.670  26.203  23.451  1.00  0.00     0.027 C 
ATOM     12  C   UNL A   1      32.755  25.626  22.342  1.00  0.00     0.011 C 
BRANCH  11  13
ATOM     13  C   UNL A   1      34.333  25.014  24.217  1.00  0.00     0.115 C 
ATOM     14  C   UNL A   1      33.967  24.965  25.706  1.00  0.00     0.038 C 
BRANCH  13  15
ATOM     15  O   UNL A   1      33.942  23.755  23.690  1.00  0.00    -0.393 OA
ATOM     16  H   UNL A   1      34.704  23.156  23.683  1.00  0.00     0.210 HD
ENDBRANCH  13  15
ENDBRANCH  11  13
ENDBRANCH   7  11
ENDBRANCH   4   7
ENDBRANCH   2   3
ENDBRANCH   1   2
BRANCH   1  17
ATOM     17  C   UNL A   1      31.790  31.461  26.731  1.00  0.00     0.023 C 
BRANCH  17  18
ATOM     18  C   UNL A   1      32.900  32.323  27.325  1.00  0.00     0.116 C 
BRANCH  18  19
ATOM     19  N   UNL A   1      32.483  33.687  27.616  1.00  0.00    -0.352 N 
ATOM     20  C   UNL A   1      33.055  34.599  28.478  1.00  0.00     0.251 C 
ATOM     21  H   UNL A   1      31.685  34.000  27.133  1.00  0.00     0.163 HD
ATOM     22  O   UNL A   1      32.525  35.677  28.691  1.00  0.00    -0.269 OA
BRANCH  20  23
ATOM     23  C   UNL A   1      34.308  34.235  29.175  1.00  0.00     0.039 A 
ATOM     24  C   UNL A   1      34.234  33.573  30.404  1.00  0.00     0.014 A 
ATOM     25  C   UNL A   1      35.546  34.501  28.587  1.00  0.00     0.014 A 
ATOM     26  C   UNL A   1      35.403  33.096  31.002  1.00  0.00     0.010 A 
ATOM     27  C   UNL A   1      36.701  33.967  29.150  1.00  0.00     0.010 A 
ATOM     28  C   UNL A   1      36.640  33.251  30.357  1.00  0.00    -0.014 A 
BRANCH  28  29
ATOM     29  C   UNL A   1      37.895  32.686  30.915  1.00  0.00     0.031 A 
ATOM     30  C   UNL A   1      38.501  31.464  30.284  1.00  0.00     0.074 A 
ATOM     31  C   UNL A   1      38.435  33.206  32.035  1.00  0.00     0.049 A 
ATOM     32  N   UNL A   1      39.477  30.706  30.713  1.00  0.00    -0.248 NA
ATOM     33  C   UNL A   1      37.907  31.018  29.013  1.00  0.00     0.031 C 
ATOM     34  C   UNL A   1      37.934  34.377  32.756  1.00  0.00     0.029 A 
ATOM     35  N   UNL A   1      39.515  32.797  32.776  1.00  0.00    -0.354 N 
ATOM     36  C   UNL A   1      39.596  29.683  29.783  1.00  0.00     0.074 A 
ATOM     37  C   UNL A   1      38.566  29.892  28.787  1.00  0.00     0.031 C 
ATOM     38  C   UNL A   1      38.712  34.598  33.830  1.00  0.00     0.029 A 
ATOM     39  C   UNL A   1      39.736  33.560  33.899  1.00  0.00     0.049 A 
ATOM     40  H   UNL A   1      40.079  32.030  32.529  1.00  0.00     0.167 HD
ATOM     41  C   UNL A   1      40.492  28.669  29.749  1.00  0.00     0.037 A 
ATOM     42  C   UNL A   1      40.648  33.425  34.880  1.00  0.00     0.037 A 
ATOM     43  C   UNL A   1      41.535  28.478  30.721  1.00  0.00     0.049 A 
ATOM     44  C   UNL A   1      41.625  32.282  34.826  1.00  0.00     0.074 A 
ATOM     45  C   UNL A   1      42.508  27.495  30.761  1.00  0.00     0.029 A 
ATOM     46  N   UNL A   1      41.746  29.296  31.820  1.00  0.00    -0.354 N 
ATOM     47  N   UNL A   1      41.740  31.333  33.929  1.00  0.00    -0.248 NA
ATOM     48  C   UNL A   1      42.600  32.189  35.924  1.00  0.00     0.031 C 
ATOM     49  C   UNL A   1      43.296  27.706  31.898  1.00  0.00     0.029 A 
ATOM     50  C   UNL A   1      42.835  28.841  32.544  1.00  0.00     0.049 A 
ATOM     51  H   UNL A   1      41.202  30.084  32.051  1.00  0.00     0.167 HD
ATOM     52  C   UNL A   1      42.821  30.560  34.329  1.00  0.00     0.074 A 
ATOM     53  C   UNL A   1      43.330  31.148  35.551  1.00  0.00     0.031 C 
ATOM     54  C   UNL A   1      43.349  29.462  33.736  1.00  0.00     0.037 A 
BRANCH  41  55
ATOM     55  C   UNL A   1      40.388  27.693  28.615  1.00  0.00     0.057 A 
ATOM     56  C   UNL A   1      41.069  27.896  27.407  1.00  0.00     0.134 A 
ATOM     57  C   UNL A   1      39.627  26.526  28.740  1.00  0.00     0.134 A 
ATOM     58  F   UNL A   1      41.804  29.004  27.219  1.00  0.00    -0.206 F 
ATOM     59  C   UNL A   1      40.975  26.985  26.355  1.00  0.00     0.040 A 
ATOM     60  C   UNL A   1      39.546  25.593  27.705  1.00  0.00     0.040 A 
ATOM     61  F   UNL A   1      38.954  26.268  29.873  1.00  0.00    -0.206 F 
ATOM     62  C   UNL A   1      40.218  25.825  26.505  1.00  0.00     0.006 A 
ENDBRANCH  41  55
BRANCH  42  63
ATOM     63  C   UNL A   1      40.701  34.403  35.996  1.00  0.00     0.057 A 
ATOM     64  C   UNL A   1      39.957  34.197  37.164  1.00  0.00     0.134 A 
ATOM     65  C   UNL A   1      41.461  35.574  35.914  1.00  0.00     0.134 A 
ATOM     66  F   UNL A   1      39.192  33.103  37.292  1.00  0.00    -0.206 F 
ATOM     67  C   UNL A   1      39.948  35.130  38.201  1.00  0.00     0.040 A 
ATOM     68  C   UNL A   1      41.481  36.506  36.954  1.00  0.00     0.040 A 
ATOM     69  F   UNL A   1      42.199  35.828  34.824  1.00  0.00    -0.206 F 
ATOM     70  C   UNL A   1      40.716  36.289  38.098  1.00  0.00     0.006 A 
ENDBRANCH  42  63
BRANCH  54  71
ATOM     71  C   UNL A   1      44.577  28.865  34.355  1.00  0.00     0.057 A 
ATOM     72  C   UNL A   1      45.864  29.297  34.015  1.00  0.00     0.134 A 
ATOM     73  C   UNL A   1      44.460  27.885  35.350  1.00  0.00     0.134 A 
ATOM     74  F   UNL A   1      46.041  30.223  33.062  1.00  0.00    -0.206 F 
ATOM     75  C   UNL A   1      46.996  28.765  34.635  1.00  0.00     0.040 A 
ATOM     76  C   UNL A   1      45.583  27.361  35.991  1.00  0.00     0.040 A 
ATOM     77  F   UNL A   1      43.254  27.435  35.724  1.00  0.00    -0.206 F 
ATOM     78  C   UNL A   1      46.856  27.800  35.631  1.00  0.00     0.006 A 
ENDBRANCH  54  71
ENDBRANCH  28  29
ENDBRANCH  20  23
ENDBRANCH  18  19
ENDBRANCH  17  18
ENDBRANCH   1  17
TORSDOF 15
ENDMDL
