MODEL 1
REMARK VINA RESULT:     -12.5      0.000      0.000
REMARK SMILES CC(C)(C)OC(=O)N1C[C@@H](C(=O)NCCCCNC(=O)c2ccc(-c3c4nc(c(-c5c(F)cccc5F)c5ccc([nH]5)c(-c5c(F)cccc5F)c5nc(c(-c6c(F)cccc6F)c6ccc3[nH]6)C=C5)C=C4)cc2)[C@@]2(C1)C(=O)Nc1ccccc12
REMARK SMILES IDX 15 1 14 2 13 3 11 4 12 5 10 7 8 8 9 9 76 10 75 11 77 12
REMARK SMILES IDX 85 13 78 14 79 15 80 16 84 17 81 19 83 20 82 21 6 22 7 23
REMARK SMILES IDX 5 24 2 25 1 26 3 27 4 28 16 29 17 30 18 31 19 32 20 34 21 35
REMARK SMILES IDX 22 36 74 37 23 38 73 39 24 40 25 41 26 42 67 43 27 44 72 45
REMARK SMILES IDX 66 46 68 47 28 48 71 49 65 50 64 51 29 53 55 54 38 55 54 56
REMARK SMILES IDX 39 57 42 58 53 59 69 60 40 61 41 62 52 64 70 65 43 66 30 67
REMARK SMILES IDX 31 68 36 69 32 70 33 71 35 72 37 73 34 74 56 75 57 76 62 77
REMARK SMILES IDX 58 78 59 79 61 80 63 81 60 82 44 83 45 84 50 85 46 86 47 87
REMARK SMILES IDX 49 88 51 89 48 90
REMARK H PARENT 13 6 79 18 18 33 68 52 42 63
REMARK Flexibility Score: inf
ROOT
ATOM      1  C   UNL A   1      36.778  20.963  24.660  1.00  0.00     0.023 C 
ENDROOT
BRANCH   1   2
ATOM      2  C   UNL A   1      36.960  22.240  25.484  1.00  0.00     0.116 C 
BRANCH   2   3
ATOM      3  N   UNL A   1      35.936  22.421  26.499  1.00  0.00    -0.356 N 
ATOM      4  C   UNL A   1      34.721  23.024  26.531  1.00  0.00     0.226 C 
ATOM      5  O   UNL A   1      34.117  22.922  27.607  1.00  0.00    -0.275 OA
ATOM      6  H   UNL A   1      36.180  22.011  27.361  1.00  0.00     0.163 HD
BRANCH   4   7
ATOM      7  C   UNL A   1      34.070  23.813  25.400  1.00  0.00     0.120 C 
ATOM      8  N   UNL A   1      32.342  25.342  25.934  1.00  0.00    -0.306 N 
ATOM      9  C   UNL A   1      33.779  25.254  25.774  1.00  0.00     0.138 C 
ATOM     10  C   UNL A   1      31.655  24.128  25.482  1.00  0.00     0.145 C 
ATOM     11  C   UNL A   1      32.758  23.296  24.786  1.00  0.00     0.107 C 
ATOM     12  C   UNL A   1      32.666  23.749  23.291  1.00  0.00     0.237 C 
ATOM     13  C   UNL A   1      32.624  21.789  24.611  1.00  0.00    -0.006 A 
ATOM     14  O   UNL A   1      32.816  24.875  22.845  1.00  0.00    -0.274 OA
ATOM     15  N   UNL A   1      32.342  22.649  22.523  1.00  0.00    -0.325 N 
ATOM     16  C   UNL A   1      32.351  21.493  23.274  1.00  0.00     0.045 A 
ATOM     17  C   UNL A   1      32.868  20.723  25.466  1.00  0.00     0.007 A 
ATOM     18  H   UNL A   1      32.130  22.685  21.562  1.00  0.00     0.169 HD
ATOM     19  C   UNL A   1      32.240  20.209  22.772  1.00  0.00     0.026 A 
ATOM     20  C   UNL A   1      32.783  19.408  24.986  1.00  0.00     0.000 A 
ATOM     21  C   UNL A   1      32.458  19.150  23.649  1.00  0.00     0.002 A 
BRANCH   8  22
ATOM     22  C   UNL A   1      31.795  26.549  26.309  1.00  0.00     0.410 C 
ATOM     23  O   UNL A   1      30.785  26.608  26.998  1.00  0.00    -0.224 OA
BRANCH  22  24
ATOM     24  O   UNL A   1      32.445  27.620  25.788  1.00  0.00    -0.444 OA
BRANCH  24  25
ATOM     25  C   UNL A   1      31.884  28.346  24.651  1.00  0.00     0.106 C 
ATOM     26  C   UNL A   1      33.037  28.504  23.649  1.00  0.00     0.056 C 
ATOM     27  C   UNL A   1      31.443  29.727  25.147  1.00  0.00     0.056 C 
ATOM     28  C   UNL A   1      30.729  27.649  23.907  1.00  0.00     0.056 C 
ENDBRANCH  24  25
ENDBRANCH  22  24
ENDBRANCH   8  22
ENDBRANCH   4   7
ENDBRANCH   2   3
ENDBRANCH   1   2
BRANCH   1  29
ATOM     29  C   UNL A   1      37.793  19.854  24.936  1.00  0.00     0.023 C 
BRANCH  29  30
ATOM     30  C   UNL A   1      38.987  20.294  25.768  1.00  0.00     0.116 C 
BRANCH  30  31
ATOM     31  N   UNL A   1      40.064  19.316  25.776  1.00  0.00    -0.352 N 
ATOM     32  C   UNL A   1      41.383  19.493  26.113  1.00  0.00     0.251 C 
ATOM     33  H   UNL A   1      39.814  18.404  25.503  1.00  0.00     0.163 HD
ATOM     34  O   UNL A   1      42.191  18.584  25.960  1.00  0.00    -0.269 OA
BRANCH  32  35
ATOM     35  C   UNL A   1      41.824  20.805  26.621  1.00  0.00     0.039 A 
ATOM     36  C   UNL A   1      42.308  21.748  25.712  1.00  0.00     0.014 A 
ATOM     37  C   UNL A   1      41.728  21.109  27.981  1.00  0.00     0.014 A 
ATOM     38  C   UNL A   1      42.637  23.026  26.161  1.00  0.00     0.010 A 
ATOM     39  C   UNL A   1      41.989  22.403  28.415  1.00  0.00     0.010 A 
ATOM     40  C   UNL A   1      42.447  23.370  27.508  1.00  0.00    -0.014 A 
BRANCH  40  41
ATOM     41  C   UNL A   1      42.731  24.737  27.999  1.00  0.00     0.031 A 
ATOM     42  C   UNL A   1      44.129  25.111  28.397  1.00  0.00     0.074 A 
ATOM     43  C   UNL A   1      41.718  25.610  28.156  1.00  0.00     0.049 A 
ATOM     44  N   UNL A   1      44.567  26.220  28.933  1.00  0.00    -0.248 NA
ATOM     45  C   UNL A   1      45.168  24.088  28.197  1.00  0.00     0.031 C 
ATOM     46  C   UNL A   1      40.311  25.339  27.852  1.00  0.00     0.029 A 
ATOM     47  N   UNL A   1      41.714  26.897  28.626  1.00  0.00    -0.354 N 
ATOM     48  C   UNL A   1      45.923  26.022  29.152  1.00  0.00     0.074 A 
ATOM     49  C   UNL A   1      46.228  24.670  28.736  1.00  0.00     0.031 C 
ATOM     50  C   UNL A   1      39.584  26.435  28.124  1.00  0.00     0.029 A 
ATOM     51  C   UNL A   1      40.467  27.470  28.651  1.00  0.00     0.049 A 
ATOM     52  H   UNL A   1      42.530  27.367  28.917  1.00  0.00     0.167 HD
ATOM     53  C   UNL A   1      46.836  26.897  29.634  1.00  0.00     0.037 A 
ATOM     54  C   UNL A   1      40.082  28.694  29.059  1.00  0.00     0.037 A 
ATOM     55  C   UNL A   1      46.533  28.250  30.013  1.00  0.00     0.049 A 
ATOM     56  C   UNL A   1      41.118  29.653  29.572  1.00  0.00     0.074 A 
ATOM     57  C   UNL A   1      47.397  29.239  30.449  1.00  0.00     0.029 A 
ATOM     58  N   UNL A   1      45.262  28.806  29.994  1.00  0.00    -0.354 N 
ATOM     59  N   UNL A   1      42.409  29.474  29.715  1.00  0.00    -0.248 NA
ATOM     60  C   UNL A   1      40.645  30.984  29.977  1.00  0.00     0.031 C 
ATOM     61  C   UNL A   1      46.643  30.386  30.725  1.00  0.00     0.029 A 
ATOM     62  C   UNL A   1      45.316  30.121  30.426  1.00  0.00     0.049 A 
ATOM     63  H   UNL A   1      44.444  28.335  29.716  1.00  0.00     0.167 HD
ATOM     64  C   UNL A   1      42.906  30.675  30.204  1.00  0.00     0.074 A 
ATOM     65  C   UNL A   1      41.779  31.577  30.321  1.00  0.00     0.031 C 
ATOM     66  C   UNL A   1      44.181  31.001  30.529  1.00  0.00     0.037 A 
BRANCH  53  67
ATOM     67  C   UNL A   1      48.248  26.411  29.771  1.00  0.00     0.057 A 
ATOM     68  C   UNL A   1      49.178  26.550  28.732  1.00  0.00     0.134 A 
ATOM     69  C   UNL A   1      48.689  25.816  30.958  1.00  0.00     0.134 A 
ATOM     70  F   UNL A   1      48.814  27.097  27.562  1.00  0.00    -0.206 F 
ATOM     71  C   UNL A   1      50.490  26.089  28.859  1.00  0.00     0.040 A 
ATOM     72  C   UNL A   1      50.005  25.373  31.107  1.00  0.00     0.040 A 
ATOM     73  F   UNL A   1      47.851  25.654  31.992  1.00  0.00    -0.206 F 
ATOM     74  C   UNL A   1      50.907  25.503  30.052  1.00  0.00     0.006 A 
ENDBRANCH  53  67
BRANCH  54  75
ATOM     75  C   UNL A   1      38.657  29.090  28.968  1.00  0.00     0.057 A 
ATOM     76  C   UNL A   1      37.810  28.992  30.078  1.00  0.00     0.134 A 
ATOM     77  C   UNL A   1      38.106  29.578  27.776  1.00  0.00     0.134 A 
ATOM     78  F   UNL A   1      38.278  28.517  31.241  1.00  0.00    -0.206 F 
ATOM     79  C   UNL A   1      36.463  29.348  30.004  1.00  0.00     0.040 A 
ATOM     80  C   UNL A   1      36.765  29.957  27.694  1.00  0.00     0.040 A 
ATOM     81  F   UNL A   1      38.867  29.705  26.679  1.00  0.00    -0.206 F 
ATOM     82  C   UNL A   1      35.938  29.836  28.810  1.00  0.00     0.006 A 
ENDBRANCH  54  75
BRANCH  66  83
ATOM     83  C   UNL A   1      44.423  32.397  31.015  1.00  0.00     0.057 A 
ATOM     84  C   UNL A   1      44.405  32.714  32.380  1.00  0.00     0.134 A 
ATOM     85  C   UNL A   1      44.715  33.426  30.112  1.00  0.00     0.134 A 
ATOM     86  F   UNL A   1      44.118  31.774  33.292  1.00  0.00    -0.206 F 
ATOM     87  C   UNL A   1      44.652  34.012  32.827  1.00  0.00     0.040 A 
ATOM     88  C   UNL A   1      44.985  34.723  30.548  1.00  0.00     0.040 A 
ATOM     89  F   UNL A   1      44.754  33.184  28.793  1.00  0.00    -0.206 F 
ATOM     90  C   UNL A   1      44.949  35.020  31.910  1.00  0.00     0.006 A 
ENDBRANCH  66  83
ENDBRANCH  40  41
ENDBRANCH  32  35
ENDBRANCH  30  31
ENDBRANCH  29  30
ENDBRANCH   1  29
TORSDOF 14
ENDMDL
MODEL 2
REMARK VINA RESULT:     -12.5      3.788      8.899
REMARK SMILES CC(C)(C)OC(=O)N1C[C@@H](C(=O)NCCCCNC(=O)c2ccc(-c3c4nc(c(-c5c(F)cccc5F)c5ccc([nH]5)c(-c5c(F)cccc5F)c5nc(c(-c6c(F)cccc6F)c6ccc3[nH]6)C=C5)C=C4)cc2)[C@@]2(C1)C(=O)Nc1ccccc12
REMARK SMILES IDX 15 1 14 2 13 3 11 4 12 5 10 7 8 8 9 9 76 10 75 11 77 12
REMARK SMILES IDX 85 13 78 14 79 15 80 16 84 17 81 19 83 20 82 21 6 22 7 23
REMARK SMILES IDX 5 24 2 25 1 26 3 27 4 28 16 29 17 30 18 31 19 32 20 34 21 35
REMARK SMILES IDX 22 36 74 37 23 38 73 39 24 40 25 41 26 42 67 43 27 44 72 45
REMARK SMILES IDX 66 46 68 47 28 48 71 49 65 50 64 51 29 53 55 54 38 55 54 56
REMARK SMILES IDX 39 57 42 58 53 59 69 60 40 61 41 62 52 64 70 65 43 66 30 67
REMARK SMILES IDX 31 68 36 69 32 70 33 71 35 72 37 73 34 74 56 75 57 76 62 77
REMARK SMILES IDX 58 78 59 79 61 80 63 81 60 82 44 83 45 84 50 85 46 86 47 87
REMARK SMILES IDX 49 88 51 89 48 90
REMARK H PARENT 13 6 79 18 18 33 68 52 42 63
REMARK Flexibility Score: inf
ROOT
ATOM      1  C   UNL A   1      31.218  30.694  25.522  1.00  0.00     0.023 C 
ENDROOT
BRANCH   1   2
ATOM      2  C   UNL A   1      32.565  29.996  25.726  1.00  0.00     0.116 C 
BRANCH   2   3
ATOM      3  N   UNL A   1      33.169  29.538  24.488  1.00  0.00    -0.356 N 
ATOM      4  C   UNL A   1      33.140  28.378  23.784  1.00  0.00     0.226 C 
ATOM      5  O   UNL A   1      33.774  28.396  22.721  1.00  0.00    -0.275 OA
ATOM      6  H   UNL A   1      33.727  30.228  24.059  1.00  0.00     0.163 HD
BRANCH   4   7
ATOM      7  C   UNL A   1      32.436  27.087  24.193  1.00  0.00     0.120 C 
ATOM      8  N   UNL A   1      32.982  25.088  23.045  1.00  0.00    -0.306 N 
ATOM      9  C   UNL A   1      33.361  25.884  24.194  1.00  0.00     0.138 C 
ATOM     10  C   UNL A   1      31.743  25.565  22.420  1.00  0.00     0.145 C 
ATOM     11  C   UNL A   1      31.199  26.628  23.404  1.00  0.00     0.107 C 
ATOM     12  C   UNL A   1      30.256  25.805  24.343  1.00  0.00     0.237 C 
ATOM     13  C   UNL A   1      30.230  27.711  22.946  1.00  0.00    -0.006 A 
ATOM     14  O   UNL A   1      30.557  24.863  25.059  1.00  0.00    -0.274 OA
ATOM     15  N   UNL A   1      28.973  26.298  24.211  1.00  0.00    -0.325 N 
ATOM     16  C   UNL A   1      28.950  27.432  23.430  1.00  0.00     0.045 A 
ATOM     17  C   UNL A   1      30.423  28.928  22.308  1.00  0.00     0.007 A 
ATOM     18  H   UNL A   1      28.176  25.890  24.622  1.00  0.00     0.169 HD
ATOM     19  C   UNL A   1      27.856  28.260  23.247  1.00  0.00     0.026 A 
ATOM     20  C   UNL A   1      29.340  29.800  22.123  1.00  0.00     0.000 A 
ATOM     21  C   UNL A   1      28.061  29.463  22.579  1.00  0.00     0.002 A 
BRANCH   8  22
ATOM     22  C   UNL A   1      33.687  23.936  22.781  1.00  0.00     0.410 C 
ATOM     23  O   UNL A   1      33.739  23.460  21.655  1.00  0.00    -0.224 OA
BRANCH  22  24
ATOM     24  O   UNL A   1      34.238  23.376  23.888  1.00  0.00    -0.444 OA
BRANCH  24  25
ATOM     25  C   UNL A   1      33.562  22.280  24.579  1.00  0.00     0.106 C 
ATOM     26  C   UNL A   1      33.270  22.800  25.994  1.00  0.00     0.056 C 
ATOM     27  C   UNL A   1      34.538  21.103  24.657  1.00  0.00     0.056 C 
ATOM     28  C   UNL A   1      32.220  21.827  23.976  1.00  0.00     0.056 C 
ENDBRANCH  24  25
ENDBRANCH  22  24
ENDBRANCH   8  22
ENDBRANCH   4   7
ENDBRANCH   2   3
ENDBRANCH   1   2
BRANCH   1  29
ATOM     29  C   UNL A   1      31.043  32.014  26.273  1.00  0.00     0.023 C 
BRANCH  29  30
ATOM     30  C   UNL A   1      32.316  32.540  26.918  1.00  0.00     0.116 C 
BRANCH  30  31
ATOM     31  N   UNL A   1      32.172  33.889  27.441  1.00  0.00    -0.352 N 
ATOM     32  C   UNL A   1      32.964  34.548  28.348  1.00  0.00     0.251 C 
ATOM     33  H   UNL A   1      31.403  34.399  27.098  1.00  0.00     0.163 HD
ATOM     34  O   UNL A   1      32.640  35.652  28.770  1.00  0.00    -0.269 OA
BRANCH  32  35
ATOM     35  C   UNL A   1      34.188  33.892  28.842  1.00  0.00     0.039 A 
ATOM     36  C   UNL A   1      35.424  34.326  28.358  1.00  0.00     0.014 A 
ATOM     37  C   UNL A   1      34.114  32.880  29.802  1.00  0.00     0.014 A 
ATOM     38  C   UNL A   1      36.595  33.786  28.887  1.00  0.00     0.010 A 
ATOM     39  C   UNL A   1      35.281  32.393  30.377  1.00  0.00     0.010 A 
ATOM     40  C   UNL A   1      36.530  32.841  29.922  1.00  0.00    -0.014 A 
BRANCH  40  41
ATOM     41  C   UNL A   1      37.758  32.296  30.543  1.00  0.00     0.031 A 
ATOM     42  C   UNL A   1      38.425  31.093  29.943  1.00  0.00     0.074 A 
ATOM     43  C   UNL A   1      38.222  32.838  31.684  1.00  0.00     0.049 A 
ATOM     44  N   UNL A   1      39.451  30.411  30.384  1.00  0.00    -0.248 NA
ATOM     45  C   UNL A   1      37.841  30.564  28.699  1.00  0.00     0.031 C 
ATOM     46  C   UNL A   1      37.625  33.977  32.386  1.00  0.00     0.029 A 
ATOM     47  N   UNL A   1      39.296  32.494  32.463  1.00  0.00    -0.354 N 
ATOM     48  C   UNL A   1      39.621  29.366  29.485  1.00  0.00     0.074 A 
ATOM     49  C   UNL A   1      38.565  29.474  28.502  1.00  0.00     0.031 C 
ATOM     50  C   UNL A   1      38.353  34.249  33.481  1.00  0.00     0.029 A 
ATOM     51  C   UNL A   1      39.445  33.285  33.575  1.00  0.00     0.049 A 
ATOM     52  H   UNL A   1      39.903  31.750  32.246  1.00  0.00     0.167 HD
ATOM     53  C   UNL A   1      40.585  28.417  29.470  1.00  0.00     0.037 A 
ATOM     54  C   UNL A   1      40.360  33.235  34.561  1.00  0.00     0.037 A 
ATOM     55  C   UNL A   1      41.652  28.336  30.430  1.00  0.00     0.049 A 
ATOM     56  C   UNL A   1      41.431  32.183  34.509  1.00  0.00     0.074 A 
ATOM     57  C   UNL A   1      42.718  27.455  30.466  1.00  0.00     0.029 A 
ATOM     58  N   UNL A   1      41.789  29.177  31.526  1.00  0.00    -0.354 N 
ATOM     59  N   UNL A   1      41.618  31.238  33.620  1.00  0.00    -0.248 NA
ATOM     60  C   UNL A   1      42.420  32.191  35.596  1.00  0.00     0.031 C 
ATOM     61  C   UNL A   1      43.484  27.742  31.601  1.00  0.00     0.029 A 
ATOM     62  C   UNL A   1      42.914  28.824  32.252  1.00  0.00     0.049 A 
ATOM     63  H   UNL A   1      41.176  29.913  31.753  1.00  0.00     0.167 HD
ATOM     64  C   UNL A   1      42.757  30.555  34.025  1.00  0.00     0.074 A 
ATOM     65  C   UNL A   1      43.224  31.202  35.234  1.00  0.00     0.031 C 
ATOM     66  C   UNL A   1      43.362  29.487  33.450  1.00  0.00     0.037 A 
BRANCH  53  67
ATOM     67  C   UNL A   1      40.527  27.396  28.373  1.00  0.00     0.057 A 
ATOM     68  C   UNL A   1      39.734  26.245  28.479  1.00  0.00     0.134 A 
ATOM     69  C   UNL A   1      41.256  27.573  27.191  1.00  0.00     0.134 A 
ATOM     70  F   UNL A   1      39.025  26.009  29.592  1.00  0.00    -0.206 F 
ATOM     71  C   UNL A   1      39.689  25.293  27.459  1.00  0.00     0.040 A 
ATOM     72  C   UNL A   1      41.199  26.640  26.153  1.00  0.00     0.040 A 
ATOM     73  F   UNL A   1      42.032  28.653  27.024  1.00  0.00    -0.206 F 
ATOM     74  C   UNL A   1      40.420  25.493  26.290  1.00  0.00     0.006 A 
ENDBRANCH  53  67
BRANCH  54  75
ATOM     75  C   UNL A   1      40.321  34.228  35.660  1.00  0.00     0.057 A 
ATOM     76  C   UNL A   1      40.958  35.468  35.532  1.00  0.00     0.134 A 
ATOM     77  C   UNL A   1      39.649  33.968  36.860  1.00  0.00     0.134 A 
ATOM     78  F   UNL A   1      41.631  35.767  34.411  1.00  0.00    -0.206 F 
ATOM     79  C   UNL A   1      40.942  36.408  36.562  1.00  0.00     0.040 A 
ATOM     80  C   UNL A   1      39.607  34.908  37.891  1.00  0.00     0.040 A 
ATOM     81  F   UNL A   1      39.011  32.802  37.041  1.00  0.00    -0.206 F 
ATOM     82  C   UNL A   1      40.261  36.130  37.746  1.00  0.00     0.006 A 
ENDBRANCH  54  75
BRANCH  66  83
ATOM     83  C   UNL A   1      44.605  28.973  34.109  1.00  0.00     0.057 A 
ATOM     84  C   UNL A   1      44.560  27.959  35.074  1.00  0.00     0.134 A 
ATOM     85  C   UNL A   1      45.862  29.470  33.744  1.00  0.00     0.134 A 
ATOM     86  F   UNL A   1      43.385  27.453  35.474  1.00  0.00    -0.206 F 
ATOM     87  C   UNL A   1      45.723  27.470  35.668  1.00  0.00     0.040 A 
ATOM     88  C   UNL A   1      47.034  28.973  34.315  1.00  0.00     0.040 A 
ATOM     89  F   UNL A   1      45.971  30.435  32.820  1.00  0.00    -0.206 F 
ATOM     90  C   UNL A   1      46.966  27.974  35.284  1.00  0.00     0.006 A 
ENDBRANCH  66  83
ENDBRANCH  40  41
ENDBRANCH  32  35
ENDBRANCH  30  31
ENDBRANCH  29  30
ENDBRANCH   1  29
TORSDOF 14
ENDMDL
MODEL 3
REMARK VINA RESULT:     -12.4      3.955      9.202
REMARK SMILES CC(C)(C)OC(=O)N1C[C@@H](C(=O)NCCCCNC(=O)c2ccc(-c3c4nc(c(-c5c(F)cccc5F)c5ccc([nH]5)c(-c5c(F)cccc5F)c5nc(c(-c6c(F)cccc6F)c6ccc3[nH]6)C=C5)C=C4)cc2)[C@@]2(C1)C(=O)Nc1ccccc12
REMARK SMILES IDX 15 1 14 2 13 3 11 4 12 5 10 7 8 8 9 9 76 10 75 11 77 12
REMARK SMILES IDX 85 13 78 14 79 15 80 16 84 17 81 19 83 20 82 21 6 22 7 23
REMARK SMILES IDX 5 24 2 25 1 26 3 27 4 28 16 29 17 30 18 31 19 32 20 34 21 35
REMARK SMILES IDX 22 36 74 37 23 38 73 39 24 40 25 41 26 42 67 43 27 44 72 45
REMARK SMILES IDX 66 46 68 47 28 48 71 49 65 50 64 51 29 53 55 54 38 55 54 56
REMARK SMILES IDX 39 57 42 58 53 59 69 60 40 61 41 62 52 64 70 65 43 66 30 67
REMARK SMILES IDX 31 68 36 69 32 70 33 71 35 72 37 73 34 74 56 75 57 76 62 77
REMARK SMILES IDX 58 78 59 79 61 80 63 81 60 82 44 83 45 84 50 85 46 86 47 87
REMARK SMILES IDX 49 88 51 89 48 90
REMARK H PARENT 13 6 79 18 18 33 68 52 42 63
REMARK Flexibility Score: inf
ROOT
ATOM      1  C   UNL A   1      31.545  30.468  26.027  1.00  0.00     0.023 C 
ENDROOT
BRANCH   1   2
ATOM      2  C   UNL A   1      32.920  29.845  26.279  1.00  0.00     0.116 C 
BRANCH   2   3
ATOM      3  N   UNL A   1      33.593  29.425  25.062  1.00  0.00    -0.356 N 
ATOM      4  C   UNL A   1      33.653  28.267  24.357  1.00  0.00     0.226 C 
ATOM      5  O   UNL A   1      34.322  28.323  23.317  1.00  0.00    -0.275 OA
ATOM      6  H   UNL A   1      34.127  30.145  24.654  1.00  0.00     0.163 HD
BRANCH   4   7
ATOM      7  C   UNL A   1      33.007  26.938  24.739  1.00  0.00     0.120 C 
ATOM      8  N   UNL A   1      33.783  24.960  23.693  1.00  0.00    -0.306 N 
ATOM      9  C   UNL A   1      34.008  25.804  24.849  1.00  0.00     0.138 C 
ATOM     10  C   UNL A   1      32.573  25.336  22.955  1.00  0.00     0.145 C 
ATOM     11  C   UNL A   1      31.876  26.377  23.861  1.00  0.00     0.107 C 
ATOM     12  C   UNL A   1      30.915  25.508  24.739  1.00  0.00     0.237 C 
ATOM     13  C   UNL A   1      30.877  27.379  23.296  1.00  0.00    -0.006 A 
ATOM     14  O   UNL A   1      31.217  24.605  25.503  1.00  0.00    -0.274 OA
ATOM     15  N   UNL A   1      29.617  25.907  24.488  1.00  0.00    -0.325 N 
ATOM     16  C   UNL A   1      29.583  27.021  23.678  1.00  0.00     0.045 A 
ATOM     17  C   UNL A   1      31.040  28.594  22.644  1.00  0.00     0.007 A 
ATOM     18  H   UNL A   1      28.817  25.453  24.842  1.00  0.00     0.169 HD
ATOM     19  C   UNL A   1      28.455  27.766  23.383  1.00  0.00     0.026 A 
ATOM     20  C   UNL A   1      29.919  29.383  22.347  1.00  0.00     0.000 A 
ATOM     21  C   UNL A   1      28.632  28.967  22.703  1.00  0.00     0.002 A 
BRANCH   8  22
ATOM     22  C   UNL A   1      34.586  23.855  23.520  1.00  0.00     0.410 C 
ATOM     23  O   UNL A   1      34.758  23.354  22.416  1.00  0.00    -0.224 OA
BRANCH  22  24
ATOM     24  O   UNL A   1      35.089  23.367  24.682  1.00  0.00    -0.444 OA
BRANCH  24  25
ATOM     25  C   UNL A   1      34.541  22.147  25.272  1.00  0.00     0.106 C 
ATOM     26  C   UNL A   1      34.405  22.438  26.774  1.00  0.00     0.056 C 
ATOM     27  C   UNL A   1      35.560  21.024  25.059  1.00  0.00     0.056 C 
ATOM     28  C   UNL A   1      33.151  21.717  24.766  1.00  0.00     0.056 C 
ENDBRANCH  24  25
ENDBRANCH  22  24
ENDBRANCH   8  22
ENDBRANCH   4   7
ENDBRANCH   2   3
ENDBRANCH   1   2
BRANCH   1  29
ATOM     29  C   UNL A   1      31.392  31.922  26.473  1.00  0.00     0.023 C 
BRANCH  29  30
ATOM     30  C   UNL A   1      32.600  32.481  27.208  1.00  0.00     0.116 C 
BRANCH  30  31
ATOM     31  N   UNL A   1      32.440  33.877  27.585  1.00  0.00    -0.352 N 
ATOM     32  C   UNL A   1      33.150  34.605  28.505  1.00  0.00     0.251 C 
ATOM     33  H   UNL A   1      31.725  34.365  27.115  1.00  0.00     0.163 HD
ATOM     34  O   UNL A   1      32.815  35.750  28.785  1.00  0.00    -0.269 OA
BRANCH  32  35
ATOM     35  C   UNL A   1      34.297  33.977  29.187  1.00  0.00     0.039 A 
ATOM     36  C   UNL A   1      34.050  33.072  30.221  1.00  0.00     0.014 A 
ATOM     37  C   UNL A   1      35.605  34.257  28.782  1.00  0.00     0.014 A 
ATOM     38  C   UNL A   1      35.117  32.395  30.810  1.00  0.00     0.010 A 
ATOM     39  C   UNL A   1      36.660  33.532  29.321  1.00  0.00     0.010 A 
ATOM     40  C   UNL A   1      36.424  32.598  30.340  1.00  0.00    -0.014 A 
BRANCH  40  41
ATOM     41  C   UNL A   1      37.568  31.848  30.906  1.00  0.00     0.031 A 
ATOM     42  C   UNL A   1      38.078  32.190  32.275  1.00  0.00     0.074 A 
ATOM     43  C   UNL A   1      38.188  30.917  30.156  1.00  0.00     0.049 A 
ATOM     44  N   UNL A   1      39.119  31.717  32.911  1.00  0.00    -0.248 NA
ATOM     45  C   UNL A   1      37.340  33.226  33.016  1.00  0.00     0.031 C 
ATOM     46  C   UNL A   1      37.811  30.539  28.793  1.00  0.00     0.029 A 
ATOM     47  N   UNL A   1      39.276  30.131  30.431  1.00  0.00    -0.354 N 
ATOM     48  C   UNL A   1      39.172  32.409  34.113  1.00  0.00     0.074 A 
ATOM     49  C   UNL A   1      38.089  33.369  34.098  1.00  0.00     0.031 C 
ATOM     50  C   UNL A   1      38.643  29.578  28.358  1.00  0.00     0.029 A 
ATOM     51  C   UNL A   1      39.629  29.299  29.398  1.00  0.00     0.049 A 
ATOM     52  H   UNL A   1      39.759  30.160  31.289  1.00  0.00     0.167 HD
ATOM     53  C   UNL A   1      40.032  32.244  35.144  1.00  0.00     0.037 A 
ATOM     54  C   UNL A   1      40.637  28.413  29.302  1.00  0.00     0.037 A 
ATOM     55  C   UNL A   1      41.084  31.265  35.165  1.00  0.00     0.049 A 
ATOM     56  C   UNL A   1      41.567  28.235  30.469  1.00  0.00     0.074 A 
ATOM     57  C   UNL A   1      41.968  30.970  36.188  1.00  0.00     0.029 A 
ATOM     58  N   UNL A   1      41.391  30.417  34.111  1.00  0.00    -0.354 N 
ATOM     59  N   UNL A   1      41.567  28.852  31.624  1.00  0.00    -0.248 NA
ATOM     60  C   UNL A   1      42.632  27.234  30.319  1.00  0.00     0.031 C 
ATOM     61  C   UNL A   1      42.831  29.962  35.741  1.00  0.00     0.029 A 
ATOM     62  C   UNL A   1      42.461  29.607  34.454  1.00  0.00     0.049 A 
ATOM     63  H   UNL A   1      40.918  30.395  33.249  1.00  0.00     0.167 HD
ATOM     64  C   UNL A   1      42.616  28.301  32.349  1.00  0.00     0.074 A 
ATOM     65  C   UNL A   1      43.221  27.291  31.505  1.00  0.00     0.031 C 
ATOM     66  C   UNL A   1      43.042  28.605  33.599  1.00  0.00     0.037 A 
BRANCH  53  67
ATOM     67  C   UNL A   1      39.860  33.142  36.333  1.00  0.00     0.057 A 
ATOM     68  C   UNL A   1      40.570  34.344  36.458  1.00  0.00     0.134 A 
ATOM     69  C   UNL A   1      38.962  32.811  37.355  1.00  0.00     0.134 A 
ATOM     70  F   UNL A   1      41.458  34.709  35.521  1.00  0.00    -0.206 F 
ATOM     71  C   UNL A   1      40.413  35.172  37.571  1.00  0.00     0.040 A 
ATOM     72  C   UNL A   1      38.779  33.644  38.461  1.00  0.00     0.040 A 
ATOM     73  F   UNL A   1      38.250  31.677  37.296  1.00  0.00    -0.206 F 
ATOM     74  C   UNL A   1      39.511  34.824  38.574  1.00  0.00     0.006 A 
ENDBRANCH  53  67
BRANCH  54  75
ATOM     75  C   UNL A   1      40.800  27.606  28.069  1.00  0.00     0.057 A 
ATOM     76  C   UNL A   1      40.186  26.355  27.942  1.00  0.00     0.134 A 
ATOM     77  C   UNL A   1      41.567  28.062  26.990  1.00  0.00     0.134 A 
ATOM     78  F   UNL A   1      39.451  25.860  28.948  1.00  0.00    -0.206 F 
ATOM     79  C   UNL A   1      40.340  25.578  26.793  1.00  0.00     0.040 A 
ATOM     80  C   UNL A   1      41.713  27.304  25.827  1.00  0.00     0.040 A 
ATOM     81  F   UNL A   1      42.173  29.257  27.047  1.00  0.00    -0.206 F 
ATOM     82  C   UNL A   1      41.104  26.054  25.729  1.00  0.00     0.006 A 
ENDBRANCH  54  75
BRANCH  66  83
ATOM     83  C   UNL A   1      44.199  27.817  34.134  1.00  0.00     0.057 A 
ATOM     84  C   UNL A   1      45.516  28.281  34.028  1.00  0.00     0.134 A 
ATOM     85  C   UNL A   1      43.987  26.601  34.795  1.00  0.00     0.134 A 
ATOM     86  F   UNL A   1      45.782  29.431  33.393  1.00  0.00    -0.206 F 
ATOM     87  C   UNL A   1      46.586  27.552  34.547  1.00  0.00     0.040 A 
ATOM     88  C   UNL A   1      45.047  25.874  35.338  1.00  0.00     0.040 A 
ATOM     89  F   UNL A   1      42.748  26.108  34.935  1.00  0.00    -0.206 F 
ATOM     90  C   UNL A   1      46.352  26.347  35.210  1.00  0.00     0.006 A 
ENDBRANCH  66  83
ENDBRANCH  40  41
ENDBRANCH  32  35
ENDBRANCH  30  31
ENDBRANCH  29  30
ENDBRANCH   1  29
TORSDOF 14
ENDMDL
