MODEL 1
REMARK VINA RESULT:     -10.7      0.000      0.000
REMARK SMILES CCCC[C@H](C(=O)NCCCCNC(=O)c1ccc(-c2c3nc(c(-c4c(F)cccc4F)c4ccc([nH]4)c(-c4c(F)cccc4F)c4nc(c(-c5c(F)cccc5F)c5ccc2[nH]5)C=C4)C=C3)cc1)[C@](C)(O)c1ccc(Cl)c(Cl)c1
REMARK SMILES IDX 10 1 9 2 8 3 6 4 7 5 5 7 4 8 3 9 2 10 1 11 70 12 71 13 72 14
REMARK SMILES IDX 73 16 74 17 80 18 75 19 78 20 76 21 79 22 77 23 11 24 12 25
REMARK SMILES IDX 13 26 14 27 15 29 16 30 17 31 69 32 18 33 68 34 19 35 20 36
REMARK SMILES IDX 21 37 62 38 22 39 67 40 61 41 63 42 23 43 66 44 60 45 59 46
REMARK SMILES IDX 24 48 50 49 33 50 49 51 34 52 37 53 48 54 64 55 35 56 36 57
REMARK SMILES IDX 47 59 65 60 38 61 25 62 26 63 31 64 27 65 28 66 30 67 32 68
REMARK SMILES IDX 29 69 51 70 52 71 57 72 53 73 54 74 56 75 58 76 55 77 39 78
REMARK SMILES IDX 40 79 45 80 41 81 42 82 44 83 46 84 43 85
REMARK H PARENT 8 6 72 15 13 28 63 47 37 58
REMARK Flexibility Score: inf
ROOT
ATOM      1  C   UNL A   1      32.927  29.704  25.169  1.00  0.00     0.023 C 
ENDROOT
BRANCH   1   2
ATOM      2  C   UNL A   1      31.426  29.639  24.910  1.00  0.00     0.116 C 
BRANCH   2   3
ATOM      3  N   UNL A   1      31.083  29.264  23.551  1.00  0.00    -0.356 N 
ATOM      4  C   UNL A   1      30.900  28.026  23.010  1.00  0.00     0.226 C 
ATOM      5  O   UNL A   1      30.238  27.975  21.970  1.00  0.00    -0.275 OA
ATOM      6  H   UNL A   1      30.966  30.016  22.926  1.00  0.00     0.163 HD
BRANCH   4   7
ATOM      7  C   UNL A   1      31.478  26.769  23.665  1.00  0.00     0.114 C 
BRANCH   7   8
ATOM      8  C   UNL A   1      30.305  25.909  24.207  1.00  0.00     0.017 C 
BRANCH   8   9
ATOM      9  C   UNL A   1      30.468  25.475  25.681  1.00  0.00     0.001 C 
BRANCH   9  10
ATOM     10  C   UNL A   1      30.691  23.991  25.971  1.00  0.00    -0.003 C 
ATOM     11  C   UNL A   1      31.898  23.684  26.839  1.00  0.00     0.004 C 
ENDBRANCH   9  10
ENDBRANCH   8   9
ENDBRANCH   7   8
BRANCH   7  12
ATOM     12  C   UNL A   1      32.480  26.015  22.695  1.00  0.00     0.098 C 
ATOM     13  C   UNL A   1      33.497  27.016  22.089  1.00  0.00     0.048 C 
BRANCH  12  14
ATOM     14  O   UNL A   1      31.695  25.568  21.562  1.00  0.00    -0.385 OA
ATOM     15  H   UNL A   1      31.099  26.279  21.281  1.00  0.00     0.211 HD
ENDBRANCH  12  14
BRANCH  12  16
ATOM     16  C   UNL A   1      33.174  24.745  23.220  1.00  0.00    -0.014 A 
ATOM     17  C   UNL A   1      32.767  23.442  22.883  1.00  0.00     0.008 A 
ATOM     18  C   UNL A   1      34.243  24.853  24.136  1.00  0.00     0.028 A 
ATOM     19  C   UNL A   1      33.419  22.313  23.404  1.00  0.00     0.022 A 
ATOM     20  C   UNL A   1      34.929  23.733  24.625  1.00  0.00     0.060 A 
ATOM     21  C   UNL A   1      34.513  22.455  24.258  1.00  0.00     0.059 A 
ATOM     22  Cl  UNL A   1      36.279  24.006  25.671  1.00  0.00    -0.083 Cl
ATOM     23  Cl  UNL A   1      35.289  21.021  24.827  1.00  0.00    -0.083 Cl
ENDBRANCH  12  16
ENDBRANCH   7  12
ENDBRANCH   4   7
ENDBRANCH   2   3
ENDBRANCH   1   2
BRANCH   1  24
ATOM     24  C   UNL A   1      33.540  28.506  25.901  1.00  0.00     0.023 C 
BRANCH  24  25
ATOM     25  C   UNL A   1      33.714  28.647  27.411  1.00  0.00     0.116 C 
BRANCH  25  26
ATOM     26  N   UNL A   1      33.749  30.029  27.862  1.00  0.00    -0.352 N 
ATOM     27  C   UNL A   1      34.770  30.747  28.437  1.00  0.00     0.251 C 
ATOM     28  H   UNL A   1      32.910  30.529  27.734  1.00  0.00     0.163 HD
ATOM     29  O   UNL A   1      34.554  31.880  28.861  1.00  0.00    -0.269 OA
BRANCH  27  30
ATOM     30  C   UNL A   1      36.120  30.156  28.585  1.00  0.00     0.039 A 
ATOM     31  C   UNL A   1      36.999  30.212  27.500  1.00  0.00     0.014 A 
ATOM     32  C   UNL A   1      36.521  29.545  29.775  1.00  0.00     0.014 A 
ATOM     33  C   UNL A   1      38.305  29.730  27.636  1.00  0.00     0.010 A 
ATOM     34  C   UNL A   1      37.845  29.139  29.936  1.00  0.00     0.010 A 
ATOM     35  C   UNL A   1      38.753  29.229  28.870  1.00  0.00    -0.014 A 
BRANCH  35  36
ATOM     36  C   UNL A   1      40.170  28.816  29.061  1.00  0.00     0.031 A 
ATOM     37  C   UNL A   1      41.174  29.774  29.643  1.00  0.00     0.074 A 
ATOM     38  C   UNL A   1      40.571  27.594  28.653  1.00  0.00     0.049 A 
ATOM     39  N   UNL A   1      42.459  29.611  29.836  1.00  0.00    -0.248 NA
ATOM     40  C   UNL A   1      40.674  31.100  30.038  1.00  0.00     0.031 C 
ATOM     41  C   UNL A   1      39.712  26.589  28.023  1.00  0.00     0.029 A 
ATOM     42  N   UNL A   1      41.805  26.994  28.695  1.00  0.00    -0.354 N 
ATOM     43  C   UNL A   1      42.922  30.813  30.357  1.00  0.00     0.074 A 
ATOM     44  C   UNL A   1      41.790  31.714  30.404  1.00  0.00     0.031 C 
ATOM     45  C   UNL A   1      40.438  25.492  27.758  1.00  0.00     0.029 A 
ATOM     46  C   UNL A   1      41.822  25.728  28.160  1.00  0.00     0.049 A 
ATOM     47  H   UNL A   1      42.603  27.429  29.073  1.00  0.00     0.167 HD
ATOM     48  C   UNL A   1      44.169  31.131  30.778  1.00  0.00     0.037 A 
ATOM     49  C   UNL A   1      42.838  24.858  27.999  1.00  0.00     0.037 A 
ATOM     50  C   UNL A   1      45.290  30.227  30.752  1.00  0.00     0.049 A 
ATOM     51  C   UNL A   1      44.214  25.238  28.473  1.00  0.00     0.074 A 
ATOM     52  C   UNL A   1      46.575  30.435  31.220  1.00  0.00     0.029 A 
ATOM     53  N   UNL A   1      45.261  28.946  30.221  1.00  0.00    -0.354 N 
ATOM     54  N   UNL A   1      44.617  26.349  29.040  1.00  0.00    -0.248 NA
ATOM     55  C   UNL A   1      45.276  24.237  28.293  1.00  0.00     0.031 C 
ATOM     56  C   UNL A   1      47.339  29.302  30.922  1.00  0.00     0.029 A 
ATOM     57  C   UNL A   1      46.514  28.364  30.325  1.00  0.00     0.049 A 
ATOM     58  H   UNL A   1      44.469  28.514  29.828  1.00  0.00     0.167 HD
ATOM     59  C   UNL A   1      45.968  26.170  29.312  1.00  0.00     0.074 A 
ATOM     60  C   UNL A   1      46.311  24.837  28.864  1.00  0.00     0.031 C 
ATOM     61  C   UNL A   1      46.844  27.032  29.882  1.00  0.00     0.037 A 
BRANCH  48  62
ATOM     62  C   UNL A   1      44.393  32.519  31.307  1.00  0.00     0.057 A 
ATOM     63  C   UNL A   1      44.751  33.584  30.468  1.00  0.00     0.134 A 
ATOM     64  C   UNL A   1      44.200  32.807  32.664  1.00  0.00     0.134 A 
ATOM     65  F   UNL A   1      44.961  33.377  29.159  1.00  0.00    -0.206 F 
ATOM     66  C   UNL A   1      44.934  34.876  30.964  1.00  0.00     0.040 A 
ATOM     67  C   UNL A   1      44.351  34.100  33.166  1.00  0.00     0.040 A 
ATOM     68  F   UNL A   1      43.847  31.839  33.522  1.00  0.00    -0.206 F 
ATOM     69  C   UNL A   1      44.726  35.139  32.316  1.00  0.00     0.006 A 
ENDBRANCH  48  62
BRANCH  49  70
ATOM     70  C   UNL A   1      42.594  23.533  27.372  1.00  0.00     0.057 A 
ATOM     71  C   UNL A   1      42.229  22.421  28.140  1.00  0.00     0.134 A 
ATOM     72  C   UNL A   1      42.741  23.341  25.992  1.00  0.00     0.134 A 
ATOM     73  F   UNL A   1      42.092  22.536  29.469  1.00  0.00    -0.206 F 
ATOM     74  C   UNL A   1      42.046  21.162  27.566  1.00  0.00     0.040 A 
ATOM     75  C   UNL A   1      42.532  22.095  25.401  1.00  0.00     0.040 A 
ATOM     76  F   UNL A   1      43.081  24.367  25.198  1.00  0.00    -0.206 F 
ATOM     77  C   UNL A   1      42.192  20.998  26.190  1.00  0.00     0.006 A 
ENDBRANCH  49  70
BRANCH  61  78
ATOM     78  C   UNL A   1      48.250  26.546  30.095  1.00  0.00     0.057 A 
ATOM     79  C   UNL A   1      49.268  26.780  29.161  1.00  0.00     0.134 A 
ATOM     80  C   UNL A   1      48.595  25.860  31.267  1.00  0.00     0.134 A 
ATOM     81  F   UNL A   1      49.003  27.420  28.013  1.00  0.00    -0.206 F 
ATOM     82  C   UNL A   1      50.570  26.324  29.372  1.00  0.00     0.040 A 
ATOM     83  C   UNL A   1      49.900  25.427  31.503  1.00  0.00     0.040 A 
ATOM     84  F   UNL A   1      47.672  25.612  32.209  1.00  0.00    -0.206 F 
ATOM     85  C   UNL A   1      50.891  25.651  30.550  1.00  0.00     0.006 A 
ENDBRANCH  61  78
ENDBRANCH  35  36
ENDBRANCH  27  30
ENDBRANCH  25  26
ENDBRANCH  24  25
ENDBRANCH   1  24
TORSDOF 17
ENDMDL
MODEL 2
REMARK VINA RESULT:     -10.4      2.831      7.493
REMARK SMILES CCCC[C@H](C(=O)NCCCCNC(=O)c1ccc(-c2c3nc(c(-c4c(F)cccc4F)c4ccc([nH]4)c(-c4c(F)cccc4F)c4nc(c(-c5c(F)cccc5F)c5ccc2[nH]5)C=C4)C=C3)cc1)[C@](C)(O)c1ccc(Cl)c(Cl)c1
REMARK SMILES IDX 10 1 9 2 8 3 6 4 7 5 5 7 4 8 3 9 2 10 1 11 70 12 71 13 72 14
REMARK SMILES IDX 73 16 74 17 80 18 75 19 78 20 76 21 79 22 77 23 11 24 12 25
REMARK SMILES IDX 13 26 14 27 15 29 16 30 17 31 69 32 18 33 68 34 19 35 20 36
REMARK SMILES IDX 21 37 62 38 22 39 67 40 61 41 63 42 23 43 66 44 60 45 59 46
REMARK SMILES IDX 24 48 50 49 33 50 49 51 34 52 37 53 48 54 64 55 35 56 36 57
REMARK SMILES IDX 47 59 65 60 38 61 25 62 26 63 31 64 27 65 28 66 30 67 32 68
REMARK SMILES IDX 29 69 51 70 52 71 57 72 53 73 54 74 56 75 58 76 55 77 39 78
REMARK SMILES IDX 40 79 45 80 41 81 42 82 44 83 46 84 43 85
REMARK H PARENT 8 6 72 15 13 28 63 47 37 58
REMARK Flexibility Score: inf
ROOT
ATOM      1  C   UNL A   1      36.150  21.230  24.829  1.00  0.00     0.023 C 
ENDROOT
BRANCH   1   2
ATOM      2  C   UNL A   1      35.335  21.427  26.103  1.00  0.00     0.116 C 
BRANCH   2   3
ATOM      3  N   UNL A   1      34.018  20.822  26.052  1.00  0.00    -0.356 N 
ATOM      4  C   UNL A   1      32.903  21.220  25.374  1.00  0.00     0.226 C 
ATOM      5  O   UNL A   1      32.050  20.354  25.165  1.00  0.00    -0.275 OA
ATOM      6  H   UNL A   1      33.913  20.002  26.585  1.00  0.00     0.163 HD
BRANCH   4   7
ATOM      7  C   UNL A   1      32.728  22.662  24.892  1.00  0.00     0.114 C 
BRANCH   7   8
ATOM      8  C   UNL A   1      32.416  22.643  23.372  1.00  0.00     0.017 C 
BRANCH   8   9
ATOM      9  C   UNL A   1      33.489  23.328  22.497  1.00  0.00     0.001 C 
BRANCH   9  10
ATOM     10  C   UNL A   1      33.998  24.702  22.930  1.00  0.00    -0.003 C 
ATOM     11  C   UNL A   1      33.295  25.879  22.278  1.00  0.00     0.004 C 
ENDBRANCH   9  10
ENDBRANCH   8   9
ENDBRANCH   7   8
BRANCH   7  12
ATOM     12  C   UNL A   1      31.686  23.454  25.788  1.00  0.00     0.098 C 
ATOM     13  C   UNL A   1      31.898  23.115  27.286  1.00  0.00     0.048 C 
BRANCH  12  14
ATOM     14  O   UNL A   1      30.380  22.907  25.477  1.00  0.00    -0.385 OA
ATOM     15  H   UNL A   1      30.483  22.127  24.909  1.00  0.00     0.211 HD
ENDBRANCH  12  14
BRANCH  12  16
ATOM     16  C   UNL A   1      31.543  24.969  25.561  1.00  0.00    -0.014 A 
ATOM     17  C   UNL A   1      30.525  25.545  24.781  1.00  0.00     0.008 A 
ATOM     18  C   UNL A   1      32.500  25.856  26.100  1.00  0.00     0.028 A 
ATOM     19  C   UNL A   1      30.448  26.933  24.586  1.00  0.00     0.022 A 
ATOM     20  C   UNL A   1      32.405  27.246  25.949  1.00  0.00     0.060 A 
ATOM     21  C   UNL A   1      31.373  27.788  25.185  1.00  0.00     0.059 A 
ATOM     22  Cl  UNL A   1      33.591  28.227  26.735  1.00  0.00    -0.083 Cl
ATOM     23  Cl  UNL A   1      31.191  29.486  24.932  1.00  0.00    -0.083 Cl
ENDBRANCH  12  16
ENDBRANCH   7  12
ENDBRANCH   4   7
ENDBRANCH   2   3
ENDBRANCH   1   2
BRANCH   1  24
ATOM     24  C   UNL A   1      37.279  20.197  24.901  1.00  0.00     0.023 C 
BRANCH  24  25
ATOM     25  C   UNL A   1      38.567  20.643  25.590  1.00  0.00     0.116 C 
BRANCH  25  26
ATOM     26  N   UNL A   1      39.598  19.617  25.607  1.00  0.00    -0.352 N 
ATOM     27  C   UNL A   1      40.916  19.693  25.987  1.00  0.00     0.251 C 
ATOM     28  H   UNL A   1      39.305  18.729  25.298  1.00  0.00     0.163 HD
ATOM     29  O   UNL A   1      41.658  18.729  25.808  1.00  0.00    -0.269 OA
BRANCH  27  30
ATOM     30  C   UNL A   1      41.462  20.935  26.579  1.00  0.00     0.039 A 
ATOM     31  C   UNL A   1      41.993  21.907  25.725  1.00  0.00     0.014 A 
ATOM     32  C   UNL A   1      41.462  21.146  27.959  1.00  0.00     0.014 A 
ATOM     33  C   UNL A   1      42.446  23.122  26.250  1.00  0.00     0.010 A 
ATOM     34  C   UNL A   1      41.838  22.387  28.472  1.00  0.00     0.010 A 
ATOM     35  C   UNL A   1      42.332  23.390  27.624  1.00  0.00    -0.014 A 
BRANCH  35  36
ATOM     36  C   UNL A   1      42.706  24.719  28.181  1.00  0.00     0.031 A 
ATOM     37  C   UNL A   1      41.661  25.779  28.398  1.00  0.00     0.074 A 
ATOM     38  C   UNL A   1      44.002  24.995  28.434  1.00  0.00     0.049 A 
ATOM     39  N   UNL A   1      41.806  27.009  28.823  1.00  0.00    -0.248 NA
ATOM     40  C   UNL A   1      40.273  25.419  28.070  1.00  0.00     0.031 C 
ATOM     41  C   UNL A   1      45.122  24.076  28.217  1.00  0.00     0.029 A 
ATOM     42  N   UNL A   1      44.599  26.133  28.919  1.00  0.00    -0.354 N 
ATOM     43  C   UNL A   1      40.536  27.573  28.799  1.00  0.00     0.074 A 
ATOM     44  C   UNL A   1      39.640  26.566  28.270  1.00  0.00     0.031 C 
ATOM     45  C   UNL A   1      46.263  24.677  28.587  1.00  0.00     0.029 A 
ATOM     46  C   UNL A   1      45.966  26.037  29.028  1.00  0.00     0.049 A 
ATOM     47  H   UNL A   1      44.095  26.942  29.166  1.00  0.00     0.167 HD
ATOM     48  C   UNL A   1      40.147  28.806  29.201  1.00  0.00     0.037 A 
ATOM     49  C   UNL A   1      46.879  26.943  29.426  1.00  0.00     0.037 A 
ATOM     50  C   UNL A   1      41.035  29.800  29.747  1.00  0.00     0.049 A 
ATOM     51  C   UNL A   1      46.420  28.307  29.864  1.00  0.00     0.074 A 
ATOM     52  C   UNL A   1      40.724  31.052  30.245  1.00  0.00     0.029 A 
ATOM     53  N   UNL A   1      42.410  29.655  29.860  1.00  0.00    -0.354 N 
ATOM     54  N   UNL A   1      45.204  28.795  29.914  1.00  0.00    -0.248 NA
ATOM     55  C   UNL A   1      47.461  29.243  30.312  1.00  0.00     0.031 C 
ATOM     56  C   UNL A   1      41.915  31.689  30.607  1.00  0.00     0.029 A 
ATOM     57  C   UNL A   1      42.963  30.809  30.393  1.00  0.00     0.049 A 
ATOM     58  H   UNL A   1      42.918  28.854  29.599  1.00  0.00     0.167 HD
ATOM     59  C   UNL A   1      45.331  30.081  30.425  1.00  0.00     0.074 A 
ATOM     60  C   UNL A   1      46.739  30.290  30.686  1.00  0.00     0.031 C 
ATOM     61  C   UNL A   1      44.366  31.004  30.657  1.00  0.00     0.037 A 
BRANCH  48  62
ATOM     62  C   UNL A   1      38.693  29.156  29.065  1.00  0.00     0.057 A 
ATOM     63  C   UNL A   1      37.810  29.099  30.153  1.00  0.00     0.134 A 
ATOM     64  C   UNL A   1      38.177  29.603  27.841  1.00  0.00     0.134 A 
ATOM     65  F   UNL A   1      38.235  28.671  31.351  1.00  0.00    -0.206 F 
ATOM     66  C   UNL A   1      36.465  29.449  30.022  1.00  0.00     0.040 A 
ATOM     67  C   UNL A   1      36.841  29.985  27.706  1.00  0.00     0.040 A 
ATOM     68  F   UNL A   1      38.966  29.691  26.761  1.00  0.00    -0.206 F 
ATOM     69  C   UNL A   1      35.979  29.901  28.798  1.00  0.00     0.006 A 
ENDBRANCH  48  62
BRANCH  49  70
ATOM     70  C   UNL A   1      48.323  26.590  29.443  1.00  0.00     0.057 A 
ATOM     71  C   UNL A   1      49.159  26.900  28.364  1.00  0.00     0.134 A 
ATOM     72  C   UNL A   1      48.896  25.916  30.529  1.00  0.00     0.134 A 
ATOM     73  F   UNL A   1      48.664  27.528  27.287  1.00  0.00    -0.206 F 
ATOM     74  C   UNL A   1      50.505  26.530  28.350  1.00  0.00     0.040 A 
ATOM     75  C   UNL A   1      50.247  25.566  30.541  1.00  0.00     0.040 A 
ATOM     76  F   UNL A   1      48.153  25.597  31.598  1.00  0.00    -0.206 F 
ATOM     77  C   UNL A   1      51.054  25.865  29.444  1.00  0.00     0.006 A 
ENDBRANCH  49  70
BRANCH  61  78
ATOM     78  C   UNL A   1      44.795  32.311  31.264  1.00  0.00     0.057 A 
ATOM     79  C   UNL A   1      44.869  32.499  32.649  1.00  0.00     0.134 A 
ATOM     80  C   UNL A   1      45.167  33.386  30.446  1.00  0.00     0.134 A 
ATOM     81  F   UNL A   1      44.515  31.515  33.490  1.00  0.00    -0.206 F 
ATOM     82  C   UNL A   1      45.269  33.719  33.199  1.00  0.00     0.040 A 
ATOM     83  C   UNL A   1      45.599  34.598  30.983  1.00  0.00     0.040 A 
ATOM     84  F   UNL A   1      45.130  33.270  29.109  1.00  0.00    -0.206 F 
ATOM     85  C   UNL A   1      45.643  34.770  32.365  1.00  0.00     0.006 A 
ENDBRANCH  61  78
ENDBRANCH  35  36
ENDBRANCH  27  30
ENDBRANCH  25  26
ENDBRANCH  24  25
ENDBRANCH   1  24
TORSDOF 17
ENDMDL
MODEL 3
REMARK VINA RESULT:     -10.3      3.009      7.715
REMARK SMILES CCCC[C@H](C(=O)NCCCCNC(=O)c1ccc(-c2c3nc(c(-c4c(F)cccc4F)c4ccc([nH]4)c(-c4c(F)cccc4F)c4nc(c(-c5c(F)cccc5F)c5ccc2[nH]5)C=C4)C=C3)cc1)[C@](C)(O)c1ccc(Cl)c(Cl)c1
REMARK SMILES IDX 10 1 9 2 8 3 6 4 7 5 5 7 4 8 3 9 2 10 1 11 70 12 71 13 72 14
REMARK SMILES IDX 73 16 74 17 80 18 75 19 78 20 76 21 79 22 77 23 11 24 12 25
REMARK SMILES IDX 13 26 14 27 15 29 16 30 17 31 69 32 18 33 68 34 19 35 20 36
REMARK SMILES IDX 21 37 62 38 22 39 67 40 61 41 63 42 23 43 66 44 60 45 59 46
REMARK SMILES IDX 24 48 50 49 33 50 49 51 34 52 37 53 48 54 64 55 35 56 36 57
REMARK SMILES IDX 47 59 65 60 38 61 25 62 26 63 31 64 27 65 28 66 30 67 32 68
REMARK SMILES IDX 29 69 51 70 52 71 57 72 53 73 54 74 56 75 58 76 55 77 39 78
REMARK SMILES IDX 40 79 45 80 41 81 42 82 44 83 46 84 43 85
REMARK H PARENT 8 6 72 15 13 28 63 47 37 58
REMARK Flexibility Score: inf
ROOT
ATOM      1  C   UNL A   1      36.725  19.482  24.964  1.00  0.00     0.023 C 
ENDROOT
BRANCH   1   2
ATOM      2  C   UNL A   1      35.653  20.566  25.007  1.00  0.00     0.116 C 
BRANCH   2   3
ATOM      3  N   UNL A   1      34.346  20.078  25.403  1.00  0.00    -0.356 N 
ATOM      4  C   UNL A   1      33.112  20.618  25.185  1.00  0.00     0.226 C 
ATOM      5  O   UNL A   1      32.155  19.844  25.258  1.00  0.00    -0.275 OA
ATOM      6  H   UNL A   1      34.349  19.231  25.904  1.00  0.00     0.163 HD
BRANCH   4   7
ATOM      7  C   UNL A   1      32.931  22.102  24.859  1.00  0.00     0.114 C 
BRANCH   7   8
ATOM      8  C   UNL A   1      32.289  22.225  23.451  1.00  0.00     0.017 C 
BRANCH   8   9
ATOM      9  C   UNL A   1      33.113  23.068  22.451  1.00  0.00     0.001 C 
BRANCH   9  10
ATOM     10  C   UNL A   1      32.657  24.500  22.173  1.00  0.00    -0.003 C 
ATOM     11  C   UNL A   1      33.652  25.576  22.566  1.00  0.00     0.004 C 
ENDBRANCH   9  10
ENDBRANCH   8   9
ENDBRANCH   7   8
BRANCH   7  12
ATOM     12  C   UNL A   1      32.168  22.866  26.020  1.00  0.00     0.098 C 
ATOM     13  C   UNL A   1      32.844  22.578  27.386  1.00  0.00     0.048 C 
BRANCH  12  14
ATOM     14  O   UNL A   1      30.862  22.248  26.127  1.00  0.00    -0.385 OA
ATOM     15  H   UNL A   1      30.895  21.534  26.783  1.00  0.00     0.211 HD
ENDBRANCH  12  14
BRANCH  12  16
ATOM     16  C   UNL A   1      31.881  24.366  25.831  1.00  0.00    -0.014 A 
ATOM     17  C   UNL A   1      30.672  24.866  25.315  1.00  0.00     0.008 A 
ATOM     18  C   UNL A   1      32.881  25.318  26.125  1.00  0.00     0.028 A 
ATOM     19  C   UNL A   1      30.464  26.243  25.141  1.00  0.00     0.022 A 
ATOM     20  C   UNL A   1      32.666  26.697  25.998  1.00  0.00     0.060 A 
ATOM     21  C   UNL A   1      31.450  27.162  25.501  1.00  0.00     0.059 A 
ATOM     22  Cl  UNL A   1      33.941  27.761  26.477  1.00  0.00    -0.083 Cl
ATOM     23  Cl  UNL A   1      31.107  28.842  25.295  1.00  0.00    -0.083 Cl
ENDBRANCH  12  16
ENDBRANCH   7  12
ENDBRANCH   4   7
ENDBRANCH   2   3
ENDBRANCH   1   2
BRANCH   1  24
ATOM     24  C   UNL A   1      38.146  19.948  24.636  1.00  0.00     0.023 C 
BRANCH  24  25
ATOM     25  C   UNL A   1      39.089  20.146  25.821  1.00  0.00     0.116 C 
BRANCH  25  26
ATOM     26  N   UNL A   1      40.198  19.205  25.841  1.00  0.00    -0.352 N 
ATOM     27  C   UNL A   1      41.529  19.411  26.112  1.00  0.00     0.251 C 
ATOM     28  H   UNL A   1      39.956  18.274  25.628  1.00  0.00     0.163 HD
ATOM     29  O   UNL A   1      42.331  18.493  25.954  1.00  0.00    -0.269 OA
BRANCH  27  30
ATOM     30  C   UNL A   1      42.014  20.737  26.557  1.00  0.00     0.039 A 
ATOM     31  C   UNL A   1      42.447  21.652  25.592  1.00  0.00     0.014 A 
ATOM     32  C   UNL A   1      42.051  21.082  27.909  1.00  0.00     0.014 A 
ATOM     33  C   UNL A   1      42.838  22.938  25.978  1.00  0.00     0.010 A 
ATOM     34  C   UNL A   1      42.364  22.389  28.285  1.00  0.00     0.010 A 
ATOM     35  C   UNL A   1      42.758  23.332  27.324  1.00  0.00    -0.014 A 
BRANCH  35  36
ATOM     36  C   UNL A   1      43.065  24.729  27.734  1.00  0.00     0.031 A 
ATOM     37  C   UNL A   1      44.488  25.174  27.929  1.00  0.00     0.074 A 
ATOM     38  C   UNL A   1      42.055  25.586  27.993  1.00  0.00     0.049 A 
ATOM     39  N   UNL A   1      44.945  26.333  28.334  1.00  0.00    -0.248 NA
ATOM     40  C   UNL A   1      45.538  24.179  27.659  1.00  0.00     0.031 C 
ATOM     41  C   UNL A   1      40.629  25.266  27.896  1.00  0.00     0.029 A 
ATOM     42  N   UNL A   1      42.073  26.896  28.402  1.00  0.00    -0.354 N 
ATOM     43  C   UNL A   1      46.328  26.202  28.381  1.00  0.00     0.074 A 
ATOM     44  C   UNL A   1      46.633  24.836  28.013  1.00  0.00     0.031 C 
ATOM     45  C   UNL A   1      39.911  26.355  28.214  1.00  0.00     0.029 A 
ATOM     46  C   UNL A   1      40.821  27.437  28.577  1.00  0.00     0.049 A 
ATOM     47  H   UNL A   1      42.903  27.401  28.555  1.00  0.00     0.167 HD
ATOM     48  C   UNL A   1      47.259  27.138  28.682  1.00  0.00     0.037 A 
ATOM     49  C   UNL A   1      40.446  28.662  28.995  1.00  0.00     0.037 A 
ATOM     50  C   UNL A   1      46.957  28.503  29.027  1.00  0.00     0.049 A 
ATOM     51  C   UNL A   1      41.502  29.681  29.326  1.00  0.00     0.074 A 
ATOM     52  C   UNL A   1      47.835  29.542  29.282  1.00  0.00     0.029 A 
ATOM     53  N   UNL A   1      45.677  29.016  29.174  1.00  0.00    -0.354 N 
ATOM     54  N   UNL A   1      42.807  29.565  29.286  1.00  0.00    -0.248 NA
ATOM     55  C   UNL A   1      41.030  31.007  29.752  1.00  0.00     0.031 C 
ATOM     56  C   UNL A   1      47.088  30.669  29.637  1.00  0.00     0.029 A 
ATOM     57  C   UNL A   1      45.744  30.350  29.544  1.00  0.00     0.049 A 
ATOM     58  H   UNL A   1      44.845  28.509  29.038  1.00  0.00     0.167 HD
ATOM     59  C   UNL A   1      43.311  30.808  29.650  1.00  0.00     0.074 A 
ATOM     60  C   UNL A   1      42.171  31.667  29.890  1.00  0.00     0.031 C 
ATOM     61  C   UNL A   1      44.602  31.200  29.773  1.00  0.00     0.037 A 
BRANCH  48  62
ATOM     62  C   UNL A   1      48.702  26.719  28.653  1.00  0.00     0.057 A 
ATOM     63  C   UNL A   1      49.479  26.811  27.490  1.00  0.00     0.134 A 
ATOM     64  C   UNL A   1      49.337  26.263  29.816  1.00  0.00     0.134 A 
ATOM     65  F   UNL A   1      48.931  27.230  26.338  1.00  0.00    -0.206 F 
ATOM     66  C   UNL A   1      50.825  26.441  27.478  1.00  0.00     0.040 A 
ATOM     67  C   UNL A   1      50.690  25.920  29.824  1.00  0.00     0.040 A 
ATOM     68  F   UNL A   1      48.657  26.160  30.967  1.00  0.00    -0.206 F 
ATOM     69  C   UNL A   1      51.436  26.002  28.650  1.00  0.00     0.006 A 
ENDBRANCH  48  62
BRANCH  49  70
ATOM     70  C   UNL A   1      39.004  29.001  29.114  1.00  0.00     0.057 A 
ATOM     71  C   UNL A   1      38.286  29.511  28.025  1.00  0.00     0.134 A 
ATOM     72  C   UNL A   1      38.315  28.845  30.323  1.00  0.00     0.134 A 
ATOM     73  F   UNL A   1      38.895  29.702  26.846  1.00  0.00    -0.206 F 
ATOM     74  C   UNL A   1      36.944  29.879  28.140  1.00  0.00     0.040 A 
ATOM     75  C   UNL A   1      36.966  29.180  30.444  1.00  0.00     0.040 A 
ATOM     76  F   UNL A   1      38.942  28.354  31.402  1.00  0.00    -0.206 F 
ATOM     77  C   UNL A   1      36.279  29.708  29.352  1.00  0.00     0.006 A 
ENDBRANCH  49  70
BRANCH  61  78
ATOM     78  C   UNL A   1      44.854  32.635  30.145  1.00  0.00     0.057 A 
ATOM     79  C   UNL A   1      44.935  33.649  29.183  1.00  0.00     0.134 A 
ATOM     80  C   UNL A   1      44.988  33.008  31.489  1.00  0.00     0.134 A 
ATOM     81  F   UNL A   1      44.828  33.359  27.877  1.00  0.00    -0.206 F 
ATOM     82  C   UNL A   1      45.169  34.978  29.542  1.00  0.00     0.040 A 
ATOM     83  C   UNL A   1      45.190  34.336  31.862  1.00  0.00     0.040 A 
ATOM     84  F   UNL A   1      44.910  32.088  32.463  1.00  0.00    -0.206 F 
ATOM     85  C   UNL A   1      45.289  35.325  30.886  1.00  0.00     0.006 A 
ENDBRANCH  61  78
ENDBRANCH  35  36
ENDBRANCH  27  30
ENDBRANCH  25  26
ENDBRANCH  24  25
ENDBRANCH   1  24
TORSDOF 17
ENDMDL
