MODEL 1
REMARK VINA RESULT:     -11.4      0.000      0.000
REMARK SMILES CCC[N@H+]1CCC[C@H]([C@@H](C)Nc2cccc(C(=O)NCCCCNC(=O)c3ccc(-c4c5nc(c(-c6c(F)cccc6F)c6ccc([nH]6)c(-c6c(F)cccc6F)c6nc(c(-c7c(F)cccc7F)c7ccc4[nH]7)C=C6)C=C5)cc3)c2)C1
REMARK SMILES IDX 20 1 19 2 17 3 18 4 16 6 12 7 13 8 81 9 14 10 15 11 11 12
REMARK SMILES IDX 9 14 10 15 8 16 4 17 5 18 82 19 6 21 7 22 3 23 2 24 1 25
REMARK SMILES IDX 21 26 22 27 23 28 24 29 25 30 26 32 27 33 28 34 80 35 29 36
REMARK SMILES IDX 79 37 30 38 31 39 32 40 73 41 33 42 78 43 72 44 74 45 34 46
REMARK SMILES IDX 77 47 71 48 70 49 35 51 61 52 44 53 60 54 45 55 48 56 59 57
REMARK SMILES IDX 75 58 46 59 47 60 58 62 76 63 49 64 36 65 37 66 42 67 38 68
REMARK SMILES IDX 39 69 41 70 43 71 40 72 62 73 63 74 68 75 64 76 65 77 67 78
REMARK SMILES IDX 69 79 66 80 50 81 51 82 56 83 52 84 53 85 55 86 57 87 54 88
REMARK H PARENT 19 5 11 13 4 20 24 31 74 50 48 61
REMARK Flexibility Score: inf
ROOT
ATOM      1  C   UNL A   1      32.846  30.184  26.093  1.00  0.00     0.116 C 
ENDROOT
BRANCH   1   2
ATOM      2  N   UNL A   1      33.255  29.603  24.820  1.00  0.00    -0.352 N 
ATOM      3  C   UNL A   1      33.241  28.291  24.376  1.00  0.00     0.251 C 
ATOM      4  O   UNL A   1      33.644  28.043  23.242  1.00  0.00    -0.269 OA
ATOM      5  H   UNL A   1      33.602  30.252  24.166  1.00  0.00     0.163 HD
BRANCH   3   6
ATOM      6  C   UNL A   1      32.829  27.174  25.268  1.00  0.00     0.041 A 
ATOM      7  C   UNL A   1      33.314  24.950  26.102  1.00  0.00     0.035 A 
ATOM      8  C   UNL A   1      31.965  24.820  26.450  1.00  0.00     0.026 A 
ATOM      9  C   UNL A   1      33.741  26.203  25.675  1.00  0.00     0.039 A 
ATOM     10  C   UNL A   1      31.065  25.877  26.268  1.00  0.00     0.003 A 
ATOM     11  C   UNL A   1      31.488  27.040  25.629  1.00  0.00     0.014 A 
BRANCH   7  12
ATOM     12  N   UNL A   1      34.150  23.853  26.169  1.00  0.00    -0.382 N 
ATOM     13  H   UNL A   1      35.119  24.026  26.200  1.00  0.00     0.160 HD
BRANCH  12  14
ATOM     14  C   UNL A   1      33.715  22.454  26.198  1.00  0.00     0.084 C 
ATOM     15  C   UNL A   1      34.092  21.858  27.558  1.00  0.00     0.031 C 
BRANCH  14  16
ATOM     16  C   UNL A   1      34.367  21.712  25.006  1.00  0.00     0.066 C 
ATOM     17  N   UNL A   1      33.016  22.826  23.206  1.00  0.00    -0.335 N 
ATOM     18  C   UNL A   1      32.444  21.548  22.779  1.00  0.00     0.262 C 
ATOM     19  C   UNL A   1      34.374  22.605  23.750  1.00  0.00     0.267 C 
ATOM     20  H   UNL A   1      32.367  23.176  23.911  1.00  0.00     0.348 HD
ATOM     21  C   UNL A   1      32.336  20.587  23.969  1.00  0.00     0.062 C 
ATOM     22  C   UNL A   1      33.684  20.379  24.657  1.00  0.00     0.017 C 
BRANCH  17  23
ATOM     23  C   UNL A   1      33.083  23.878  22.176  1.00  0.00     0.261 C 
BRANCH  23  24
ATOM     24  C   UNL A   1      32.050  25.011  22.207  1.00  0.00     0.058 C 
ATOM     25  C   UNL A   1      30.787  24.702  22.995  1.00  0.00     0.010 C 
ENDBRANCH  23  24
ENDBRANCH  17  23
ENDBRANCH  14  16
ENDBRANCH  12  14
ENDBRANCH   7  12
ENDBRANCH   3   6
ENDBRANCH   1   2
BRANCH   1  26
ATOM     26  C   UNL A   1      31.463  30.818  26.107  1.00  0.00     0.023 C 
BRANCH  26  27
ATOM     27  C   UNL A   1      31.391  32.266  26.561  1.00  0.00     0.023 C 
BRANCH  27  28
ATOM     28  C   UNL A   1      32.653  32.823  27.203  1.00  0.00     0.116 C 
BRANCH  28  29
ATOM     29  N   UNL A   1      32.517  34.181  27.709  1.00  0.00    -0.352 N 
ATOM     30  C   UNL A   1      33.265  34.831  28.663  1.00  0.00     0.251 C 
ATOM     31  H   UNL A   1      31.786  34.709  27.313  1.00  0.00     0.163 HD
ATOM     32  O   UNL A   1      32.959  35.966  29.020  1.00  0.00    -0.269 OA
BRANCH  30  33
ATOM     33  C   UNL A   1      34.418  34.146  29.289  1.00  0.00     0.039 A 
ATOM     34  C   UNL A   1      34.180  33.120  30.207  1.00  0.00     0.014 A 
ATOM     35  C   UNL A   1      35.727  34.497  28.954  1.00  0.00     0.014 A 
ATOM     36  C   UNL A   1      35.256  32.404  30.739  1.00  0.00     0.010 A 
ATOM     37  C   UNL A   1      36.789  33.721  29.408  1.00  0.00     0.010 A 
ATOM     38  C   UNL A   1      36.568  32.678  30.319  1.00  0.00    -0.014 A 
BRANCH  38  39
ATOM     39  C   UNL A   1      37.728  31.926  30.864  1.00  0.00     0.031 A 
ATOM     40  C   UNL A   1      38.225  32.230  32.254  1.00  0.00     0.074 A 
ATOM     41  C   UNL A   1      38.358  31.005  30.107  1.00  0.00     0.049 A 
ATOM     42  N   UNL A   1      39.256  31.738  32.892  1.00  0.00    -0.248 NA
ATOM     43  C   UNL A   1      37.480  33.247  33.016  1.00  0.00     0.031 C 
ATOM     44  C   UNL A   1      38.005  30.646  28.732  1.00  0.00     0.029 A 
ATOM     45  N   UNL A   1      39.436  30.204  30.391  1.00  0.00    -0.354 N 
ATOM     46  C   UNL A   1      39.284  32.387  34.120  1.00  0.00     0.074 A 
ATOM     47  C   UNL A   1      38.217  33.362  34.110  1.00  0.00     0.031 C 
ATOM     48  C   UNL A   1      38.830  29.676  28.305  1.00  0.00     0.029 A 
ATOM     49  C   UNL A   1      39.790  29.367  29.360  1.00  0.00     0.049 A 
ATOM     50  H   UNL A   1      39.912  30.227  31.253  1.00  0.00     0.167 HD
ATOM     51  C   UNL A   1      40.099  32.168  35.180  1.00  0.00     0.037 A 
ATOM     52  C   UNL A   1      40.776  28.454  29.279  1.00  0.00     0.037 A 
ATOM     53  C   UNL A   1      41.146  31.182  35.202  1.00  0.00     0.049 A 
ATOM     54  C   UNL A   1      41.675  28.240  30.470  1.00  0.00     0.074 A 
ATOM     55  C   UNL A   1      42.020  30.874  36.230  1.00  0.00     0.029 A 
ATOM     56  N   UNL A   1      41.450  30.335  34.149  1.00  0.00    -0.354 N 
ATOM     57  N   UNL A   1      41.659  28.831  31.639  1.00  0.00    -0.248 NA
ATOM     58  C   UNL A   1      42.719  27.215  30.329  1.00  0.00     0.031 C 
ATOM     59  C   UNL A   1      42.871  29.855  35.789  1.00  0.00     0.029 A 
ATOM     60  C   UNL A   1      42.496  29.500  34.503  1.00  0.00     0.049 A 
ATOM     61  H   UNL A   1      40.992  30.329  33.278  1.00  0.00     0.167 HD
ATOM     62  C   UNL A   1      42.654  28.217  32.389  1.00  0.00     0.074 A 
ATOM     63  C   UNL A   1      43.246  27.201  31.545  1.00  0.00     0.031 C 
ATOM     64  C   UNL A   1      43.046  28.469  33.662  1.00  0.00     0.037 A 
BRANCH  51  65
ATOM     65  C   UNL A   1      39.865  32.994  36.411  1.00  0.00     0.057 A 
ATOM     66  C   UNL A   1      38.929  32.610  37.383  1.00  0.00     0.134 A 
ATOM     67  C   UNL A   1      40.597  34.163  36.647  1.00  0.00     0.134 A 
ATOM     68  F   UNL A   1      38.183  31.509  37.210  1.00  0.00    -0.206 F 
ATOM     69  C   UNL A   1      38.714  33.373  38.531  1.00  0.00     0.040 A 
ATOM     70  C   UNL A   1      40.411  34.918  37.807  1.00  0.00     0.040 A 
ATOM     71  F   UNL A   1      41.511  34.586  35.761  1.00  0.00    -0.206 F 
ATOM     72  C   UNL A   1      39.463  34.527  38.750  1.00  0.00     0.006 A 
ENDBRANCH  51  65
BRANCH  52  73
ATOM     73  C   UNL A   1      40.961  27.639  28.050  1.00  0.00     0.057 A 
ATOM     74  C   UNL A   1      41.736  28.111  26.983  1.00  0.00     0.134 A 
ATOM     75  C   UNL A   1      40.323  26.405  27.884  1.00  0.00     0.134 A 
ATOM     76  F   UNL A   1      42.357  29.296  27.072  1.00  0.00    -0.206 F 
ATOM     77  C   UNL A   1      41.835  27.409  25.781  1.00  0.00     0.040 A 
ATOM     78  C   UNL A   1      40.437  25.676  26.699  1.00  0.00     0.040 A 
ATOM     79  F   UNL A   1      39.573  25.891  28.870  1.00  0.00    -0.206 F 
ATOM     80  C   UNL A   1      41.184  26.185  25.637  1.00  0.00     0.006 A 
ENDBRANCH  52  73
BRANCH  64  81
ATOM     81  C   UNL A   1      44.108  27.580  34.241  1.00  0.00     0.057 A 
ATOM     82  C   UNL A   1      43.807  26.361  34.859  1.00  0.00     0.134 A 
ATOM     83  C   UNL A   1      45.457  27.952  34.164  1.00  0.00     0.134 A 
ATOM     84  F   UNL A   1      42.535  25.952  34.976  1.00  0.00    -0.206 F 
ATOM     85  C   UNL A   1      44.807  25.560  35.415  1.00  0.00     0.040 A 
ATOM     86  C   UNL A   1      46.467  27.145  34.688  1.00  0.00     0.040 A 
ATOM     87  F   UNL A   1      45.815  29.102  33.573  1.00  0.00    -0.206 F 
ATOM     88  C   UNL A   1      46.142  25.951  35.326  1.00  0.00     0.006 A 
ENDBRANCH  64  81
ENDBRANCH  38  39
ENDBRANCH  30  33
ENDBRANCH  28  29
ENDBRANCH  27  28
ENDBRANCH  26  27
ENDBRANCH   1  26
TORSDOF 16
ENDMDL
MODEL 2
REMARK VINA RESULT:     -11.0      1.140      2.355
REMARK SMILES CCC[N@H+]1CCC[C@H]([C@@H](C)Nc2cccc(C(=O)NCCCCNC(=O)c3ccc(-c4c5nc(c(-c6c(F)cccc6F)c6ccc([nH]6)c(-c6c(F)cccc6F)c6nc(c(-c7c(F)cccc7F)c7ccc4[nH]7)C=C6)C=C5)cc3)c2)C1
REMARK SMILES IDX 20 1 19 2 17 3 18 4 16 6 12 7 13 8 81 9 14 10 15 11 11 12
REMARK SMILES IDX 9 14 10 15 8 16 4 17 5 18 82 19 6 21 7 22 3 23 2 24 1 25
REMARK SMILES IDX 21 26 22 27 23 28 24 29 25 30 26 32 27 33 28 34 80 35 29 36
REMARK SMILES IDX 79 37 30 38 31 39 32 40 73 41 33 42 78 43 72 44 74 45 34 46
REMARK SMILES IDX 77 47 71 48 70 49 35 51 61 52 44 53 60 54 45 55 48 56 59 57
REMARK SMILES IDX 75 58 46 59 47 60 58 62 76 63 49 64 36 65 37 66 42 67 38 68
REMARK SMILES IDX 39 69 41 70 43 71 40 72 62 73 63 74 68 75 64 76 65 77 67 78
REMARK SMILES IDX 69 79 66 80 50 81 51 82 56 83 52 84 53 85 55 86 57 87 54 88
REMARK H PARENT 19 5 11 13 4 20 24 31 74 50 48 61
REMARK Flexibility Score: inf
ROOT
ATOM      1  C   UNL A   1      32.791  30.092  26.369  1.00  0.00     0.116 C 
ENDROOT
BRANCH   1   2
ATOM      2  N   UNL A   1      33.368  29.804  25.062  1.00  0.00    -0.352 N 
ATOM      3  C   UNL A   1      32.822  29.196  23.944  1.00  0.00     0.251 C 
ATOM      4  O   UNL A   1      33.519  29.062  22.940  1.00  0.00    -0.269 OA
ATOM      5  H   UNL A   1      34.305  30.088  24.956  1.00  0.00     0.163 HD
BRANCH   3   6
ATOM      6  C   UNL A   1      31.447  28.628  23.962  1.00  0.00     0.041 A 
ATOM      7  C   UNL A   1      30.061  26.656  24.219  1.00  0.00     0.035 A 
ATOM      8  C   UNL A   1      29.045  27.317  23.522  1.00  0.00     0.026 A 
ATOM      9  C   UNL A   1      31.180  27.405  24.571  1.00  0.00     0.039 A 
ATOM     10  C   UNL A   1      29.200  28.644  23.100  1.00  0.00     0.003 A 
ATOM     11  C   UNL A   1      30.424  29.284  23.277  1.00  0.00     0.014 A 
BRANCH   7  12
ATOM     12  N   UNL A   1      29.935  25.312  24.508  1.00  0.00    -0.382 N 
ATOM     13  H   UNL A   1      29.052  24.995  24.806  1.00  0.00     0.160 HD
BRANCH  12  14
ATOM     14  C   UNL A   1      31.007  24.318  24.409  1.00  0.00     0.084 C 
ATOM     15  C   UNL A   1      30.654  23.334  23.289  1.00  0.00     0.031 C 
BRANCH  14  16
ATOM     16  C   UNL A   1      31.174  23.637  25.789  1.00  0.00     0.066 C 
ATOM     17  N   UNL A   1      33.657  23.292  25.637  1.00  0.00    -0.335 N 
ATOM     18  C   UNL A   1      33.508  21.837  25.723  1.00  0.00     0.262 C 
ATOM     19  C   UNL A   1      32.562  23.948  26.384  1.00  0.00     0.267 C 
ATOM     20  H   UNL A   1      33.622  23.495  24.637  1.00  0.00     0.348 HD
ATOM     21  C   UNL A   1      32.174  21.401  25.106  1.00  0.00     0.062 C 
ATOM     22  C   UNL A   1      30.986  22.110  25.754  1.00  0.00     0.017 C 
BRANCH  17  23
ATOM     23  C   UNL A   1      34.944  23.836  26.106  1.00  0.00     0.261 C 
BRANCH  23  24
ATOM     24  C   UNL A   1      36.166  23.744  25.184  1.00  0.00     0.058 C 
ATOM     25  C   UNL A   1      37.504  23.683  25.902  1.00  0.00     0.010 C 
ENDBRANCH  23  24
ENDBRANCH  17  23
ENDBRANCH  14  16
ENDBRANCH  12  14
ENDBRANCH   7  12
ENDBRANCH   3   6
ENDBRANCH   1   2
BRANCH   1  26
ATOM     26  C   UNL A   1      31.418  30.747  26.346  1.00  0.00     0.023 C 
BRANCH  26  27
ATOM     27  C   UNL A   1      31.390  32.258  26.502  1.00  0.00     0.023 C 
BRANCH  27  28
ATOM     28  C   UNL A   1      32.650  32.888  27.079  1.00  0.00     0.116 C 
BRANCH  28  29
ATOM     29  N   UNL A   1      32.444  34.203  27.668  1.00  0.00    -0.352 N 
ATOM     30  C   UNL A   1      33.135  34.816  28.689  1.00  0.00     0.251 C 
ATOM     31  H   UNL A   1      31.706  34.729  27.283  1.00  0.00     0.163 HD
ATOM     32  O   UNL A   1      32.774  35.912  29.109  1.00  0.00    -0.269 OA
BRANCH  30  33
ATOM     33  C   UNL A   1      34.294  34.133  29.307  1.00  0.00     0.039 A 
ATOM     34  C   UNL A   1      34.066  33.165  30.289  1.00  0.00     0.014 A 
ATOM     35  C   UNL A   1      35.598  34.428  28.904  1.00  0.00     0.014 A 
ATOM     36  C   UNL A   1      35.143  32.450  30.818  1.00  0.00     0.010 A 
ATOM     37  C   UNL A   1      36.656  33.649  29.360  1.00  0.00     0.010 A 
ATOM     38  C   UNL A   1      36.444  32.663  30.334  1.00  0.00    -0.014 A 
BRANCH  38  39
ATOM     39  C   UNL A   1      37.605  31.910  30.876  1.00  0.00     0.031 A 
ATOM     40  C   UNL A   1      38.094  32.199  32.272  1.00  0.00     0.074 A 
ATOM     41  C   UNL A   1      38.243  31.002  30.111  1.00  0.00     0.049 A 
ATOM     42  N   UNL A   1      39.124  31.704  32.909  1.00  0.00    -0.248 NA
ATOM     43  C   UNL A   1      37.341  33.202  33.043  1.00  0.00     0.031 C 
ATOM     44  C   UNL A   1      37.899  30.659  28.729  1.00  0.00     0.029 A 
ATOM     45  N   UNL A   1      39.324  30.202  30.390  1.00  0.00    -0.354 N 
ATOM     46  C   UNL A   1      39.143  32.337  34.145  1.00  0.00     0.074 A 
ATOM     47  C   UNL A   1      38.071  33.307  34.142  1.00  0.00     0.031 C 
ATOM     48  C   UNL A   1      38.730  29.698  28.294  1.00  0.00     0.029 A 
ATOM     49  C   UNL A   1      39.686  29.380  29.350  1.00  0.00     0.049 A 
ATOM     50  H   UNL A   1      39.795  30.216  31.254  1.00  0.00     0.167 HD
ATOM     51  C   UNL A   1      39.953  32.108  35.206  1.00  0.00     0.037 A 
ATOM     52  C   UNL A   1      40.676  28.472  29.263  1.00  0.00     0.037 A 
ATOM     53  C   UNL A   1      41.005  31.127  35.222  1.00  0.00     0.049 A 
ATOM     54  C   UNL A   1      41.570  28.247  30.455  1.00  0.00     0.074 A 
ATOM     55  C   UNL A   1      41.875  30.810  36.249  1.00  0.00     0.029 A 
ATOM     56  N   UNL A   1      41.318  30.295  34.159  1.00  0.00    -0.354 N 
ATOM     57  N   UNL A   1      41.546  28.823  31.632  1.00  0.00    -0.248 NA
ATOM     58  C   UNL A   1      42.621  27.229  30.307  1.00  0.00     0.031 C 
ATOM     59  C   UNL A   1      42.733  29.800  35.800  1.00  0.00     0.029 A 
ATOM     60  C   UNL A   1      42.366  29.459  34.508  1.00  0.00     0.049 A 
ATOM     61  H   UNL A   1      40.864  30.297  33.286  1.00  0.00     0.167 HD
ATOM     62  C   UNL A   1      42.541  28.204  32.379  1.00  0.00     0.074 A 
ATOM     63  C   UNL A   1      43.142  27.202  31.525  1.00  0.00     0.031 C 
ATOM     64  C   UNL A   1      42.925  28.442  33.657  1.00  0.00     0.037 A 
BRANCH  51  65
ATOM     65  C   UNL A   1      39.709  32.917  36.447  1.00  0.00     0.057 A 
ATOM     66  C   UNL A   1      40.352  34.146  36.658  1.00  0.00     0.134 A 
ATOM     67  C   UNL A   1      38.805  32.485  37.425  1.00  0.00     0.134 A 
ATOM     68  F   UNL A   1      41.242  34.609  35.768  1.00  0.00    -0.206 F 
ATOM     69  C   UNL A   1      40.122  34.903  37.808  1.00  0.00     0.040 A 
ATOM     70  C   UNL A   1      38.546  33.248  38.565  1.00  0.00     0.040 A 
ATOM     71  F   UNL A   1      38.153  31.321  37.285  1.00  0.00    -0.206 F 
ATOM     72  C   UNL A   1      39.209  34.458  38.761  1.00  0.00     0.006 A 
ENDBRANCH  51  65
BRANCH  52  73
ATOM     73  C   UNL A   1      40.871  27.674  28.024  1.00  0.00     0.057 A 
ATOM     74  C   UNL A   1      40.283  26.411  27.880  1.00  0.00     0.134 A 
ATOM     75  C   UNL A   1      41.694  28.121  26.984  1.00  0.00     0.134 A 
ATOM     76  F   UNL A   1      39.498  25.918  28.850  1.00  0.00    -0.206 F 
ATOM     77  C   UNL A   1      40.539  25.603  26.771  1.00  0.00     0.040 A 
ATOM     78  C   UNL A   1      41.936  27.337  25.854  1.00  0.00     0.040 A 
ATOM     79  F   UNL A   1      42.281  29.325  27.053  1.00  0.00    -0.206 F 
ATOM     80  C   UNL A   1      41.369  26.068  25.753  1.00  0.00     0.006 A 
ENDBRANCH  52  73
BRANCH  64  81
ATOM     81  C   UNL A   1      43.988  27.551  34.230  1.00  0.00     0.057 A 
ATOM     82  C   UNL A   1      43.689  26.329  34.844  1.00  0.00     0.134 A 
ATOM     83  C   UNL A   1      45.337  27.922  34.151  1.00  0.00     0.134 A 
ATOM     84  F   UNL A   1      42.416  25.920  34.962  1.00  0.00    -0.206 F 
ATOM     85  C   UNL A   1      44.690  25.526  35.394  1.00  0.00     0.040 A 
ATOM     86  C   UNL A   1      46.348  27.114  34.669  1.00  0.00     0.040 A 
ATOM     87  F   UNL A   1      45.694  29.075  33.564  1.00  0.00    -0.206 F 
ATOM     88  C   UNL A   1      46.025  25.917  35.303  1.00  0.00     0.006 A 
ENDBRANCH  64  81
ENDBRANCH  38  39
ENDBRANCH  30  33
ENDBRANCH  28  29
ENDBRANCH  27  28
ENDBRANCH  26  27
ENDBRANCH   1  26
TORSDOF 16
ENDMDL
MODEL 3
REMARK VINA RESULT:     -10.9      1.065      6.129
REMARK SMILES CCC[N@H+]1CCC[C@H]([C@@H](C)Nc2cccc(C(=O)NCCCCNC(=O)c3ccc(-c4c5nc(c(-c6c(F)cccc6F)c6ccc([nH]6)c(-c6c(F)cccc6F)c6nc(c(-c7c(F)cccc7F)c7ccc4[nH]7)C=C6)C=C5)cc3)c2)C1
REMARK SMILES IDX 20 1 19 2 17 3 18 4 16 6 12 7 13 8 81 9 14 10 15 11 11 12
REMARK SMILES IDX 9 14 10 15 8 16 4 17 5 18 82 19 6 21 7 22 3 23 2 24 1 25
REMARK SMILES IDX 21 26 22 27 23 28 24 29 25 30 26 32 27 33 28 34 80 35 29 36
REMARK SMILES IDX 79 37 30 38 31 39 32 40 73 41 33 42 78 43 72 44 74 45 34 46
REMARK SMILES IDX 77 47 71 48 70 49 35 51 61 52 44 53 60 54 45 55 48 56 59 57
REMARK SMILES IDX 75 58 46 59 47 60 58 62 76 63 49 64 36 65 37 66 42 67 38 68
REMARK SMILES IDX 39 69 41 70 43 71 40 72 62 73 63 74 68 75 64 76 65 77 67 78
REMARK SMILES IDX 69 79 66 80 50 81 51 82 56 83 52 84 53 85 55 86 57 87 54 88
REMARK H PARENT 19 5 11 13 4 20 24 31 74 50 48 61
REMARK Flexibility Score: inf
ROOT
ATOM      1  C   UNL A   1      32.554  29.966  26.249  1.00  0.00     0.116 C 
ENDROOT
BRANCH   1   2
ATOM      2  N   UNL A   1      33.244  29.490  25.056  1.00  0.00    -0.352 N 
ATOM      3  C   UNL A   1      33.384  28.214  24.539  1.00  0.00     0.251 C 
ATOM      4  O   UNL A   1      34.025  28.060  23.501  1.00  0.00    -0.269 OA
ATOM      5  H   UNL A   1      33.687  30.196  24.531  1.00  0.00     0.163 HD
BRANCH   3   6
ATOM      6  C   UNL A   1      32.851  27.023  25.254  1.00  0.00     0.041 A 
ATOM      7  C   UNL A   1      33.251  24.755  26.012  1.00  0.00     0.035 A 
ATOM      8  C   UNL A   1      31.867  24.567  26.079  1.00  0.00     0.026 A 
ATOM      9  C   UNL A   1      33.704  26.048  25.764  1.00  0.00     0.039 A 
ATOM     10  C   UNL A   1      30.979  25.612  25.797  1.00  0.00     0.003 A 
ATOM     11  C   UNL A   1      31.472  26.829  25.334  1.00  0.00     0.014 A 
BRANCH   7  12
ATOM     12  N   UNL A   1      34.100  23.678  26.167  1.00  0.00    -0.382 N 
ATOM     13  H   UNL A   1      35.067  23.865  26.193  1.00  0.00     0.160 HD
BRANCH  12  14
ATOM     14  C   UNL A   1      33.683  22.279  26.295  1.00  0.00     0.084 C 
ATOM     15  C   UNL A   1      34.059  21.788  27.697  1.00  0.00     0.031 C 
BRANCH  14  16
ATOM     16  C   UNL A   1      34.350  21.461  25.164  1.00  0.00     0.066 C 
ATOM     17  N   UNL A   1      32.825  22.227  23.322  1.00  0.00    -0.335 N 
ATOM     18  C   UNL A   1      32.359  20.861  23.076  1.00  0.00     0.262 C 
ATOM     19  C   UNL A   1      34.219  22.195  23.814  1.00  0.00     0.267 C 
ATOM     20  H   UNL A   1      32.176  22.599  24.016  1.00  0.00     0.348 HD
ATOM     21  C   UNL A   1      32.393  20.044  24.373  1.00  0.00     0.062 C 
ATOM     22  C   UNL A   1      33.783  20.040  25.007  1.00  0.00     0.017 C 
BRANCH  17  23
ATOM     23  C   UNL A   1      32.748  23.150  22.175  1.00  0.00     0.261 C 
BRANCH  23  24
ATOM     24  C   UNL A   1      33.105  24.626  22.389  1.00  0.00     0.058 C 
ATOM     25  C   UNL A   1      32.063  25.614  21.891  1.00  0.00     0.010 C 
ENDBRANCH  23  24
ENDBRANCH  17  23
ENDBRANCH  14  16
ENDBRANCH  12  14
ENDBRANCH   7  12
ENDBRANCH   3   6
ENDBRANCH   1   2
BRANCH   1  26
ATOM     26  C   UNL A   1      31.450  30.983  26.002  1.00  0.00     0.023 C 
BRANCH  26  27
ATOM     27  C   UNL A   1      31.368  32.140  26.984  1.00  0.00     0.023 C 
BRANCH  27  28
ATOM     28  C   UNL A   1      32.586  33.051  27.037  1.00  0.00     0.116 C 
BRANCH  28  29
ATOM     29  N   UNL A   1      32.350  34.326  27.697  1.00  0.00    -0.352 N 
ATOM     30  C   UNL A   1      33.050  34.915  28.725  1.00  0.00     0.251 C 
ATOM     31  H   UNL A   1      31.580  34.840  27.362  1.00  0.00     0.163 HD
ATOM     32  O   UNL A   1      32.661  35.974  29.211  1.00  0.00    -0.269 OA
BRANCH  30  33
ATOM     33  C   UNL A   1      34.254  34.250  29.272  1.00  0.00     0.039 A 
ATOM     34  C   UNL A   1      35.504  34.555  28.728  1.00  0.00     0.014 A 
ATOM     35  C   UNL A   1      34.154  33.346  30.332  1.00  0.00     0.014 A 
ATOM     36  C   UNL A   1      36.657  34.004  29.292  1.00  0.00     0.010 A 
ATOM     37  C   UNL A   1      35.307  32.876  30.953  1.00  0.00     0.010 A 
ATOM     38  C   UNL A   1      36.571  33.185  30.429  1.00  0.00    -0.014 A 
BRANCH  38  39
ATOM     39  C   UNL A   1      37.783  32.592  31.051  1.00  0.00     0.031 A 
ATOM     40  C   UNL A   1      38.406  31.363  30.442  1.00  0.00     0.074 A 
ATOM     41  C   UNL A   1      38.301  33.126  32.176  1.00  0.00     0.049 A 
ATOM     42  N   UNL A   1      39.423  30.653  30.862  1.00  0.00    -0.248 NA
ATOM     43  C   UNL A   1      37.783  30.843  29.213  1.00  0.00     0.031 C 
ATOM     44  C   UNL A   1      37.769  34.289  32.890  1.00  0.00     0.029 A 
ATOM     45  N   UNL A   1      39.393  32.753  32.919  1.00  0.00    -0.354 N 
ATOM     46  C   UNL A   1      39.553  29.609  29.955  1.00  0.00     0.074 A 
ATOM     47  C   UNL A   1      38.469  29.730  29.008  1.00  0.00     0.031 C 
ATOM     48  C   UNL A   1      38.553  34.552  33.948  1.00  0.00     0.029 A 
ATOM     49  C   UNL A   1      39.622  33.559  34.008  1.00  0.00     0.049 A 
ATOM     50  H   UNL A   1      39.959  31.980  32.693  1.00  0.00     0.167 HD
ATOM     51  C   UNL A   1      40.512  28.654  29.890  1.00  0.00     0.037 A 
ATOM     52  C   UNL A   1      40.588  33.503  34.944  1.00  0.00     0.037 A 
ATOM     53  C   UNL A   1      41.607  28.545  30.816  1.00  0.00     0.049 A 
ATOM     54  C   UNL A   1      41.634  32.423  34.853  1.00  0.00     0.074 A 
ATOM     55  C   UNL A   1      42.637  27.621  30.831  1.00  0.00     0.029 A 
ATOM     56  N   UNL A   1      41.820  29.400  31.886  1.00  0.00    -0.354 N 
ATOM     57  N   UNL A   1      41.769  31.470  33.964  1.00  0.00    -0.248 NA
ATOM     58  C   UNL A   1      42.674  32.425  35.893  1.00  0.00     0.031 C 
ATOM     59  C   UNL A   1      43.461  27.903  31.927  1.00  0.00     0.029 A 
ATOM     60  C   UNL A   1      42.968  29.029  32.565  1.00  0.00     0.049 A 
ATOM     61  H   UNL A   1      41.240  30.159  32.127  1.00  0.00     0.167 HD
ATOM     62  C   UNL A   1      42.933  30.792  34.306  1.00  0.00     0.074 A 
ATOM     63  C   UNL A   1      43.471  31.450  35.478  1.00  0.00     0.031 C 
ATOM     64  C   UNL A   1      43.507  29.720  33.707  1.00  0.00     0.037 A 
BRANCH  51  65
ATOM     65  C   UNL A   1      40.430  27.671  28.758  1.00  0.00     0.057 A 
ATOM     66  C   UNL A   1      39.643  26.515  28.849  1.00  0.00     0.134 A 
ATOM     67  C   UNL A   1      41.116  27.893  27.558  1.00  0.00     0.134 A 
ATOM     68  F   UNL A   1      38.973  26.235  29.977  1.00  0.00    -0.206 F 
ATOM     69  C   UNL A   1      39.560  25.603  27.796  1.00  0.00     0.040 A 
ATOM     70  C   UNL A   1      41.017  27.002  26.488  1.00  0.00     0.040 A 
ATOM     71  F   UNL A   1      41.885  28.981  27.402  1.00  0.00    -0.206 F 
ATOM     72  C   UNL A   1      40.242  25.851  26.607  1.00  0.00     0.006 A 
ENDBRANCH  51  65
BRANCH  52  73
ATOM     73  C   UNL A   1      40.648  34.509  36.037  1.00  0.00     0.057 A 
ATOM     74  C   UNL A   1      41.465  35.642  35.929  1.00  0.00     0.134 A 
ATOM     75  C   UNL A   1      39.945  34.336  37.234  1.00  0.00     0.134 A 
ATOM     76  F   UNL A   1      42.180  35.855  34.815  1.00  0.00    -0.206 F 
ATOM     77  C   UNL A   1      41.616  36.542  36.986  1.00  0.00     0.040 A 
ATOM     78  C   UNL A   1      40.061  35.244  38.288  1.00  0.00     0.040 A 
ATOM     79  F   UNL A   1      39.137  33.279  37.400  1.00  0.00    -0.206 F 
ATOM     80  C   UNL A   1      40.910  36.343  38.171  1.00  0.00     0.006 A 
ENDBRANCH  52  73
BRANCH  64  81
ATOM     81  C   UNL A   1      44.820  29.249  34.259  1.00  0.00     0.057 A 
ATOM     82  C   UNL A   1      44.904  28.272  35.258  1.00  0.00     0.134 A 
ATOM     83  C   UNL A   1      46.022  29.776  33.768  1.00  0.00     0.134 A 
ATOM     84  F   UNL A   1      43.790  27.734  35.780  1.00  0.00    -0.206 F 
ATOM     85  C   UNL A   1      46.135  27.864  35.778  1.00  0.00     0.040 A 
ATOM     86  C   UNL A   1      47.258  29.354  34.257  1.00  0.00     0.040 A 
ATOM     87  F   UNL A   1      46.014  30.707  32.801  1.00  0.00    -0.206 F 
ATOM     88  C   UNL A   1      47.316  28.404  35.273  1.00  0.00     0.006 A 
ENDBRANCH  64  81
ENDBRANCH  38  39
ENDBRANCH  30  33
ENDBRANCH  28  29
ENDBRANCH  27  28
ENDBRANCH  26  27
ENDBRANCH   1  26
TORSDOF 16
ENDMDL
