MODEL 1
REMARK VINA RESULT:     -12.2      0.000      0.000
REMARK SMILES CC(C)(C)OC(=O)N1CCC2(CC1)C[C@@H](C(=O)NCCCCNC(=O)c1ccc(-c3c4nc(c(-c5c(F)cccc5F)c5ccc([nH]5)c(-c5c(F)cccc5F)c5nc(c(-c6c(F)cccc6F)c6ccc3[nH]6)C=C5)C=C4)cc1)CO2
REMARK SMILES IDX 20 1 19 2 18 3 16 4 17 5 15 7 6 8 7 9 8 10 9 11 13 12 10 13
REMARK SMILES IDX 12 14 11 15 14 16 81 17 80 18 5 19 2 20 1 21 3 22 4 23 21 24
REMARK SMILES IDX 22 25 23 26 24 27 25 29 26 30 27 31 79 32 28 33 78 34 29 35
REMARK SMILES IDX 30 36 31 37 72 38 32 39 77 40 71 41 73 42 33 43 76 44 70 45
REMARK SMILES IDX 69 46 34 48 60 49 43 50 59 51 44 52 47 53 58 54 74 55 45 56
REMARK SMILES IDX 46 57 57 59 75 60 48 61 35 62 36 63 41 64 37 65 38 66 40 67
REMARK SMILES IDX 42 68 39 69 61 70 62 71 67 72 63 73 64 74 66 75 68 76 65 77
REMARK SMILES IDX 49 78 50 79 55 80 51 81 52 82 54 83 56 84 53 85
REMARK H PARENT 18 6 23 28 73 47 47 58
REMARK Flexibility Score: inf
ROOT
ATOM      1  C   UNL A   1      32.007  30.410  26.842  1.00  0.00     0.023 C 
ENDROOT
BRANCH   1   2
ATOM      2  C   UNL A   1      32.993  29.890  25.805  1.00  0.00     0.116 C 
BRANCH   2   3
ATOM      3  N   UNL A   1      32.400  29.461  24.559  1.00  0.00    -0.356 N 
ATOM      4  C   UNL A   1      31.466  28.514  24.277  1.00  0.00     0.225 C 
ATOM      5  O   UNL A   1      31.013  28.531  23.125  1.00  0.00    -0.275 OA
ATOM      6  H   UNL A   1      32.734  29.942  23.768  1.00  0.00     0.163 HD
BRANCH   4   7
ATOM      7  C   UNL A   1      30.935  27.467  25.261  1.00  0.00     0.107 C 
ATOM      8  C   UNL A   1      32.692  21.091  24.670  1.00  0.00     0.410 C 
ATOM      9  O   UNL A   1      32.092  20.144  25.162  1.00  0.00    -0.224 OA
ATOM     10  N   UNL A   1      32.203  22.381  24.656  1.00  0.00    -0.308 N 
ATOM     11  C   UNL A   1      31.045  22.742  25.468  1.00  0.00     0.126 C 
ATOM     12  C   UNL A   1      32.717  23.408  23.762  1.00  0.00     0.126 C 
ATOM     13  C   UNL A   1      31.294  24.053  26.239  1.00  0.00     0.057 C 
ATOM     14  C   UNL A   1      32.991  24.680  24.538  1.00  0.00     0.057 C 
ATOM     15  C   UNL A   1      31.718  25.165  25.263  1.00  0.00     0.072 C 
ATOM     16  C   UNL A   1      31.964  26.543  25.894  1.00  0.00     0.051 C 
ATOM     17  O   UNL A   1      30.603  25.333  24.358  1.00  0.00    -0.374 OA
ATOM     18  C   UNL A   1      29.899  26.532  24.702  1.00  0.00     0.174 C 
BRANCH   8  19
ATOM     19  O   UNL A   1      33.938  21.027  24.138  1.00  0.00    -0.444 OA
BRANCH  19  20
ATOM     20  C   UNL A   1      35.127  21.050  24.966  1.00  0.00     0.106 C 
ATOM     21  C   UNL A   1      36.057  22.064  24.280  1.00  0.00     0.056 C 
ATOM     22  C   UNL A   1      35.784  19.670  24.952  1.00  0.00     0.056 C 
ATOM     23  C   UNL A   1      34.856  21.546  26.392  1.00  0.00     0.056 C 
ENDBRANCH  19  20
ENDBRANCH   8  19
ENDBRANCH   4   7
ENDBRANCH   2   3
ENDBRANCH   1   2
BRANCH   1  24
ATOM     24  C   UNL A   1      31.745  31.911  26.768  1.00  0.00     0.023 C 
BRANCH  24  25
ATOM     25  C   UNL A   1      32.810  32.804  27.399  1.00  0.00     0.116 C 
BRANCH  25  26
ATOM     26  N   UNL A   1      32.376  34.163  27.689  1.00  0.00    -0.352 N 
ATOM     27  C   UNL A   1      32.952  35.057  28.567  1.00  0.00     0.251 C 
ATOM     28  H   UNL A   1      31.580  34.480  27.202  1.00  0.00     0.163 HD
ATOM     29  O   UNL A   1      32.463  36.163  28.762  1.00  0.00    -0.269 OA
BRANCH  27  30
ATOM     30  C   UNL A   1      34.152  34.627  29.314  1.00  0.00     0.039 A 
ATOM     31  C   UNL A   1      33.993  34.072  30.585  1.00  0.00     0.014 A 
ATOM     32  C   UNL A   1      35.408  34.667  28.704  1.00  0.00     0.014 A 
ATOM     33  C   UNL A   1      35.086  33.469  31.210  1.00  0.00     0.010 A 
ATOM     34  C   UNL A   1      36.474  33.997  29.293  1.00  0.00     0.010 A 
ATOM     35  C   UNL A   1      36.321  33.382  30.546  1.00  0.00    -0.014 A 
BRANCH  35  36
ATOM     36  C   UNL A   1      37.463  32.638  31.135  1.00  0.00     0.031 A 
ATOM     37  C   UNL A   1      38.060  33.085  32.438  1.00  0.00     0.074 A 
ATOM     38  C   UNL A   1      38.014  31.612  30.457  1.00  0.00     0.049 A 
ATOM     39  N   UNL A   1      39.099  32.610  33.079  1.00  0.00    -0.248 NA
ATOM     40  C   UNL A   1      37.428  34.241  33.092  1.00  0.00     0.031 C 
ATOM     41  C   UNL A   1      37.565  31.116  29.154  1.00  0.00     0.029 A 
ATOM     42  N   UNL A   1      39.081  30.806  30.768  1.00  0.00    -0.354 N 
ATOM     43  C   UNL A   1      39.254  33.420  34.195  1.00  0.00     0.074 A 
ATOM     44  C   UNL A   1      38.240  34.450  34.116  1.00  0.00     0.031 C 
ATOM     45  C   UNL A   1      38.328  30.071  28.795  1.00  0.00     0.029 A 
ATOM     46  C   UNL A   1      39.341  29.845  29.820  1.00  0.00     0.049 A 
ATOM     47  H   UNL A   1      39.609  30.906  31.592  1.00  0.00     0.167 HD
ATOM     48  C   UNL A   1      40.145  33.303  35.209  1.00  0.00     0.037 A 
ATOM     49  C   UNL A   1      40.289  28.890  29.785  1.00  0.00     0.037 A 
ATOM     50  C   UNL A   1      41.132  32.261  35.302  1.00  0.00     0.049 A 
ATOM     51  C   UNL A   1      41.264  28.777  30.923  1.00  0.00     0.074 A 
ATOM     52  C   UNL A   1      42.025  32.008  36.328  1.00  0.00     0.029 A 
ATOM     53  N   UNL A   1      41.356  31.298  34.329  1.00  0.00    -0.354 N 
ATOM     54  N   UNL A   1      41.350  29.500  32.012  1.00  0.00    -0.248 NA
ATOM     55  C   UNL A   1      42.273  27.713  30.825  1.00  0.00     0.031 C 
ATOM     56  C   UNL A   1      42.820  30.919  35.955  1.00  0.00     0.029 A 
ATOM     57  C   UNL A   1      42.392  30.465  34.717  1.00  0.00     0.049 A 
ATOM     58  H   UNL A   1      40.853  31.219  33.486  1.00  0.00     0.167 HD
ATOM     59  C   UNL A   1      42.401  28.963  32.744  1.00  0.00     0.074 A 
ATOM     60  C   UNL A   1      42.916  27.847  31.977  1.00  0.00     0.031 C 
ATOM     61  C   UNL A   1      42.892  29.357  33.945  1.00  0.00     0.037 A 
BRANCH  48  62
ATOM     62  C   UNL A   1      40.083  34.337  36.296  1.00  0.00     0.057 A 
ATOM     63  C   UNL A   1      39.265  34.180  37.422  1.00  0.00     0.134 A 
ATOM     64  C   UNL A   1      40.855  35.503  36.216  1.00  0.00     0.134 A 
ATOM     65  F   UNL A   1      38.490  33.092  37.554  1.00  0.00    -0.206 F 
ATOM     66  C   UNL A   1      39.187  35.162  38.412  1.00  0.00     0.040 A 
ATOM     67  C   UNL A   1      40.807  36.478  37.213  1.00  0.00     0.040 A 
ATOM     68  F   UNL A   1      41.664  35.715  35.167  1.00  0.00    -0.206 F 
ATOM     69  C   UNL A   1      39.964  36.313  38.311  1.00  0.00     0.006 A 
ENDBRANCH  48  62
BRANCH  49  70
ATOM     70  C   UNL A   1      40.333  27.933  28.650  1.00  0.00     0.057 A 
ATOM     71  C   UNL A   1      41.055  28.235  27.489  1.00  0.00     0.134 A 
ATOM     72  C   UNL A   1      39.670  26.703  28.696  1.00  0.00     0.134 A 
ATOM     73  F   UNL A   1      41.697  29.408  27.380  1.00  0.00    -0.206 F 
ATOM     74  C   UNL A   1      41.107  27.352  26.410  1.00  0.00     0.040 A 
ATOM     75  C   UNL A   1      39.729  25.801  27.633  1.00  0.00     0.040 A 
ATOM     76  F   UNL A   1      38.965  26.353  29.783  1.00  0.00    -0.206 F 
ATOM     77  C   UNL A   1      40.447  26.127  26.483  1.00  0.00     0.006 A 
ENDBRANCH  49  70
BRANCH  61  78
ATOM     78  C   UNL A   1      44.025  28.557  34.518  1.00  0.00     0.057 A 
ATOM     79  C   UNL A   1      45.363  28.919  34.315  1.00  0.00     0.134 A 
ATOM     80  C   UNL A   1      43.771  27.435  35.317  1.00  0.00     0.134 A 
ATOM     81  F   UNL A   1      45.672  29.976  33.547  1.00  0.00    -0.206 F 
ATOM     82  C   UNL A   1      46.409  28.182  34.870  1.00  0.00     0.040 A 
ATOM     83  C   UNL A   1      44.808  26.706  35.899  1.00  0.00     0.040 A 
ATOM     84  F   UNL A   1      42.512  27.041  35.558  1.00  0.00    -0.206 F 
ATOM     85  C   UNL A   1      46.132  27.075  35.671  1.00  0.00     0.006 A 
ENDBRANCH  61  78
ENDBRANCH  35  36
ENDBRANCH  27  30
ENDBRANCH  25  26
ENDBRANCH  24  25
ENDBRANCH   1  24
TORSDOF 13
ENDMDL
MODEL 2
REMARK VINA RESULT:     -12.2      4.872     10.418
REMARK SMILES CC(C)(C)OC(=O)N1CCC2(CC1)C[C@@H](C(=O)NCCCCNC(=O)c1ccc(-c3c4nc(c(-c5c(F)cccc5F)c5ccc([nH]5)c(-c5c(F)cccc5F)c5nc(c(-c6c(F)cccc6F)c6ccc3[nH]6)C=C5)C=C4)cc1)CO2
REMARK SMILES IDX 20 1 19 2 18 3 16 4 17 5 15 7 6 8 7 9 8 10 9 11 13 12 10 13
REMARK SMILES IDX 12 14 11 15 14 16 81 17 80 18 5 19 2 20 1 21 3 22 4 23 21 24
REMARK SMILES IDX 22 25 23 26 24 27 25 29 26 30 27 31 79 32 28 33 78 34 29 35
REMARK SMILES IDX 30 36 31 37 72 38 32 39 77 40 71 41 73 42 33 43 76 44 70 45
REMARK SMILES IDX 69 46 34 48 60 49 43 50 59 51 44 52 47 53 58 54 74 55 45 56
REMARK SMILES IDX 46 57 57 59 75 60 48 61 35 62 36 63 41 64 37 65 38 66 40 67
REMARK SMILES IDX 42 68 39 69 61 70 62 71 67 72 63 73 64 74 66 75 68 76 65 77
REMARK SMILES IDX 49 78 50 79 55 80 51 81 52 82 54 83 56 84 53 85
REMARK H PARENT 18 6 23 28 73 47 47 58
REMARK Flexibility Score: inf
ROOT
ATOM      1  C   UNL A   1      37.356  21.284  24.660  1.00  0.00     0.023 C 
ENDROOT
BRANCH   1   2
ATOM      2  C   UNL A   1      36.366  21.781  25.706  1.00  0.00     0.116 C 
BRANCH   2   3
ATOM      3  N   UNL A   1      35.213  20.934  25.907  1.00  0.00    -0.356 N 
ATOM      4  C   UNL A   1      34.086  20.745  25.170  1.00  0.00     0.225 C 
ATOM      5  O   UNL A   1      33.377  19.789  25.507  1.00  0.00    -0.275 OA
ATOM      6  H   UNL A   1      35.250  20.395  26.729  1.00  0.00     0.163 HD
BRANCH   4   7
ATOM      7  C   UNL A   1      33.653  21.597  23.973  1.00  0.00     0.107 C 
ATOM      8  C   UNL A   1      30.946  27.588  24.909  1.00  0.00     0.410 C 
ATOM      9  O   UNL A   1      30.274  28.196  24.087  1.00  0.00    -0.224 OA
ATOM     10  N   UNL A   1      31.338  26.274  24.754  1.00  0.00    -0.308 N 
ATOM     11  C   UNL A   1      31.191  25.606  23.466  1.00  0.00     0.126 C 
ATOM     12  C   UNL A   1      31.795  25.453  25.866  1.00  0.00     0.126 C 
ATOM     13  C   UNL A   1      32.478  24.848  23.083  1.00  0.00     0.057 C 
ATOM     14  C   UNL A   1      33.080  24.742  25.489  1.00  0.00     0.057 C 
ATOM     15  C   UNL A   1      32.882  23.891  24.218  1.00  0.00     0.072 C 
ATOM     16  C   UNL A   1      34.133  23.040  23.954  1.00  0.00     0.051 C 
ATOM     17  O   UNL A   1      31.785  22.958  24.347  1.00  0.00    -0.374 OA
ATOM     18  C   UNL A   1      32.167  21.704  23.770  1.00  0.00     0.174 C 
BRANCH   8  19
ATOM     19  O   UNL A   1      31.459  28.128  26.043  1.00  0.00    -0.444 OA
BRANCH  19  20
ATOM     20  C   UNL A   1      32.561  29.069  26.014  1.00  0.00     0.106 C 
ATOM     21  C   UNL A   1      33.506  28.593  27.128  1.00  0.00     0.056 C 
ATOM     22  C   UNL A   1      32.044  30.468  26.350  1.00  0.00     0.056 C 
ATOM     23  C   UNL A   1      33.337  29.043  24.691  1.00  0.00     0.056 C 
ENDBRANCH  19  20
ENDBRANCH   8  19
ENDBRANCH   4   7
ENDBRANCH   2   3
ENDBRANCH   1   2
BRANCH   1  24
ATOM     24  C   UNL A   1      38.105  20.014  25.051  1.00  0.00     0.023 C 
BRANCH  24  25
ATOM     25  C   UNL A   1      39.429  20.222  25.782  1.00  0.00     0.116 C 
BRANCH  25  26
ATOM     26  N   UNL A   1      40.309  19.062  25.795  1.00  0.00    -0.352 N 
ATOM     27  C   UNL A   1      41.655  19.036  26.096  1.00  0.00     0.251 C 
ATOM     28  H   UNL A   1      39.897  18.199  25.562  1.00  0.00     0.163 HD
ATOM     29  O   UNL A   1      42.303  17.999  26.024  1.00  0.00    -0.269 OA
BRANCH  27  30
ATOM     30  C   UNL A   1      42.315  20.307  26.458  1.00  0.00     0.039 A 
ATOM     31  C   UNL A   1      42.909  21.070  25.451  1.00  0.00     0.014 A 
ATOM     32  C   UNL A   1      42.237  20.788  27.767  1.00  0.00     0.014 A 
ATOM     33  C   UNL A   1      43.344  22.364  25.740  1.00  0.00     0.010 A 
ATOM     34  C   UNL A   1      42.598  22.104  28.032  1.00  0.00     0.010 A 
ATOM     35  C   UNL A   1      43.145  22.908  27.020  1.00  0.00    -0.014 A 
BRANCH  35  36
ATOM     36  C   UNL A   1      43.485  24.322  27.318  1.00  0.00     0.031 A 
ATOM     37  C   UNL A   1      44.912  24.783  27.252  1.00  0.00     0.074 A 
ATOM     38  C   UNL A   1      42.521  25.170  27.729  1.00  0.00     0.049 A 
ATOM     39  N   UNL A   1      45.417  25.957  27.541  1.00  0.00    -0.248 NA
ATOM     40  C   UNL A   1      45.909  23.784  26.838  1.00  0.00     0.031 C 
ATOM     41  C   UNL A   1      41.105  24.831  27.892  1.00  0.00     0.029 A 
ATOM     42  N   UNL A   1      42.589  26.491  28.094  1.00  0.00    -0.354 N 
ATOM     43  C   UNL A   1      46.788  25.829  27.364  1.00  0.00     0.074 A 
ATOM     44  C   UNL A   1      47.041  24.452  26.998  1.00  0.00     0.031 C 
ATOM     45  C   UNL A   1      40.434  25.924  28.290  1.00  0.00     0.029 A 
ATOM     46  C   UNL A   1      41.374  27.029  28.447  1.00  0.00     0.049 A 
ATOM     47  H   UNL A   1      43.428  27.005  28.102  1.00  0.00     0.167 HD
ATOM     48  C   UNL A   1      47.748  26.778  27.472  1.00  0.00     0.037 A 
ATOM     49  C   UNL A   1      41.056  28.274  28.849  1.00  0.00     0.037 A 
ATOM     50  C   UNL A   1      47.491  28.153  27.805  1.00  0.00     0.049 A 
ATOM     51  C   UNL A   1      42.137  29.312  28.958  1.00  0.00     0.074 A 
ATOM     52  C   UNL A   1      48.384  29.209  27.860  1.00  0.00     0.029 A 
ATOM     53  N   UNL A   1      46.246  28.663  28.143  1.00  0.00    -0.354 N 
ATOM     54  N   UNL A   1      43.419  29.199  28.711  1.00  0.00    -0.248 NA
ATOM     55  C   UNL A   1      41.726  30.652  29.401  1.00  0.00     0.031 C 
ATOM     56  C   UNL A   1      47.687  30.349  28.275  1.00  0.00     0.029 A 
ATOM     57  C   UNL A   1      46.351  30.014  28.434  1.00  0.00     0.049 A 
ATOM     58  H   UNL A   1      45.411  28.142  28.172  1.00  0.00     0.167 HD
ATOM     59  C   UNL A   1      43.964  30.456  28.939  1.00  0.00     0.074 A 
ATOM     60  C   UNL A   1      42.870  31.319  29.337  1.00  0.00     0.031 C 
ATOM     61  C   UNL A   1      45.253  30.859  28.825  1.00  0.00     0.037 A 
BRANCH  48  62
ATOM     62  C   UNL A   1      49.166  26.349  27.225  1.00  0.00     0.057 A 
ATOM     63  C   UNL A   1      50.005  25.933  28.266  1.00  0.00     0.134 A 
ATOM     64  C   UNL A   1      49.695  26.348  25.929  1.00  0.00     0.134 A 
ATOM     65  F   UNL A   1      49.564  25.923  29.533  1.00  0.00    -0.206 F 
ATOM     66  C   UNL A   1      51.333  25.568  28.033  1.00  0.00     0.040 A 
ATOM     67  C   UNL A   1      51.012  25.958  25.679  1.00  0.00     0.040 A 
ATOM     68  F   UNL A   1      48.944  26.729  24.884  1.00  0.00    -0.206 F 
ATOM     69  C   UNL A   1      51.838  25.576  26.735  1.00  0.00     0.006 A 
ENDBRANCH  48  62
BRANCH  49  70
ATOM     70  C   UNL A   1      39.641  28.620  29.137  1.00  0.00     0.057 A 
ATOM     71  C   UNL A   1      38.815  29.142  28.134  1.00  0.00     0.134 A 
ATOM     72  C   UNL A   1      39.079  28.433  30.403  1.00  0.00     0.134 A 
ATOM     73  F   UNL A   1      39.303  29.360  26.904  1.00  0.00    -0.206 F 
ATOM     74  C   UNL A   1      37.484  29.477  28.384  1.00  0.00     0.040 A 
ATOM     75  C   UNL A   1      37.743  28.744  30.663  1.00  0.00     0.040 A 
ATOM     76  F   UNL A   1      39.817  27.930  31.405  1.00  0.00    -0.206 F 
ATOM     77  C   UNL A   1      36.942  29.272  29.651  1.00  0.00     0.006 A 
ENDBRANCH  49  70
BRANCH  61  78
ATOM     78  C   UNL A   1      45.547  32.304  29.106  1.00  0.00     0.057 A 
ATOM     79  C   UNL A   1      45.941  32.746  30.375  1.00  0.00     0.134 A 
ATOM     80  C   UNL A   1      45.474  33.257  28.081  1.00  0.00     0.134 A 
ATOM     81  F   UNL A   1      46.015  31.885  31.402  1.00  0.00    -0.206 F 
ATOM     82  C   UNL A   1      46.233  34.088  30.621  1.00  0.00     0.040 A 
ATOM     83  C   UNL A   1      45.789  34.596  28.308  1.00  0.00     0.040 A 
ATOM     84  F   UNL A   1      45.111  32.897  26.841  1.00  0.00    -0.206 F 
ATOM     85  C   UNL A   1      46.164  35.017  29.583  1.00  0.00     0.006 A 
ENDBRANCH  61  78
ENDBRANCH  35  36
ENDBRANCH  27  30
ENDBRANCH  25  26
ENDBRANCH  24  25
ENDBRANCH   1  24
TORSDOF 13
ENDMDL
MODEL 3
REMARK VINA RESULT:     -11.9      4.006      9.721
REMARK SMILES CC(C)(C)OC(=O)N1CCC2(CC1)C[C@@H](C(=O)NCCCCNC(=O)c1ccc(-c3c4nc(c(-c5c(F)cccc5F)c5ccc([nH]5)c(-c5c(F)cccc5F)c5nc(c(-c6c(F)cccc6F)c6ccc3[nH]6)C=C5)C=C4)cc1)CO2
REMARK SMILES IDX 20 1 19 2 18 3 16 4 17 5 15 7 6 8 7 9 8 10 9 11 13 12 10 13
REMARK SMILES IDX 12 14 11 15 14 16 81 17 80 18 5 19 2 20 1 21 3 22 4 23 21 24
REMARK SMILES IDX 22 25 23 26 24 27 25 29 26 30 27 31 79 32 28 33 78 34 29 35
REMARK SMILES IDX 30 36 31 37 72 38 32 39 77 40 71 41 73 42 33 43 76 44 70 45
REMARK SMILES IDX 69 46 34 48 60 49 43 50 59 51 44 52 47 53 58 54 74 55 45 56
REMARK SMILES IDX 46 57 57 59 75 60 48 61 35 62 36 63 41 64 37 65 38 66 40 67
REMARK SMILES IDX 42 68 39 69 61 70 62 71 67 72 63 73 64 74 66 75 68 76 65 77
REMARK SMILES IDX 49 78 50 79 55 80 51 81 52 82 54 83 56 84 53 85
REMARK H PARENT 18 6 23 28 73 47 47 58
REMARK Flexibility Score: inf
ROOT
ATOM      1  C   UNL A   1      36.551  21.692  25.140  1.00  0.00     0.023 C 
ENDROOT
BRANCH   1   2
ATOM      2  C   UNL A   1      36.418  22.890  24.209  1.00  0.00     0.116 C 
BRANCH   2   3
ATOM      3  N   UNL A   1      35.270  22.858  23.332  1.00  0.00    -0.356 N 
ATOM      4  C   UNL A   1      34.053  23.460  23.408  1.00  0.00     0.225 C 
ATOM      5  O   UNL A   1      33.359  23.399  22.385  1.00  0.00    -0.275 OA
ATOM      6  H   UNL A   1      35.391  22.298  22.533  1.00  0.00     0.163 HD
BRANCH   4   7
ATOM      7  C   UNL A   1      33.502  24.202  24.629  1.00  0.00     0.107 C 
ATOM      8  C   UNL A   1      30.391  30.025  23.913  1.00  0.00     0.410 C 
ATOM      9  O   UNL A   1      30.216  30.846  24.803  1.00  0.00    -0.224 OA
ATOM     10  N   UNL A   1      31.198  28.913  24.047  1.00  0.00    -0.308 N 
ATOM     11  C   UNL A   1      31.687  28.509  25.361  1.00  0.00     0.126 C 
ATOM     12  C   UNL A   1      31.700  28.163  22.906  1.00  0.00     0.126 C 
ATOM     13  C   UNL A   1      31.497  26.996  25.584  1.00  0.00     0.057 C 
ATOM     14  C   UNL A   1      31.475  26.679  23.122  1.00  0.00     0.057 C 
ATOM     15  C   UNL A   1      32.143  26.209  24.431  1.00  0.00     0.072 C 
ATOM     16  C   UNL A   1      32.061  24.680  24.544  1.00  0.00     0.051 C 
ATOM     17  O   UNL A   1      33.550  26.538  24.477  1.00  0.00    -0.374 OA
ATOM     18  C   UNL A   1      34.271  25.430  25.030  1.00  0.00     0.174 C 
BRANCH   8  19
ATOM     19  O   UNL A   1      29.773  30.045  22.706  1.00  0.00    -0.444 OA
BRANCH  19  20
ATOM     20  C   UNL A   1      28.335  30.186  22.583  1.00  0.00     0.106 C 
ATOM     21  C   UNL A   1      27.777  28.805  22.964  1.00  0.00     0.056 C 
ATOM     22  C   UNL A   1      27.977  30.494  21.129  1.00  0.00     0.056 C 
ATOM     23  C   UNL A   1      27.749  31.219  23.553  1.00  0.00     0.056 C 
ENDBRANCH  19  20
ENDBRANCH   8  19
ENDBRANCH   4   7
ENDBRANCH   2   3
ENDBRANCH   1   2
BRANCH   1  24
ATOM     24  C   UNL A   1      37.715  20.762  24.811  1.00  0.00     0.023 C 
BRANCH  24  25
ATOM     25  C   UNL A   1      38.894  20.806  25.779  1.00  0.00     0.116 C 
BRANCH  25  26
ATOM     26  N   UNL A   1      39.814  19.682  25.675  1.00  0.00    -0.352 N 
ATOM     27  C   UNL A   1      41.148  19.656  26.026  1.00  0.00     0.251 C 
ATOM     28  H   UNL A   1      39.441  18.845  25.314  1.00  0.00     0.163 HD
ATOM     29  O   UNL A   1      41.834  18.657  25.845  1.00  0.00    -0.269 OA
BRANCH  27  30
ATOM     30  C   UNL A   1      41.749  20.887  26.578  1.00  0.00     0.039 A 
ATOM     31  C   UNL A   1      42.303  21.821  25.700  1.00  0.00     0.014 A 
ATOM     32  C   UNL A   1      41.654  21.160  27.945  1.00  0.00     0.014 A 
ATOM     33  C   UNL A   1      42.677  23.075  26.184  1.00  0.00     0.010 A 
ATOM     34  C   UNL A   1      41.955  22.436  28.408  1.00  0.00     0.010 A 
ATOM     35  C   UNL A   1      42.459  23.409  27.531  1.00  0.00    -0.014 A 
BRANCH  35  36
ATOM     36  C   UNL A   1      42.733  24.776  28.042  1.00  0.00     0.031 A 
ATOM     37  C   UNL A   1      44.127  25.161  28.448  1.00  0.00     0.074 A 
ATOM     38  C   UNL A   1      41.716  25.641  28.217  1.00  0.00     0.049 A 
ATOM     39  N   UNL A   1      44.554  26.280  28.978  1.00  0.00    -0.248 NA
ATOM     40  C   UNL A   1      45.172  24.143  28.267  1.00  0.00     0.031 C 
ATOM     41  C   UNL A   1      40.308  25.370  27.916  1.00  0.00     0.029 A 
ATOM     42  N   UNL A   1      41.708  26.926  28.701  1.00  0.00    -0.354 N 
ATOM     43  C   UNL A   1      45.910  26.090  29.211  1.00  0.00     0.074 A 
ATOM     44  C   UNL A   1      46.221  24.733  28.818  1.00  0.00     0.031 C 
ATOM     45  C   UNL A   1      39.581  26.465  28.190  1.00  0.00     0.029 A 
ATOM     46  C   UNL A   1      40.461  27.502  28.719  1.00  0.00     0.049 A 
ATOM     47  H   UNL A   1      42.521  27.391  29.006  1.00  0.00     0.167 HD
ATOM     48  C   UNL A   1      46.819  26.975  29.686  1.00  0.00     0.037 A 
ATOM     49  C   UNL A   1      40.072  28.728  29.115  1.00  0.00     0.037 A 
ATOM     50  C   UNL A   1      46.513  28.333  30.047  1.00  0.00     0.049 A 
ATOM     51  C   UNL A   1      41.099  29.694  29.636  1.00  0.00     0.074 A 
ATOM     52  C   UNL A   1      47.378  29.331  30.461  1.00  0.00     0.029 A 
ATOM     53  N   UNL A   1      45.240  28.884  30.039  1.00  0.00    -0.354 N 
ATOM     54  N   UNL A   1      42.392  29.530  29.776  1.00  0.00    -0.248 NA
ATOM     55  C   UNL A   1      40.612  31.017  30.051  1.00  0.00     0.031 C 
ATOM     56  C   UNL A   1      46.622  30.473  30.746  1.00  0.00     0.029 A 
ATOM     57  C   UNL A   1      45.291  30.201  30.466  1.00  0.00     0.049 A 
ATOM     58  H   UNL A   1      44.421  28.409  29.770  1.00  0.00     0.167 HD
ATOM     59  C   UNL A   1      42.878  30.734  30.267  1.00  0.00     0.074 A 
ATOM     60  C   UNL A   1      41.741  31.624  30.393  1.00  0.00     0.031 C 
ATOM     61  C   UNL A   1      44.152  31.074  30.583  1.00  0.00     0.037 A 
BRANCH  48  62
ATOM     62  C   UNL A   1      48.231  26.488  29.839  1.00  0.00     0.057 A 
ATOM     63  C   UNL A   1      49.182  26.643  28.822  1.00  0.00     0.134 A 
ATOM     64  C   UNL A   1      48.645  25.860  31.020  1.00  0.00     0.134 A 
ATOM     65  F   UNL A   1      48.847  27.224  27.660  1.00  0.00    -0.206 F 
ATOM     66  C   UNL A   1      50.484  26.157  28.959  1.00  0.00     0.040 A 
ATOM     67  C   UNL A   1      49.952  25.396  31.180  1.00  0.00     0.040 A 
ATOM     68  F   UNL A   1      47.787  25.684  32.037  1.00  0.00    -0.206 F 
ATOM     69  C   UNL A   1      50.872  25.535  30.142  1.00  0.00     0.006 A 
ENDBRANCH  48  62
BRANCH  49  70
ATOM     70  C   UNL A   1      38.648  29.128  28.994  1.00  0.00     0.057 A 
ATOM     71  C   UNL A   1      37.787  29.051  30.095  1.00  0.00     0.134 A 
ATOM     72  C   UNL A   1      38.115  29.601  27.791  1.00  0.00     0.134 A 
ATOM     73  F   UNL A   1      38.236  28.588  31.271  1.00  0.00    -0.206 F 
ATOM     74  C   UNL A   1      36.444  29.418  30.001  1.00  0.00     0.040 A 
ATOM     75  C   UNL A   1      36.779  29.992  27.687  1.00  0.00     0.040 A 
ATOM     76  F   UNL A   1      38.890  29.705  26.700  1.00  0.00    -0.206 F 
ATOM     77  C   UNL A   1      35.938  29.897  28.795  1.00  0.00     0.006 A 
ENDBRANCH  49  70
BRANCH  61  78
ATOM     78  C   UNL A   1      44.389  32.475  31.065  1.00  0.00     0.057 A 
ATOM     79  C   UNL A   1      44.636  33.531  30.178  1.00  0.00     0.134 A 
ATOM     80  C   UNL A   1      44.329  32.777  32.431  1.00  0.00     0.134 A 
ATOM     81  F   UNL A   1      44.720  33.304  28.858  1.00  0.00    -0.206 F 
ATOM     82  C   UNL A   1      44.834  34.834  30.634  1.00  0.00     0.040 A 
ATOM     83  C   UNL A   1      44.499  34.080  32.898  1.00  0.00     0.040 A 
ATOM     84  F   UNL A   1      44.088  31.812  33.332  1.00  0.00    -0.206 F 
ATOM     85  C   UNL A   1      44.758  35.113  31.999  1.00  0.00     0.006 A 
ENDBRANCH  61  78
ENDBRANCH  35  36
ENDBRANCH  27  30
ENDBRANCH  25  26
ENDBRANCH  24  25
ENDBRANCH   1  24
TORSDOF 13
ENDMDL
