MODEL 1
REMARK VINA RESULT:     -11.4      0.000      0.000
REMARK SMILES COc1ccc([C@H]2C[NH2+]C[C@@H]2C(=O)NCCCCNC(=O)c2ccc(-c3c4nc(c(-c5c(F)cccc5F)c5ccc([nH]5)c(-c5c(F)cccc5F)c5nc(c(-c6c(F)cccc6F)c6ccc3[nH]6)C=C5)C=C4)cc2)cc1
REMARK SMILES IDX 16 1 15 2 14 3 12 4 13 5 11 7 7 8 8 9 9 10 10 11 6 14 3 15
REMARK SMILES IDX 4 16 77 17 5 18 76 19 2 20 1 21 17 22 18 23 19 24 20 25
REMARK SMILES IDX 21 27 22 28 23 29 75 30 24 31 74 32 25 33 26 34 27 35 68 36
REMARK SMILES IDX 28 37 73 38 67 39 69 40 29 41 72 42 66 43 65 44 30 46 56 47
REMARK SMILES IDX 39 48 55 49 40 50 43 51 54 52 70 53 41 54 42 55 53 57 71 58
REMARK SMILES IDX 44 59 31 60 32 61 37 62 33 63 34 64 36 65 38 66 35 67 57 68
REMARK SMILES IDX 58 69 63 70 59 71 60 72 62 73 64 74 61 75 45 76 46 77 51 78
REMARK SMILES IDX 47 79 48 80 50 81 52 82 49 83
REMARK H PARENT 14 6 9 12 9 13 19 26 69 45 43 56
REMARK Flexibility Score: inf
ROOT
ATOM      1  C   UNL A   1      36.918  22.682  24.287  1.00  0.00     0.023 C 
ENDROOT
BRANCH   1   2
ATOM      2  C   UNL A   1      36.771  23.627  25.471  1.00  0.00     0.116 C 
BRANCH   2   3
ATOM      3  N   UNL A   1      35.562  24.421  25.452  1.00  0.00    -0.356 N 
ATOM      4  C   UNL A   1      34.261  24.078  25.637  1.00  0.00     0.229 C 
ATOM      5  O   UNL A   1      33.455  25.015  25.674  1.00  0.00    -0.275 OA
ATOM      6  H   UNL A   1      35.708  25.378  25.274  1.00  0.00     0.163 HD
BRANCH   4   7
ATOM      7  C   UNL A   1      33.747  22.646  25.811  1.00  0.00     0.146 C 
ATOM      8  C   UNL A   1      33.013  22.057  24.599  1.00  0.00     0.092 C 
ATOM      9  C   UNL A   1      31.538  22.119  25.021  1.00  0.00     0.269 C 
ATOM     10  N   UNL A   1      31.508  21.996  26.488  1.00  0.00    -0.345 N 
ATOM     11  C   UNL A   1      32.816  22.448  26.998  1.00  0.00     0.274 C 
ATOM     12  H   UNL A   1      31.349  21.024  26.753  1.00  0.00     0.346 HD
ATOM     13  H   UNL A   1      30.755  22.561  26.881  1.00  0.00     0.346 HD
BRANCH   8  14
ATOM     14  C   UNL A   1      33.292  20.595  24.242  1.00  0.00    -0.038 A 
ATOM     15  C   UNL A   1      33.418  17.795  23.915  1.00  0.00     0.118 A 
ATOM     16  C   UNL A   1      32.396  18.525  23.313  1.00  0.00     0.047 A 
ATOM     17  C   UNL A   1      34.423  18.469  24.602  1.00  0.00     0.047 A 
ATOM     18  C   UNL A   1      32.335  19.912  23.468  1.00  0.00     0.008 A 
ATOM     19  C   UNL A   1      34.359  19.856  24.771  1.00  0.00     0.008 A 
BRANCH  15  20
ATOM     20  O   UNL A   1      33.340  16.437  23.770  1.00  0.00    -0.497 OA
ATOM     21  C   UNL A   1      33.039  15.721  24.963  1.00  0.00     0.278 C 
ENDBRANCH  15  20
ENDBRANCH   8  14
ENDBRANCH   4   7
ENDBRANCH   2   3
ENDBRANCH   1   2
BRANCH   1  22
ATOM     22  C   UNL A   1      37.441  21.291  24.615  1.00  0.00     0.023 C 
BRANCH  22  23
ATOM     23  C   UNL A   1      38.534  21.236  25.673  1.00  0.00     0.116 C 
BRANCH  23  24
ATOM     24  N   UNL A   1      39.390  20.060  25.577  1.00  0.00    -0.352 N 
ATOM     25  C   UNL A   1      40.709  19.915  25.950  1.00  0.00     0.251 C 
ATOM     26  H   UNL A   1      38.968  19.258  25.194  1.00  0.00     0.163 HD
ATOM     27  O   UNL A   1      41.310  18.872  25.746  1.00  0.00    -0.269 OA
BRANCH  25  28
ATOM     28  C   UNL A   1      41.401  21.067  26.562  1.00  0.00     0.039 A 
ATOM     29  C   UNL A   1      41.979  22.027  25.728  1.00  0.00     0.014 A 
ATOM     30  C   UNL A   1      41.390  21.238  27.947  1.00  0.00     0.014 A 
ATOM     31  C   UNL A   1      42.459  23.214  26.282  1.00  0.00     0.010 A 
ATOM     32  C   UNL A   1      41.788  22.455  28.485  1.00  0.00     0.010 A 
ATOM     33  C   UNL A   1      42.318  23.459  27.657  1.00  0.00    -0.014 A 
BRANCH  33  34
ATOM     34  C   UNL A   1      42.714  24.751  28.269  1.00  0.00     0.031 A 
ATOM     35  C   UNL A   1      41.675  25.812  28.494  1.00  0.00     0.074 A 
ATOM     36  C   UNL A   1      44.013  25.008  28.524  1.00  0.00     0.049 A 
ATOM     37  N   UNL A   1      41.830  27.058  28.858  1.00  0.00    -0.248 NA
ATOM     38  C   UNL A   1      40.278  25.429  28.233  1.00  0.00     0.031 C 
ATOM     39  C   UNL A   1      45.123  24.077  28.309  1.00  0.00     0.029 A 
ATOM     40  N   UNL A   1      44.619  26.141  29.003  1.00  0.00    -0.354 N 
ATOM     41  C   UNL A   1      40.558  27.614  28.837  1.00  0.00     0.074 A 
ATOM     42  C   UNL A   1      39.650  26.585  28.381  1.00  0.00     0.031 C 
ATOM     43  C   UNL A   1      46.271  24.672  28.672  1.00  0.00     0.029 A 
ATOM     44  C   UNL A   1      45.986  26.036  29.104  1.00  0.00     0.049 A 
ATOM     45  H   UNL A   1      44.122  26.954  29.252  1.00  0.00     0.167 HD
ATOM     46  C   UNL A   1      40.176  28.865  29.188  1.00  0.00     0.037 A 
ATOM     47  C   UNL A   1      46.903  26.943  29.491  1.00  0.00     0.037 A 
ATOM     48  C   UNL A   1      41.073  29.872  29.687  1.00  0.00     0.049 A 
ATOM     49  C   UNL A   1      46.453  28.319  29.895  1.00  0.00     0.074 A 
ATOM     50  C   UNL A   1      40.776  31.148  30.129  1.00  0.00     0.029 A 
ATOM     51  N   UNL A   1      42.443  29.709  29.819  1.00  0.00    -0.354 N 
ATOM     52  N   UNL A   1      45.241  28.818  29.916  1.00  0.00    -0.248 NA
ATOM     53  C   UNL A   1      47.496  29.259  30.330  1.00  0.00     0.031 C 
ATOM     54  C   UNL A   1      41.972  31.769  30.504  1.00  0.00     0.029 A 
ATOM     55  C   UNL A   1      43.008  30.864  30.329  1.00  0.00     0.049 A 
ATOM     56  H   UNL A   1      42.941  28.892  29.585  1.00  0.00     0.167 HD
ATOM     57  C   UNL A   1      45.371  30.114  30.397  1.00  0.00     0.074 A 
ATOM     58  C   UNL A   1      46.780  30.325  30.657  1.00  0.00     0.031 C 
ATOM     59  C   UNL A   1      44.410  31.045  30.605  1.00  0.00     0.037 A 
BRANCH  46  60
ATOM     60  C   UNL A   1      38.722  29.203  29.052  1.00  0.00     0.057 A 
ATOM     61  C   UNL A   1      37.845  29.142  30.142  1.00  0.00     0.134 A 
ATOM     62  C   UNL A   1      38.195  29.609  27.820  1.00  0.00     0.134 A 
ATOM     63  F   UNL A   1      38.285  28.744  31.346  1.00  0.00    -0.206 F 
ATOM     64  C   UNL A   1      36.490  29.444  30.006  1.00  0.00     0.040 A 
ATOM     65  C   UNL A   1      36.846  29.939  27.677  1.00  0.00     0.040 A 
ATOM     66  F   UNL A   1      38.981  29.692  26.735  1.00  0.00    -0.206 F 
ATOM     67  C   UNL A   1      35.988  29.849  28.771  1.00  0.00     0.006 A 
ENDBRANCH  46  60
BRANCH  47  68
ATOM     68  C   UNL A   1      48.340  26.573  29.542  1.00  0.00     0.057 A 
ATOM     69  C   UNL A   1      48.878  25.944  30.671  1.00  0.00     0.134 A 
ATOM     70  C   UNL A   1      49.208  26.843  28.478  1.00  0.00     0.134 A 
ATOM     71  F   UNL A   1      48.099  25.677  31.729  1.00  0.00    -0.206 F 
ATOM     72  C   UNL A   1      50.231  25.611  30.747  1.00  0.00     0.040 A 
ATOM     73  C   UNL A   1      50.559  26.496  28.532  1.00  0.00     0.040 A 
ATOM     74  F   UNL A   1      48.751  27.437  27.365  1.00  0.00    -0.206 F 
ATOM     75  C   UNL A   1      51.075  25.884  29.673  1.00  0.00     0.006 A 
ENDBRANCH  47  68
BRANCH  59  76
ATOM     76  C   UNL A   1      44.836  32.358  31.188  1.00  0.00     0.057 A 
ATOM     77  C   UNL A   1      45.185  33.447  30.381  1.00  0.00     0.134 A 
ATOM     78  C   UNL A   1      44.835  32.550  32.575  1.00  0.00     0.134 A 
ATOM     79  F   UNL A   1      45.216  33.320  29.046  1.00  0.00    -0.206 F 
ATOM     80  C   UNL A   1      45.529  34.681  30.935  1.00  0.00     0.040 A 
ATOM     81  C   UNL A   1      45.157  33.784  33.140  1.00  0.00     0.040 A 
ATOM     82  F   UNL A   1      44.504  31.547  33.402  1.00  0.00    -0.206 F 
ATOM     83  C   UNL A   1      45.507  34.854  32.318  1.00  0.00     0.006 A 
ENDBRANCH  59  76
ENDBRANCH  33  34
ENDBRANCH  25  28
ENDBRANCH  23  24
ENDBRANCH  22  23
ENDBRANCH   1  22
TORSDOF 13
ENDMDL
MODEL 2
REMARK VINA RESULT:     -11.3      0.495      6.409
REMARK SMILES COc1ccc([C@H]2C[NH2+]C[C@@H]2C(=O)NCCCCNC(=O)c2ccc(-c3c4nc(c(-c5c(F)cccc5F)c5ccc([nH]5)c(-c5c(F)cccc5F)c5nc(c(-c6c(F)cccc6F)c6ccc3[nH]6)C=C5)C=C4)cc2)cc1
REMARK SMILES IDX 16 1 15 2 14 3 12 4 13 5 11 7 7 8 8 9 9 10 10 11 6 14 3 15
REMARK SMILES IDX 4 16 77 17 5 18 76 19 2 20 1 21 17 22 18 23 19 24 20 25
REMARK SMILES IDX 21 27 22 28 23 29 75 30 24 31 74 32 25 33 26 34 27 35 68 36
REMARK SMILES IDX 28 37 73 38 67 39 69 40 29 41 72 42 66 43 65 44 30 46 56 47
REMARK SMILES IDX 39 48 55 49 40 50 43 51 54 52 70 53 41 54 42 55 53 57 71 58
REMARK SMILES IDX 44 59 31 60 32 61 37 62 33 63 34 64 36 65 38 66 35 67 57 68
REMARK SMILES IDX 58 69 63 70 59 71 60 72 62 73 64 74 61 75 45 76 46 77 51 78
REMARK SMILES IDX 47 79 48 80 50 81 52 82 49 83
REMARK H PARENT 14 6 9 12 9 13 19 26 69 45 43 56
REMARK Flexibility Score: inf
ROOT
ATOM      1  C   UNL A   1      37.480  21.905  24.567  1.00  0.00     0.023 C 
ENDROOT
BRANCH   1   2
ATOM      2  C   UNL A   1      37.351  22.884  25.724  1.00  0.00     0.116 C 
BRANCH   2   3
ATOM      3  N   UNL A   1      36.224  23.785  25.618  1.00  0.00    -0.356 N 
ATOM      4  C   UNL A   1      34.888  23.568  25.732  1.00  0.00     0.229 C 
ATOM      5  O   UNL A   1      34.172  24.576  25.701  1.00  0.00    -0.275 OA
ATOM      6  H   UNL A   1      36.469  24.720  25.428  1.00  0.00     0.163 HD
BRANCH   4   7
ATOM      7  C   UNL A   1      34.234  22.195  25.905  1.00  0.00     0.146 C 
ATOM      8  C   UNL A   1      33.452  21.678  24.689  1.00  0.00     0.092 C 
ATOM      9  C   UNL A   1      31.989  21.887  25.101  1.00  0.00     0.269 C 
ATOM     10  N   UNL A   1      31.937  21.771  26.568  1.00  0.00    -0.345 N 
ATOM     11  C   UNL A   1      33.280  22.093  27.086  1.00  0.00     0.274 C 
ATOM     12  H   UNL A   1      31.680  20.821  26.834  1.00  0.00     0.346 HD
ATOM     13  H   UNL A   1      31.241  22.409  26.955  1.00  0.00     0.346 HD
BRANCH   8  14
ATOM     14  C   UNL A   1      33.588  20.195  24.336  1.00  0.00    -0.038 A 
ATOM     15  C   UNL A   1      33.496  17.387  24.073  1.00  0.00     0.118 A 
ATOM     16  C   UNL A   1      32.443  18.169  23.606  1.00  0.00     0.047 A 
ATOM     17  C   UNL A   1      34.630  18.009  24.588  1.00  0.00     0.047 A 
ATOM     18  C   UNL A   1      32.489  19.559  23.730  1.00  0.00     0.008 A 
ATOM     19  C   UNL A   1      34.675  19.400  24.725  1.00  0.00     0.008 A 
BRANCH  15  20
ATOM     20  O   UNL A   1      33.316  16.034  23.980  1.00  0.00    -0.497 OA
ATOM     21  C   UNL A   1      32.987  15.385  25.204  1.00  0.00     0.278 C 
ENDBRANCH  15  20
ENDBRANCH   8  14
ENDBRANCH   4   7
ENDBRANCH   2   3
ENDBRANCH   1   2
BRANCH   1  22
ATOM     22  C   UNL A   1      38.023  20.529  24.926  1.00  0.00     0.023 C 
BRANCH  22  23
ATOM     23  C   UNL A   1      39.067  20.506  26.035  1.00  0.00     0.116 C 
BRANCH  23  24
ATOM     24  N   UNL A   1      40.088  19.481  25.864  1.00  0.00    -0.352 N 
ATOM     25  C   UNL A   1      41.448  19.570  26.065  1.00  0.00     0.251 C 
ATOM     26  H   UNL A   1      39.761  18.602  25.564  1.00  0.00     0.163 HD
ATOM     27  O   UNL A   1      42.185  18.628  25.815  1.00  0.00    -0.269 OA
BRANCH  25  28
ATOM     28  C   UNL A   1      42.010  20.849  26.544  1.00  0.00     0.039 A 
ATOM     29  C   UNL A   1      42.434  21.793  25.607  1.00  0.00     0.014 A 
ATOM     30  C   UNL A   1      42.022  21.142  27.910  1.00  0.00     0.014 A 
ATOM     31  C   UNL A   1      42.779  23.076  26.036  1.00  0.00     0.010 A 
ATOM     32  C   UNL A   1      42.281  22.442  28.323  1.00  0.00     0.010 A 
ATOM     33  C   UNL A   1      42.652  23.424  27.390  1.00  0.00    -0.014 A 
BRANCH  33  34
ATOM     34  C   UNL A   1      42.903  24.805  27.871  1.00  0.00     0.031 A 
ATOM     35  C   UNL A   1      44.293  25.207  28.275  1.00  0.00     0.074 A 
ATOM     36  C   UNL A   1      41.873  25.658  28.043  1.00  0.00     0.049 A 
ATOM     37  N   UNL A   1      44.700  26.297  28.870  1.00  0.00    -0.248 NA
ATOM     38  C   UNL A   1      45.362  24.231  28.007  1.00  0.00     0.031 C 
ATOM     39  C   UNL A   1      40.471  25.374  27.731  1.00  0.00     0.029 A 
ATOM     40  N   UNL A   1      41.849  26.935  28.544  1.00  0.00    -0.354 N 
ATOM     41  C   UNL A   1      46.061  26.123  29.079  1.00  0.00     0.074 A 
ATOM     42  C   UNL A   1      46.402  24.806  28.589  1.00  0.00     0.031 C 
ATOM     43  C   UNL A   1      39.727  26.451  28.031  1.00  0.00     0.029 A 
ATOM     44  C   UNL A   1      40.590  27.484  28.594  1.00  0.00     0.049 A 
ATOM     45  H   UNL A   1      42.657  27.413  28.840  1.00  0.00     0.167 HD
ATOM     46  C   UNL A   1      46.952  26.992  29.611  1.00  0.00     0.037 A 
ATOM     47  C   UNL A   1      40.180  28.682  29.054  1.00  0.00     0.037 A 
ATOM     48  C   UNL A   1      46.619  28.319  30.055  1.00  0.00     0.049 A 
ATOM     49  C   UNL A   1      41.190  29.637  29.623  1.00  0.00     0.074 A 
ATOM     50  C   UNL A   1      47.461  29.299  30.551  1.00  0.00     0.029 A 
ATOM     51  N   UNL A   1      45.341  28.854  30.044  1.00  0.00    -0.354 N 
ATOM     52  N   UNL A   1      42.484  29.480  29.771  1.00  0.00    -0.248 NA
ATOM     53  C   UNL A   1      40.688  30.938  30.088  1.00  0.00     0.031 C 
ATOM     54  C   UNL A   1      46.686  30.420  30.865  1.00  0.00     0.029 A 
ATOM     55  C   UNL A   1      45.368  30.149  30.531  1.00  0.00     0.049 A 
ATOM     56  H   UNL A   1      44.533  28.383  29.735  1.00  0.00     0.167 HD
ATOM     57  C   UNL A   1      42.953  30.669  30.312  1.00  0.00     0.074 A 
ATOM     58  C   UNL A   1      41.807  31.541  30.465  1.00  0.00     0.031 C 
ATOM     59  C   UNL A   1      44.219  31.009  30.651  1.00  0.00     0.037 A 
BRANCH  46  60
ATOM     60  C   UNL A   1      48.373  26.531  29.732  1.00  0.00     0.057 A 
ATOM     61  C   UNL A   1      49.321  26.793  28.734  1.00  0.00     0.134 A 
ATOM     62  C   UNL A   1      48.804  25.829  30.864  1.00  0.00     0.134 A 
ATOM     63  F   UNL A   1      48.968  27.447  27.617  1.00  0.00    -0.206 F 
ATOM     64  C   UNL A   1      50.640  26.350  28.845  1.00  0.00     0.040 A 
ATOM     65  C   UNL A   1      50.127  25.403  30.998  1.00  0.00     0.040 A 
ATOM     66  F   UNL A   1      47.948  25.547  31.859  1.00  0.00    -0.206 F 
ATOM     67  C   UNL A   1      51.046  25.656  29.982  1.00  0.00     0.006 A 
ENDBRANCH  46  60
BRANCH  47  68
ATOM     68  C   UNL A   1      38.746  29.060  28.972  1.00  0.00     0.057 A 
ATOM     69  C   UNL A   1      38.204  29.558  27.782  1.00  0.00     0.134 A 
ATOM     70  C   UNL A   1      37.890  28.941  30.072  1.00  0.00     0.134 A 
ATOM     71  F   UNL A   1      38.980  29.712  26.699  1.00  0.00    -0.206 F 
ATOM     72  C   UNL A   1      36.865  29.942  27.693  1.00  0.00     0.040 A 
ATOM     73  C   UNL A   1      36.543  29.300  29.991  1.00  0.00     0.040 A 
ATOM     74  F   UNL A   1      38.347  28.463  31.239  1.00  0.00    -0.206 F 
ATOM     75  C   UNL A   1      36.029  29.809  28.799  1.00  0.00     0.006 A 
ENDBRANCH  47  68
BRANCH  59  76
ATOM     76  C   UNL A   1      44.445  32.395  31.172  1.00  0.00     0.057 A 
ATOM     77  C   UNL A   1      44.686  33.476  30.316  1.00  0.00     0.134 A 
ATOM     78  C   UNL A   1      44.357  32.660  32.545  1.00  0.00     0.134 A 
ATOM     79  F   UNL A   1      44.793  33.284  28.993  1.00  0.00    -0.206 F 
ATOM     80  C   UNL A   1      44.842  34.772  30.809  1.00  0.00     0.040 A 
ATOM     81  C   UNL A   1      44.491  33.954  33.047  1.00  0.00     0.040 A 
ATOM     82  F   UNL A   1      44.121  31.667  33.416  1.00  0.00    -0.206 F 
ATOM     83  C   UNL A   1      44.736  35.015  32.178  1.00  0.00     0.006 A 
ENDBRANCH  59  76
ENDBRANCH  33  34
ENDBRANCH  25  28
ENDBRANCH  23  24
ENDBRANCH  22  23
ENDBRANCH   1  22
TORSDOF 13
ENDMDL
MODEL 3
REMARK VINA RESULT:     -11.3      0.587      6.440
REMARK SMILES COc1ccc([C@H]2C[NH2+]C[C@@H]2C(=O)NCCCCNC(=O)c2ccc(-c3c4nc(c(-c5c(F)cccc5F)c5ccc([nH]5)c(-c5c(F)cccc5F)c5nc(c(-c6c(F)cccc6F)c6ccc3[nH]6)C=C5)C=C4)cc2)cc1
REMARK SMILES IDX 16 1 15 2 14 3 12 4 13 5 11 7 7 8 8 9 9 10 10 11 6 14 3 15
REMARK SMILES IDX 4 16 77 17 5 18 76 19 2 20 1 21 17 22 18 23 19 24 20 25
REMARK SMILES IDX 21 27 22 28 23 29 75 30 24 31 74 32 25 33 26 34 27 35 68 36
REMARK SMILES IDX 28 37 73 38 67 39 69 40 29 41 72 42 66 43 65 44 30 46 56 47
REMARK SMILES IDX 39 48 55 49 40 50 43 51 54 52 70 53 41 54 42 55 53 57 71 58
REMARK SMILES IDX 44 59 31 60 32 61 37 62 33 63 34 64 36 65 38 66 35 67 57 68
REMARK SMILES IDX 58 69 63 70 59 71 60 72 62 73 64 74 61 75 45 76 46 77 51 78
REMARK SMILES IDX 47 79 48 80 50 81 52 82 49 83
REMARK H PARENT 14 6 9 12 9 13 19 26 69 45 43 56
REMARK Flexibility Score: inf
ROOT
ATOM      1  C   UNL A   1      37.065  21.730  24.366  1.00  0.00     0.023 C 
ENDROOT
BRANCH   1   2
ATOM      2  C   UNL A   1      36.809  22.756  25.459  1.00  0.00     0.116 C 
BRANCH   2   3
ATOM      3  N   UNL A   1      36.017  23.891  25.037  1.00  0.00    -0.356 N 
ATOM      4  C   UNL A   1      34.675  24.045  24.894  1.00  0.00     0.229 C 
ATOM      5  O   UNL A   1      34.288  25.187  24.621  1.00  0.00    -0.275 OA
ATOM      6  H   UNL A   1      36.543  24.693  24.815  1.00  0.00     0.163 HD
BRANCH   4   7
ATOM      7  C   UNL A   1      33.642  22.927  25.058  1.00  0.00     0.146 C 
ATOM      8  C   UNL A   1      33.271  22.176  23.772  1.00  0.00     0.092 C 
ATOM      9  C   UNL A   1      31.887  22.741  23.425  1.00  0.00     0.269 C 
ATOM     10  N   UNL A   1      31.249  23.118  24.697  1.00  0.00    -0.345 N 
ATOM     11  C   UNL A   1      32.323  23.370  25.676  1.00  0.00     0.274 C 
ATOM     12  H   UNL A   1      30.650  22.360  25.025  1.00  0.00     0.346 HD
ATOM     13  H   UNL A   1      30.671  23.951  24.576  1.00  0.00     0.346 HD
BRANCH   8  14
ATOM     14  C   UNL A   1      33.102  20.657  23.860  1.00  0.00    -0.038 A 
ATOM     15  C   UNL A   1      33.245  17.841  23.767  1.00  0.00     0.118 A 
ATOM     16  C   UNL A   1      34.040  18.553  24.662  1.00  0.00     0.047 A 
ATOM     17  C   UNL A   1      32.318  18.524  22.986  1.00  0.00     0.047 A 
ATOM     18  C   UNL A   1      33.967  19.947  24.714  1.00  0.00     0.008 A 
ATOM     19  C   UNL A   1      32.250  19.921  23.026  1.00  0.00     0.008 A 
BRANCH  15  20
ATOM     20  O   UNL A   1      33.453  16.489  23.738  1.00  0.00    -0.497 OA
ATOM     21  C   UNL A   1      33.217  15.817  24.971  1.00  0.00     0.278 C 
ENDBRANCH  15  20
ENDBRANCH   8  14
ENDBRANCH   4   7
ENDBRANCH   2   3
ENDBRANCH   1   2
BRANCH   1  22
ATOM     22  C   UNL A   1      37.763  20.453  24.810  1.00  0.00     0.023 C 
BRANCH  22  23
ATOM     23  C   UNL A   1      38.922  20.644  25.779  1.00  0.00     0.116 C 
BRANCH  23  24
ATOM     24  N   UNL A   1      39.894  19.559  25.759  1.00  0.00    -0.352 N 
ATOM     25  C   UNL A   1      41.226  19.582  26.112  1.00  0.00     0.251 C 
ATOM     26  H   UNL A   1      39.552  18.689  25.453  1.00  0.00     0.163 HD
ATOM     27  O   UNL A   1      41.930  18.593  25.979  1.00  0.00    -0.269 OA
BRANCH  25  28
ATOM     28  C   UNL A   1      41.804  20.846  26.611  1.00  0.00     0.039 A 
ATOM     29  C   UNL A   1      42.317  21.763  25.691  1.00  0.00     0.014 A 
ATOM     30  C   UNL A   1      41.746  21.156  27.971  1.00  0.00     0.014 A 
ATOM     31  C   UNL A   1      42.681  23.038  26.126  1.00  0.00     0.010 A 
ATOM     32  C   UNL A   1      42.027  22.450  28.386  1.00  0.00     0.010 A 
ATOM     33  C   UNL A   1      42.488  23.408  27.467  1.00  0.00    -0.014 A 
BRANCH  33  34
ATOM     34  C   UNL A   1      42.759  24.784  27.947  1.00  0.00     0.031 A 
ATOM     35  C   UNL A   1      44.151  25.160  28.370  1.00  0.00     0.074 A 
ATOM     36  C   UNL A   1      41.744  25.658  28.103  1.00  0.00     0.049 A 
ATOM     37  N   UNL A   1      44.571  26.243  28.968  1.00  0.00    -0.248 NA
ATOM     38  C   UNL A   1      45.204  24.161  28.120  1.00  0.00     0.031 C 
ATOM     39  C   UNL A   1      40.341  25.401  27.771  1.00  0.00     0.029 A 
ATOM     40  N   UNL A   1      41.738  26.937  28.600  1.00  0.00    -0.354 N 
ATOM     41  C   UNL A   1      45.926  26.043  29.196  1.00  0.00     0.074 A 
ATOM     42  C   UNL A   1      46.248  24.718  28.715  1.00  0.00     0.031 C 
ATOM     43  C   UNL A   1      39.615  26.494  28.058  1.00  0.00     0.029 A 
ATOM     44  C   UNL A   1      40.490  27.511  28.630  1.00  0.00     0.049 A 
ATOM     45  H   UNL A   1      42.552  27.400  28.906  1.00  0.00     0.167 HD
ATOM     46  C   UNL A   1      46.827  26.896  29.739  1.00  0.00     0.037 A 
ATOM     47  C   UNL A   1      40.097  28.719  29.081  1.00  0.00     0.037 A 
ATOM     48  C   UNL A   1      46.514  28.230  30.174  1.00  0.00     0.049 A 
ATOM     49  C   UNL A   1      41.119  29.655  29.661  1.00  0.00     0.074 A 
ATOM     50  C   UNL A   1      47.367  29.194  30.679  1.00  0.00     0.029 A 
ATOM     51  N   UNL A   1      45.247  28.791  30.144  1.00  0.00    -0.354 N 
ATOM     52  N   UNL A   1      42.407  29.473  29.828  1.00  0.00    -0.248 NA
ATOM     53  C   UNL A   1      40.636  30.967  30.116  1.00  0.00     0.031 C 
ATOM     54  C   UNL A   1      46.611  30.331  30.980  1.00  0.00     0.029 A 
ATOM     55  C   UNL A   1      45.292  30.086  30.628  1.00  0.00     0.049 A 
ATOM     56  H   UNL A   1      44.434  28.335  29.824  1.00  0.00     0.167 HD
ATOM     57  C   UNL A   1      42.892  30.653  30.373  1.00  0.00     0.074 A 
ATOM     58  C   UNL A   1      41.762  31.549  30.508  1.00  0.00     0.031 C 
ATOM     59  C   UNL A   1      44.160  30.969  30.729  1.00  0.00     0.037 A 
BRANCH  46  60
ATOM     60  C   UNL A   1      48.236  26.406  29.881  1.00  0.00     0.057 A 
ATOM     61  C   UNL A   1      49.181  26.574  28.861  1.00  0.00     0.134 A 
ATOM     62  C   UNL A   1      48.659  25.774  31.056  1.00  0.00     0.134 A 
ATOM     63  F   UNL A   1      48.835  27.158  27.703  1.00  0.00    -0.206 F 
ATOM     64  C   UNL A   1      50.489  26.104  28.992  1.00  0.00     0.040 A 
ATOM     65  C   UNL A   1      49.971  25.323  31.210  1.00  0.00     0.040 A 
ATOM     66  F   UNL A   1      47.805  25.584  32.074  1.00  0.00    -0.206 F 
ATOM     67  C   UNL A   1      50.888  25.481  30.172  1.00  0.00     0.006 A 
ENDBRANCH  46  60
BRANCH  47  68
ATOM     68  C   UNL A   1      38.673  29.124  28.978  1.00  0.00     0.057 A 
ATOM     69  C   UNL A   1      37.820  29.032  30.084  1.00  0.00     0.134 A 
ATOM     70  C   UNL A   1      38.129  29.603  27.780  1.00  0.00     0.134 A 
ATOM     71  F   UNL A   1      38.280  28.564  31.253  1.00  0.00    -0.206 F 
ATOM     72  C   UNL A   1      36.472  29.385  29.998  1.00  0.00     0.040 A 
ATOM     73  C   UNL A   1      36.788  29.980  27.687  1.00  0.00     0.040 A 
ATOM     74  F   UNL A   1      38.897  29.721  26.687  1.00  0.00    -0.206 F 
ATOM     75  C   UNL A   1      35.954  29.864  28.798  1.00  0.00     0.006 A 
ENDBRANCH  47  68
BRANCH  59  76
ATOM     76  C   UNL A   1      44.406  32.352  31.249  1.00  0.00     0.057 A 
ATOM     77  C   UNL A   1      44.381  32.643  32.618  1.00  0.00     0.134 A 
ATOM     78  C   UNL A   1      44.735  33.391  30.369  1.00  0.00     0.134 A 
ATOM     79  F   UNL A   1      44.061  31.692  33.508  1.00  0.00    -0.206 F 
ATOM     80  C   UNL A   1      44.665  33.924  33.094  1.00  0.00     0.040 A 
ATOM     81  C   UNL A   1      45.041  34.670  30.835  1.00  0.00     0.040 A 
ATOM     82  F   UNL A   1      44.783  33.175  29.046  1.00  0.00    -0.206 F 
ATOM     83  C   UNL A   1      45.004  34.939  32.201  1.00  0.00     0.006 A 
ENDBRANCH  59  76
ENDBRANCH  33  34
ENDBRANCH  25  28
ENDBRANCH  23  24
ENDBRANCH  22  23
ENDBRANCH   1  22
TORSDOF 13
ENDMDL
