MODEL 1
REMARK VINA RESULT:     -12.3      0.000      0.000
REMARK SMILES COc1ccc(C[N@@H+]2C[C@@H](C(=O)NCCCCNC(=O)c3ccc(-c4c5nc(c(-c6c(F)cccc6F)c6ccc([nH]6)c(-c6c(F)cccc6F)c6nc(c(-c7c(F)cccc7F)c7ccc4[nH]7)C=C6)C=C5)cc3)[C@H](c3ccccc3OC)C2)c(OC)c1
REMARK SMILES IDX 15 1 14 2 13 3 11 4 12 5 10 7 8 8 9 9 84 10 75 12 7 13 6 14
REMARK SMILES IDX 3 15 4 16 88 17 5 18 85 19 2 20 1 21 86 22 87 23 76 24 77 25
REMARK SMILES IDX 81 26 78 27 80 28 79 29 82 30 83 31 16 32 17 33 18 34 19 35
REMARK SMILES IDX 20 37 21 38 22 39 74 40 23 41 73 42 24 43 25 44 26 45 67 46
REMARK SMILES IDX 27 47 72 48 66 49 68 50 28 51 71 52 65 53 64 54 29 56 55 57
REMARK SMILES IDX 38 58 54 59 39 60 42 61 53 62 69 63 40 64 41 65 52 67 70 68
REMARK SMILES IDX 43 69 30 70 31 71 36 72 32 73 33 74 35 75 37 76 34 77 56 78
REMARK SMILES IDX 57 79 62 80 58 81 59 82 61 83 63 84 60 85 44 86 45 87 50 88
REMARK SMILES IDX 46 89 47 90 49 91 51 92 48 93
REMARK H PARENT 13 6 8 11 18 36 68 55 42 66
REMARK Flexibility Score: inf
ROOT
ATOM      1  C   UNL A   1      37.311  21.005  24.830  1.00  0.00     0.023 C 
ENDROOT
BRANCH   1   2
ATOM      2  C   UNL A   1      35.878  20.750  25.288  1.00  0.00     0.116 C 
BRANCH   2   3
ATOM      3  N   UNL A   1      35.548  21.452  26.516  1.00  0.00    -0.356 N 
ATOM      4  C   UNL A   1      34.465  22.251  26.787  1.00  0.00     0.229 C 
ATOM      5  O   UNL A   1      34.286  22.596  27.956  1.00  0.00    -0.275 OA
ATOM      6  H   UNL A   1      36.186  21.339  27.256  1.00  0.00     0.163 HD
BRANCH   4   7
ATOM      7  C   UNL A   1      33.625  22.785  25.643  1.00  0.00     0.146 C 
ATOM      8  N   UNL A   1      32.207  24.652  25.263  1.00  0.00    -0.330 N 
ATOM      9  C   UNL A   1      33.340  24.230  26.063  1.00  0.00     0.276 C 
ATOM     10  C   UNL A   1      31.356  23.456  25.160  1.00  0.00     0.272 C 
ATOM     11  H   UNL A   1      31.676  25.401  25.707  1.00  0.00     0.348 HD
ATOM     12  C   UNL A   1      32.226  22.174  25.378  1.00  0.00     0.096 C 
BRANCH   8  13
ATOM     13  C   UNL A   1      32.527  25.408  24.038  1.00  0.00     0.303 C 
BRANCH  13  14
ATOM     14  C   UNL A   1      31.858  26.754  23.796  1.00  0.00     0.048 A 
ATOM     15  C   UNL A   1      30.279  29.059  23.481  1.00  0.00     0.122 A 
ATOM     16  C   UNL A   1      30.368  28.135  22.450  1.00  0.00     0.047 A 
ATOM     17  C   UNL A   1      31.073  28.908  24.614  1.00  0.00     0.093 A 
ATOM     18  C   UNL A   1      31.153  26.992  22.602  1.00  0.00     0.017 A 
ATOM     19  C   UNL A   1      31.913  27.790  24.741  1.00  0.00     0.131 A 
BRANCH  15  20
ATOM     20  O   UNL A   1      29.296  30.003  23.366  1.00  0.00    -0.497 OA
ATOM     21  C   UNL A   1      28.186  29.585  22.581  1.00  0.00     0.278 C 
ENDBRANCH  15  20
BRANCH  19  22
ATOM     22  O   UNL A   1      32.767  27.605  25.797  1.00  0.00    -0.496 OA
ATOM     23  C   UNL A   1      32.369  28.203  27.025  1.00  0.00     0.278 C 
ENDBRANCH  19  22
ENDBRANCH  13  14
ENDBRANCH   8  13
BRANCH  12  24
ATOM     24  C   UNL A   1      32.198  21.133  24.240  1.00  0.00     0.004 A 
ATOM     25  C   UNL A   1      31.831  21.473  22.927  1.00  0.00     0.008 A 
ATOM     26  C   UNL A   1      32.507  19.775  24.443  1.00  0.00     0.122 A 
ATOM     27  C   UNL A   1      31.880  20.569  21.859  1.00  0.00     0.001 A 
ATOM     28  C   UNL A   1      32.593  18.863  23.373  1.00  0.00     0.047 A 
ATOM     29  C   UNL A   1      32.304  19.270  22.073  1.00  0.00     0.004 A 
BRANCH  26  30
ATOM     30  O   UNL A   1      32.454  19.246  25.706  1.00  0.00    -0.496 OA
ATOM     31  C   UNL A   1      32.644  17.842  25.742  1.00  0.00     0.278 C 
ENDBRANCH  26  30
ENDBRANCH  12  24
ENDBRANCH   4   7
ENDBRANCH   2   3
ENDBRANCH   1   2
BRANCH   1  32
ATOM     32  C   UNL A   1      38.243  19.810  25.014  1.00  0.00     0.023 C 
BRANCH  32  33
ATOM     33  C   UNL A   1      39.464  20.079  25.891  1.00  0.00     0.116 C 
BRANCH  33  34
ATOM     34  N   UNL A   1      40.424  18.983  25.912  1.00  0.00    -0.352 N 
ATOM     35  C   UNL A   1      41.784  19.040  26.119  1.00  0.00     0.251 C 
ATOM     36  H   UNL A   1      40.053  18.085  25.759  1.00  0.00     0.163 HD
ATOM     37  O   UNL A   1      42.482  18.037  26.003  1.00  0.00    -0.269 OA
BRANCH  35  38
ATOM     38  C   UNL A   1      42.404  20.341  26.445  1.00  0.00     0.039 A 
ATOM     39  C   UNL A   1      42.989  21.090  25.423  1.00  0.00     0.014 A 
ATOM     40  C   UNL A   1      42.334  20.847  27.746  1.00  0.00     0.014 A 
ATOM     41  C   UNL A   1      43.424  22.390  25.686  1.00  0.00     0.010 A 
ATOM     42  C   UNL A   1      42.694  22.169  27.986  1.00  0.00     0.010 A 
ATOM     43  C   UNL A   1      43.233  22.956  26.957  1.00  0.00    -0.014 A 
BRANCH  43  44
ATOM     44  C   UNL A   1      43.567  24.378  27.230  1.00  0.00     0.031 A 
ATOM     45  C   UNL A   1      44.995  24.841  27.168  1.00  0.00     0.074 A 
ATOM     46  C   UNL A   1      42.598  25.228  27.621  1.00  0.00     0.049 A 
ATOM     47  N   UNL A   1      45.499  26.009  27.469  1.00  0.00    -0.248 NA
ATOM     48  C   UNL A   1      45.993  23.847  26.742  1.00  0.00     0.031 C 
ATOM     49  C   UNL A   1      41.182  24.889  27.776  1.00  0.00     0.029 A 
ATOM     50  N   UNL A   1      42.662  26.552  27.980  1.00  0.00    -0.354 N 
ATOM     51  C   UNL A   1      46.870  25.887  27.288  1.00  0.00     0.074 A 
ATOM     52  C   UNL A   1      47.125  24.517  26.901  1.00  0.00     0.031 C 
ATOM     53  C   UNL A   1      40.510  25.979  28.181  1.00  0.00     0.029 A 
ATOM     54  C   UNL A   1      41.450  27.081  28.355  1.00  0.00     0.049 A 
ATOM     55  H   UNL A   1      43.496  27.073  27.970  1.00  0.00     0.167 HD
ATOM     56  C   UNL A   1      47.828  26.836  27.412  1.00  0.00     0.037 A 
ATOM     57  C   UNL A   1      41.133  28.311  28.802  1.00  0.00     0.037 A 
ATOM     58  C   UNL A   1      47.567  28.205  27.768  1.00  0.00     0.049 A 
ATOM     59  C   UNL A   1      42.215  29.346  28.935  1.00  0.00     0.074 A 
ATOM     60  C   UNL A   1      48.459  29.262  27.835  1.00  0.00     0.029 A 
ATOM     61  N   UNL A   1      46.325  28.707  28.122  1.00  0.00    -0.354 N 
ATOM     62  N   UNL A   1      43.496  29.240  28.679  1.00  0.00    -0.248 NA
ATOM     63  C   UNL A   1      41.808  30.673  29.419  1.00  0.00     0.031 C 
ATOM     64  C   UNL A   1      47.764  30.392  28.278  1.00  0.00     0.029 A 
ATOM     65  C   UNL A   1      46.431  30.050  28.442  1.00  0.00     0.049 A 
ATOM     66  H   UNL A   1      45.489  28.186  28.144  1.00  0.00     0.167 HD
ATOM     67  C   UNL A   1      44.044  30.486  28.954  1.00  0.00     0.074 A 
ATOM     68  C   UNL A   1      42.954  31.339  29.377  1.00  0.00     0.031 C 
ATOM     69  C   UNL A   1      45.336  30.886  28.865  1.00  0.00     0.037 A 
BRANCH  56  70
ATOM     70  C   UNL A   1      49.248  26.423  27.158  1.00  0.00     0.057 A 
ATOM     71  C   UNL A   1      50.110  26.057  28.200  1.00  0.00     0.134 A 
ATOM     72  C   UNL A   1      49.751  26.361  25.852  1.00  0.00     0.134 A 
ATOM     73  F   UNL A   1      49.694  26.106  29.475  1.00  0.00    -0.206 F 
ATOM     74  C   UNL A   1      51.430  25.673  27.956  1.00  0.00     0.040 A 
ATOM     75  C   UNL A   1      51.060  25.951  25.593  1.00  0.00     0.040 A 
ATOM     76  F   UNL A   1      48.978  26.692  24.807  1.00  0.00    -0.206 F 
ATOM     77  C   UNL A   1      51.905  25.613  26.648  1.00  0.00     0.006 A 
ENDBRANCH  56  70
BRANCH  57  78
ATOM     78  C   UNL A   1      39.727  28.635  29.149  1.00  0.00     0.057 A 
ATOM     79  C   UNL A   1      39.230  28.409  30.437  1.00  0.00     0.134 A 
ATOM     80  C   UNL A   1      38.846  29.175  28.204  1.00  0.00     0.134 A 
ATOM     81  F   UNL A   1      40.020  27.875  31.381  1.00  0.00    -0.206 F 
ATOM     82  C   UNL A   1      37.905  28.693  30.771  1.00  0.00     0.040 A 
ATOM     83  C   UNL A   1      37.524  29.486  28.530  1.00  0.00     0.040 A 
ATOM     84  F   UNL A   1      39.261  29.421  26.953  1.00  0.00    -0.206 F 
ATOM     85  C   UNL A   1      37.049  29.238  29.817  1.00  0.00     0.006 A 
ENDBRANCH  57  78
BRANCH  69  86
ATOM     86  C   UNL A   1      45.640  32.312  29.218  1.00  0.00     0.057 A 
ATOM     87  C   UNL A   1      45.555  33.339  28.270  1.00  0.00     0.134 A 
ATOM     88  C   UNL A   1      45.972  32.668  30.531  1.00  0.00     0.134 A 
ATOM     89  F   UNL A   1      45.256  33.062  26.992  1.00  0.00    -0.206 F 
ATOM     90  C   UNL A   1      45.806  34.669  28.613  1.00  0.00     0.040 A 
ATOM     91  C   UNL A   1      46.200  33.996  30.891  1.00  0.00     0.040 A 
ATOM     92  F   UNL A   1      46.063  31.733  31.489  1.00  0.00    -0.206 F 
ATOM     93  C   UNL A   1      46.121  35.001  29.929  1.00  0.00     0.006 A 
ENDBRANCH  69  86
ENDBRANCH  43  44
ENDBRANCH  35  38
ENDBRANCH  33  34
ENDBRANCH  32  33
ENDBRANCH   1  32
TORSDOF 17
ENDMDL
MODEL 2
REMARK VINA RESULT:     -12.2      1.556      2.233
REMARK SMILES COc1ccc(C[N@@H+]2C[C@@H](C(=O)NCCCCNC(=O)c3ccc(-c4c5nc(c(-c6c(F)cccc6F)c6ccc([nH]6)c(-c6c(F)cccc6F)c6nc(c(-c7c(F)cccc7F)c7ccc4[nH]7)C=C6)C=C5)cc3)[C@H](c3ccccc3OC)C2)c(OC)c1
REMARK SMILES IDX 15 1 14 2 13 3 11 4 12 5 10 7 8 8 9 9 84 10 75 12 7 13 6 14
REMARK SMILES IDX 3 15 4 16 88 17 5 18 85 19 2 20 1 21 86 22 87 23 76 24 77 25
REMARK SMILES IDX 81 26 78 27 80 28 79 29 82 30 83 31 16 32 17 33 18 34 19 35
REMARK SMILES IDX 20 37 21 38 22 39 74 40 23 41 73 42 24 43 25 44 26 45 67 46
REMARK SMILES IDX 27 47 72 48 66 49 68 50 28 51 71 52 65 53 64 54 29 56 55 57
REMARK SMILES IDX 38 58 54 59 39 60 42 61 53 62 69 63 40 64 41 65 52 67 70 68
REMARK SMILES IDX 43 69 30 70 31 71 36 72 32 73 33 74 35 75 37 76 34 77 56 78
REMARK SMILES IDX 57 79 62 80 58 81 59 82 61 83 63 84 60 85 44 86 45 87 50 88
REMARK SMILES IDX 46 89 47 90 49 91 51 92 48 93
REMARK H PARENT 13 6 8 11 18 36 68 55 42 66
REMARK Flexibility Score: inf
ROOT
ATOM      1  C   UNL A   1      36.970  21.464  24.475  1.00  0.00     0.023 C 
ENDROOT
BRANCH   1   2
ATOM      2  C   UNL A   1      36.678  22.548  25.509  1.00  0.00     0.116 C 
BRANCH   2   3
ATOM      3  N   UNL A   1      35.884  22.063  26.624  1.00  0.00    -0.356 N 
ATOM      4  C   UNL A   1      34.552  21.737  26.655  1.00  0.00     0.229 C 
ATOM      5  O   UNL A   1      34.124  21.168  27.660  1.00  0.00    -0.275 OA
ATOM      6  H   UNL A   1      36.367  21.951  27.474  1.00  0.00     0.163 HD
BRANCH   4   7
ATOM      7  C   UNL A   1      33.641  22.204  25.535  1.00  0.00     0.146 C 
ATOM      8  N   UNL A   1      32.087  23.966  25.191  1.00  0.00    -0.330 N 
ATOM      9  C   UNL A   1      33.271  23.629  25.957  1.00  0.00     0.276 C 
ATOM     10  C   UNL A   1      31.317  22.714  25.120  1.00  0.00     0.272 C 
ATOM     11  H   UNL A   1      31.519  24.680  25.647  1.00  0.00     0.348 HD
ATOM     12  C   UNL A   1      32.280  21.496  25.317  1.00  0.00     0.096 C 
BRANCH   8  13
ATOM     13  C   UNL A   1      32.315  24.733  23.951  1.00  0.00     0.303 C 
BRANCH  13  14
ATOM     14  C   UNL A   1      31.284  25.763  23.512  1.00  0.00     0.048 A 
ATOM     15  C   UNL A   1      29.516  27.891  23.011  1.00  0.00     0.122 A 
ATOM     16  C   UNL A   1      29.157  26.887  23.899  1.00  0.00     0.047 A 
ATOM     17  C   UNL A   1      30.691  27.773  22.273  1.00  0.00     0.093 A 
ATOM     18  C   UNL A   1      30.031  25.828  24.147  1.00  0.00     0.017 A 
ATOM     19  C   UNL A   1      31.541  26.674  22.476  1.00  0.00     0.131 A 
BRANCH  15  20
ATOM     20  O   UNL A   1      28.738  29.016  23.021  1.00  0.00    -0.497 OA
ATOM     21  C   UNL A   1      27.341  28.749  23.024  1.00  0.00     0.278 C 
ENDBRANCH  15  20
BRANCH  19  22
ATOM     22  O   UNL A   1      32.681  26.459  21.745  1.00  0.00    -0.496 OA
ATOM     23  C   UNL A   1      32.494  25.828  20.483  1.00  0.00     0.278 C 
ENDBRANCH  19  22
ENDBRANCH  13  14
ENDBRANCH   8  13
BRANCH  12  24
ATOM     24  C   UNL A   1      32.289  20.447  24.186  1.00  0.00     0.004 A 
ATOM     25  C   UNL A   1      31.988  20.783  22.856  1.00  0.00     0.008 A 
ATOM     26  C   UNL A   1      32.567  19.086  24.412  1.00  0.00     0.122 A 
ATOM     27  C   UNL A   1      32.072  19.870  21.798  1.00  0.00     0.001 A 
ATOM     28  C   UNL A   1      32.689  18.165  23.354  1.00  0.00     0.047 A 
ATOM     29  C   UNL A   1      32.466  18.567  22.039  1.00  0.00     0.004 A 
BRANCH  26  30
ATOM     30  O   UNL A   1      32.449  18.568  25.675  1.00  0.00    -0.496 OA
ATOM     31  C   UNL A   1      32.641  17.165  25.733  1.00  0.00     0.278 C 
ENDBRANCH  26  30
ENDBRANCH  12  24
ENDBRANCH   4   7
ENDBRANCH   2   3
ENDBRANCH   1   2
BRANCH   1  32
ATOM     32  C   UNL A   1      37.733  20.266  25.032  1.00  0.00     0.023 C 
BRANCH  32  33
ATOM     33  C   UNL A   1      39.032  20.613  25.757  1.00  0.00     0.116 C 
BRANCH  33  34
ATOM     34  N   UNL A   1      39.997  19.522  25.789  1.00  0.00    -0.352 N 
ATOM     35  C   UNL A   1      41.329  19.567  26.134  1.00  0.00     0.251 C 
ATOM     36  H   UNL A   1      39.652  18.637  25.530  1.00  0.00     0.163 HD
ATOM     37  O   UNL A   1      42.046  18.578  26.010  1.00  0.00    -0.269 OA
BRANCH  35  38
ATOM     38  C   UNL A   1      41.900  20.840  26.620  1.00  0.00     0.039 A 
ATOM     39  C   UNL A   1      42.395  21.760  25.695  1.00  0.00     0.014 A 
ATOM     40  C   UNL A   1      41.871  21.149  27.983  1.00  0.00     0.014 A 
ATOM     41  C   UNL A   1      42.777  23.031  26.126  1.00  0.00     0.010 A 
ATOM     42  C   UNL A   1      42.176  22.441  28.399  1.00  0.00     0.010 A 
ATOM     43  C   UNL A   1      42.622  23.397  27.474  1.00  0.00    -0.014 A 
BRANCH  43  44
ATOM     44  C   UNL A   1      42.899  24.781  27.937  1.00  0.00     0.031 A 
ATOM     45  C   UNL A   1      44.295  25.180  28.324  1.00  0.00     0.074 A 
ATOM     46  C   UNL A   1      41.880  25.648  28.097  1.00  0.00     0.049 A 
ATOM     47  N   UNL A   1      44.720  26.303  28.844  1.00  0.00    -0.248 NA
ATOM     48  C   UNL A   1      45.348  24.172  28.129  1.00  0.00     0.031 C 
ATOM     49  C   UNL A   1      40.472  25.364  27.812  1.00  0.00     0.029 A 
ATOM     50  N   UNL A   1      41.871  26.941  28.557  1.00  0.00    -0.354 N 
ATOM     51  C   UNL A   1      46.080  26.129  29.056  1.00  0.00     0.074 A 
ATOM     52  C   UNL A   1      46.402  24.777  28.656  1.00  0.00     0.031 C 
ATOM     53  C   UNL A   1      39.739  26.456  28.087  1.00  0.00     0.029 A 
ATOM     54  C   UNL A   1      40.616  27.500  28.607  1.00  0.00     0.049 A 
ATOM     55  H   UNL A   1      42.685  27.423  28.827  1.00  0.00     0.167 HD
ATOM     56  C   UNL A   1      46.985  27.023  29.521  1.00  0.00     0.037 A 
ATOM     57  C   UNL A   1      40.215  28.712  29.035  1.00  0.00     0.037 A 
ATOM     58  C   UNL A   1      46.668  28.377  29.889  1.00  0.00     0.049 A 
ATOM     59  C   UNL A   1      41.237  29.686  29.551  1.00  0.00     0.074 A 
ATOM     60  C   UNL A   1      47.528  29.385  30.289  1.00  0.00     0.029 A 
ATOM     61  N   UNL A   1      45.389  28.912  29.908  1.00  0.00    -0.354 N 
ATOM     62  N   UNL A   1      42.535  29.537  29.667  1.00  0.00    -0.248 NA
ATOM     63  C   UNL A   1      40.741  30.996  29.996  1.00  0.00     0.031 C 
ATOM     64  C   UNL A   1      46.763  30.515  30.597  1.00  0.00     0.029 A 
ATOM     65  C   UNL A   1      45.432  30.225  30.345  1.00  0.00     0.049 A 
ATOM     66  H   UNL A   1      44.570  28.429  29.649  1.00  0.00     0.167 HD
ATOM     67  C   UNL A   1      43.011  30.736  30.180  1.00  0.00     0.074 A 
ATOM     68  C   UNL A   1      41.867  31.610  30.336  1.00  0.00     0.031 C 
ATOM     69  C   UNL A   1      44.283  31.081  30.497  1.00  0.00     0.037 A 
BRANCH  56  70
ATOM     70  C   UNL A   1      48.406  26.562  29.656  1.00  0.00     0.057 A 
ATOM     71  C   UNL A   1      49.333  26.702  28.614  1.00  0.00     0.134 A 
ATOM     72  C   UNL A   1      48.863  25.997  30.854  1.00  0.00     0.134 A 
ATOM     73  F   UNL A   1      48.957  27.225  27.437  1.00  0.00    -0.206 F 
ATOM     74  C   UNL A   1      50.654  26.272  28.747  1.00  0.00     0.040 A 
ATOM     75  C   UNL A   1      50.189  25.588  31.009  1.00  0.00     0.040 A 
ATOM     76  F   UNL A   1      48.031  25.838  31.893  1.00  0.00    -0.206 F 
ATOM     77  C   UNL A   1      51.086  25.719  29.951  1.00  0.00     0.006 A 
ENDBRANCH  56  70
BRANCH  57  78
ATOM     78  C   UNL A   1      38.776  29.077  28.987  1.00  0.00     0.057 A 
ATOM     79  C   UNL A   1      37.962  28.954  30.117  1.00  0.00     0.134 A 
ATOM     80  C   UNL A   1      38.182  29.554  27.812  1.00  0.00     0.134 A 
ATOM     81  F   UNL A   1      38.469  28.484  31.267  1.00  0.00    -0.206 F 
ATOM     82  C   UNL A   1      36.604  29.278  30.080  1.00  0.00     0.040 A 
ATOM     83  C   UNL A   1      36.831  29.904  27.766  1.00  0.00     0.040 A 
ATOM     84  F   UNL A   1      38.910  29.701  26.695  1.00  0.00    -0.206 F 
ATOM     85  C   UNL A   1      36.037  29.759  28.902  1.00  0.00     0.006 A 
ENDBRANCH  57  78
BRANCH  69  86
ATOM     86  C   UNL A   1      44.507  32.466  31.029  1.00  0.00     0.057 A 
ATOM     87  C   UNL A   1      44.519  32.733  32.403  1.00  0.00     0.134 A 
ATOM     88  C   UNL A   1      44.764  33.533  30.160  1.00  0.00     0.134 A 
ATOM     89  F   UNL A   1      44.267  31.756  33.288  1.00  0.00    -0.206 F 
ATOM     90  C   UNL A   1      44.762  34.017  32.894  1.00  0.00     0.040 A 
ATOM     91  C   UNL A   1      45.033  34.816  30.639  1.00  0.00     0.040 A 
ATOM     92  F   UNL A   1      44.774  33.343  28.831  1.00  0.00    -0.206 F 
ATOM     93  C   UNL A   1      45.029  35.061  32.010  1.00  0.00     0.006 A 
ENDBRANCH  69  86
ENDBRANCH  43  44
ENDBRANCH  35  38
ENDBRANCH  33  34
ENDBRANCH  32  33
ENDBRANCH   1  32
TORSDOF 17
ENDMDL
MODEL 3
REMARK VINA RESULT:     -12.1      0.715      6.076
REMARK SMILES COc1ccc(C[N@@H+]2C[C@@H](C(=O)NCCCCNC(=O)c3ccc(-c4c5nc(c(-c6c(F)cccc6F)c6ccc([nH]6)c(-c6c(F)cccc6F)c6nc(c(-c7c(F)cccc7F)c7ccc4[nH]7)C=C6)C=C5)cc3)[C@H](c3ccccc3OC)C2)c(OC)c1
REMARK SMILES IDX 15 1 14 2 13 3 11 4 12 5 10 7 8 8 9 9 84 10 75 12 7 13 6 14
REMARK SMILES IDX 3 15 4 16 88 17 5 18 85 19 2 20 1 21 86 22 87 23 76 24 77 25
REMARK SMILES IDX 81 26 78 27 80 28 79 29 82 30 83 31 16 32 17 33 18 34 19 35
REMARK SMILES IDX 20 37 21 38 22 39 74 40 23 41 73 42 24 43 25 44 26 45 67 46
REMARK SMILES IDX 27 47 72 48 66 49 68 50 28 51 71 52 65 53 64 54 29 56 55 57
REMARK SMILES IDX 38 58 54 59 39 60 42 61 53 62 69 63 40 64 41 65 52 67 70 68
REMARK SMILES IDX 43 69 30 70 31 71 36 72 32 73 33 74 35 75 37 76 34 77 56 78
REMARK SMILES IDX 57 79 62 80 58 81 59 82 61 83 63 84 60 85 44 86 45 87 50 88
REMARK SMILES IDX 46 89 47 90 49 91 51 92 48 93
REMARK H PARENT 13 6 8 11 18 36 68 55 42 66
REMARK Flexibility Score: inf
ROOT
ATOM      1  C   UNL A   1      37.240  21.567  24.403  1.00  0.00     0.023 C 
ENDROOT
BRANCH   1   2
ATOM      2  C   UNL A   1      36.972  22.670  25.424  1.00  0.00     0.116 C 
BRANCH   2   3
ATOM      3  N   UNL A   1      36.180  22.212  26.551  1.00  0.00    -0.356 N 
ATOM      4  C   UNL A   1      34.818  22.073  26.647  1.00  0.00     0.229 C 
ATOM      5  O   UNL A   1      34.370  21.490  27.635  1.00  0.00    -0.275 OA
ATOM      6  H   UNL A   1      36.688  21.967  27.357  1.00  0.00     0.163 HD
BRANCH   4   7
ATOM      7  C   UNL A   1      33.924  22.748  25.625  1.00  0.00     0.146 C 
ATOM      8  N   UNL A   1      32.591  24.712  25.523  1.00  0.00    -0.330 N 
ATOM      9  C   UNL A   1      33.757  24.163  26.188  1.00  0.00     0.276 C 
ATOM     10  C   UNL A   1      31.667  23.575  25.389  1.00  0.00     0.272 C 
ATOM     11  H   UNL A   1      32.141  25.445  26.070  1.00  0.00     0.348 HD
ATOM     12  C   UNL A   1      32.475  22.235  25.426  1.00  0.00     0.096 C 
BRANCH   8  13
ATOM     13  C   UNL A   1      32.858  25.556  24.343  1.00  0.00     0.303 C 
BRANCH  13  14
ATOM     14  C   UNL A   1      31.874  26.659  23.978  1.00  0.00     0.048 A 
ATOM     15  C   UNL A   1      30.386  28.923  23.226  1.00  0.00     0.122 A 
ATOM     16  C   UNL A   1      30.802  28.773  24.541  1.00  0.00     0.047 A 
ATOM     17  C   UNL A   1      30.593  27.891  22.314  1.00  0.00     0.093 A 
ATOM     18  C   UNL A   1      31.537  27.649  24.918  1.00  0.00     0.017 A 
ATOM     19  C   UNL A   1      31.278  26.731  22.709  1.00  0.00     0.131 A 
BRANCH  15  20
ATOM     20  O   UNL A   1      29.910  30.157  22.877  1.00  0.00    -0.497 OA
ATOM     21  C   UNL A   1      29.079  30.147  21.723  1.00  0.00     0.278 C 
ENDBRANCH  15  20
BRANCH  19  22
ATOM     22  O   UNL A   1      31.465  25.650  21.887  1.00  0.00    -0.496 OA
ATOM     23  C   UNL A   1      32.440  25.814  20.864  1.00  0.00     0.278 C 
ENDBRANCH  19  22
ENDBRANCH  13  14
ENDBRANCH   8  13
BRANCH  12  24
ATOM     24  C   UNL A   1      32.298  21.302  24.210  1.00  0.00     0.004 A 
ATOM     25  C   UNL A   1      32.016  21.797  22.926  1.00  0.00     0.008 A 
ATOM     26  C   UNL A   1      32.377  19.901  24.309  1.00  0.00     0.122 A 
ATOM     27  C   UNL A   1      31.935  20.980  21.792  1.00  0.00     0.001 A 
ATOM     28  C   UNL A   1      32.332  19.070  23.173  1.00  0.00     0.047 A 
ATOM     29  C   UNL A   1      32.137  19.616  21.907  1.00  0.00     0.004 A 
BRANCH  26  30
ATOM     30  O   UNL A   1      32.215  19.294  25.527  1.00  0.00    -0.496 OA
ATOM     31  C   UNL A   1      32.742  17.979  25.581  1.00  0.00     0.278 C 
ENDBRANCH  26  30
ENDBRANCH  12  24
ENDBRANCH   4   7
ENDBRANCH   2   3
ENDBRANCH   1   2
BRANCH   1  32
ATOM     32  C   UNL A   1      37.880  20.315  24.996  1.00  0.00     0.023 C 
BRANCH  32  33
ATOM     33  C   UNL A   1      39.218  20.548  25.695  1.00  0.00     0.116 C 
BRANCH  33  34
ATOM     34  N   UNL A   1      40.055  19.359  25.774  1.00  0.00    -0.352 N 
ATOM     35  C   UNL A   1      41.394  19.273  26.081  1.00  0.00     0.251 C 
ATOM     36  H   UNL A   1      39.605  18.505  25.583  1.00  0.00     0.163 HD
ATOM     37  O   UNL A   1      41.991  18.203  26.005  1.00  0.00    -0.269 OA
BRANCH  35  38
ATOM     38  C   UNL A   1      42.119  20.500  26.468  1.00  0.00     0.039 A 
ATOM     39  C   UNL A   1      42.711  21.282  25.474  1.00  0.00     0.014 A 
ATOM     40  C   UNL A   1      42.143  20.913  27.803  1.00  0.00     0.014 A 
ATOM     41  C   UNL A   1      43.249  22.526  25.806  1.00  0.00     0.010 A 
ATOM     42  C   UNL A   1      42.606  22.186  28.119  1.00  0.00     0.010 A 
ATOM     43  C   UNL A   1      43.155  23.008  27.123  1.00  0.00    -0.014 A 
BRANCH  43  44
ATOM     44  C   UNL A   1      43.602  24.379  27.478  1.00  0.00     0.031 A 
ATOM     45  C   UNL A   1      42.594  25.422  27.871  1.00  0.00     0.074 A 
ATOM     46  C   UNL A   1      44.903  24.709  27.359  1.00  0.00     0.049 A 
ATOM     47  N   UNL A   1      42.773  26.694  28.118  1.00  0.00    -0.248 NA
ATOM     48  C   UNL A   1      41.193  24.982  27.967  1.00  0.00     0.031 C 
ATOM     49  C   UNL A   1      45.973  23.804  26.933  1.00  0.00     0.029 A 
ATOM     50  N   UNL A   1      45.545  25.904  27.570  1.00  0.00    -0.354 N 
ATOM     51  C   UNL A   1      41.511  27.209  28.379  1.00  0.00     0.074 A 
ATOM     52  C   UNL A   1      40.568  26.125  28.210  1.00  0.00     0.031 C 
ATOM     53  C   UNL A   1      47.138  24.472  26.929  1.00  0.00     0.029 A 
ATOM     54  C   UNL A   1      46.895  25.859  27.311  1.00  0.00     0.049 A 
ATOM     55  H   UNL A   1      45.083  26.718  27.875  1.00  0.00     0.167 HD
ATOM     56  C   UNL A   1      41.170  28.467  28.747  1.00  0.00     0.037 A 
ATOM     57  C   UNL A   1      47.828  26.828  27.363  1.00  0.00     0.037 A 
ATOM     58  C   UNL A   1      42.113  29.535  28.943  1.00  0.00     0.049 A 
ATOM     59  C   UNL A   1      47.424  28.217  27.771  1.00  0.00     0.074 A 
ATOM     60  C   UNL A   1      41.875  30.820  29.399  1.00  0.00     0.029 A 
ATOM     61  N   UNL A   1      43.473  29.445  28.690  1.00  0.00    -0.354 N 
ATOM     62  N   UNL A   1      46.237  28.671  28.096  1.00  0.00    -0.248 NA
ATOM     63  C   UNL A   1      48.487  29.231  27.817  1.00  0.00     0.031 C 
ATOM     64  C   UNL A   1      43.085  31.522  29.374  1.00  0.00     0.029 A 
ATOM     65  C   UNL A   1      44.083  30.661  28.948  1.00  0.00     0.049 A 
ATOM     66  H   UNL A   1      43.937  28.636  28.373  1.00  0.00     0.167 HD
ATOM     67  C   UNL A   1      46.414  30.014  28.403  1.00  0.00     0.074 A 
ATOM     68  C   UNL A   1      47.825  30.298  28.243  1.00  0.00     0.031 C 
ATOM     69  C   UNL A   1      45.489  30.930  28.781  1.00  0.00     0.037 A 
BRANCH  56  70
ATOM     70  C   UNL A   1      39.713  28.753  28.963  1.00  0.00     0.057 A 
ATOM     71  C   UNL A   1      38.889  29.218  27.930  1.00  0.00     0.134 A 
ATOM     72  C   UNL A   1      39.120  28.533  30.213  1.00  0.00     0.134 A 
ATOM     73  F   UNL A   1      39.397  29.460  26.712  1.00  0.00    -0.206 F 
ATOM     74  C   UNL A   1      37.534  29.481  28.138  1.00  0.00     0.040 A 
ATOM     75  C   UNL A   1      37.760  28.766  30.426  1.00  0.00     0.040 A 
ATOM     76  F   UNL A   1      39.850  28.084  31.245  1.00  0.00    -0.206 F 
ATOM     77  C   UNL A   1      36.965  29.249  29.389  1.00  0.00     0.006 A 
ENDBRANCH  56  70
BRANCH  57  78
ATOM     78  C   UNL A   1      49.240  26.517  27.027  1.00  0.00     0.057 A 
ATOM     79  C   UNL A   1      49.738  26.723  25.737  1.00  0.00     0.134 A 
ATOM     80  C   UNL A   1      50.123  26.003  27.985  1.00  0.00     0.134 A 
ATOM     81  F   UNL A   1      48.936  27.194  24.771  1.00  0.00    -0.206 F 
ATOM     82  C   UNL A   1      51.059  26.418  25.405  1.00  0.00     0.040 A 
ATOM     83  C   UNL A   1      51.453  25.715  27.674  1.00  0.00     0.040 A 
ATOM     84  F   UNL A   1      49.709  25.788  29.243  1.00  0.00    -0.206 F 
ATOM     85  C   UNL A   1      51.922  25.917  26.377  1.00  0.00     0.006 A 
ENDBRANCH  57  78
BRANCH  69  86
ATOM     86  C   UNL A   1      45.974  32.321  29.062  1.00  0.00     0.057 A 
ATOM     87  C   UNL A   1      45.986  33.310  28.071  1.00  0.00     0.134 A 
ATOM     88  C   UNL A   1      46.386  32.689  30.348  1.00  0.00     0.134 A 
ATOM     89  F   UNL A   1      45.616  33.018  26.814  1.00  0.00    -0.206 F 
ATOM     90  C   UNL A   1      46.406  34.612  28.346  1.00  0.00     0.040 A 
ATOM     91  C   UNL A   1      46.785  33.993  30.642  1.00  0.00     0.040 A 
ATOM     92  F   UNL A   1      46.392  31.790  31.345  1.00  0.00    -0.206 F 
ATOM     93  C   UNL A   1      46.799  34.959  29.638  1.00  0.00     0.006 A 
ENDBRANCH  69  86
ENDBRANCH  43  44
ENDBRANCH  35  38
ENDBRANCH  33  34
ENDBRANCH  32  33
ENDBRANCH   1  32
TORSDOF 17
ENDMDL
