MODEL 1
REMARK VINA RESULT:     -11.1      0.000      0.000
REMARK SMILES O=C(NCCCCNC(=O)[C@@H]1CCC(=O)N(CCCOC2CCCCC2)[C@H]1c1ccco1)c1ccc(-c2c3nc(c(-c4c(F)cccc4F)c4ccc([nH]4)c(-c4c(F)cccc4F)c4nc(c(-c5c(F)cccc5F)c5ccc2[nH]5)C=C4)C=C3)cc1
REMARK SMILES IDX 7 1 6 2 5 3 4 4 3 5 1 6 2 7 33 9 34 10 86 11 35 12 85 13
REMARK SMILES IDX 36 14 37 15 38 16 79 17 39 18 84 19 78 20 80 21 40 22 83 23
REMARK SMILES IDX 77 24 76 25 41 27 67 28 50 29 66 30 51 31 54 32 65 33 81 34
REMARK SMILES IDX 52 35 53 36 64 38 82 39 55 40 42 41 43 42 48 43 44 44 45 45
REMARK SMILES IDX 47 46 49 47 46 48 68 49 69 50 74 51 70 52 71 53 73 54 75 55
REMARK SMILES IDX 72 56 56 57 57 58 62 59 58 60 59 61 61 62 63 63 60 64 8 65
REMARK SMILES IDX 9 66 10 68 11 69 12 70 27 71 13 72 16 73 14 74 15 75 28 76
REMARK SMILES IDX 29 77 32 78 30 79 31 80 17 81 18 82 19 83 20 84 21 85 22 86
REMARK SMILES IDX 26 87 23 88 25 89 24 90
REMARK H PARENT 3 8 80 26 54 37 8 67
REMARK Flexibility Score: inf
ROOT
ATOM      1  C   UNL A   1      37.451  23.609  25.612  1.00  0.00     0.116 C 
ENDROOT
BRANCH   1   2
ATOM      2  C   UNL A   1      38.667  22.809  26.053  1.00  0.00     0.023 C 
BRANCH   2   3
ATOM      3  C   UNL A   1      38.772  21.412  25.472  1.00  0.00     0.023 C 
BRANCH   3   4
ATOM      4  C   UNL A   1      39.215  20.398  26.499  1.00  0.00     0.116 C 
BRANCH   4   5
ATOM      5  N   UNL A   1      40.260  19.493  26.018  1.00  0.00    -0.352 N 
ATOM      6  O   UNL A   1      42.364  18.898  25.408  1.00  0.00    -0.269 OA
ATOM      7  C   UNL A   1      41.618  19.719  25.930  1.00  0.00     0.251 C 
ATOM      8  H   UNL A   1      39.953  18.607  25.716  1.00  0.00     0.163 HD
BRANCH   7   9
ATOM      9  C   UNL A   1      42.161  21.002  26.436  1.00  0.00     0.039 A 
ATOM     10  C   UNL A   1      42.276  21.199  27.808  1.00  0.00     0.014 A 
ATOM     11  C   UNL A   1      42.451  22.046  25.554  1.00  0.00     0.014 A 
ATOM     12  C   UNL A   1      42.386  22.486  28.297  1.00  0.00     0.010 A 
ATOM     13  C   UNL A   1      42.759  23.315  26.063  1.00  0.00     0.010 A 
ATOM     14  C   UNL A   1      42.677  23.561  27.441  1.00  0.00    -0.014 A 
BRANCH  14  15
ATOM     15  C   UNL A   1      42.931  24.896  28.052  1.00  0.00     0.031 A 
ATOM     16  C   UNL A   1      41.814  25.854  28.371  1.00  0.00     0.074 A 
ATOM     17  C   UNL A   1      44.200  25.206  28.394  1.00  0.00     0.049 A 
ATOM     18  N   UNL A   1      41.888  27.054  28.891  1.00  0.00    -0.248 NA
ATOM     19  C   UNL A   1      40.443  25.429  28.051  1.00  0.00     0.031 C 
ATOM     20  C   UNL A   1      45.373  24.363  28.132  1.00  0.00     0.029 A 
ATOM     21  N   UNL A   1      44.716  26.273  29.082  1.00  0.00    -0.354 N 
ATOM     22  C   UNL A   1      40.591  27.552  28.900  1.00  0.00     0.074 A 
ATOM     23  C   UNL A   1      39.743  26.520  28.341  1.00  0.00     0.031 C 
ATOM     24  C   UNL A   1      46.437  24.876  28.758  1.00  0.00     0.029 A 
ATOM     25  C   UNL A   1      46.060  26.150  29.349  1.00  0.00     0.049 A 
ATOM     26  H   UNL A   1      44.179  27.050  29.357  1.00  0.00     0.167 HD
ATOM     27  C   UNL A   1      40.153  28.762  29.326  1.00  0.00     0.037 A 
ATOM     28  C   UNL A   1      46.911  26.982  29.973  1.00  0.00     0.037 A 
ATOM     29  C   UNL A   1      41.000  29.759  29.934  1.00  0.00     0.049 A 
ATOM     30  C   UNL A   1      46.393  28.298  30.462  1.00  0.00     0.074 A 
ATOM     31  C   UNL A   1      40.650  31.007  30.421  1.00  0.00     0.029 A 
ATOM     32  N   UNL A   1      42.362  29.614  30.153  1.00  0.00    -0.354 N 
ATOM     33  N   UNL A   1      45.170  28.766  30.426  1.00  0.00    -0.248 NA
ATOM     34  C   UNL A   1      47.377  29.214  31.051  1.00  0.00     0.031 C 
ATOM     35  C   UNL A   1      41.807  31.630  30.904  1.00  0.00     0.029 A 
ATOM     36  C   UNL A   1      42.869  30.754  30.758  1.00  0.00     0.049 A 
ATOM     37  H   UNL A   1      42.891  28.820  29.912  1.00  0.00     0.167 HD
ATOM     38  C   UNL A   1      45.234  30.032  30.986  1.00  0.00     0.074 A 
ATOM     39  C   UNL A   1      46.612  30.244  31.383  1.00  0.00     0.031 C 
ATOM     40  C   UNL A   1      44.243  30.942  31.147  1.00  0.00     0.037 A 
BRANCH  27  41
ATOM     41  C   UNL A   1      38.703  29.097  29.116  1.00  0.00     0.057 A 
ATOM     42  C   UNL A   1      37.761  29.036  30.149  1.00  0.00     0.134 A 
ATOM     43  C   UNL A   1      38.254  29.530  27.860  1.00  0.00     0.134 A 
ATOM     44  F   UNL A   1      38.119  28.618  31.373  1.00  0.00    -0.206 F 
ATOM     45  C   UNL A   1      36.422  29.374  29.938  1.00  0.00     0.040 A 
ATOM     46  C   UNL A   1      36.924  29.895  27.643  1.00  0.00     0.040 A 
ATOM     47  F   UNL A   1      39.105  29.621  26.828  1.00  0.00    -0.206 F 
ATOM     48  C   UNL A   1      36.002  29.812  28.682  1.00  0.00     0.006 A 
ENDBRANCH  27  41
BRANCH  28  49
ATOM     49  C   UNL A   1      48.336  26.600  30.135  1.00  0.00     0.057 A 
ATOM     50  C   UNL A   1      48.761  25.842  31.231  1.00  0.00     0.134 A 
ATOM     51  C   UNL A   1      49.298  26.947  29.177  1.00  0.00     0.134 A 
ATOM     52  F   UNL A   1      47.891  25.490  32.188  1.00  0.00    -0.206 F 
ATOM     53  C   UNL A   1      50.093  25.447  31.372  1.00  0.00     0.040 A 
ATOM     54  C   UNL A   1      50.626  26.532  29.290  1.00  0.00     0.040 A 
ATOM     55  F   UNL A   1      48.952  27.664  28.098  1.00  0.00    -0.206 F 
ATOM     56  C   UNL A   1      51.027  25.784  30.394  1.00  0.00     0.006 A 
ENDBRANCH  28  49
BRANCH  40  57
ATOM     57  C   UNL A   1      44.622  32.229  31.812  1.00  0.00     0.057 A 
ATOM     58  C   UNL A   1      44.562  32.387  33.202  1.00  0.00     0.134 A 
ATOM     59  C   UNL A   1      45.048  33.324  31.050  1.00  0.00     0.134 A 
ATOM     60  F   UNL A   1      44.142  31.380  33.984  1.00  0.00    -0.206 F 
ATOM     61  C   UNL A   1      44.883  33.601  33.810  1.00  0.00     0.040 A 
ATOM     62  C   UNL A   1      45.395  34.535  31.650  1.00  0.00     0.040 A 
ATOM     63  F   UNL A   1      45.130  33.234  29.714  1.00  0.00    -0.206 F 
ATOM     64  C   UNL A   1      45.305  34.677  33.033  1.00  0.00     0.006 A 
ENDBRANCH  40  57
ENDBRANCH  14  15
ENDBRANCH   7   9
ENDBRANCH   4   5
ENDBRANCH   3   4
ENDBRANCH   2   3
ENDBRANCH   1   2
BRANCH   1  65
ATOM     65  N   UNL A   1      36.319  23.380  26.495  1.00  0.00    -0.356 N 
ATOM     66  C   UNL A   1      35.142  22.723  26.355  1.00  0.00     0.225 C 
ATOM     67  H   UNL A   1      36.432  23.790  27.384  1.00  0.00     0.163 HD
ATOM     68  O   UNL A   1      34.361  22.830  27.311  1.00  0.00    -0.275 OA
BRANCH  66  69
ATOM     69  C   UNL A   1      34.693  21.898  25.144  1.00  0.00     0.109 C 
ATOM     70  C   UNL A   1      34.970  22.469  23.770  1.00  0.00     0.026 C 
ATOM     71  C   UNL A   1      33.299  21.272  25.276  1.00  0.00     0.164 C 
ATOM     72  C   UNL A   1      33.761  23.018  23.036  1.00  0.00     0.101 C 
ATOM     73  N   UNL A   1      32.197  22.090  24.768  1.00  0.00    -0.332 N 
ATOM     74  C   UNL A   1      32.394  22.957  23.701  1.00  0.00     0.223 C 
ATOM     75  O   UNL A   1      31.507  23.706  23.282  1.00  0.00    -0.275 OA
BRANCH  71  76
ATOM     76  C   UNL A   1      33.233  19.926  24.595  1.00  0.00     0.127 A 
ATOM     77  C   UNL A   1      32.401  19.401  23.625  1.00  0.00     0.048 A 
ATOM     78  O   UNL A   1      34.214  19.021  24.891  1.00  0.00    -0.467 OA
ATOM     79  C   UNL A   1      32.944  18.141  23.270  1.00  0.00     0.042 A 
ATOM     80  C   UNL A   1      34.049  17.960  24.065  1.00  0.00     0.195 A 
ENDBRANCH  71  76
BRANCH  73  81
ATOM     81  C   UNL A   1      30.845  22.017  25.391  1.00  0.00     0.122 C 
BRANCH  81  82
ATOM     82  C   UNL A   1      30.500  22.869  26.622  1.00  0.00     0.050 C 
BRANCH  82  83
ATOM     83  C   UNL A   1      30.410  24.397  26.504  1.00  0.00     0.162 C 
BRANCH  83  84
ATOM     84  O   UNL A   1      31.582  25.087  26.942  1.00  0.00    -0.378 OA
BRANCH  84  85
ATOM     85  C   UNL A   1      31.966  26.209  26.132  1.00  0.00     0.118 C 
ATOM     86  C   UNL A   1      31.845  27.455  26.995  1.00  0.00     0.032 C 
ATOM     87  C   UNL A   1      33.415  26.059  25.650  1.00  0.00     0.032 C 
ATOM     88  C   UNL A   1      32.309  28.712  26.285  1.00  0.00     0.003 C 
ATOM     89  C   UNL A   1      33.928  27.333  24.965  1.00  0.00     0.003 C 
ATOM     90  C   UNL A   1      33.752  28.571  25.841  1.00  0.00     0.000 C 
ENDBRANCH  84  85
ENDBRANCH  83  84
ENDBRANCH  82  83
ENDBRANCH  81  82
ENDBRANCH  73  81
ENDBRANCH  66  69
ENDBRANCH   1  65
TORSDOF 17
ENDMDL
MODEL 2
REMARK VINA RESULT:     -11.1      0.949      6.038
REMARK SMILES O=C(NCCCCNC(=O)[C@@H]1CCC(=O)N(CCCOC2CCCCC2)[C@H]1c1ccco1)c1ccc(-c2c3nc(c(-c4c(F)cccc4F)c4ccc([nH]4)c(-c4c(F)cccc4F)c4nc(c(-c5c(F)cccc5F)c5ccc2[nH]5)C=C4)C=C3)cc1
REMARK SMILES IDX 7 1 6 2 5 3 4 4 3 5 1 6 2 7 33 9 34 10 86 11 35 12 85 13
REMARK SMILES IDX 36 14 37 15 38 16 79 17 39 18 84 19 78 20 80 21 40 22 83 23
REMARK SMILES IDX 77 24 76 25 41 27 67 28 50 29 66 30 51 31 54 32 65 33 81 34
REMARK SMILES IDX 52 35 53 36 64 38 82 39 55 40 42 41 43 42 48 43 44 44 45 45
REMARK SMILES IDX 47 46 49 47 46 48 68 49 69 50 74 51 70 52 71 53 73 54 75 55
REMARK SMILES IDX 72 56 56 57 57 58 62 59 58 60 59 61 61 62 63 63 60 64 8 65
REMARK SMILES IDX 9 66 10 68 11 69 12 70 27 71 13 72 16 73 14 74 15 75 28 76
REMARK SMILES IDX 29 77 32 78 30 79 31 80 17 81 18 82 19 83 20 84 21 85 22 86
REMARK SMILES IDX 26 87 23 88 25 89 24 90
REMARK H PARENT 3 8 80 26 54 37 8 67
REMARK Flexibility Score: inf
ROOT
ATOM      1  C   UNL A   1      37.344  22.979  25.708  1.00  0.00     0.116 C 
ENDROOT
BRANCH   1   2
ATOM      2  C   UNL A   1      37.366  21.940  24.598  1.00  0.00     0.023 C 
BRANCH   2   3
ATOM      3  C   UNL A   1      37.871  20.567  25.000  1.00  0.00     0.023 C 
BRANCH   3   4
ATOM      4  C   UNL A   1      38.973  20.643  26.029  1.00  0.00     0.116 C 
BRANCH   4   5
ATOM      5  N   UNL A   1      39.955  19.563  25.918  1.00  0.00    -0.352 N 
ATOM      6  O   UNL A   1      42.032  18.647  25.894  1.00  0.00    -0.269 OA
ATOM      7  C   UNL A   1      41.317  19.617  26.125  1.00  0.00     0.251 C 
ATOM      8  H   UNL A   1      39.595  18.683  25.661  1.00  0.00     0.163 HD
BRANCH   7   9
ATOM      9  C   UNL A   1      41.919  20.890  26.586  1.00  0.00     0.039 A 
ATOM     10  C   UNL A   1      42.044  21.129  27.951  1.00  0.00     0.014 A 
ATOM     11  C   UNL A   1      42.254  21.890  25.669  1.00  0.00     0.014 A 
ATOM     12  C   UNL A   1      42.214  22.425  28.396  1.00  0.00     0.010 A 
ATOM     13  C   UNL A   1      42.620  23.160  26.135  1.00  0.00     0.010 A 
ATOM     14  C   UNL A   1      42.551  23.456  27.504  1.00  0.00    -0.014 A 
BRANCH  14  15
ATOM     15  C   UNL A   1      42.867  24.799  28.069  1.00  0.00     0.031 A 
ATOM     16  C   UNL A   1      44.283  25.256  28.296  1.00  0.00     0.074 A 
ATOM     17  C   UNL A   1      41.841  25.645  28.305  1.00  0.00     0.049 A 
ATOM     18  N   UNL A   1      44.707  26.392  28.793  1.00  0.00    -0.248 NA
ATOM     19  C   UNL A   1      45.363  24.322  27.944  1.00  0.00     0.031 C 
ATOM     20  C   UNL A   1      40.421  25.317  28.130  1.00  0.00     0.029 A 
ATOM     21  N   UNL A   1      41.824  26.962  28.682  1.00  0.00    -0.354 N 
ATOM     22  C   UNL A   1      46.090  26.285  28.875  1.00  0.00     0.074 A 
ATOM     23  C   UNL A   1      46.439  24.975  28.367  1.00  0.00     0.031 C 
ATOM     24  C   UNL A   1      39.689  26.426  28.272  1.00  0.00     0.029 A 
ATOM     25  C   UNL A   1      40.564  27.513  28.682  1.00  0.00     0.049 A 
ATOM     26  H   UNL A   1      42.634  27.464  28.929  1.00  0.00     0.167 HD
ATOM     27  C   UNL A   1      46.981  27.194  29.341  1.00  0.00     0.037 A 
ATOM     28  C   UNL A   1      40.145  28.749  29.005  1.00  0.00     0.037 A 
ATOM     29  C   UNL A   1      46.625  28.518  29.790  1.00  0.00     0.049 A 
ATOM     30  C   UNL A   1      41.156  29.742  29.485  1.00  0.00     0.074 A 
ATOM     31  C   UNL A   1      47.455  29.522  30.258  1.00  0.00     0.029 A 
ATOM     32  N   UNL A   1      45.335  29.026  29.811  1.00  0.00    -0.354 N 
ATOM     33  N   UNL A   1      42.454  29.609  29.593  1.00  0.00    -0.248 NA
ATOM     34  C   UNL A   1      40.641  31.046  29.918  1.00  0.00     0.031 C 
ATOM     35  C   UNL A   1      46.662  30.627  30.593  1.00  0.00     0.029 A 
ATOM     36  C   UNL A   1      45.344  30.326  30.293  1.00  0.00     0.049 A 
ATOM     37  H   UNL A   1      44.530  28.536  29.526  1.00  0.00     0.167 HD
ATOM     38  C   UNL A   1      42.916  30.810  30.105  1.00  0.00     0.074 A 
ATOM     39  C   UNL A   1      41.759  31.671  30.257  1.00  0.00     0.031 C 
ATOM     40  C   UNL A   1      44.182  31.165  30.433  1.00  0.00     0.037 A 
BRANCH  27  41
ATOM     41  C   UNL A   1      48.423  26.781  29.428  1.00  0.00     0.057 A 
ATOM     42  C   UNL A   1      48.935  26.064  30.517  1.00  0.00     0.134 A 
ATOM     43  C   UNL A   1      49.305  27.071  28.377  1.00  0.00     0.134 A 
ATOM     44  F   UNL A   1      48.150  25.763  31.562  1.00  0.00    -0.206 F 
ATOM     45  C   UNL A   1      50.274  25.669  30.567  1.00  0.00     0.040 A 
ATOM     46  C   UNL A   1      50.639  26.660  28.404  1.00  0.00     0.040 A 
ATOM     47  F   UNL A   1      48.880  27.747  27.300  1.00  0.00    -0.206 F 
ATOM     48  C   UNL A   1      51.129  25.962  29.505  1.00  0.00     0.006 A 
ENDBRANCH  27  41
BRANCH  28  49
ATOM     49  C   UNL A   1      38.704  29.090  28.911  1.00  0.00     0.057 A 
ATOM     50  C   UNL A   1      37.862  28.984  30.023  1.00  0.00     0.134 A 
ATOM     51  C   UNL A   1      38.143  29.568  27.719  1.00  0.00     0.134 A 
ATOM     52  F   UNL A   1      38.336  28.519  31.188  1.00  0.00    -0.206 F 
ATOM     53  C   UNL A   1      36.513  29.337  29.952  1.00  0.00     0.040 A 
ATOM     54  C   UNL A   1      36.805  29.955  27.643  1.00  0.00     0.040 A 
ATOM     55  F   UNL A   1      38.900  29.703  26.620  1.00  0.00    -0.206 F 
ATOM     56  C   UNL A   1      35.984  29.834  28.762  1.00  0.00     0.006 A 
ENDBRANCH  28  49
BRANCH  40  57
ATOM     57  C   UNL A   1      44.370  32.557  30.952  1.00  0.00     0.057 A 
ATOM     58  C   UNL A   1      44.326  32.847  32.321  1.00  0.00     0.134 A 
ATOM     59  C   UNL A   1      44.594  33.620  30.068  1.00  0.00     0.134 A 
ATOM     60  F   UNL A   1      44.095  31.873  33.215  1.00  0.00    -0.206 F 
ATOM     61  C   UNL A   1      44.467  34.153  32.792  1.00  0.00     0.040 A 
ATOM     62  C   UNL A   1      44.761  34.926  30.530  1.00  0.00     0.040 A 
ATOM     63  F   UNL A   1      44.650  33.407  28.745  1.00  0.00    -0.206 F 
ATOM     64  C   UNL A   1      44.690  35.195  31.895  1.00  0.00     0.006 A 
ENDBRANCH  40  57
ENDBRANCH  14  15
ENDBRANCH   7   9
ENDBRANCH   4   5
ENDBRANCH   3   4
ENDBRANCH   2   3
ENDBRANCH   1   2
BRANCH   1  65
ATOM     65  N   UNL A   1      36.309  23.974  25.480  1.00  0.00    -0.356 N 
ATOM     66  C   UNL A   1      35.150  23.973  24.778  1.00  0.00     0.225 C 
ATOM     67  H   UNL A   1      36.488  24.830  25.933  1.00  0.00     0.163 HD
ATOM     68  O   UNL A   1      34.563  25.063  24.727  1.00  0.00    -0.275 OA
BRANCH  66  69
ATOM     69  C   UNL A   1      34.527  22.782  24.041  1.00  0.00     0.109 C 
ATOM     70  C   UNL A   1      34.216  22.957  22.571  1.00  0.00     0.026 C 
ATOM     71  C   UNL A   1      33.423  22.055  24.817  1.00  0.00     0.164 C 
ATOM     72  C   UNL A   1      32.746  23.116  22.229  1.00  0.00     0.101 C 
ATOM     73  N   UNL A   1      32.065  22.547  24.578  1.00  0.00    -0.332 N 
ATOM     74  C   UNL A   1      31.714  23.083  23.346  1.00  0.00     0.223 C 
ATOM     75  O   UNL A   1      30.598  23.561  23.124  1.00  0.00    -0.275 OA
BRANCH  71  76
ATOM     76  C   UNL A   1      33.437  20.571  24.535  1.00  0.00     0.127 A 
ATOM     77  C   UNL A   1      34.284  19.548  24.918  1.00  0.00     0.048 A 
ATOM     78  O   UNL A   1      32.386  20.052  23.833  1.00  0.00    -0.467 OA
ATOM     79  C   UNL A   1      33.680  18.344  24.480  1.00  0.00     0.042 A 
ATOM     80  C   UNL A   1      32.525  18.705  23.831  1.00  0.00     0.195 A 
ENDBRANCH  71  76
BRANCH  73  81
ATOM     81  C   UNL A   1      31.036  22.491  25.655  1.00  0.00     0.122 C 
BRANCH  81  82
ATOM     82  C   UNL A   1      30.812  23.689  26.591  1.00  0.00     0.050 C 
BRANCH  82  83
ATOM     83  C   UNL A   1      31.741  24.910  26.518  1.00  0.00     0.162 C 
BRANCH  83  84
ATOM     84  O   UNL A   1      31.114  26.144  26.873  1.00  0.00    -0.378 OA
BRANCH  84  85
ATOM     85  C   UNL A   1      31.873  27.323  26.565  1.00  0.00     0.118 C 
ATOM     86  C   UNL A   1      31.398  27.829  25.211  1.00  0.00     0.032 C 
ATOM     87  C   UNL A   1      31.645  28.407  27.626  1.00  0.00     0.032 C 
ATOM     88  C   UNL A   1      32.060  29.130  24.802  1.00  0.00     0.003 C 
ATOM     89  C   UNL A   1      32.267  29.750  27.219  1.00  0.00     0.003 C 
ATOM     90  C   UNL A   1      31.803  30.208  25.838  1.00  0.00     0.000 C 
ENDBRANCH  84  85
ENDBRANCH  83  84
ENDBRANCH  82  83
ENDBRANCH  81  82
ENDBRANCH  73  81
ENDBRANCH  66  69
ENDBRANCH   1  65
TORSDOF 17
ENDMDL
MODEL 3
REMARK VINA RESULT:     -10.9      1.658      1.986
REMARK SMILES O=C(NCCCCNC(=O)[C@@H]1CCC(=O)N(CCCOC2CCCCC2)[C@H]1c1ccco1)c1ccc(-c2c3nc(c(-c4c(F)cccc4F)c4ccc([nH]4)c(-c4c(F)cccc4F)c4nc(c(-c5c(F)cccc5F)c5ccc2[nH]5)C=C4)C=C3)cc1
REMARK SMILES IDX 7 1 6 2 5 3 4 4 3 5 1 6 2 7 33 9 34 10 86 11 35 12 85 13
REMARK SMILES IDX 36 14 37 15 38 16 79 17 39 18 84 19 78 20 80 21 40 22 83 23
REMARK SMILES IDX 77 24 76 25 41 27 67 28 50 29 66 30 51 31 54 32 65 33 81 34
REMARK SMILES IDX 52 35 53 36 64 38 82 39 55 40 42 41 43 42 48 43 44 44 45 45
REMARK SMILES IDX 47 46 49 47 46 48 68 49 69 50 74 51 70 52 71 53 73 54 75 55
REMARK SMILES IDX 72 56 56 57 57 58 62 59 58 60 59 61 61 62 63 63 60 64 8 65
REMARK SMILES IDX 9 66 10 68 11 69 12 70 27 71 13 72 16 73 14 74 15 75 28 76
REMARK SMILES IDX 29 77 32 78 30 79 31 80 17 81 18 82 19 83 20 84 21 85 22 86
REMARK SMILES IDX 26 87 23 88 25 89 24 90
REMARK H PARENT 3 8 80 26 54 37 8 67
REMARK Flexibility Score: inf
ROOT
ATOM      1  C   UNL A   1      37.779  22.305  25.689  1.00  0.00     0.116 C 
ENDROOT
BRANCH   1   2
ATOM      2  C   UNL A   1      37.416  21.132  24.792  1.00  0.00     0.023 C 
BRANCH   2   3
ATOM      3  C   UNL A   1      38.244  19.877  24.994  1.00  0.00     0.023 C 
BRANCH   3   4
ATOM      4  C   UNL A   1      39.457  20.126  25.857  1.00  0.00     0.116 C 
BRANCH   4   5
ATOM      5  N   UNL A   1      40.390  18.998  25.898  1.00  0.00    -0.352 N 
ATOM      6  O   UNL A   1      42.425  17.998  26.003  1.00  0.00    -0.269 OA
ATOM      7  C   UNL A   1      41.755  19.021  26.098  1.00  0.00     0.251 C 
ATOM      8  H   UNL A   1      39.991  18.108  25.764  1.00  0.00     0.163 HD
BRANCH   7   9
ATOM      9  C   UNL A   1      42.413  20.318  26.380  1.00  0.00     0.039 A 
ATOM     10  C   UNL A   1      42.366  20.838  27.669  1.00  0.00     0.014 A 
ATOM     11  C   UNL A   1      42.978  21.068  25.345  1.00  0.00     0.014 A 
ATOM     12  C   UNL A   1      42.604  22.185  27.863  1.00  0.00     0.010 A 
ATOM     13  C   UNL A   1      43.404  22.379  25.595  1.00  0.00     0.010 A 
ATOM     14  C   UNL A   1      43.171  22.971  26.845  1.00  0.00    -0.014 A 
BRANCH  14  15
ATOM     15  C   UNL A   1      43.540  24.378  27.168  1.00  0.00     0.031 A 
ATOM     16  C   UNL A   1      42.545  25.353  27.737  1.00  0.00     0.074 A 
ATOM     17  C   UNL A   1      44.830  24.747  27.011  1.00  0.00     0.049 A 
ATOM     18  N   UNL A   1      42.722  26.612  28.053  1.00  0.00    -0.248 NA
ATOM     19  C   UNL A   1      41.174  24.871  27.963  1.00  0.00     0.031 C 
ATOM     20  C   UNL A   1      45.890  23.893  26.463  1.00  0.00     0.029 A 
ATOM     21  N   UNL A   1      45.486  25.902  27.347  1.00  0.00    -0.354 N 
ATOM     22  C   UNL A   1      41.478  27.089  28.451  1.00  0.00     0.074 A 
ATOM     23  C   UNL A   1      40.553  25.981  28.345  1.00  0.00     0.031 C 
ATOM     24  C   UNL A   1      47.072  24.498  26.617  1.00  0.00     0.029 A 
ATOM     25  C   UNL A   1      46.845  25.834  27.147  1.00  0.00     0.049 A 
ATOM     26  H   UNL A   1      45.030  26.701  27.697  1.00  0.00     0.167 HD
ATOM     27  C   UNL A   1      41.143  28.338  28.855  1.00  0.00     0.037 A 
ATOM     28  C   UNL A   1      47.809  26.752  27.336  1.00  0.00     0.037 A 
ATOM     29  C   UNL A   1      42.086  29.418  29.011  1.00  0.00     0.049 A 
ATOM     30  C   UNL A   1      47.412  28.114  27.814  1.00  0.00     0.074 A 
ATOM     31  C   UNL A   1      41.851  30.715  29.437  1.00  0.00     0.029 A 
ATOM     32  N   UNL A   1      43.447  29.322  28.762  1.00  0.00    -0.354 N 
ATOM     33  N   UNL A   1      46.225  28.556  28.147  1.00  0.00    -0.248 NA
ATOM     34  C   UNL A   1      48.483  29.112  27.914  1.00  0.00     0.031 C 
ATOM     35  C   UNL A   1      43.065  31.412  29.414  1.00  0.00     0.029 A 
ATOM     36  C   UNL A   1      44.063  30.538  29.016  1.00  0.00     0.049 A 
ATOM     37  H   UNL A   1      43.909  28.510  28.449  1.00  0.00     0.167 HD
ATOM     38  C   UNL A   1      46.402  29.885  28.497  1.00  0.00     0.074 A 
ATOM     39  C   UNL A   1      47.818  30.166  28.366  1.00  0.00     0.031 C 
ATOM     40  C   UNL A   1      45.475  30.794  28.881  1.00  0.00     0.037 A 
BRANCH  27  41
ATOM     41  C   UNL A   1      39.691  28.623  29.121  1.00  0.00     0.057 A 
ATOM     42  C   UNL A   1      39.104  28.426  30.376  1.00  0.00     0.134 A 
ATOM     43  C   UNL A   1      38.878  29.146  28.105  1.00  0.00     0.134 A 
ATOM     44  F   UNL A   1      39.821  27.918  31.390  1.00  0.00    -0.206 F 
ATOM     45  C   UNL A   1      37.758  28.720  30.608  1.00  0.00     0.040 A 
ATOM     46  C   UNL A   1      37.538  29.466  28.331  1.00  0.00     0.040 A 
ATOM     47  F   UNL A   1      39.377  29.368  26.880  1.00  0.00    -0.206 F 
ATOM     48  C   UNL A   1      36.972  29.248  29.584  1.00  0.00     0.006 A 
ENDBRANCH  27  41
BRANCH  28  49
ATOM     49  C   UNL A   1      49.223  26.414  27.040  1.00  0.00     0.057 A 
ATOM     50  C   UNL A   1      50.053  25.857  28.019  1.00  0.00     0.134 A 
ATOM     51  C   UNL A   1      49.766  26.600  25.762  1.00  0.00     0.134 A 
ATOM     52  F   UNL A   1      49.596  25.668  29.265  1.00  0.00    -0.206 F 
ATOM     53  C   UNL A   1      51.374  25.503  27.739  1.00  0.00     0.040 A 
ATOM     54  C   UNL A   1      51.074  26.220  25.460  1.00  0.00     0.040 A 
ATOM     55  F   UNL A   1      49.018  27.119  24.777  1.00  0.00    -0.206 F 
ATOM     56  C   UNL A   1      51.884  25.675  26.453  1.00  0.00     0.006 A 
ENDBRANCH  28  49
BRANCH  40  57
ATOM     57  C   UNL A   1      45.982  32.162  29.217  1.00  0.00     0.057 A 
ATOM     58  C   UNL A   1      46.395  32.499  30.512  1.00  0.00     0.134 A 
ATOM     59  C   UNL A   1      46.053  33.155  28.232  1.00  0.00     0.134 A 
ATOM     60  F   UNL A   1      46.330  31.596  31.503  1.00  0.00    -0.206 F 
ATOM     61  C   UNL A   1      46.832  33.787  30.824  1.00  0.00     0.040 A 
ATOM     62  C   UNL A   1      46.513  34.439  28.527  1.00  0.00     0.040 A 
ATOM     63  F   UNL A   1      45.676  32.894  26.972  1.00  0.00    -0.206 F 
ATOM     64  C   UNL A   1      46.896  34.759  29.828  1.00  0.00     0.006 A 
ENDBRANCH  40  57
ENDBRANCH  14  15
ENDBRANCH   7   9
ENDBRANCH   4   5
ENDBRANCH   3   4
ENDBRANCH   2   3
ENDBRANCH   1   2
BRANCH   1  65
ATOM     65  N   UNL A   1      36.589  22.984  26.179  1.00  0.00    -0.356 N 
ATOM     66  C   UNL A   1      35.296  23.007  25.778  1.00  0.00     0.225 C 
ATOM     67  H   UNL A   1      36.762  23.544  26.970  1.00  0.00     0.163 HD
ATOM     68  O   UNL A   1      34.568  23.801  26.391  1.00  0.00    -0.275 OA
BRANCH  66  69
ATOM     69  C   UNL A   1      34.671  22.179  24.649  1.00  0.00     0.109 C 
ATOM     70  C   UNL A   1      34.850  22.683  23.233  1.00  0.00     0.026 C 
ATOM     71  C   UNL A   1      33.257  21.663  24.939  1.00  0.00     0.164 C 
ATOM     72  C   UNL A   1      33.617  23.297  22.598  1.00  0.00     0.101 C 
ATOM     73  N   UNL A   1      32.171  22.543  24.508  1.00  0.00    -0.332 N 
ATOM     74  C   UNL A   1      32.322  23.358  23.393  1.00  0.00     0.223 C 
ATOM     75  O   UNL A   1      31.453  24.157  23.033  1.00  0.00    -0.275 OA
BRANCH  71  76
ATOM     76  C   UNL A   1      33.029  20.304  24.321  1.00  0.00     0.127 A 
ATOM     77  C   UNL A   1      32.268  19.871  23.252  1.00  0.00     0.048 A 
ATOM     78  O   UNL A   1      33.752  19.255  24.819  1.00  0.00    -0.467 OA
ATOM     79  C   UNL A   1      32.597  18.507  23.053  1.00  0.00     0.042 A 
ATOM     80  C   UNL A   1      33.508  18.183  24.028  1.00  0.00     0.195 A 
ENDBRANCH  71  76
BRANCH  73  81
ATOM     81  C   UNL A   1      30.885  22.590  25.260  1.00  0.00     0.122 C 
BRANCH  81  82
ATOM     82  C   UNL A   1      30.684  23.589  26.410  1.00  0.00     0.050 C 
BRANCH  82  83
ATOM     83  C   UNL A   1      30.660  25.098  26.127  1.00  0.00     0.162 C 
BRANCH  83  84
ATOM     84  O   UNL A   1      31.460  25.874  27.022  1.00  0.00    -0.378 OA
BRANCH  84  85
ATOM     85  C   UNL A   1      31.909  27.134  26.500  1.00  0.00     0.118 C 
ATOM     86  C   UNL A   1      31.593  28.196  27.542  1.00  0.00     0.032 C 
ATOM     87  C   UNL A   1      33.421  27.105  26.240  1.00  0.00     0.032 C 
ATOM     88  C   UNL A   1      32.099  29.572  27.154  1.00  0.00     0.003 C 
ATOM     89  C   UNL A   1      33.970  28.495  25.888  1.00  0.00     0.003 C 
ATOM     90  C   UNL A   1      33.599  29.545  26.932  1.00  0.00     0.000 C 
ENDBRANCH  84  85
ENDBRANCH  83  84
ENDBRANCH  82  83
ENDBRANCH  81  82
ENDBRANCH  73  81
ENDBRANCH  66  69
ENDBRANCH   1  65
TORSDOF 17
ENDMDL
