MODEL 1
REMARK VINA RESULT:     -11.1      0.000      0.000
REMARK SMILES O=C(CCn1ccnc1)N[C@H]1C=C[C@H](C(=O)NCCCCNC(=O)c2ccc(-c3c4nc(c(-c5c(F)cccc5F)c5ccc([nH]5)c(-c5c(F)cccc5F)c5nc(c(-c6c(F)cccc6F)c6ccc3[nH]6)C=C5)C=C4)cc2)C1
REMARK SMILES IDX 18 1 17 2 15 3 16 4 14 6 11 7 12 8 79 9 13 10 10 11 1 12
REMARK SMILES IDX 2 13 3 15 4 16 5 17 6 18 9 19 7 20 8 21 19 22 20 23 21 24
REMARK SMILES IDX 22 25 23 26 24 28 25 29 26 30 78 31 27 32 77 33 28 34 29 35
REMARK SMILES IDX 30 36 71 37 31 38 76 39 70 40 72 41 32 42 75 43 69 44 68 45
REMARK SMILES IDX 33 47 59 48 42 49 58 50 43 51 46 52 57 53 73 54 44 55 45 56
REMARK SMILES IDX 56 58 74 59 47 60 34 61 35 62 40 63 36 64 37 65 39 66 41 67
REMARK SMILES IDX 38 68 60 69 61 70 66 71 62 72 63 73 65 74 67 75 64 76 48 77
REMARK SMILES IDX 49 78 54 79 50 80 51 81 53 82 55 83 52 84
REMARK H PARENT 17 5 10 14 22 27 72 46 46 57
REMARK Flexibility Score: inf
ROOT
ATOM      1  C   UNL A   1      39.200  22.321  26.174  1.00  0.00     0.116 C 
ENDROOT
BRANCH   1   2
ATOM      2  N   UNL A   1      38.027  21.463  26.063  1.00  0.00    -0.356 N 
ATOM      3  C   UNL A   1      36.855  21.678  25.370  1.00  0.00     0.227 C 
ATOM      4  O   UNL A   1      36.029  20.767  25.311  1.00  0.00    -0.274 OA
ATOM      5  H   UNL A   1      38.078  20.610  26.553  1.00  0.00     0.163 HD
BRANCH   3   6
ATOM      6  C   UNL A   1      36.654  23.040  24.696  1.00  0.00     0.103 C 
ATOM      7  C   UNL A   1      34.336  23.857  24.439  1.00  0.00     0.106 C 
ATOM      8  C   UNL A   1      34.959  23.544  23.123  1.00  0.00    -0.006 C 
ATOM      9  C   UNL A   1      35.528  23.799  25.393  1.00  0.00     0.047 C 
ATOM     10  C   UNL A   1      36.195  23.044  23.268  1.00  0.00    -0.016 C 
BRANCH   7  11
ATOM     11  N   UNL A   1      33.718  25.160  24.441  1.00  0.00    -0.350 N 
ATOM     12  O   UNL A   1      31.681  24.394  23.704  1.00  0.00    -0.275 OA
ATOM     13  C   UNL A   1      32.391  25.313  24.104  1.00  0.00     0.222 C 
ATOM     14  H   UNL A   1      34.253  25.950  24.686  1.00  0.00     0.164 HD
BRANCH  13  15
ATOM     15  C   UNL A   1      31.817  26.693  24.318  1.00  0.00     0.122 C 
BRANCH  15  16
ATOM     16  C   UNL A   1      30.318  26.730  24.036  1.00  0.00     0.133 C 
BRANCH  16  17
ATOM     17  N   UNL A   1      29.926  27.906  23.283  1.00  0.00    -0.337 N 
ATOM     18  C   UNL A   1      28.655  28.395  23.170  1.00  0.00     0.107 A 
ATOM     19  C   UNL A   1      30.730  28.644  22.462  1.00  0.00     0.199 A 
ATOM     20  C   UNL A   1      28.739  29.381  22.216  1.00  0.00     0.130 A 
ATOM     21  N   UNL A   1      30.030  29.518  21.776  1.00  0.00    -0.245 NA
ENDBRANCH  16  17
ENDBRANCH  15  16
ENDBRANCH  13  15
ENDBRANCH   7  11
ENDBRANCH   3   6
ENDBRANCH   1   2
BRANCH   1  22
ATOM     22  C   UNL A   1      40.374  21.698  26.946  1.00  0.00     0.023 C 
BRANCH  22  23
ATOM     23  C   UNL A   1      40.933  20.377  26.407  1.00  0.00     0.023 C 
BRANCH  23  24
ATOM     24  C   UNL A   1      42.281  19.978  26.985  1.00  0.00     0.116 C 
BRANCH  24  25
ATOM     25  N   UNL A   1      43.302  19.727  25.965  1.00  0.00    -0.352 N 
ATOM     26  C   UNL A   1      43.913  20.652  25.127  1.00  0.00     0.251 C 
ATOM     27  H   UNL A   1      43.589  18.792  25.860  1.00  0.00     0.163 HD
ATOM     28  O   UNL A   1      44.454  20.318  24.090  1.00  0.00    -0.269 OA
BRANCH  26  29
ATOM     29  C   UNL A   1      43.904  22.065  25.545  1.00  0.00     0.039 A 
ATOM     30  C   UNL A   1      43.078  23.019  24.946  1.00  0.00     0.014 A 
ATOM     31  C   UNL A   1      44.711  22.395  26.625  1.00  0.00     0.014 A 
ATOM     32  C   UNL A   1      43.006  24.292  25.512  1.00  0.00     0.010 A 
ATOM     33  C   UNL A   1      44.484  23.565  27.293  1.00  0.00     0.010 A 
ATOM     34  C   UNL A   1      43.701  24.551  26.703  1.00  0.00    -0.014 A 
BRANCH  34  35
ATOM     35  C   UNL A   1      43.558  25.810  27.427  1.00  0.00     0.031 A 
ATOM     36  C   UNL A   1      44.556  26.861  27.076  1.00  0.00     0.074 A 
ATOM     37  C   UNL A   1      42.440  26.083  28.138  1.00  0.00     0.049 A 
ATOM     38  N   UNL A   1      45.403  27.445  27.859  1.00  0.00    -0.248 NA
ATOM     39  C   UNL A   1      44.710  27.232  25.658  1.00  0.00     0.031 C 
ATOM     40  C   UNL A   1      41.239  25.248  28.301  1.00  0.00     0.029 A 
ATOM     41  N   UNL A   1      42.072  27.236  28.757  1.00  0.00    -0.354 N 
ATOM     42  C   UNL A   1      46.047  28.406  27.082  1.00  0.00     0.074 A 
ATOM     43  C   UNL A   1      45.717  28.106  25.714  1.00  0.00     0.031 C 
ATOM     44  C   UNL A   1      40.208  26.006  28.730  1.00  0.00     0.029 A 
ATOM     45  C   UNL A   1      40.715  27.326  29.051  1.00  0.00     0.049 A 
ATOM     46  H   UNL A   1      42.713  27.949  28.980  1.00  0.00     0.167 HD
ATOM     47  C   UNL A   1      46.590  29.521  27.646  1.00  0.00     0.037 A 
ATOM     48  C   UNL A   1      40.047  28.416  29.501  1.00  0.00     0.037 A 
ATOM     49  C   UNL A   1      46.764  29.351  29.068  1.00  0.00     0.049 A 
ATOM     50  C   UNL A   1      41.060  29.350  30.052  1.00  0.00     0.074 A 
ATOM     51  C   UNL A   1      47.450  28.454  29.863  1.00  0.00     0.029 A 
ATOM     52  N   UNL A   1      45.860  29.965  29.899  1.00  0.00    -0.354 N 
ATOM     53  N   UNL A   1      41.758  29.107  31.125  1.00  0.00    -0.248 NA
ATOM     54  C   UNL A   1      41.631  30.331  29.142  1.00  0.00     0.031 C 
ATOM     55  C   UNL A   1      46.586  28.216  30.973  1.00  0.00     0.029 A 
ATOM     56  C   UNL A   1      45.468  29.037  30.828  1.00  0.00     0.049 A 
ATOM     57  H   UNL A   1      45.552  30.898  29.840  1.00  0.00     0.167 HD
ATOM     58  C   UNL A   1      43.036  29.552  30.821  1.00  0.00     0.074 A 
ATOM     59  C   UNL A   1      42.877  30.375  29.623  1.00  0.00     0.031 C 
ATOM     60  C   UNL A   1      44.138  28.974  31.386  1.00  0.00     0.037 A 
BRANCH  47  61
ATOM     61  C   UNL A   1      46.598  30.888  27.002  1.00  0.00     0.057 A 
ATOM     62  C   UNL A   1      47.796  31.628  26.980  1.00  0.00     0.134 A 
ATOM     63  C   UNL A   1      45.439  31.626  26.688  1.00  0.00     0.134 A 
ATOM     64  F   UNL A   1      48.971  31.045  27.266  1.00  0.00    -0.206 F 
ATOM     65  C   UNL A   1      47.824  33.010  26.754  1.00  0.00     0.040 A 
ATOM     66  C   UNL A   1      45.462  32.996  26.410  1.00  0.00     0.040 A 
ATOM     67  F   UNL A   1      44.212  31.094  26.733  1.00  0.00    -0.206 F 
ATOM     68  C   UNL A   1      46.651  33.701  26.480  1.00  0.00     0.006 A 
ENDBRANCH  47  61
BRANCH  48  69
ATOM     69  C   UNL A   1      38.649  28.824  29.237  1.00  0.00     0.057 A 
ATOM     70  C   UNL A   1      37.706  28.904  30.271  1.00  0.00     0.134 A 
ATOM     71  C   UNL A   1      38.272  29.407  28.013  1.00  0.00     0.134 A 
ATOM     72  F   UNL A   1      37.988  28.412  31.486  1.00  0.00    -0.206 F 
ATOM     73  C   UNL A   1      36.473  29.549  30.107  1.00  0.00     0.040 A 
ATOM     74  C   UNL A   1      37.041  30.049  27.834  1.00  0.00     0.040 A 
ATOM     75  F   UNL A   1      39.121  29.450  26.976  1.00  0.00    -0.206 F 
ATOM     76  C   UNL A   1      36.142  30.135  28.889  1.00  0.00     0.006 A 
ENDBRANCH  48  69
BRANCH  60  77
ATOM     77  C   UNL A   1      43.926  28.007  32.521  1.00  0.00     0.057 A 
ATOM     78  C   UNL A   1      43.844  26.614  32.367  1.00  0.00     0.134 A 
ATOM     79  C   UNL A   1      43.967  28.491  33.832  1.00  0.00     0.134 A 
ATOM     80  F   UNL A   1      43.899  26.044  31.159  1.00  0.00    -0.206 F 
ATOM     81  C   UNL A   1      43.763  25.749  33.463  1.00  0.00     0.040 A 
ATOM     82  C   UNL A   1      43.922  27.637  34.937  1.00  0.00     0.040 A 
ATOM     83  F   UNL A   1      44.105  29.806  34.062  1.00  0.00    -0.206 F 
ATOM     84  C   UNL A   1      43.809  26.262  34.755  1.00  0.00     0.006 A 
ENDBRANCH  60  77
ENDBRANCH  34  35
ENDBRANCH  26  29
ENDBRANCH  24  25
ENDBRANCH  23  24
ENDBRANCH  22  23
ENDBRANCH   1  22
TORSDOF 15
ENDMDL
MODEL 2
REMARK VINA RESULT:     -10.7      2.814      7.823
REMARK SMILES O=C(CCn1ccnc1)N[C@H]1C=C[C@H](C(=O)NCCCCNC(=O)c2ccc(-c3c4nc(c(-c5c(F)cccc5F)c5ccc([nH]5)c(-c5c(F)cccc5F)c5nc(c(-c6c(F)cccc6F)c6ccc3[nH]6)C=C5)C=C4)cc2)C1
REMARK SMILES IDX 18 1 17 2 15 3 16 4 14 6 11 7 12 8 79 9 13 10 10 11 1 12
REMARK SMILES IDX 2 13 3 15 4 16 5 17 6 18 9 19 7 20 8 21 19 22 20 23 21 24
REMARK SMILES IDX 22 25 23 26 24 28 25 29 26 30 78 31 27 32 77 33 28 34 29 35
REMARK SMILES IDX 30 36 71 37 31 38 76 39 70 40 72 41 32 42 75 43 69 44 68 45
REMARK SMILES IDX 33 47 59 48 42 49 58 50 43 51 46 52 57 53 73 54 44 55 45 56
REMARK SMILES IDX 56 58 74 59 47 60 34 61 35 62 40 63 36 64 37 65 39 66 41 67
REMARK SMILES IDX 38 68 60 69 61 70 66 71 62 72 63 73 65 74 67 75 64 76 48 77
REMARK SMILES IDX 49 78 54 79 50 80 51 81 53 82 55 83 52 84
REMARK H PARENT 17 5 10 14 22 27 72 46 46 57
REMARK Flexibility Score: inf
ROOT
ATOM      1  C   UNL A   1      31.706  30.080  25.986  1.00  0.00     0.116 C 
ENDROOT
BRANCH   1   2
ATOM      2  N   UNL A   1      31.133  30.058  24.645  1.00  0.00    -0.356 N 
ATOM      3  C   UNL A   1      30.615  28.995  23.938  1.00  0.00     0.227 C 
ATOM      4  O   UNL A   1      30.071  29.214  22.856  1.00  0.00    -0.274 OA
ATOM      5  H   UNL A   1      31.114  30.926  24.179  1.00  0.00     0.163 HD
BRANCH   3   6
ATOM      6  C   UNL A   1      30.735  27.594  24.549  1.00  0.00     0.103 C 
ATOM      7  C   UNL A   1      31.351  25.736  23.041  1.00  0.00     0.106 C 
ATOM      8  C   UNL A   1      29.957  25.598  23.545  1.00  0.00    -0.006 C 
ATOM      9  C   UNL A   1      31.911  26.854  23.919  1.00  0.00     0.047 C 
ATOM     10  C   UNL A   1      29.604  26.638  24.315  1.00  0.00    -0.016 C 
BRANCH   7  11
ATOM     11  N   UNL A   1      32.099  24.513  23.198  1.00  0.00    -0.350 N 
ATOM     12  O   UNL A   1      33.196  24.715  21.189  1.00  0.00    -0.275 OA
ATOM     13  C   UNL A   1      33.017  24.120  22.249  1.00  0.00     0.222 C 
ATOM     14  H   UNL A   1      31.952  23.954  23.995  1.00  0.00     0.164 HD
BRANCH  13  15
ATOM     15  C   UNL A   1      33.862  22.923  22.613  1.00  0.00     0.122 C 
BRANCH  15  16
ATOM     16  C   UNL A   1      34.019  22.782  24.125  1.00  0.00     0.133 C 
BRANCH  16  17
ATOM     17  N   UNL A   1      33.515  21.515  24.617  1.00  0.00    -0.337 N 
ATOM     18  C   UNL A   1      34.274  20.427  24.944  1.00  0.00     0.107 A 
ATOM     19  C   UNL A   1      32.203  21.152  24.716  1.00  0.00     0.199 A 
ATOM     20  C   UNL A   1      33.367  19.417  25.164  1.00  0.00     0.130 A 
ATOM     21  N   UNL A   1      32.086  19.876  25.007  1.00  0.00    -0.245 NA
ENDBRANCH  16  17
ENDBRANCH  15  16
ENDBRANCH  13  15
ENDBRANCH   7  11
ENDBRANCH   3   6
ENDBRANCH   1   2
BRANCH   1  22
ATOM     22  C   UNL A   1      33.232  29.898  26.030  1.00  0.00     0.023 C 
BRANCH  22  23
ATOM     23  C   UNL A   1      33.784  28.936  27.086  1.00  0.00     0.023 C 
BRANCH  23  24
ATOM     24  C   UNL A   1      35.232  29.186  27.474  1.00  0.00     0.116 C 
BRANCH  24  25
ATOM     25  N   UNL A   1      35.379  29.989  28.691  1.00  0.00    -0.352 N 
ATOM     26  C   UNL A   1      36.384  29.911  29.646  1.00  0.00     0.251 C 
ATOM     27  H   UNL A   1      34.683  30.666  28.850  1.00  0.00     0.163 HD
ATOM     28  O   UNL A   1      36.232  30.340  30.774  1.00  0.00    -0.269 OA
BRANCH  26  29
ATOM     29  C   UNL A   1      37.664  29.301  29.245  1.00  0.00     0.039 A 
ATOM     30  C   UNL A   1      38.405  29.761  28.153  1.00  0.00     0.014 A 
ATOM     31  C   UNL A   1      38.144  28.281  30.055  1.00  0.00     0.014 A 
ATOM     32  C   UNL A   1      39.682  29.242  27.944  1.00  0.00     0.010 A 
ATOM     33  C   UNL A   1      39.462  27.929  29.972  1.00  0.00     0.010 A 
ATOM     34  C   UNL A   1      40.213  28.336  28.875  1.00  0.00    -0.014 A 
BRANCH  34  35
ATOM     35  C   UNL A   1      41.592  27.864  28.800  1.00  0.00     0.031 A 
ATOM     36  C   UNL A   1      41.791  26.606  28.025  1.00  0.00     0.074 A 
ATOM     37  C   UNL A   1      42.624  28.662  29.161  1.00  0.00     0.049 A 
ATOM     38  N   UNL A   1      42.287  25.487  28.440  1.00  0.00    -0.248 NA
ATOM     39  C   UNL A   1      41.273  26.547  26.645  1.00  0.00     0.031 C 
ATOM     40  C   UNL A   1      42.573  30.050  29.647  1.00  0.00     0.029 A 
ATOM     41  N   UNL A   1      43.961  28.451  29.036  1.00  0.00    -0.354 N 
ATOM     42  C   UNL A   1      42.343  24.652  27.325  1.00  0.00     0.074 A 
ATOM     43  C   UNL A   1      41.546  25.284  26.308  1.00  0.00     0.031 C 
ATOM     44  C   UNL A   1      43.787  30.625  29.519  1.00  0.00     0.029 A 
ATOM     45  C   UNL A   1      44.737  29.603  29.125  1.00  0.00     0.049 A 
ATOM     46  H   UNL A   1      44.348  27.558  28.895  1.00  0.00     0.167 HD
ATOM     47  C   UNL A   1      43.249  23.638  27.249  1.00  0.00     0.037 A 
ATOM     48  C   UNL A   1      46.062  29.716  28.867  1.00  0.00     0.037 A 
ATOM     49  C   UNL A   1      43.785  23.321  28.549  1.00  0.00     0.049 A 
ATOM     50  C   UNL A   1      46.633  28.348  28.914  1.00  0.00     0.074 A 
ATOM     51  C   UNL A   1      43.240  22.920  29.754  1.00  0.00     0.029 A 
ATOM     52  N   UNL A   1      45.047  23.773  28.848  1.00  0.00    -0.354 N 
ATOM     53  N   UNL A   1      46.719  27.638  30.004  1.00  0.00    -0.248 NA
ATOM     54  C   UNL A   1      46.665  27.592  27.671  1.00  0.00     0.031 C 
ATOM     55  C   UNL A   1      43.990  23.621  30.745  1.00  0.00     0.029 A 
ATOM     56  C   UNL A   1      44.990  24.342  30.093  1.00  0.00     0.049 A 
ATOM     57  H   UNL A   1      45.844  23.701  28.274  1.00  0.00     0.167 HD
ATOM     58  C   UNL A   1      46.372  26.353  29.614  1.00  0.00     0.074 A 
ATOM     59  C   UNL A   1      46.436  26.367  28.153  1.00  0.00     0.031 C 
ATOM     60  C   UNL A   1      45.778  25.486  30.488  1.00  0.00     0.037 A 
BRANCH  47  61
ATOM     61  C   UNL A   1      43.941  23.203  25.977  1.00  0.00     0.057 A 
ATOM     62  C   UNL A   1      43.988  21.832  25.657  1.00  0.00     0.134 A 
ATOM     63  C   UNL A   1      44.813  24.018  25.227  1.00  0.00     0.134 A 
ATOM     64  F   UNL A   1      43.211  20.948  26.302  1.00  0.00    -0.206 F 
ATOM     65  C   UNL A   1      44.897  21.306  24.731  1.00  0.00     0.040 A 
ATOM     66  C   UNL A   1      45.688  23.509  24.264  1.00  0.00     0.040 A 
ATOM     67  F   UNL A   1      44.946  25.330  25.453  1.00  0.00    -0.206 F 
ATOM     68  C   UNL A   1      45.760  22.145  24.039  1.00  0.00     0.006 A 
ENDBRANCH  47  61
BRANCH  48  69
ATOM     69  C   UNL A   1      46.806  30.869  28.313  1.00  0.00     0.057 A 
ATOM     70  C   UNL A   1      46.568  31.330  27.010  1.00  0.00     0.134 A 
ATOM     71  C   UNL A   1      47.569  31.717  29.136  1.00  0.00     0.134 A 
ATOM     72  F   UNL A   1      45.818  30.612  26.162  1.00  0.00    -0.206 F 
ATOM     73  C   UNL A   1      47.038  32.572  26.561  1.00  0.00     0.040 A 
ATOM     74  C   UNL A   1      48.050  32.957  28.698  1.00  0.00     0.040 A 
ATOM     75  F   UNL A   1      47.800  31.410  30.421  1.00  0.00    -0.206 F 
ATOM     76  C   UNL A   1      47.771  33.395  27.410  1.00  0.00     0.006 A 
ENDBRANCH  48  69
BRANCH  60  77
ATOM     77  C   UNL A   1      45.724  25.874  31.942  1.00  0.00     0.057 A 
ATOM     78  C   UNL A   1      46.799  25.738  32.836  1.00  0.00     0.134 A 
ATOM     79  C   UNL A   1      44.599  26.555  32.414  1.00  0.00     0.134 A 
ATOM     80  F   UNL A   1      47.958  25.193  32.452  1.00  0.00    -0.206 F 
ATOM     81  C   UNL A   1      46.739  26.219  34.148  1.00  0.00     0.040 A 
ATOM     82  C   UNL A   1      44.537  27.071  33.712  1.00  0.00     0.040 A 
ATOM     83  F   UNL A   1      43.554  26.777  31.602  1.00  0.00    -0.206 F 
ATOM     84  C   UNL A   1      45.605  26.895  34.587  1.00  0.00     0.006 A 
ENDBRANCH  60  77
ENDBRANCH  34  35
ENDBRANCH  26  29
ENDBRANCH  24  25
ENDBRANCH  23  24
ENDBRANCH  22  23
ENDBRANCH   1  22
TORSDOF 15
ENDMDL
MODEL 3
REMARK VINA RESULT:     -10.5      2.145      5.937
REMARK SMILES O=C(CCn1ccnc1)N[C@H]1C=C[C@H](C(=O)NCCCCNC(=O)c2ccc(-c3c4nc(c(-c5c(F)cccc5F)c5ccc([nH]5)c(-c5c(F)cccc5F)c5nc(c(-c6c(F)cccc6F)c6ccc3[nH]6)C=C5)C=C4)cc2)C1
REMARK SMILES IDX 18 1 17 2 15 3 16 4 14 6 11 7 12 8 79 9 13 10 10 11 1 12
REMARK SMILES IDX 2 13 3 15 4 16 5 17 6 18 9 19 7 20 8 21 19 22 20 23 21 24
REMARK SMILES IDX 22 25 23 26 24 28 25 29 26 30 78 31 27 32 77 33 28 34 29 35
REMARK SMILES IDX 30 36 71 37 31 38 76 39 70 40 72 41 32 42 75 43 69 44 68 45
REMARK SMILES IDX 33 47 59 48 42 49 58 50 43 51 46 52 57 53 73 54 44 55 45 56
REMARK SMILES IDX 56 58 74 59 47 60 34 61 35 62 40 63 36 64 37 65 39 66 41 67
REMARK SMILES IDX 38 68 60 69 61 70 66 71 62 72 63 73 65 74 67 75 64 76 48 77
REMARK SMILES IDX 49 78 54 79 50 80 51 81 53 82 55 83 52 84
REMARK H PARENT 17 5 10 14 22 27 72 46 46 57
REMARK Flexibility Score: inf
ROOT
ATOM      1  C   UNL A   1      35.472  21.128  25.916  1.00  0.00     0.116 C 
ENDROOT
BRANCH   1   2
ATOM      2  N   UNL A   1      34.238  20.403  25.636  1.00  0.00    -0.356 N 
ATOM      3  C   UNL A   1      33.039  20.881  25.151  1.00  0.00     0.227 C 
ATOM      4  O   UNL A   1      32.152  20.075  24.874  1.00  0.00    -0.274 OA
ATOM      5  H   UNL A   1      34.264  19.436  25.819  1.00  0.00     0.163 HD
BRANCH   3   6
ATOM      6  C   UNL A   1      32.886  22.395  24.971  1.00  0.00     0.103 C 
ATOM      7  C   UNL A   1      30.941  23.201  23.676  1.00  0.00     0.106 C 
ATOM      8  C   UNL A   1      32.224  23.469  22.969  1.00  0.00    -0.006 C 
ATOM      9  C   UNL A   1      31.412  22.780  25.067  1.00  0.00     0.047 C 
ATOM     10  C   UNL A   1      33.273  22.977  23.644  1.00  0.00    -0.016 C 
BRANCH   7  11
ATOM     11  N   UNL A   1      30.108  24.377  23.732  1.00  0.00    -0.350 N 
ATOM     12  O   UNL A   1      31.746  25.714  24.631  1.00  0.00    -0.275 OA
ATOM     13  C   UNL A   1      30.612  25.579  24.178  1.00  0.00     0.222 C 
ATOM     14  H   UNL A   1      29.167  24.318  23.447  1.00  0.00     0.164 HD
BRANCH  13  15
ATOM     15  C   UNL A   1      29.698  26.770  24.019  1.00  0.00     0.122 C 
BRANCH  15  16
ATOM     16  C   UNL A   1      30.196  27.722  22.935  1.00  0.00     0.133 C 
BRANCH  16  17
ATOM     17  N   UNL A   1      29.224  28.748  22.612  1.00  0.00    -0.337 N 
ATOM     18  C   UNL A   1      29.490  29.930  21.979  1.00  0.00     0.107 A 
ATOM     19  C   UNL A   1      27.913  28.768  22.995  1.00  0.00     0.199 A 
ATOM     20  C   UNL A   1      28.323  30.651  22.071  1.00  0.00     0.130 A 
ATOM     21  N   UNL A   1      27.355  29.924  22.714  1.00  0.00    -0.245 NA
ENDBRANCH  16  17
ENDBRANCH  15  16
ENDBRANCH  13  15
ENDBRANCH   7  11
ENDBRANCH   3   6
ENDBRANCH   1   2
BRANCH   1  22
ATOM     22  C   UNL A   1      36.529  21.039  24.805  1.00  0.00     0.023 C 
BRANCH  22  23
ATOM     23  C   UNL A   1      37.568  19.919  24.927  1.00  0.00     0.023 C 
BRANCH  23  24
ATOM     24  C   UNL A   1      38.886  20.345  25.555  1.00  0.00     0.116 C 
BRANCH  24  25
ATOM     25  N   UNL A   1      39.839  19.243  25.713  1.00  0.00    -0.352 N 
ATOM     26  C   UNL A   1      41.204  19.327  25.956  1.00  0.00     0.251 C 
ATOM     27  H   UNL A   1      39.468  18.335  25.637  1.00  0.00     0.163 HD
ATOM     28  O   UNL A   1      41.958  18.405  25.707  1.00  0.00    -0.269 OA
BRANCH  26  29
ATOM     29  C   UNL A   1      41.718  20.574  26.550  1.00  0.00     0.039 A 
ATOM     30  C   UNL A   1      42.344  21.564  25.790  1.00  0.00     0.014 A 
ATOM     31  C   UNL A   1      41.483  20.755  27.906  1.00  0.00     0.014 A 
ATOM     32  C   UNL A   1      42.648  22.783  26.398  1.00  0.00     0.010 A 
ATOM     33  C   UNL A   1      41.590  22.008  28.439  1.00  0.00     0.010 A 
ATOM     34  C   UNL A   1      42.247  23.004  27.724  1.00  0.00    -0.014 A 
BRANCH  34  35
ATOM     35  C   UNL A   1      42.401  24.301  28.376  1.00  0.00     0.031 A 
ATOM     36  C   UNL A   1      41.295  25.269  28.133  1.00  0.00     0.074 A 
ATOM     37  C   UNL A   1      43.327  24.488  29.345  1.00  0.00     0.049 A 
ATOM     38  N   UNL A   1      41.371  26.442  27.595  1.00  0.00    -0.248 NA
ATOM     39  C   UNL A   1      39.914  24.840  28.421  1.00  0.00     0.031 C 
ATOM     40  C   UNL A   1      44.274  23.507  29.901  1.00  0.00     0.029 A 
ATOM     41  N   UNL A   1      43.527  25.566  30.150  1.00  0.00    -0.354 N 
ATOM     42  C   UNL A   1      40.089  26.986  27.671  1.00  0.00     0.074 A 
ATOM     43  C   UNL A   1      39.211  25.898  28.013  1.00  0.00     0.031 C 
ATOM     44  C   UNL A   1      44.738  23.943  31.090  1.00  0.00     0.029 A 
ATOM     45  C   UNL A   1      44.276  25.302  31.292  1.00  0.00     0.049 A 
ATOM     46  H   UNL A   1      43.171  26.459  29.941  1.00  0.00     0.167 HD
ATOM     47  C   UNL A   1      39.895  28.333  27.697  1.00  0.00     0.037 A 
ATOM     48  C   UNL A   1      44.482  26.132  32.343  1.00  0.00     0.037 A 
ATOM     49  C   UNL A   1      41.067  29.036  27.236  1.00  0.00     0.049 A 
ATOM     50  C   UNL A   1      44.160  27.505  31.883  1.00  0.00     0.074 A 
ATOM     51  C   UNL A   1      41.806  29.032  26.069  1.00  0.00     0.029 A 
ATOM     52  N   UNL A   1      41.871  29.625  28.180  1.00  0.00    -0.354 N 
ATOM     53  N   UNL A   1      44.865  28.153  30.997  1.00  0.00    -0.248 NA
ATOM     54  C   UNL A   1      42.791  27.965  32.052  1.00  0.00     0.031 C 
ATOM     55  C   UNL A   1      43.163  29.140  26.496  1.00  0.00     0.029 A 
ATOM     56  C   UNL A   1      43.164  29.281  27.884  1.00  0.00     0.049 A 
ATOM     57  H   UNL A   1      41.574  30.191  28.929  1.00  0.00     0.167 HD
ATOM     58  C   UNL A   1      43.926  28.789  30.199  1.00  0.00     0.074 A 
ATOM     59  C   UNL A   1      42.672  28.709  30.948  1.00  0.00     0.031 C 
ATOM     60  C   UNL A   1      44.182  29.054  28.883  1.00  0.00     0.037 A 
BRANCH  47  61
ATOM     61  C   UNL A   1      38.816  29.027  28.497  1.00  0.00     0.057 A 
ATOM     62  C   UNL A   1      38.683  28.732  29.867  1.00  0.00     0.134 A 
ATOM     63  C   UNL A   1      37.727  29.720  27.930  1.00  0.00     0.134 A 
ATOM     64  F   UNL A   1      39.647  28.070  30.526  1.00  0.00    -0.206 F 
ATOM     65  C   UNL A   1      37.520  29.023  30.591  1.00  0.00     0.040 A 
ATOM     66  C   UNL A   1      36.582  30.061  28.657  1.00  0.00     0.040 A 
ATOM     67  F   UNL A   1      37.659  30.015  26.627  1.00  0.00    -0.206 F 
ATOM     68  C   UNL A   1      36.459  29.680  29.982  1.00  0.00     0.006 A 
ENDBRANCH  47  61
BRANCH  48  69
ATOM     69  C   UNL A   1      44.660  25.794  33.773  1.00  0.00     0.057 A 
ATOM     70  C   UNL A   1      43.558  25.582  34.613  1.00  0.00     0.134 A 
ATOM     71  C   UNL A   1      45.911  25.403  34.286  1.00  0.00     0.134 A 
ATOM     72  F   UNL A   1      42.320  25.886  34.199  1.00  0.00    -0.206 F 
ATOM     73  C   UNL A   1      43.687  24.990  35.878  1.00  0.00     0.040 A 
ATOM     74  C   UNL A   1      46.054  24.817  35.549  1.00  0.00     0.040 A 
ATOM     75  F   UNL A   1      47.023  25.494  33.543  1.00  0.00    -0.206 F 
ATOM     76  C   UNL A   1      44.937  24.595  36.344  1.00  0.00     0.006 A 
ENDBRANCH  48  69
BRANCH  60  77
ATOM     77  C   UNL A   1      45.587  28.856  28.382  1.00  0.00     0.057 A 
ATOM     78  C   UNL A   1      46.624  29.789  28.549  1.00  0.00     0.134 A 
ATOM     79  C   UNL A   1      45.943  27.612  27.854  1.00  0.00     0.134 A 
ATOM     80  F   UNL A   1      46.409  30.970  29.137  1.00  0.00    -0.206 F 
ATOM     81  C   UNL A   1      47.941  29.511  28.169  1.00  0.00     0.040 A 
ATOM     82  C   UNL A   1      47.261  27.308  27.502  1.00  0.00     0.040 A 
ATOM     83  F   UNL A   1      45.020  26.647  27.719  1.00  0.00    -0.206 F 
ATOM     84  C   UNL A   1      48.264  28.262  27.649  1.00  0.00     0.006 A 
ENDBRANCH  60  77
ENDBRANCH  34  35
ENDBRANCH  26  29
ENDBRANCH  24  25
ENDBRANCH  23  24
ENDBRANCH  22  23
ENDBRANCH   1  22
TORSDOF 15
ENDMDL
