MODEL 1
REMARK VINA RESULT:     -13.1      0.000      0.000
REMARK SMILES O=C(NCCCCNC(=O)c1nn(Cc2ccc(F)cc2)c2c1CN(C(=O)[C@H]1CC1(F)F)CC2)c1ccc(-c2c3nc(c(-c4c(F)cccc4F)c4ccc([nH]4)c(-c4c(F)cccc4F)c4nc(c(-c5c(F)cccc5F)c5ccc2[nH]5)C=C4)C=C3)cc1
REMARK SMILES IDX 5 1 4 2 3 3 1 4 2 5 35 7 36 8 88 9 37 10 87 11 38 12 39 13
REMARK SMILES IDX 40 14 81 15 41 16 86 17 80 18 82 19 42 20 85 21 79 22 78 23
REMARK SMILES IDX 43 25 69 26 52 27 68 28 53 29 56 30 67 31 83 32 54 33 55 34
REMARK SMILES IDX 66 36 84 37 57 38 44 39 45 40 50 41 46 42 47 43 49 44 51 45
REMARK SMILES IDX 48 46 70 47 71 48 76 49 72 50 73 51 75 52 77 53 74 54 58 55
REMARK SMILES IDX 59 56 64 57 60 58 61 59 63 60 65 61 62 62 6 63 7 64 8 65
REMARK SMILES IDX 9 66 10 68 11 69 12 70 23 71 13 72 22 73 24 74 34 75 25 76
REMARK SMILES IDX 33 77 14 78 15 79 16 80 21 81 17 82 20 83 18 84 19 85 26 86
REMARK SMILES IDX 27 87 28 88 29 89 30 90 31 91 32 92
REMARK H PARENT 3 6 82 24 56 35 8 67
REMARK Flexibility Score: inf
ROOT
ATOM      1  C   UNL A   1      39.437  21.918  26.093  1.00  0.00     0.023 C 
ENDROOT
BRANCH   1   2
ATOM      2  C   UNL A   1      40.899  21.660  26.453  1.00  0.00     0.116 C 
BRANCH   2   3
ATOM      3  N   UNL A   1      41.852  22.179  25.493  1.00  0.00    -0.352 N 
ATOM      4  O   UNL A   1      43.473  23.276  24.486  1.00  0.00    -0.269 OA
ATOM      5  C   UNL A   1      42.618  23.305  25.378  1.00  0.00     0.251 C 
ATOM      6  H   UNL A   1      41.981  21.567  24.732  1.00  0.00     0.163 HD
BRANCH   5   7
ATOM      7  C   UNL A   1      42.471  24.562  26.168  1.00  0.00     0.039 A 
ATOM      8  C   UNL A   1      43.083  24.856  27.387  1.00  0.00     0.014 A 
ATOM      9  C   UNL A   1      41.589  25.517  25.619  1.00  0.00     0.014 A 
ATOM     10  C   UNL A   1      42.757  26.033  28.072  1.00  0.00     0.010 A 
ATOM     11  C   UNL A   1      41.263  26.688  26.296  1.00  0.00     0.010 A 
ATOM     12  C   UNL A   1      41.816  26.929  27.547  1.00  0.00    -0.014 A 
BRANCH  12  13
ATOM     13  C   UNL A   1      41.530  28.170  28.272  1.00  0.00     0.031 A 
ATOM     14  C   UNL A   1      42.541  29.258  28.084  1.00  0.00     0.074 A 
ATOM     15  C   UNL A   1      40.379  28.408  28.939  1.00  0.00     0.049 A 
ATOM     16  N   UNL A   1      43.254  29.860  28.981  1.00  0.00    -0.248 NA
ATOM     17  C   UNL A   1      42.851  29.671  26.706  1.00  0.00     0.031 C 
ATOM     18  C   UNL A   1      39.159  27.599  28.984  1.00  0.00     0.029 A 
ATOM     19  N   UNL A   1      40.038  29.502  29.680  1.00  0.00    -0.354 N 
ATOM     20  C   UNL A   1      44.005  30.823  28.306  1.00  0.00     0.074 A 
ATOM     21  C   UNL A   1      43.791  30.596  26.900  1.00  0.00     0.031 C 
ATOM     22  C   UNL A   1      38.153  28.324  29.532  1.00  0.00     0.029 A 
ATOM     23  C   UNL A   1      38.689  29.588  30.009  1.00  0.00     0.049 A 
ATOM     24  H   UNL A   1      40.695  30.180  29.960  1.00  0.00     0.167 HD
ATOM     25  C   UNL A   1      44.645  31.839  28.951  1.00  0.00     0.037 A 
ATOM     26  C   UNL A   1      38.062  30.639  30.598  1.00  0.00     0.037 A 
ATOM     27  C   UNL A   1      44.802  31.568  30.352  1.00  0.00     0.049 A 
ATOM     28  C   UNL A   1      39.101  31.464  31.259  1.00  0.00     0.074 A 
ATOM     29  C   UNL A   1      45.502  30.625  31.078  1.00  0.00     0.029 A 
ATOM     30  N   UNL A   1      43.893  32.107  31.226  1.00  0.00    -0.354 N 
ATOM     31  N   UNL A   1      39.791  31.076  32.294  1.00  0.00    -0.248 NA
ATOM     32  C   UNL A   1      39.679  32.551  30.486  1.00  0.00     0.031 C 
ATOM     33  C   UNL A   1      44.643  30.290  32.165  1.00  0.00     0.029 A 
ATOM     34  C   UNL A   1      43.507  31.096  32.070  1.00  0.00     0.049 A 
ATOM     35  H   UNL A   1      43.578  33.040  31.245  1.00  0.00     0.167 HD
ATOM     36  C   UNL A   1      41.069  31.560  32.062  1.00  0.00     0.074 A 
ATOM     37  C   UNL A   1      40.923  32.519  30.969  1.00  0.00     0.031 C 
ATOM     38  C   UNL A   1      42.168  30.943  32.584  1.00  0.00     0.037 A 
BRANCH  25  39
ATOM     39  C   UNL A   1      44.904  33.197  28.357  1.00  0.00     0.057 A 
ATOM     40  C   UNL A   1      46.100  33.530  27.692  1.00  0.00     0.134 A 
ATOM     41  C   UNL A   1      43.854  34.120  28.204  1.00  0.00     0.134 A 
ATOM     42  F   UNL A   1      47.145  32.694  27.656  1.00  0.00    -0.206 F 
ATOM     43  C   UNL A   1      46.250  34.702  26.944  1.00  0.00     0.040 A 
ATOM     44  C   UNL A   1      43.979  35.274  27.419  1.00  0.00     0.040 A 
ATOM     45  F   UNL A   1      42.654  33.898  28.760  1.00  0.00    -0.206 F 
ATOM     46  C   UNL A   1      45.180  35.569  26.785  1.00  0.00     0.006 A 
ENDBRANCH  25  39
BRANCH  26  47
ATOM     47  C   UNL A   1      36.710  31.191  30.325  1.00  0.00     0.057 A 
ATOM     48  C   UNL A   1      36.332  31.580  29.030  1.00  0.00     0.134 A 
ATOM     49  C   UNL A   1      35.888  31.648  31.369  1.00  0.00     0.134 A 
ATOM     50  F   UNL A   1      37.081  31.259  27.966  1.00  0.00    -0.206 F 
ATOM     51  C   UNL A   1      35.224  32.402  28.788  1.00  0.00     0.040 A 
ATOM     52  C   UNL A   1      34.778  32.474  31.140  1.00  0.00     0.040 A 
ATOM     53  F   UNL A   1      36.187  31.365  32.645  1.00  0.00    -0.206 F 
ATOM     54  C   UNL A   1      34.452  32.867  29.846  1.00  0.00     0.006 A 
ENDBRANCH  26  47
BRANCH  38  55
ATOM     55  C   UNL A   1      41.952  29.841  33.590  1.00  0.00     0.057 A 
ATOM     56  C   UNL A   1      42.083  30.140  34.950  1.00  0.00     0.134 A 
ATOM     57  C   UNL A   1      41.805  28.487  33.253  1.00  0.00     0.134 A 
ATOM     58  F   UNL A   1      42.278  31.407  35.348  1.00  0.00    -0.206 F 
ATOM     59  C   UNL A   1      42.079  29.143  35.929  1.00  0.00     0.040 A 
ATOM     60  C   UNL A   1      41.766  27.482  34.225  1.00  0.00     0.040 A 
ATOM     61  F   UNL A   1      41.763  28.090  31.976  1.00  0.00    -0.206 F 
ATOM     62  C   UNL A   1      41.916  27.808  35.569  1.00  0.00     0.006 A 
ENDBRANCH  38  55
ENDBRANCH  12  13
ENDBRANCH   5   7
ENDBRANCH   2   3
ENDBRANCH   1   2
BRANCH   1  63
ATOM     63  C   UNL A   1      38.852  23.252  26.588  1.00  0.00     0.023 C 
BRANCH  63  64
ATOM     64  C   UNL A   1      37.428  23.596  26.126  1.00  0.00     0.116 C 
BRANCH  64  65
ATOM     65  N   UNL A   1      37.325  23.702  24.681  1.00  0.00    -0.351 N 
ATOM     66  C   UNL A   1      36.307  23.327  23.825  1.00  0.00     0.272 C 
ATOM     67  H   UNL A   1      38.106  24.106  24.239  1.00  0.00     0.163 HD
ATOM     68  O   UNL A   1      36.549  23.351  22.617  1.00  0.00    -0.267 OA
BRANCH  66  69
ATOM     69  C   UNL A   1      34.996  22.879  24.332  1.00  0.00     0.155 A 
ATOM     70  N   UNL A   1      34.669  21.583  24.521  1.00  0.00    -0.167 NA
ATOM     71  C   UNL A   1      33.929  23.721  24.766  1.00  0.00     0.026 A 
ATOM     72  N   UNL A   1      33.394  21.598  24.974  1.00  0.00    -0.264 N 
ATOM     73  C   UNL A   1      32.898  22.861  25.080  1.00  0.00     0.046 A 
ATOM     74  C   UNL A   1      33.821  25.214  24.838  1.00  0.00     0.159 C 
ATOM     75  C   UNL A   1      31.534  23.288  25.485  1.00  0.00     0.078 C 
ATOM     76  N   UNL A   1      32.507  25.573  25.426  1.00  0.00    -0.337 N 
ATOM     77  C   UNL A   1      31.351  24.748  25.019  1.00  0.00     0.126 C 
BRANCH  72  78
ATOM     78  C   UNL A   1      32.757  20.359  25.405  1.00  0.00     0.180 C 
BRANCH  78  79
ATOM     79  C   UNL A   1      33.196  19.169  24.588  1.00  0.00    -0.026 A 
ATOM     80  C   UNL A   1      34.317  18.420  24.989  1.00  0.00     0.008 A 
ATOM     81  C   UNL A   1      32.497  18.786  23.432  1.00  0.00     0.008 A 
ATOM     82  C   UNL A   1      34.726  17.308  24.255  1.00  0.00     0.039 A 
ATOM     83  C   UNL A   1      32.907  17.670  22.701  1.00  0.00     0.039 A 
ATOM     84  C   UNL A   1      34.015  16.941  23.119  1.00  0.00     0.123 A 
ATOM     85  F   UNL A   1      34.403  15.869  22.417  1.00  0.00    -0.207 F 
ENDBRANCH  78  79
ENDBRANCH  72  78
BRANCH  76  86
ATOM     86  C   UNL A   1      32.437  26.649  26.305  1.00  0.00     0.232 C 
ATOM     87  O   UNL A   1      31.447  26.921  26.964  1.00  0.00    -0.274 OA
BRANCH  86  88
ATOM     88  C   UNL A   1      33.666  27.458  26.469  1.00  0.00     0.154 C 
ATOM     89  C   UNL A   1      33.852  28.746  25.682  1.00  0.00     0.097 C 
ATOM     90  C   UNL A   1      33.626  28.775  27.146  1.00  0.00     0.260 C 
ATOM     91  F   UNL A   1      32.480  29.359  27.624  1.00  0.00    -0.206 F 
ATOM     92  F   UNL A   1      34.662  29.176  27.963  1.00  0.00    -0.206 F 
ENDBRANCH  86  88
ENDBRANCH  76  86
ENDBRANCH  66  69
ENDBRANCH  64  65
ENDBRANCH  63  64
ENDBRANCH   1  63
TORSDOF 15
ENDMDL
MODEL 2
REMARK VINA RESULT:     -13.0      1.211      4.558
REMARK SMILES O=C(NCCCCNC(=O)c1nn(Cc2ccc(F)cc2)c2c1CN(C(=O)[C@H]1CC1(F)F)CC2)c1ccc(-c2c3nc(c(-c4c(F)cccc4F)c4ccc([nH]4)c(-c4c(F)cccc4F)c4nc(c(-c5c(F)cccc5F)c5ccc2[nH]5)C=C4)C=C3)cc1
REMARK SMILES IDX 5 1 4 2 3 3 1 4 2 5 35 7 36 8 88 9 37 10 87 11 38 12 39 13
REMARK SMILES IDX 40 14 81 15 41 16 86 17 80 18 82 19 42 20 85 21 79 22 78 23
REMARK SMILES IDX 43 25 69 26 52 27 68 28 53 29 56 30 67 31 83 32 54 33 55 34
REMARK SMILES IDX 66 36 84 37 57 38 44 39 45 40 50 41 46 42 47 43 49 44 51 45
REMARK SMILES IDX 48 46 70 47 71 48 76 49 72 50 73 51 75 52 77 53 74 54 58 55
REMARK SMILES IDX 59 56 64 57 60 58 61 59 63 60 65 61 62 62 6 63 7 64 8 65
REMARK SMILES IDX 9 66 10 68 11 69 12 70 23 71 13 72 22 73 24 74 34 75 25 76
REMARK SMILES IDX 33 77 14 78 15 79 16 80 21 81 17 82 20 83 18 84 19 85 26 86
REMARK SMILES IDX 27 87 28 88 29 89 30 90 31 91 32 92
REMARK H PARENT 3 6 82 24 56 35 8 67
REMARK Flexibility Score: inf
ROOT
ATOM      1  C   UNL A   1      39.092  21.958  26.260  1.00  0.00     0.023 C 
ENDROOT
BRANCH   1   2
ATOM      2  C   UNL A   1      40.543  21.732  26.679  1.00  0.00     0.116 C 
BRANCH   2   3
ATOM      3  N   UNL A   1      41.523  22.217  25.727  1.00  0.00    -0.352 N 
ATOM      4  O   UNL A   1      43.195  23.249  24.737  1.00  0.00    -0.269 OA
ATOM      5  C   UNL A   1      42.337  23.309  25.625  1.00  0.00     0.251 C 
ATOM      6  H   UNL A   1      41.629  21.604  24.963  1.00  0.00     0.163 HD
BRANCH   5   7
ATOM      7  C   UNL A   1      42.239  24.566  26.423  1.00  0.00     0.039 A 
ATOM      8  C   UNL A   1      42.809  24.804  27.674  1.00  0.00     0.014 A 
ATOM      9  C   UNL A   1      41.456  25.587  25.843  1.00  0.00     0.014 A 
ATOM     10  C   UNL A   1      42.533  25.994  28.358  1.00  0.00     0.010 A 
ATOM     11  C   UNL A   1      41.180  26.772  26.518  1.00  0.00     0.010 A 
ATOM     12  C   UNL A   1      41.685  26.961  27.798  1.00  0.00    -0.014 A 
BRANCH  12  13
ATOM     13  C   UNL A   1      41.452  28.212  28.524  1.00  0.00     0.031 A 
ATOM     14  C   UNL A   1      42.496  29.265  28.319  1.00  0.00     0.074 A 
ATOM     15  C   UNL A   1      40.319  28.490  29.207  1.00  0.00     0.049 A 
ATOM     16  N   UNL A   1      43.242  29.844  29.204  1.00  0.00    -0.248 NA
ATOM     17  C   UNL A   1      42.800  29.664  26.935  1.00  0.00     0.031 C 
ATOM     18  C   UNL A   1      39.073  27.722  29.272  1.00  0.00     0.029 A 
ATOM     19  N   UNL A   1      40.026  29.596  29.950  1.00  0.00    -0.354 N 
ATOM     20  C   UNL A   1      44.014  30.780  28.516  1.00  0.00     0.074 A 
ATOM     21  C   UNL A   1      43.773  30.558  27.114  1.00  0.00     0.031 C 
ATOM     22  C   UNL A   1      38.101  28.481  29.832  1.00  0.00     0.029 A 
ATOM     23  C   UNL A   1      38.686  29.728  30.299  1.00  0.00     0.049 A 
ATOM     24  H   UNL A   1      40.710  30.252  30.219  1.00  0.00     0.167 HD
ATOM     25  C   UNL A   1      44.698  31.776  29.148  1.00  0.00     0.037 A 
ATOM     26  C   UNL A   1      38.103  30.801  30.894  1.00  0.00     0.037 A 
ATOM     27  C   UNL A   1      44.866  31.502  30.548  1.00  0.00     0.049 A 
ATOM     28  C   UNL A   1      39.179  31.591  31.538  1.00  0.00     0.074 A 
ATOM     29  C   UNL A   1      45.545  30.538  31.266  1.00  0.00     0.029 A 
ATOM     30  N   UNL A   1      43.989  32.073  31.434  1.00  0.00    -0.354 N 
ATOM     31  N   UNL A   1      39.870  31.182  32.564  1.00  0.00    -0.248 NA
ATOM     32  C   UNL A   1      39.781  32.657  30.755  1.00  0.00     0.031 C 
ATOM     33  C   UNL A   1      44.691  30.234  32.366  1.00  0.00     0.029 A 
ATOM     34  C   UNL A   1      43.582  31.077  32.285  1.00  0.00     0.049 A 
ATOM     35  H   UNL A   1      43.705  33.016  31.455  1.00  0.00     0.167 HD
ATOM     36  C   UNL A   1      41.160  31.623  32.313  1.00  0.00     0.074 A 
ATOM     37  C   UNL A   1      41.031  32.584  31.219  1.00  0.00     0.031 C 
ATOM     38  C   UNL A   1      42.245  30.970  32.820  1.00  0.00     0.037 A 
BRANCH  25  39
ATOM     39  C   UNL A   1      44.993  33.123  28.548  1.00  0.00     0.057 A 
ATOM     40  C   UNL A   1      46.225  33.442  27.943  1.00  0.00     0.134 A 
ATOM     41  C   UNL A   1      43.957  34.046  28.324  1.00  0.00     0.134 A 
ATOM     42  F   UNL A   1      47.267  32.602  27.976  1.00  0.00    -0.206 F 
ATOM     43  C   UNL A   1      46.419  34.600  27.184  1.00  0.00     0.040 A 
ATOM     44  C   UNL A   1      44.128  35.187  27.529  1.00  0.00     0.040 A 
ATOM     45  F   UNL A   1      42.728  33.837  28.819  1.00  0.00    -0.206 F 
ATOM     46  C   UNL A   1      45.362  35.468  26.955  1.00  0.00     0.006 A 
ENDBRANCH  25  39
BRANCH  26  47
ATOM     47  C   UNL A   1      36.766  31.397  30.640  1.00  0.00     0.057 A 
ATOM     48  C   UNL A   1      36.458  31.987  29.403  1.00  0.00     0.134 A 
ATOM     49  C   UNL A   1      35.889  31.689  31.697  1.00  0.00     0.134 A 
ATOM     50  F   UNL A   1      37.263  31.832  28.344  1.00  0.00    -0.206 F 
ATOM     51  C   UNL A   1      35.363  32.844  29.235  1.00  0.00     0.040 A 
ATOM     52  C   UNL A   1      34.791  32.549  31.542  1.00  0.00     0.040 A 
ATOM     53  F   UNL A   1      36.120  31.208  32.928  1.00  0.00    -0.206 F 
ATOM     54  C   UNL A   1      34.535  33.142  30.310  1.00  0.00     0.006 A 
ENDBRANCH  26  47
BRANCH  38  55
ATOM     55  C   UNL A   1      42.008  29.878  33.831  1.00  0.00     0.057 A 
ATOM     56  C   UNL A   1      42.185  30.170  35.187  1.00  0.00     0.134 A 
ATOM     57  C   UNL A   1      41.794  28.532  33.499  1.00  0.00     0.134 A 
ATOM     58  F   UNL A   1      42.446  31.427  35.580  1.00  0.00    -0.206 F 
ATOM     59  C   UNL A   1      42.163  29.174  36.167  1.00  0.00     0.040 A 
ATOM     60  C   UNL A   1      41.736  27.529  34.472  1.00  0.00     0.040 A 
ATOM     61  F   UNL A   1      41.702  28.137  32.223  1.00  0.00    -0.206 F 
ATOM     62  C   UNL A   1      41.933  27.847  35.812  1.00  0.00     0.006 A 
ENDBRANCH  38  55
ENDBRANCH  12  13
ENDBRANCH   5   7
ENDBRANCH   2   3
ENDBRANCH   1   2
BRANCH   1  63
ATOM     63  C   UNL A   1      38.555  23.387  26.448  1.00  0.00     0.023 C 
BRANCH  63  64
ATOM     64  C   UNL A   1      37.246  23.735  25.726  1.00  0.00     0.116 C 
BRANCH  64  65
ATOM     65  N   UNL A   1      37.324  23.497  24.294  1.00  0.00    -0.351 N 
ATOM     66  C   UNL A   1      36.328  23.230  23.374  1.00  0.00     0.272 C 
ATOM     67  H   UNL A   1      38.233  23.532  23.918  1.00  0.00     0.163 HD
ATOM     68  O   UNL A   1      36.681  22.878  22.247  1.00  0.00    -0.267 OA
BRANCH  66  69
ATOM     69  C   UNL A   1      34.899  23.326  23.731  1.00  0.00     0.155 A 
ATOM     70  N   UNL A   1      34.127  24.396  23.449  1.00  0.00    -0.167 NA
ATOM     71  C   UNL A   1      34.114  22.302  24.340  1.00  0.00     0.026 A 
ATOM     72  N   UNL A   1      32.905  24.098  23.949  1.00  0.00    -0.264 N 
ATOM     73  C   UNL A   1      32.874  22.872  24.542  1.00  0.00     0.046 A 
ATOM     74  C   UNL A   1      34.473  20.912  24.771  1.00  0.00     0.159 C 
ATOM     75  C   UNL A   1      31.745  22.215  25.248  1.00  0.00     0.078 C 
ATOM     76  N   UNL A   1      33.256  20.243  25.295  1.00  0.00    -0.337 N 
ATOM     77  C   UNL A   1      32.338  21.073  26.101  1.00  0.00     0.126 C 
BRANCH  72  78
ATOM     78  C   UNL A   1      31.779  24.992  23.709  1.00  0.00     0.180 C 
BRANCH  78  79
ATOM     79  C   UNL A   1      31.771  26.175  24.645  1.00  0.00    -0.026 A 
ATOM     80  C   UNL A   1      31.678  27.478  24.124  1.00  0.00     0.008 A 
ATOM     81  C   UNL A   1      31.846  26.001  26.036  1.00  0.00     0.008 A 
ATOM     82  C   UNL A   1      31.654  28.582  24.975  1.00  0.00     0.039 A 
ATOM     83  C   UNL A   1      31.817  27.108  26.886  1.00  0.00     0.039 A 
ATOM     84  C   UNL A   1      31.720  28.386  26.348  1.00  0.00     0.123 A 
ATOM     85  F   UNL A   1      31.688  29.445  27.167  1.00  0.00    -0.207 F 
ENDBRANCH  78  79
ENDBRANCH  72  78
BRANCH  76  86
ATOM     86  C   UNL A   1      33.056  18.896  25.009  1.00  0.00     0.232 C 
ATOM     87  O   UNL A   1      32.086  18.261  25.390  1.00  0.00    -0.274 OA
BRANCH  86  88
ATOM     88  C   UNL A   1      34.065  18.239  24.148  1.00  0.00     0.154 C 
ATOM     89  C   UNL A   1      35.022  17.210  24.729  1.00  0.00     0.097 C 
ATOM     90  C   UNL A   1      33.947  16.806  23.794  1.00  0.00     0.260 C 
ATOM     91  F   UNL A   1      32.950  15.980  24.253  1.00  0.00    -0.206 F 
ATOM     92  F   UNL A   1      34.301  16.361  22.538  1.00  0.00    -0.206 F 
ENDBRANCH  86  88
ENDBRANCH  76  86
ENDBRANCH  66  69
ENDBRANCH  64  65
ENDBRANCH  63  64
ENDBRANCH   1  63
TORSDOF 15
ENDMDL
MODEL 3
REMARK VINA RESULT:     -13.0      3.408      7.923
REMARK SMILES O=C(NCCCCNC(=O)c1nn(Cc2ccc(F)cc2)c2c1CN(C(=O)[C@H]1CC1(F)F)CC2)c1ccc(-c2c3nc(c(-c4c(F)cccc4F)c4ccc([nH]4)c(-c4c(F)cccc4F)c4nc(c(-c5c(F)cccc5F)c5ccc2[nH]5)C=C4)C=C3)cc1
REMARK SMILES IDX 5 1 4 2 3 3 1 4 2 5 35 7 36 8 88 9 37 10 87 11 38 12 39 13
REMARK SMILES IDX 40 14 81 15 41 16 86 17 80 18 82 19 42 20 85 21 79 22 78 23
REMARK SMILES IDX 43 25 69 26 52 27 68 28 53 29 56 30 67 31 83 32 54 33 55 34
REMARK SMILES IDX 66 36 84 37 57 38 44 39 45 40 50 41 46 42 47 43 49 44 51 45
REMARK SMILES IDX 48 46 70 47 71 48 76 49 72 50 73 51 75 52 77 53 74 54 58 55
REMARK SMILES IDX 59 56 64 57 60 58 61 59 63 60 65 61 62 62 6 63 7 64 8 65
REMARK SMILES IDX 9 66 10 68 11 69 12 70 23 71 13 72 22 73 24 74 34 75 25 76
REMARK SMILES IDX 33 77 14 78 15 79 16 80 21 81 17 82 20 83 18 84 19 85 26 86
REMARK SMILES IDX 27 87 28 88 29 89 30 90 31 91 32 92
REMARK H PARENT 3 6 82 24 56 35 8 67
REMARK Flexibility Score: inf
ROOT
ATOM      1  C   UNL A   1      33.816  31.288  27.625  1.00  0.00     0.023 C 
ENDROOT
BRANCH   1   2
ATOM      2  C   UNL A   1      34.402  32.519  28.313  1.00  0.00     0.116 C 
BRANCH   2   3
ATOM      3  N   UNL A   1      34.404  32.452  29.761  1.00  0.00    -0.352 N 
ATOM      4  O   UNL A   1      34.974  32.310  31.882  1.00  0.00    -0.269 OA
ATOM      5  C   UNL A   1      35.260  31.991  30.722  1.00  0.00     0.251 C 
ATOM      6  H   UNL A   1      33.583  32.834  30.149  1.00  0.00     0.163 HD
BRANCH   5   7
ATOM      7  C   UNL A   1      36.437  31.102  30.508  1.00  0.00     0.039 A 
ATOM      8  C   UNL A   1      36.440  29.706  30.521  1.00  0.00     0.014 A 
ATOM      9  C   UNL A   1      37.665  31.767  30.309  1.00  0.00     0.014 A 
ATOM     10  C   UNL A   1      37.647  29.004  30.421  1.00  0.00     0.010 A 
ATOM     11  C   UNL A   1      38.868  31.074  30.208  1.00  0.00     0.010 A 
ATOM     12  C   UNL A   1      38.865  29.688  30.306  1.00  0.00    -0.014 A 
BRANCH  12  13
ATOM     13  C   UNL A   1      40.105  28.920  30.162  1.00  0.00     0.031 A 
ATOM     14  C   UNL A   1      40.866  28.706  31.433  1.00  0.00     0.074 A 
ATOM     15  C   UNL A   1      40.484  28.304  29.021  1.00  0.00     0.049 A 
ATOM     16  N   UNL A   1      42.080  29.058  31.715  1.00  0.00    -0.248 NA
ATOM     17  C   UNL A   1      40.151  28.088  32.561  1.00  0.00     0.031 C 
ATOM     18  C   UNL A   1      39.736  28.143  27.771  1.00  0.00     0.029 A 
ATOM     19  N   UNL A   1      41.633  27.611  28.771  1.00  0.00    -0.354 N 
ATOM     20  C   UNL A   1      42.336  28.589  33.004  1.00  0.00     0.074 A 
ATOM     21  C   UNL A   1      41.085  28.088  33.513  1.00  0.00     0.031 C 
ATOM     22  C   UNL A   1      40.357  27.230  26.985  1.00  0.00     0.029 A 
ATOM     23  C   UNL A   1      41.617  26.853  27.605  1.00  0.00     0.049 A 
ATOM     24  H   UNL A   1      42.414  27.644  29.371  1.00  0.00     0.167 HD
ATOM     25  C   UNL A   1      43.595  28.511  33.521  1.00  0.00     0.037 A 
ATOM     26  C   UNL A   1      42.557  25.958  27.204  1.00  0.00     0.037 A 
ATOM     27  C   UNL A   1      44.524  29.324  32.787  1.00  0.00     0.049 A 
ATOM     28  C   UNL A   1      43.806  26.264  27.943  1.00  0.00     0.074 A 
ATOM     29  C   UNL A   1      44.660  30.681  32.577  1.00  0.00     0.029 A 
ATOM     30  N   UNL A   1      45.300  28.723  31.829  1.00  0.00    -0.354 N 
ATOM     31  N   UNL A   1      44.512  27.345  27.766  1.00  0.00    -0.248 NA
ATOM     32  C   UNL A   1      44.023  25.567  29.199  1.00  0.00     0.031 C 
ATOM     33  C   UNL A   1      45.074  30.801  31.218  1.00  0.00     0.029 A 
ATOM     34  C   UNL A   1      45.228  29.511  30.708  1.00  0.00     0.049 A 
ATOM     35  H   UNL A   1      45.811  27.886  31.927  1.00  0.00     0.167 HD
ATOM     36  C   UNL A   1      44.934  27.698  29.038  1.00  0.00     0.074 A 
ATOM     37  C   UNL A   1      44.660  26.528  29.871  1.00  0.00     0.031 C 
ATOM     38  C   UNL A   1      45.208  28.995  29.360  1.00  0.00     0.037 A 
BRANCH  25  39
ATOM     39  C   UNL A   1      44.038  27.498  34.540  1.00  0.00     0.057 A 
ATOM     40  C   UNL A   1      44.124  27.780  35.917  1.00  0.00     0.134 A 
ATOM     41  C   UNL A   1      44.134  26.138  34.198  1.00  0.00     0.134 A 
ATOM     42  F   UNL A   1      43.939  29.015  36.399  1.00  0.00    -0.206 F 
ATOM     43  C   UNL A   1      44.308  26.786  36.884  1.00  0.00     0.040 A 
ATOM     44  C   UNL A   1      44.272  25.130  35.161  1.00  0.00     0.040 A 
ATOM     45  F   UNL A   1      44.031  25.739  32.921  1.00  0.00    -0.206 F 
ATOM     46  C   UNL A   1      44.359  25.452  36.511  1.00  0.00     0.006 A 
ENDBRANCH  25  39
BRANCH  26  47
ATOM     47  C   UNL A   1      42.372  24.647  26.531  1.00  0.00     0.057 A 
ATOM     48  C   UNL A   1      41.691  23.595  27.166  1.00  0.00     0.134 A 
ATOM     49  C   UNL A   1      43.131  24.296  25.403  1.00  0.00     0.134 A 
ATOM     50  F   UNL A   1      40.992  23.804  28.291  1.00  0.00    -0.206 F 
ATOM     51  C   UNL A   1      41.785  22.269  26.728  1.00  0.00     0.040 A 
ATOM     52  C   UNL A   1      43.236  22.971  24.955  1.00  0.00     0.040 A 
ATOM     53  F   UNL A   1      43.851  25.221  24.752  1.00  0.00    -0.206 F 
ATOM     54  C   UNL A   1      42.574  21.949  25.629  1.00  0.00     0.006 A 
ENDBRANCH  26  47
BRANCH  38  55
ATOM     55  C   UNL A   1      45.243  30.011  28.248  1.00  0.00     0.057 A 
ATOM     56  C   UNL A   1      46.484  30.400  27.733  1.00  0.00     0.134 A 
ATOM     57  C   UNL A   1      44.124  30.734  27.809  1.00  0.00     0.134 A 
ATOM     58  F   UNL A   1      47.607  29.790  28.144  1.00  0.00    -0.206 F 
ATOM     59  C   UNL A   1      46.612  31.463  26.835  1.00  0.00     0.040 A 
ATOM     60  C   UNL A   1      44.233  31.778  26.885  1.00  0.00     0.040 A 
ATOM     61  F   UNL A   1      42.905  30.500  28.309  1.00  0.00    -0.206 F 
ATOM     62  C   UNL A   1      45.483  32.154  26.403  1.00  0.00     0.006 A 
ENDBRANCH  38  55
ENDBRANCH  12  13
ENDBRANCH   5   7
ENDBRANCH   2   3
ENDBRANCH   1   2
BRANCH   1  63
ATOM     63  C   UNL A   1      34.827  30.204  27.218  1.00  0.00     0.023 C 
BRANCH  63  64
ATOM     64  C   UNL A   1      34.282  28.780  27.041  1.00  0.00     0.116 C 
BRANCH  64  65
ATOM     65  N   UNL A   1      33.059  28.558  27.795  1.00  0.00    -0.351 N 
ATOM     66  C   UNL A   1      31.899  27.894  27.447  1.00  0.00     0.272 C 
ATOM     67  H   UNL A   1      33.058  28.941  28.702  1.00  0.00     0.163 HD
ATOM     68  O   UNL A   1      30.932  28.014  28.203  1.00  0.00    -0.267 OA
BRANCH  66  69
ATOM     69  C   UNL A   1      31.802  27.106  26.203  1.00  0.00     0.155 A 
ATOM     70  N   UNL A   1      31.944  25.764  26.155  1.00  0.00    -0.167 NA
ATOM     71  C   UNL A   1      31.474  27.611  24.910  1.00  0.00     0.026 A 
ATOM     72  N   UNL A   1      31.803  25.437  24.849  1.00  0.00    -0.264 N 
ATOM     73  C   UNL A   1      31.576  26.525  24.064  1.00  0.00     0.046 A 
ATOM     74  C   UNL A   1      31.147  28.998  24.450  1.00  0.00     0.159 C 
ATOM     75  C   UNL A   1      31.423  26.586  22.588  1.00  0.00     0.078 C 
ATOM     76  N   UNL A   1      30.820  28.960  23.003  1.00  0.00    -0.337 N 
ATOM     77  C   UNL A   1      31.632  28.056  22.163  1.00  0.00     0.126 C 
BRANCH  72  78
ATOM     78  C   UNL A   1      31.775  24.036  24.446  1.00  0.00     0.180 C 
BRANCH  78  79
ATOM     79  C   UNL A   1      33.156  23.441  24.327  1.00  0.00    -0.026 A 
ATOM     80  C   UNL A   1      33.503  22.315  25.095  1.00  0.00     0.008 A 
ATOM     81  C   UNL A   1      34.108  23.988  23.450  1.00  0.00     0.008 A 
ATOM     82  C   UNL A   1      34.769  21.743  24.985  1.00  0.00     0.039 A 
ATOM     83  C   UNL A   1      35.374  23.410  23.339  1.00  0.00     0.039 A 
ATOM     84  C   UNL A   1      35.692  22.294  24.105  1.00  0.00     0.123 A 
ATOM     85  F   UNL A   1      36.906  21.741  23.992  1.00  0.00    -0.207 F 
ENDBRANCH  78  79
ENDBRANCH  72  78
BRANCH  76  86
ATOM     86  C   UNL A   1      29.793  29.768  22.525  1.00  0.00     0.232 C 
ATOM     87  O   UNL A   1      29.494  29.856  21.346  1.00  0.00    -0.274 OA
BRANCH  86  88
ATOM     88  C   UNL A   1      29.001  30.507  23.535  1.00  0.00     0.154 C 
ATOM     89  C   UNL A   1      29.233  31.994  23.758  1.00  0.00     0.097 C 
ATOM     90  C   UNL A   1      27.986  31.506  23.124  1.00  0.00     0.260 C 
ATOM     91  F   UNL A   1      27.731  31.852  21.820  1.00  0.00    -0.206 F 
ATOM     92  F   UNL A   1      26.803  31.630  23.820  1.00  0.00    -0.206 F 
ENDBRANCH  86  88
ENDBRANCH  76  86
ENDBRANCH  66  69
ENDBRANCH  64  65
ENDBRANCH  63  64
ENDBRANCH   1  63
TORSDOF 15
ENDMDL
