MODEL 1
REMARK VINA RESULT:      -9.4      0.000      0.000
REMARK SMILES CC1(C)CC[C@@]2(C(=O)NCCCCNC(=O)c3ccc(-c4c5nc(c(-c6c(F)cccc6F)c6ccc([nH]6)c(-c6c(F)cccc6F)c6nc(c(-c7c(F)cccc7F)c7ccc4[nH]7)C=C6)C=C5)cc3)CC[C@@]3(C)C(=CC[C@H]4[C@@]5(C)CC[C@H](O)C(C)(C)[C@@H]5CC[C@]43C)[C@@H]2C1
REMARK SMILES IDX 12 1 11 2 10 3 9 4 7 5 8 6 6 8 1 9 2 10 3 11 4 12 94 13 5 14
REMARK SMILES IDX 93 15 75 16 71 17 73 18 76 19 72 20 74 21 91 22 77 23 78 24
REMARK SMILES IDX 90 25 92 26 79 27 89 28 80 29 81 30 88 31 82 32 85 33 83 34
REMARK SMILES IDX 86 35 87 36 84 37 13 39 14 40 15 41 16 43 17 44 18 45 70 46
REMARK SMILES IDX 19 47 69 48 20 49 21 50 22 51 63 52 23 53 68 54 62 55 64 56
REMARK SMILES IDX 24 57 67 58 61 59 60 60 25 62 51 63 34 64 50 65 35 66 38 67
REMARK SMILES IDX 49 68 65 69 36 70 37 71 48 73 66 74 39 75 26 76 27 77 32 78
REMARK SMILES IDX 28 79 29 80 31 81 33 82 30 83 52 84 53 85 58 86 54 87 55 88
REMARK SMILES IDX 57 89 59 90 56 91 40 92 41 93 46 94 42 95 43 96 45 97 47 98
REMARK SMILES IDX 44 99
REMARK H PARENT 9 7 84 38 14 42 64 61 38 72
REMARK Flexibility Score: inf
ROOT
ATOM      1  C   UNL A   1      46.379  24.590  33.673  1.00  0.00     0.023 C 
ENDROOT
BRANCH   1   2
ATOM      2  C   UNL A   1      45.663  25.454  32.618  1.00  0.00     0.023 C 
BRANCH   2   3
ATOM      3  C   UNL A   1      45.376  24.919  31.206  1.00  0.00     0.116 C 
BRANCH   3   4
ATOM      4  N   UNL A   1      45.625  25.700  30.014  1.00  0.00    -0.356 N 
ATOM      5  C   UNL A   1      46.708  25.576  29.153  1.00  0.00     0.226 C 
ATOM      6  O   UNL A   1      47.843  25.361  29.577  1.00  0.00    -0.274 OA
ATOM      7  H   UNL A   1      44.959  26.391  29.790  1.00  0.00     0.163 HD
BRANCH   5   8
ATOM      8  C   UNL A   1      46.389  25.562  27.606  1.00  0.00     0.056 C 
ATOM      9  C   UNL A   1      43.016  23.303  26.976  1.00  0.00     0.011 C 
ATOM     10  C   UNL A   1      43.861  23.967  28.075  1.00  0.00    -0.035 C 
ATOM     11  C   UNL A   1      43.161  23.556  29.409  1.00  0.00     0.011 C 
ATOM     12  C   UNL A   1      45.268  23.332  28.092  1.00  0.00     0.007 C 
ATOM     13  C   UNL A   1      43.830  25.533  27.846  1.00  0.00     0.015 C 
ATOM     14  C   UNL A   1      46.291  24.060  27.239  1.00  0.00     0.018 C 
ATOM     15  C   UNL A   1      45.078  26.273  27.199  1.00  0.00     0.031 C 
ATOM     16  C   UNL A   1      45.281  27.813  27.481  1.00  0.00    -0.064 C 
ATOM     17  C   UNL A   1      47.530  26.136  26.734  1.00  0.00     0.018 C 
ATOM     18  C   UNL A   1      46.542  28.552  26.907  1.00  0.00    -0.006 C 
ATOM     19  C   UNL A   1      44.451  28.458  28.318  1.00  0.00    -0.027 C 
ATOM     20  C   UNL A   1      47.783  27.627  26.928  1.00  0.00     0.013 C 
ATOM     21  C   UNL A   1      46.205  28.794  25.394  1.00  0.00     0.017 C 
ATOM     22  C   UNL A   1      46.864  30.015  27.653  1.00  0.00    -0.020 C 
ATOM     23  C   UNL A   1      44.849  29.618  29.173  1.00  0.00     0.032 C 
ATOM     24  C   UNL A   1      46.338  30.049  29.126  1.00  0.00     0.006 C 
ATOM     25  C   UNL A   1      48.359  30.529  27.621  1.00  0.00     0.008 C 
ATOM     26  C   UNL A   1      46.046  31.149  26.913  1.00  0.00     0.012 C 
ATOM     27  C   UNL A   1      47.315  29.671  30.367  1.00  0.00    -0.025 C 
ATOM     28  C   UNL A   1      49.018  30.902  28.986  1.00  0.00     0.005 C 
ATOM     29  C   UNL A   1      46.856  30.633  31.502  1.00  0.00     0.012 C 
ATOM     30  C   UNL A   1      47.224  28.252  30.898  1.00  0.00     0.010 C 
ATOM     31  C   UNL A   1      48.827  29.765  29.980  1.00  0.00     0.003 C 
ATOM     32  C   UNL A   1      48.143  27.853  32.060  1.00  0.00     0.033 C 
ATOM     33  C   UNL A   1      49.862  29.523  31.166  1.00  0.00    -0.006 C 
ATOM     34  C   UNL A   1      49.610  28.084  31.726  1.00  0.00     0.120 C 
ATOM     35  C   UNL A   1      49.814  30.541  32.320  1.00  0.00     0.014 C 
ATOM     36  C   UNL A   1      51.314  29.547  30.634  1.00  0.00     0.014 C 
BRANCH  34  37
ATOM     37  O   UNL A   1      50.393  27.825  32.891  1.00  0.00    -0.393 OA
ATOM     38  H   UNL A   1      51.300  27.601  32.628  1.00  0.00     0.210 HD
ENDBRANCH  34  37
ENDBRANCH   5   8
ENDBRANCH   3   4
ENDBRANCH   2   3
ENDBRANCH   1   2
BRANCH   1  39
ATOM     39  C   UNL A   1      47.654  25.157  34.279  1.00  0.00     0.116 C 
BRANCH  39  40
ATOM     40  N   UNL A   1      47.535  25.279  35.717  1.00  0.00    -0.352 N 
ATOM     41  C   UNL A   1      46.821  26.213  36.435  1.00  0.00     0.251 C 
ATOM     42  H   UNL A   1      48.026  24.612  36.249  1.00  0.00     0.163 HD
ATOM     43  O   UNL A   1      47.106  26.433  37.604  1.00  0.00    -0.269 OA
BRANCH  41  44
ATOM     44  C   UNL A   1      45.720  26.966  35.788  1.00  0.00     0.039 A 
ATOM     45  C   UNL A   1      46.018  28.118  35.054  1.00  0.00     0.014 A 
ATOM     46  C   UNL A   1      44.391  26.569  35.949  1.00  0.00     0.014 A 
ATOM     47  C   UNL A   1      44.988  28.837  34.440  1.00  0.00     0.010 A 
ATOM     48  C   UNL A   1      43.374  27.241  35.274  1.00  0.00     0.010 A 
ATOM     49  C   UNL A   1      43.659  28.389  34.518  1.00  0.00    -0.014 A 
BRANCH  49  50
ATOM     50  C   UNL A   1      42.557  29.103  33.815  1.00  0.00     0.031 A 
ATOM     51  C   UNL A   1      41.815  30.221  34.498  1.00  0.00     0.074 A 
ATOM     52  C   UNL A   1      42.180  28.696  32.586  1.00  0.00     0.049 A 
ATOM     53  N   UNL A   1      40.787  30.912  34.074  1.00  0.00    -0.248 NA
ATOM     54  C   UNL A   1      42.270  30.594  35.847  1.00  0.00     0.031 C 
ATOM     55  C   UNL A   1      42.782  27.589  31.841  1.00  0.00     0.029 A 
ATOM     56  N   UNL A   1      41.193  29.158  31.752  1.00  0.00    -0.354 N 
ATOM     57  C   UNL A   1      40.464  31.784  35.107  1.00  0.00     0.074 A 
ATOM     58  C   UNL A   1      41.369  31.500  36.198  1.00  0.00     0.031 C 
ATOM     59  C   UNL A   1      42.168  27.472  30.652  1.00  0.00     0.029 A 
ATOM     60  C   UNL A   1      41.102  28.465  30.568  1.00  0.00     0.049 A 
ATOM     61  H   UNL A   1      40.605  29.915  31.979  1.00  0.00     0.167 HD
ATOM     62  C   UNL A   1      39.513  32.749  35.135  1.00  0.00     0.037 A 
ATOM     63  C   UNL A   1      40.248  28.604  29.534  1.00  0.00     0.037 A 
ATOM     64  C   UNL A   1      38.632  33.047  34.035  1.00  0.00     0.049 A 
ATOM     65  C   UNL A   1      39.200  29.681  29.593  1.00  0.00     0.074 A 
ATOM     66  C   UNL A   1      37.689  34.054  33.935  1.00  0.00     0.029 A 
ATOM     67  N   UNL A   1      38.583  32.333  32.848  1.00  0.00    -0.354 N 
ATOM     68  N   UNL A   1      38.963  30.553  30.543  1.00  0.00    -0.248 NA
ATOM     69  C   UNL A   1      38.302  29.797  28.435  1.00  0.00     0.031 C 
ATOM     70  C   UNL A   1      37.029  33.915  32.711  1.00  0.00     0.029 A 
ATOM     71  C   UNL A   1      37.600  32.856  32.023  1.00  0.00     0.049 A 
ATOM     72  H   UNL A   1      39.160  31.567  32.624  1.00  0.00     0.167 HD
ATOM     73  C   UNL A   1      37.905  31.332  30.090  1.00  0.00     0.074 A 
ATOM     74  C   UNL A   1      37.562  30.843  28.771  1.00  0.00     0.031 C 
ATOM     75  C   UNL A   1      37.271  32.355  30.712  1.00  0.00     0.037 A 
BRANCH  62  76
ATOM     76  C   UNL A   1      39.373  33.557  36.395  1.00  0.00     0.057 A 
ATOM     77  C   UNL A   1      38.548  33.148  37.451  1.00  0.00     0.134 A 
ATOM     78  C   UNL A   1      40.109  34.736  36.574  1.00  0.00     0.134 A 
ATOM     79  F   UNL A   1      37.808  32.034  37.345  1.00  0.00    -0.206 F 
ATOM     80  C   UNL A   1      38.441  33.894  38.627  1.00  0.00     0.040 A 
ATOM     81  C   UNL A   1      40.032  35.475  37.756  1.00  0.00     0.040 A 
ATOM     82  F   UNL A   1      40.926  35.183  35.607  1.00  0.00    -0.206 F 
ATOM     83  C   UNL A   1      39.190  35.058  38.785  1.00  0.00     0.006 A 
ENDBRANCH  62  76
BRANCH  63  84
ATOM     84  C   UNL A   1      40.352  27.707  28.355  1.00  0.00     0.057 A 
ATOM     85  C   UNL A   1      39.770  26.434  28.357  1.00  0.00     0.134 A 
ATOM     86  C   UNL A   1      41.043  28.095  27.199  1.00  0.00     0.134 A 
ATOM     87  F   UNL A   1      39.111  25.996  29.441  1.00  0.00    -0.206 F 
ATOM     88  C   UNL A   1      39.889  25.571  27.267  1.00  0.00     0.040 A 
ATOM     89  C   UNL A   1      41.145  27.253  26.090  1.00  0.00     0.040 A 
ATOM     90  F   UNL A   1      41.617  29.305  27.127  1.00  0.00    -0.206 F 
ATOM     91  C   UNL A   1      40.574  25.983  26.126  1.00  0.00     0.006 A 
ENDBRANCH  63  84
BRANCH  75  92
ATOM     92  C   UNL A   1      36.154  33.026  29.966  1.00  0.00     0.057 A 
ATOM     93  C   UNL A   1      34.811  32.814  30.300  1.00  0.00     0.134 A 
ATOM     94  C   UNL A   1      36.429  33.928  28.930  1.00  0.00     0.134 A 
ATOM     95  F   UNL A   1      34.480  31.953  31.275  1.00  0.00    -0.206 F 
ATOM     96  C   UNL A   1      33.778  33.457  29.615  1.00  0.00     0.040 A 
ATOM     97  C   UNL A   1      35.407  34.599  28.257  1.00  0.00     0.040 A 
ATOM     98  F   UNL A   1      37.694  34.185  28.565  1.00  0.00    -0.206 F 
ATOM     99  C   UNL A   1      34.076  34.358  28.596  1.00  0.00     0.006 A 
ENDBRANCH  75  92
ENDBRANCH  49  50
ENDBRANCH  41  44
ENDBRANCH  39  40
ENDBRANCH   1  39
TORSDOF 12
ENDMDL
MODEL 2
REMARK VINA RESULT:      -9.4      0.420      5.858
REMARK SMILES CC1(C)CC[C@@]2(C(=O)NCCCCNC(=O)c3ccc(-c4c5nc(c(-c6c(F)cccc6F)c6ccc([nH]6)c(-c6c(F)cccc6F)c6nc(c(-c7c(F)cccc7F)c7ccc4[nH]7)C=C6)C=C5)cc3)CC[C@@]3(C)C(=CC[C@H]4[C@@]5(C)CC[C@H](O)C(C)(C)[C@@H]5CC[C@]43C)[C@@H]2C1
REMARK SMILES IDX 12 1 11 2 10 3 9 4 7 5 8 6 6 8 1 9 2 10 3 11 4 12 94 13 5 14
REMARK SMILES IDX 93 15 75 16 71 17 73 18 76 19 72 20 74 21 91 22 77 23 78 24
REMARK SMILES IDX 90 25 92 26 79 27 89 28 80 29 81 30 88 31 82 32 85 33 83 34
REMARK SMILES IDX 86 35 87 36 84 37 13 39 14 40 15 41 16 43 17 44 18 45 70 46
REMARK SMILES IDX 19 47 69 48 20 49 21 50 22 51 63 52 23 53 68 54 62 55 64 56
REMARK SMILES IDX 24 57 67 58 61 59 60 60 25 62 51 63 34 64 50 65 35 66 38 67
REMARK SMILES IDX 49 68 65 69 36 70 37 71 48 73 66 74 39 75 26 76 27 77 32 78
REMARK SMILES IDX 28 79 29 80 31 81 33 82 30 83 52 84 53 85 58 86 54 87 55 88
REMARK SMILES IDX 57 89 59 90 56 91 40 92 41 93 46 94 42 95 43 96 45 97 47 98
REMARK SMILES IDX 44 99
REMARK H PARENT 9 7 84 38 14 42 64 61 38 72
REMARK Flexibility Score: inf
ROOT
ATOM      1  C   UNL A   1      46.190  24.625  33.436  1.00  0.00     0.023 C 
ENDROOT
BRANCH   1   2
ATOM      2  C   UNL A   1      45.370  25.432  32.411  1.00  0.00     0.023 C 
BRANCH   2   3
ATOM      3  C   UNL A   1      45.066  24.872  31.011  1.00  0.00     0.116 C 
BRANCH   3   4
ATOM      4  N   UNL A   1      45.390  25.594  29.799  1.00  0.00    -0.356 N 
ATOM      5  C   UNL A   1      46.513  25.414  29.003  1.00  0.00     0.226 C 
ATOM      6  O   UNL A   1      47.621  25.203  29.495  1.00  0.00    -0.274 OA
ATOM      7  H   UNL A   1      44.748  26.282  29.509  1.00  0.00     0.163 HD
BRANCH   5   8
ATOM      8  C   UNL A   1      46.275  25.333  27.444  1.00  0.00     0.056 C 
ATOM      9  C   UNL A   1      42.920  23.068  26.741  1.00  0.00     0.011 C 
ATOM     10  C   UNL A   1      43.713  23.775  27.852  1.00  0.00    -0.035 C 
ATOM     11  C   UNL A   1      42.942  23.430  29.164  1.00  0.00     0.011 C 
ATOM     12  C   UNL A   1      45.112  23.133  27.969  1.00  0.00     0.007 C 
ATOM     13  C   UNL A   1      43.707  25.330  27.552  1.00  0.00     0.015 C 
ATOM     14  C   UNL A   1      46.184  23.817  27.139  1.00  0.00     0.018 C 
ATOM     15  C   UNL A   1      44.992  26.033  26.938  1.00  0.00     0.031 C 
ATOM     16  C   UNL A   1      45.193  27.583  27.161  1.00  0.00    -0.064 C 
ATOM     17  C   UNL A   1      47.464  25.861  26.607  1.00  0.00     0.018 C 
ATOM     18  C   UNL A   1      46.488  28.288  26.621  1.00  0.00    -0.006 C 
ATOM     19  C   UNL A   1      44.327  28.269  27.924  1.00  0.00    -0.027 C 
ATOM     20  C   UNL A   1      47.718  27.357  26.748  1.00  0.00     0.013 C 
ATOM     21  C   UNL A   1      46.231  28.464  25.083  1.00  0.00     0.017 C 
ATOM     22  C   UNL A   1      46.783  29.781  27.317  1.00  0.00    -0.020 C 
ATOM     23  C   UNL A   1      44.689  29.464  28.747  1.00  0.00     0.032 C 
ATOM     24  C   UNL A   1      46.183  29.884  28.758  1.00  0.00     0.006 C 
ATOM     25  C   UNL A   1      48.282  30.284  27.340  1.00  0.00     0.008 C 
ATOM     26  C   UNL A   1      46.014  30.885  26.486  1.00  0.00     0.012 C 
ATOM     27  C   UNL A   1      47.091  29.556  30.063  1.00  0.00    -0.025 C 
ATOM     28  C   UNL A   1      48.873  30.713  28.720  1.00  0.00     0.005 C 
ATOM     29  C   UNL A   1      46.582  30.571  31.129  1.00  0.00     0.012 C 
ATOM     30  C   UNL A   1      46.961  28.163  30.652  1.00  0.00     0.010 C 
ATOM     31  C   UNL A   1      48.622  29.623  29.752  1.00  0.00     0.003 C 
ATOM     32  C   UNL A   1      47.816  27.811  31.876  1.00  0.00     0.033 C 
ATOM     33  C   UNL A   1      49.593  29.428  31.000  1.00  0.00    -0.006 C 
ATOM     34  C   UNL A   1      49.299  28.018  31.609  1.00  0.00     0.120 C 
ATOM     35  C   UNL A   1      49.493  30.498  32.103  1.00  0.00     0.014 C 
ATOM     36  C   UNL A   1      51.070  29.420  30.543  1.00  0.00     0.014 C 
BRANCH  34  37
ATOM     37  O   UNL A   1      50.020  27.806  32.824  1.00  0.00    -0.393 OA
ATOM     38  H   UNL A   1      50.937  27.565  32.619  1.00  0.00     0.210 HD
ENDBRANCH  34  37
ENDBRANCH   5   8
ENDBRANCH   3   4
ENDBRANCH   2   3
ENDBRANCH   1   2
BRANCH   1  39
ATOM     39  C   UNL A   1      47.502  25.235  33.903  1.00  0.00     0.116 C 
BRANCH  39  40
ATOM     40  N   UNL A   1      47.515  25.402  35.341  1.00  0.00    -0.352 N 
ATOM     41  C   UNL A   1      46.877  26.364  36.092  1.00  0.00     0.251 C 
ATOM     42  H   UNL A   1      48.045  24.744  35.847  1.00  0.00     0.163 HD
ATOM     43  O   UNL A   1      47.268  26.616  37.223  1.00  0.00    -0.269 OA
BRANCH  41  44
ATOM     44  C   UNL A   1      45.729  27.111  35.523  1.00  0.00     0.039 A 
ATOM     45  C   UNL A   1      45.968  28.251  34.752  1.00  0.00     0.014 A 
ATOM     46  C   UNL A   1      44.416  26.719  35.795  1.00  0.00     0.014 A 
ATOM     47  C   UNL A   1      44.893  28.964  34.211  1.00  0.00     0.010 A 
ATOM     48  C   UNL A   1      43.350  27.384  35.193  1.00  0.00     0.010 A 
ATOM     49  C   UNL A   1      43.574  28.520  34.401  1.00  0.00    -0.014 A 
BRANCH  49  50
ATOM     50  C   UNL A   1      42.421  29.226  33.778  1.00  0.00     0.031 A 
ATOM     51  C   UNL A   1      41.900  28.794  32.433  1.00  0.00     0.074 A 
ATOM     52  C   UNL A   1      41.889  30.301  34.393  1.00  0.00     0.049 A 
ATOM     53  N   UNL A   1      40.952  29.327  31.703  1.00  0.00    -0.248 NA
ATOM     54  C   UNL A   1      42.546  27.626  31.813  1.00  0.00     0.031 C 
ATOM     55  C   UNL A   1      42.341  30.853  35.671  1.00  0.00     0.029 A 
ATOM     56  N   UNL A   1      40.860  31.130  34.021  1.00  0.00    -0.354 N 
ATOM     57  C   UNL A   1      40.903  28.573  30.536  1.00  0.00     0.074 A 
ATOM     58  C   UNL A   1      41.949  27.580  30.631  1.00  0.00     0.031 C 
ATOM     59  C   UNL A   1      41.580  31.913  35.988  1.00  0.00     0.029 A 
ATOM     60  C   UNL A   1      40.616  32.143  34.918  1.00  0.00     0.049 A 
ATOM     61  H   UNL A   1      40.344  31.010  33.190  1.00  0.00     0.167 HD
ATOM     62  C   UNL A   1      40.048  28.685  29.490  1.00  0.00     0.037 A 
ATOM     63  C   UNL A   1      39.724  33.152  34.877  1.00  0.00     0.037 A 
ATOM     64  C   UNL A   1      38.990  29.658  29.413  1.00  0.00     0.049 A 
ATOM     65  C   UNL A   1      38.789  33.256  33.703  1.00  0.00     0.074 A 
ATOM     66  C   UNL A   1      38.023  29.804  28.434  1.00  0.00     0.029 A 
ATOM     67  N   UNL A   1      38.766  30.657  30.348  1.00  0.00    -0.354 N 
ATOM     68  N   UNL A   1      38.700  32.482  32.648  1.00  0.00    -0.248 NA
ATOM     69  C   UNL A   1      37.829  34.368  33.715  1.00  0.00     0.031 C 
ATOM     70  C   UNL A   1      37.249  30.925  28.748  1.00  0.00     0.029 A 
ATOM     71  C   UNL A   1      37.697  31.444  29.952  1.00  0.00     0.049 A 
ATOM     72  H   UNL A   1      39.289  30.786  31.173  1.00  0.00     0.167 HD
ATOM     73  C   UNL A   1      37.664  33.002  31.882  1.00  0.00     0.074 A 
ATOM     74  C   UNL A   1      37.141  34.142  32.605  1.00  0.00     0.031 C 
ATOM     75  C   UNL A   1      37.191  32.577  30.684  1.00  0.00     0.037 A 
BRANCH  62  76
ATOM     76  C   UNL A   1      40.219  27.730  28.342  1.00  0.00     0.057 A 
ATOM     77  C   UNL A   1      40.921  28.083  27.181  1.00  0.00     0.134 A 
ATOM     78  C   UNL A   1      39.717  26.425  28.417  1.00  0.00     0.134 A 
ATOM     79  F   UNL A   1      41.421  29.319  27.038  1.00  0.00    -0.206 F 
ATOM     80  C   UNL A   1      41.093  27.182  26.127  1.00  0.00     0.040 A 
ATOM     81  C   UNL A   1      39.907  25.506  27.382  1.00  0.00     0.040 A 
ATOM     82  F   UNL A   1      39.042  26.015  29.502  1.00  0.00    -0.206 F 
ATOM     83  C   UNL A   1      40.592  25.887  26.230  1.00  0.00     0.006 A 
ENDBRANCH  62  76
BRANCH  63  84
ATOM     84  C   UNL A   1      39.666  34.142  35.984  1.00  0.00     0.057 A 
ATOM     85  C   UNL A   1      40.327  35.373  35.894  1.00  0.00     0.134 A 
ATOM     86  C   UNL A   1      38.957  33.879  37.164  1.00  0.00     0.134 A 
ATOM     87  F   UNL A   1      41.038  35.676  34.797  1.00  0.00    -0.206 F 
ATOM     88  C   UNL A   1      40.305  36.295  36.940  1.00  0.00     0.040 A 
ATOM     89  C   UNL A   1      38.904  34.805  38.207  1.00  0.00     0.040 A 
ATOM     90  F   UNL A   1      38.295  32.722  37.313  1.00  0.00    -0.206 F 
ATOM     91  C   UNL A   1      39.587  36.014  38.101  1.00  0.00     0.006 A 
ENDBRANCH  63  84
BRANCH  75  92
ATOM     92  C   UNL A   1      36.041  33.338  30.092  1.00  0.00     0.057 A 
ATOM     93  C   UNL A   1      36.212  34.213  29.012  1.00  0.00     0.134 A 
ATOM     94  C   UNL A   1      34.740  33.160  30.580  1.00  0.00     0.134 A 
ATOM     95  F   UNL A   1      37.435  34.437  28.505  1.00  0.00    -0.206 F 
ATOM     96  C   UNL A   1      35.134  34.901  28.452  1.00  0.00     0.040 A 
ATOM     97  C   UNL A   1      33.650  33.819  30.010  1.00  0.00     0.040 A 
ATOM     98  F   UNL A   1      34.503  32.329  31.606  1.00  0.00    -0.206 F 
ATOM     99  C   UNL A   1      33.848  34.699  28.947  1.00  0.00     0.006 A 
ENDBRANCH  75  92
ENDBRANCH  49  50
ENDBRANCH  41  44
ENDBRANCH  39  40
ENDBRANCH   1  39
TORSDOF 12
ENDMDL
MODEL 3
REMARK VINA RESULT:      -9.3      2.560      6.981
REMARK SMILES CC1(C)CC[C@@]2(C(=O)NCCCCNC(=O)c3ccc(-c4c5nc(c(-c6c(F)cccc6F)c6ccc([nH]6)c(-c6c(F)cccc6F)c6nc(c(-c7c(F)cccc7F)c7ccc4[nH]7)C=C6)C=C5)cc3)CC[C@@]3(C)C(=CC[C@H]4[C@@]5(C)CC[C@H](O)C(C)(C)[C@@H]5CC[C@]43C)[C@@H]2C1
REMARK SMILES IDX 12 1 11 2 10 3 9 4 7 5 8 6 6 8 1 9 2 10 3 11 4 12 94 13 5 14
REMARK SMILES IDX 93 15 75 16 71 17 73 18 76 19 72 20 74 21 91 22 77 23 78 24
REMARK SMILES IDX 90 25 92 26 79 27 89 28 80 29 81 30 88 31 82 32 85 33 83 34
REMARK SMILES IDX 86 35 87 36 84 37 13 39 14 40 15 41 16 43 17 44 18 45 70 46
REMARK SMILES IDX 19 47 69 48 20 49 21 50 22 51 63 52 23 53 68 54 62 55 64 56
REMARK SMILES IDX 24 57 67 58 61 59 60 60 25 62 51 63 34 64 50 65 35 66 38 67
REMARK SMILES IDX 49 68 65 69 36 70 37 71 48 73 66 74 39 75 26 76 27 77 32 78
REMARK SMILES IDX 28 79 29 80 31 81 33 82 30 83 52 84 53 85 58 86 54 87 55 88
REMARK SMILES IDX 57 89 59 90 56 91 40 92 41 93 46 94 42 95 43 96 45 97 47 98
REMARK SMILES IDX 44 99
REMARK H PARENT 9 7 84 38 14 42 64 61 38 72
REMARK Flexibility Score: inf
ROOT
ATOM      1  C   UNL A   1      46.684  26.248  24.646  1.00  0.00     0.023 C 
ENDROOT
BRANCH   1   2
ATOM      2  C   UNL A   1      45.909  27.540  24.968  1.00  0.00     0.023 C 
BRANCH   2   3
ATOM      3  C   UNL A   1      46.626  28.789  25.509  1.00  0.00     0.116 C 
BRANCH   3   4
ATOM      4  N   UNL A   1      47.145  28.863  26.858  1.00  0.00    -0.356 N 
ATOM      5  C   UNL A   1      47.782  29.950  27.442  1.00  0.00     0.226 C 
ATOM      6  O   UNL A   1      48.576  30.644  26.809  1.00  0.00    -0.274 OA
ATOM      7  H   UNL A   1      47.035  28.061  27.419  1.00  0.00     0.163 HD
BRANCH   5   8
ATOM      8  C   UNL A   1      47.318  30.348  28.899  1.00  0.00     0.056 C 
ATOM      9  C   UNL A   1      43.318  31.281  28.799  1.00  0.00     0.011 C 
ATOM     10  C   UNL A   1      44.454  30.656  27.973  1.00  0.00    -0.035 C 
ATOM     11  C   UNL A   1      43.798  30.323  26.596  1.00  0.00     0.011 C 
ATOM     12  C   UNL A   1      45.540  31.721  27.708  1.00  0.00     0.007 C 
ATOM     13  C   UNL A   1      44.954  29.354  28.723  1.00  0.00     0.015 C 
ATOM     14  C   UNL A   1      46.658  31.740  28.734  1.00  0.00     0.018 C 
ATOM     15  C   UNL A   1      46.307  29.378  29.554  1.00  0.00     0.031 C 
ATOM     16  C   UNL A   1      47.069  28.019  29.809  1.00  0.00    -0.064 C 
ATOM     17  C   UNL A   1      48.490  30.550  29.887  1.00  0.00     0.018 C 
ATOM     18  C   UNL A   1      48.442  28.026  30.571  1.00  0.00    -0.006 C 
ATOM     19  C   UNL A   1      46.613  26.881  29.262  1.00  0.00    -0.027 C 
ATOM     20  C   UNL A   1      49.271  29.281  30.207  1.00  0.00     0.013 C 
ATOM     21  C   UNL A   1      48.056  28.183  32.084  1.00  0.00     0.017 C 
ATOM     22  C   UNL A   1      49.337  26.627  30.361  1.00  0.00    -0.020 C 
ATOM     23  C   UNL A   1      47.482  25.738  28.843  1.00  0.00     0.032 C 
ATOM     24  C   UNL A   1      49.015  25.925  29.000  1.00  0.00     0.006 C 
ATOM     25  C   UNL A   1      50.905  26.739  30.531  1.00  0.00     0.008 C 
ATOM     26  C   UNL A   1      48.899  25.579  31.462  1.00  0.00     0.012 C 
ATOM     27  C   UNL A   1      49.919  26.210  27.683  1.00  0.00    -0.025 C 
ATOM     28  C   UNL A   1      51.792  26.213  29.360  1.00  0.00     0.005 C 
ATOM     29  C   UNL A   1      49.951  24.834  26.954  1.00  0.00     0.012 C 
ATOM     30  C   UNL A   1      49.390  27.241  26.701  1.00  0.00     0.010 C 
ATOM     31  C   UNL A   1      51.318  26.810  28.043  1.00  0.00     0.003 C 
ATOM     32  C   UNL A   1      50.225  27.549  25.452  1.00  0.00     0.033 C 
ATOM     33  C   UNL A   1      52.319  27.016  26.821  1.00  0.00    -0.006 C 
ATOM     34  C   UNL A   1      51.635  27.995  25.811  1.00  0.00     0.120 C 
ATOM     35  C   UNL A   1      52.755  25.736  26.085  1.00  0.00     0.014 C 
ATOM     36  C   UNL A   1      53.621  27.701  27.296  1.00  0.00     0.014 C 
BRANCH  34  37
ATOM     37  O   UNL A   1      52.394  28.130  24.608  1.00  0.00    -0.393 OA
ATOM     38  H   UNL A   1      52.280  29.026  24.253  1.00  0.00     0.210 HD
ENDBRANCH  34  37
ENDBRANCH   5   8
ENDBRANCH   3   4
ENDBRANCH   2   3
ENDBRANCH   1   2
BRANCH   1  39
ATOM     39  C   UNL A   1      46.249  24.984  25.371  1.00  0.00     0.116 C 
BRANCH  39  40
ATOM     40  N   UNL A   1      45.139  24.350  24.691  1.00  0.00    -0.352 N 
ATOM     41  C   UNL A   1      43.847  24.187  25.139  1.00  0.00     0.251 C 
ATOM     42  H   UNL A   1      45.332  23.991  23.794  1.00  0.00     0.163 HD
ATOM     43  O   UNL A   1      43.133  23.325  24.646  1.00  0.00    -0.269 OA
BRANCH  41  44
ATOM     44  C   UNL A   1      43.326  25.043  26.232  1.00  0.00     0.039 A 
ATOM     45  C   UNL A   1      42.863  24.446  27.408  1.00  0.00     0.014 A 
ATOM     46  C   UNL A   1      43.242  26.429  26.076  1.00  0.00     0.014 A 
ATOM     47  C   UNL A   1      42.368  25.243  28.444  1.00  0.00     0.010 A 
ATOM     48  C   UNL A   1      42.821  27.226  27.138  1.00  0.00     0.010 A 
ATOM     49  C   UNL A   1      42.370  26.643  28.333  1.00  0.00    -0.014 A 
BRANCH  49  50
ATOM     50  C   UNL A   1      41.911  27.511  29.452  1.00  0.00     0.031 A 
ATOM     51  C   UNL A   1      42.580  27.436  30.799  1.00  0.00     0.074 A 
ATOM     52  C   UNL A   1      40.844  28.316  29.273  1.00  0.00     0.049 A 
ATOM     53  N   UNL A   1      42.277  28.061  31.909  1.00  0.00    -0.248 NA
ATOM     54  C   UNL A   1      43.723  26.518  30.923  1.00  0.00     0.031 C 
ATOM     55  C   UNL A   1      40.075  28.437  28.034  1.00  0.00     0.029 A 
ATOM     56  N   UNL A   1      40.215  29.177  30.138  1.00  0.00    -0.354 N 
ATOM     57  C   UNL A   1      43.178  27.599  32.862  1.00  0.00     0.074 A 
ATOM     58  C   UNL A   1      44.002  26.604  32.215  1.00  0.00     0.031 C 
ATOM     59  C   UNL A   1      39.093  29.335  28.210  1.00  0.00     0.029 A 
ATOM     60  C   UNL A   1      39.134  29.822  29.585  1.00  0.00     0.049 A 
ATOM     61  H   UNL A   1      40.509  29.319  31.067  1.00  0.00     0.167 HD
ATOM     62  C   UNL A   1      43.317  27.986  34.153  1.00  0.00     0.037 A 
ATOM     63  C   UNL A   1      38.266  30.699  30.127  1.00  0.00     0.037 A 
ATOM     64  C   UNL A   1      42.511  28.998  34.785  1.00  0.00     0.049 A 
ATOM     65  C   UNL A   1      38.442  31.109  31.563  1.00  0.00     0.074 A 
ATOM     66  C   UNL A   1      42.624  29.517  36.062  1.00  0.00     0.029 A 
ATOM     67  N   UNL A   1      41.437  29.639  34.186  1.00  0.00    -0.354 N 
ATOM     68  N   UNL A   1      39.352  30.725  32.426  1.00  0.00    -0.248 NA
ATOM     69  C   UNL A   1      37.475  32.075  32.101  1.00  0.00     0.031 C 
ATOM     70  C   UNL A   1      41.584  30.431  36.257  1.00  0.00     0.029 A 
ATOM     71  C   UNL A   1      40.857  30.524  35.080  1.00  0.00     0.049 A 
ATOM     72  H   UNL A   1      41.133  29.488  33.261  1.00  0.00     0.167 HD
ATOM     73  C   UNL A   1      39.078  31.416  33.600  1.00  0.00     0.074 A 
ATOM     74  C   UNL A   1      37.933  32.260  33.330  1.00  0.00     0.031 C 
ATOM     75  C   UNL A   1      39.715  31.355  34.795  1.00  0.00     0.037 A 
BRANCH  62  76
ATOM     76  C   UNL A   1      44.384  27.314  34.973  1.00  0.00     0.057 A 
ATOM     77  C   UNL A   1      44.156  26.099  35.633  1.00  0.00     0.134 A 
ATOM     78  C   UNL A   1      45.668  27.865  35.065  1.00  0.00     0.134 A 
ATOM     79  F   UNL A   1      42.947  25.519  35.594  1.00  0.00    -0.206 F 
ATOM     80  C   UNL A   1      45.159  25.471  36.375  1.00  0.00     0.040 A 
ATOM     81  C   UNL A   1      46.687  27.233  35.781  1.00  0.00     0.040 A 
ATOM     82  F   UNL A   1      45.959  29.023  34.452  1.00  0.00    -0.206 F 
ATOM     83  C   UNL A   1      46.431  26.034  36.444  1.00  0.00     0.006 A 
ENDBRANCH  62  76
BRANCH  63  84
ATOM     84  C   UNL A   1      37.156  31.253  29.309  1.00  0.00     0.057 A 
ATOM     85  C   UNL A   1      36.012  30.497  29.030  1.00  0.00     0.134 A 
ATOM     86  C   UNL A   1      37.217  32.548  28.776  1.00  0.00     0.134 A 
ATOM     87  F   UNL A   1      35.902  29.243  29.494  1.00  0.00    -0.206 F 
ATOM     88  C   UNL A   1      34.979  30.997  28.236  1.00  0.00     0.040 A 
ATOM     89  C   UNL A   1      36.178  33.071  28.004  1.00  0.00     0.040 A 
ATOM     90  F   UNL A   1      38.282  33.328  29.012  1.00  0.00    -0.206 F 
ATOM     91  C   UNL A   1      35.058  32.291  27.724  1.00  0.00     0.006 A 
ENDBRANCH  63  84
BRANCH  75  92
ATOM     92  C   UNL A   1      39.197  32.236  35.894  1.00  0.00     0.057 A 
ATOM     93  C   UNL A   1      39.620  33.563  36.038  1.00  0.00     0.134 A 
ATOM     94  C   UNL A   1      38.231  31.765  36.793  1.00  0.00     0.134 A 
ATOM     95  F   UNL A   1      40.552  34.073  35.217  1.00  0.00    -0.206 F 
ATOM     96  C   UNL A   1      39.118  34.384  37.050  1.00  0.00     0.040 A 
ATOM     97  C   UNL A   1      37.700  32.584  37.790  1.00  0.00     0.040 A 
ATOM     98  F   UNL A   1      37.775  30.506  36.706  1.00  0.00    -0.206 F 
ATOM     99  C   UNL A   1      38.150  33.897  37.924  1.00  0.00     0.006 A 
ENDBRANCH  75  92
ENDBRANCH  49  50
ENDBRANCH  41  44
ENDBRANCH  39  40
ENDBRANCH   1  39
TORSDOF 12
ENDMDL
