MODEL 1
REMARK VINA RESULT:     -14.8      0.000      0.000
REMARK SMILES Cc1cccc(C(=O)Nc2ccc(C(=O)NNC(=O)c3ccccc3C(=O)NCCCCNC(=O)c3ccc(-c4c5nc(c(-c6c(F)cccc6F)c6ccc([nH]6)c(-c6c(F)cccc6F)c6nc(c(-c7c(F)cccc7F)c7ccc4[nH]7)C=C6)C=C5)cc3)cc2)c1
REMARK SMILES IDX 29 1 28 2 26 3 27 4 25 6 20 7 21 8 22 9 24 10 23 11 18 12
REMARK SMILES IDX 17 13 19 15 16 16 14 17 15 18 13 20 10 21 11 22 91 23 12 24
REMARK SMILES IDX 90 25 9 26 7 27 8 28 6 30 1 31 2 32 3 33 92 34 4 35 5 36
REMARK SMILES IDX 30 37 31 38 32 39 33 40 34 41 35 43 36 44 37 45 89 46 38 47
REMARK SMILES IDX 88 48 39 49 40 50 41 51 82 52 42 53 87 54 81 55 83 56 43 57
REMARK SMILES IDX 86 58 80 59 79 60 44 62 70 63 53 64 69 65 54 66 57 67 68 68
REMARK SMILES IDX 84 69 55 70 56 71 67 73 85 74 58 75 45 76 46 77 51 78 47 79
REMARK SMILES IDX 48 80 50 81 52 82 49 83 71 84 72 85 77 86 73 87 74 88 76 89
REMARK SMILES IDX 78 90 75 91 59 92 60 93 65 94 61 95 62 96 64 97 66 98 63 99
REMARK H PARENT 28 5 17 14 16 19 9 29 33 42 83 61 57 72
REMARK Flexibility Score: inf
ROOT
ATOM      1  C   UNL A   1      31.908  29.172  26.227  1.00  0.00     0.116 C 
ENDROOT
BRANCH   1   2
ATOM      2  N   UNL A   1      32.380  28.900  24.873  1.00  0.00    -0.352 N 
ATOM      3  C   UNL A   1      31.710  29.021  23.668  1.00  0.00     0.252 C 
ATOM      4  O   UNL A   1      32.309  28.875  22.607  1.00  0.00    -0.269 OA
ATOM      5  H   UNL A   1      33.310  28.585  24.807  1.00  0.00     0.163 HD
BRANCH   3   6
ATOM      6  C   UNL A   1      30.246  29.230  23.633  1.00  0.00     0.052 A 
ATOM      7  C   UNL A   1      29.331  28.196  23.406  1.00  0.00     0.054 A 
ATOM      8  C   UNL A   1      28.032  28.516  22.997  1.00  0.00     0.015 A 
ATOM      9  C   UNL A   1      27.615  29.854  22.985  1.00  0.00     0.001 A 
ATOM     10  C   UNL A   1      29.798  30.556  23.730  1.00  0.00     0.014 A 
ATOM     11  C   UNL A   1      28.476  30.864  23.414  1.00  0.00     0.001 A 
BRANCH   7  12
ATOM     12  C   UNL A   1      29.756  26.781  23.522  1.00  0.00     0.270 C 
ATOM     13  N   UNL A   1      29.106  26.048  24.500  1.00  0.00    -0.263 N 
ATOM     14  H   UNL A   1      28.159  26.214  24.712  1.00  0.00     0.191 HD
ATOM     15  O   UNL A   1      30.692  26.360  22.851  1.00  0.00    -0.267 OA
BRANCH  13  16
ATOM     16  N   UNL A   1      29.841  25.056  25.187  1.00  0.00    -0.263 N 
ATOM     17  C   UNL A   1      30.720  25.510  26.162  1.00  0.00     0.269 C 
ATOM     18  O   UNL A   1      30.471  26.462  26.897  1.00  0.00    -0.267 OA
ATOM     19  H   UNL A   1      29.737  24.098  24.986  1.00  0.00     0.191 HD
BRANCH  17  20
ATOM     20  C   UNL A   1      32.087  24.916  26.171  1.00  0.00     0.041 A 
ATOM     21  C   UNL A   1      34.411  23.343  25.818  1.00  0.00     0.041 A 
ATOM     22  C   UNL A   1      33.487  23.034  26.801  1.00  0.00     0.027 A 
ATOM     23  C   UNL A   1      34.223  24.518  25.081  1.00  0.00     0.027 A 
ATOM     24  C   UNL A   1      32.342  23.814  26.982  1.00  0.00     0.016 A 
ATOM     25  C   UNL A   1      33.051  25.285  25.231  1.00  0.00     0.016 A 
BRANCH  21  26
ATOM     26  N   UNL A   1      35.533  22.539  25.554  1.00  0.00    -0.322 N 
ATOM     27  C   UNL A   1      35.680  21.198  25.240  1.00  0.00     0.255 C 
ATOM     28  O   UNL A   1      36.793  20.689  25.391  1.00  0.00    -0.269 OA
ATOM     29  H   UNL A   1      36.388  23.027  25.602  1.00  0.00     0.170 HD
BRANCH  27  30
ATOM     30  C   UNL A   1      34.596  20.350  24.654  1.00  0.00     0.040 A 
ATOM     31  C   UNL A   1      33.733  16.709  23.907  1.00  0.00     0.044 C 
ATOM     32  C   UNL A   1      33.622  18.200  24.030  1.00  0.00    -0.050 A 
ATOM     33  C   UNL A   1      32.494  18.858  23.528  1.00  0.00     0.003 A 
ATOM     34  C   UNL A   1      34.639  18.949  24.644  1.00  0.00     0.017 A 
ATOM     35  C   UNL A   1      32.395  20.245  23.617  1.00  0.00     0.001 A 
ATOM     36  C   UNL A   1      33.445  20.988  24.165  1.00  0.00     0.014 A 
ENDBRANCH  27  30
ENDBRANCH  21  26
ENDBRANCH  17  20
ENDBRANCH  13  16
ENDBRANCH   7  12
ENDBRANCH   3   6
ENDBRANCH   1   2
BRANCH   1  37
ATOM     37  C   UNL A   1      32.515  30.391  26.924  1.00  0.00     0.023 C 
BRANCH  37  38
ATOM     38  C   UNL A   1      33.888  30.246  27.598  1.00  0.00     0.023 C 
BRANCH  38  39
ATOM     39  C   UNL A   1      34.800  31.482  27.576  1.00  0.00     0.116 C 
BRANCH  39  40
ATOM     40  N   UNL A   1      35.297  31.893  28.886  1.00  0.00    -0.352 N 
ATOM     41  C   UNL A   1      36.258  31.329  29.707  1.00  0.00     0.251 C 
ATOM     42  H   UNL A   1      34.876  32.708  29.247  1.00  0.00     0.163 HD
ATOM     43  O   UNL A   1      36.588  31.923  30.736  1.00  0.00    -0.269 OA
BRANCH  41  44
ATOM     44  C   UNL A   1      37.006  30.109  29.305  1.00  0.00     0.039 A 
ATOM     45  C   UNL A   1      37.179  29.095  30.254  1.00  0.00     0.014 A 
ATOM     46  C   UNL A   1      37.656  30.008  28.082  1.00  0.00     0.014 A 
ATOM     47  C   UNL A   1      38.219  28.178  30.104  1.00  0.00     0.010 A 
ATOM     48  C   UNL A   1      38.738  29.154  27.956  1.00  0.00     0.010 A 
ATOM     49  C   UNL A   1      39.076  28.308  29.013  1.00  0.00    -0.014 A 
BRANCH  49  50
ATOM     50  C   UNL A   1      40.407  27.713  28.975  1.00  0.00     0.031 A 
ATOM     51  C   UNL A   1      40.607  26.310  28.572  1.00  0.00     0.074 A 
ATOM     52  C   UNL A   1      41.473  28.485  29.292  1.00  0.00     0.049 A 
ATOM     53  N   UNL A   1      41.599  25.583  28.961  1.00  0.00    -0.248 NA
ATOM     54  C   UNL A   1      39.669  25.595  27.717  1.00  0.00     0.031 C 
ATOM     55  C   UNL A   1      42.886  28.161  29.120  1.00  0.00     0.029 A 
ATOM     56  N   UNL A   1      41.476  29.652  30.070  1.00  0.00    -0.354 N 
ATOM     57  C   UNL A   1      41.588  24.421  28.222  1.00  0.00     0.074 A 
ATOM     58  C   UNL A   1      40.329  24.449  27.512  1.00  0.00     0.031 C 
ATOM     59  C   UNL A   1      43.603  28.885  29.992  1.00  0.00     0.029 A 
ATOM     60  C   UNL A   1      42.660  29.595  30.839  1.00  0.00     0.049 A 
ATOM     61  H   UNL A   1      40.795  30.365  30.079  1.00  0.00     0.167 HD
ATOM     62  C   UNL A   1      42.705  23.636  28.198  1.00  0.00     0.037 A 
ATOM     63  C   UNL A   1      42.640  29.552  32.201  1.00  0.00     0.037 A 
ATOM     64  C   UNL A   1      43.749  24.179  29.063  1.00  0.00     0.049 A 
ATOM     65  C   UNL A   1      43.361  28.362  32.782  1.00  0.00     0.074 A 
ATOM     66  C   UNL A   1      44.847  24.985  28.804  1.00  0.00     0.029 A 
ATOM     67  N   UNL A   1      43.582  24.169  30.442  1.00  0.00    -0.354 N 
ATOM     68  N   UNL A   1      43.579  27.257  32.126  1.00  0.00    -0.248 NA
ATOM     69  C   UNL A   1      43.882  28.317  34.144  1.00  0.00     0.031 C 
ATOM     70  C   UNL A   1      45.325  25.486  30.037  1.00  0.00     0.029 A 
ATOM     71  C   UNL A   1      44.528  24.972  31.046  1.00  0.00     0.049 A 
ATOM     72  H   UNL A   1      42.887  23.662  30.920  1.00  0.00     0.167 HD
ATOM     73  C   UNL A   1      44.242  26.368  32.935  1.00  0.00     0.074 A 
ATOM     74  C   UNL A   1      44.422  27.086  34.183  1.00  0.00     0.031 C 
ATOM     75  C   UNL A   1      44.580  25.119  32.493  1.00  0.00     0.037 A 
BRANCH  62  76
ATOM     76  C   UNL A   1      42.967  22.548  27.178  1.00  0.00     0.057 A 
ATOM     77  C   UNL A   1      42.252  21.332  27.214  1.00  0.00     0.134 A 
ATOM     78  C   UNL A   1      43.937  22.613  26.165  1.00  0.00     0.134 A 
ATOM     79  F   UNL A   1      41.214  21.144  28.040  1.00  0.00    -0.206 F 
ATOM     80  C   UNL A   1      42.562  20.235  26.399  1.00  0.00     0.040 A 
ATOM     81  C   UNL A   1      44.292  21.509  25.374  1.00  0.00     0.040 A 
ATOM     82  F   UNL A   1      44.548  23.763  25.855  1.00  0.00    -0.206 F 
ATOM     83  C   UNL A   1      43.613  20.306  25.501  1.00  0.00     0.006 A 
ENDBRANCH  62  76
BRANCH  63  84
ATOM     84  C   UNL A   1      41.446  30.205  32.794  1.00  0.00     0.057 A 
ATOM     85  C   UNL A   1      41.387  31.610  32.808  1.00  0.00     0.134 A 
ATOM     86  C   UNL A   1      40.244  29.515  32.967  1.00  0.00     0.134 A 
ATOM     87  F   UNL A   1      42.509  32.332  32.657  1.00  0.00    -0.206 F 
ATOM     88  C   UNL A   1      40.173  32.298  32.859  1.00  0.00     0.040 A 
ATOM     89  C   UNL A   1      39.023  30.196  33.041  1.00  0.00     0.040 A 
ATOM     90  F   UNL A   1      40.215  28.175  32.947  1.00  0.00    -0.206 F 
ATOM     91  C   UNL A   1      38.980  31.586  32.938  1.00  0.00     0.006 A 
ENDBRANCH  63  84
BRANCH  75  92
ATOM     92  C   UNL A   1      45.082  23.953  33.321  1.00  0.00     0.057 A 
ATOM     93  C   UNL A   1      46.374  23.845  33.853  1.00  0.00     0.134 A 
ATOM     94  C   UNL A   1      44.189  22.932  33.737  1.00  0.00     0.134 A 
ATOM     95  F   UNL A   1      47.303  24.787  33.650  1.00  0.00    -0.206 F 
ATOM     96  C   UNL A   1      46.765  22.782  34.683  1.00  0.00     0.040 A 
ATOM     97  C   UNL A   1      44.553  21.902  34.609  1.00  0.00     0.040 A 
ATOM     98  F   UNL A   1      42.909  22.903  33.340  1.00  0.00    -0.206 F 
ATOM     99  C   UNL A   1      45.852  21.814  35.075  1.00  0.00     0.006 A 
ENDBRANCH  75  92
ENDBRANCH  49  50
ENDBRANCH  41  44
ENDBRANCH  39  40
ENDBRANCH  38  39
ENDBRANCH  37  38
ENDBRANCH   1  37
TORSDOF 16
ENDMDL
MODEL 2
REMARK VINA RESULT:     -14.5      3.600      9.874
REMARK SMILES Cc1cccc(C(=O)Nc2ccc(C(=O)NNC(=O)c3ccccc3C(=O)NCCCCNC(=O)c3ccc(-c4c5nc(c(-c6c(F)cccc6F)c6ccc([nH]6)c(-c6c(F)cccc6F)c6nc(c(-c7c(F)cccc7F)c7ccc4[nH]7)C=C6)C=C5)cc3)cc2)c1
REMARK SMILES IDX 29 1 28 2 26 3 27 4 25 6 20 7 21 8 22 9 24 10 23 11 18 12
REMARK SMILES IDX 17 13 19 15 16 16 14 17 15 18 13 20 10 21 11 22 91 23 12 24
REMARK SMILES IDX 90 25 9 26 7 27 8 28 6 30 1 31 2 32 3 33 92 34 4 35 5 36
REMARK SMILES IDX 30 37 31 38 32 39 33 40 34 41 35 43 36 44 37 45 89 46 38 47
REMARK SMILES IDX 88 48 39 49 40 50 41 51 82 52 42 53 87 54 81 55 83 56 43 57
REMARK SMILES IDX 86 58 80 59 79 60 44 62 70 63 53 64 69 65 54 66 57 67 68 68
REMARK SMILES IDX 84 69 55 70 56 71 67 73 85 74 58 75 45 76 46 77 51 78 47 79
REMARK SMILES IDX 48 80 50 81 52 82 49 83 71 84 72 85 77 86 73 87 74 88 76 89
REMARK SMILES IDX 78 90 75 91 59 92 60 93 65 94 61 95 62 96 64 97 66 98 63 99
REMARK H PARENT 28 5 17 14 16 19 9 29 33 42 83 61 57 72
REMARK Flexibility Score: inf
ROOT
ATOM      1  C   UNL A   1      34.878  22.162  26.181  1.00  0.00     0.116 C 
ENDROOT
BRANCH   1   2
ATOM      2  N   UNL A   1      33.439  21.924  26.243  1.00  0.00    -0.352 N 
ATOM      3  C   UNL A   1      32.444  22.327  25.369  1.00  0.00     0.252 C 
ATOM      4  O   UNL A   1      31.295  21.922  25.508  1.00  0.00    -0.269 OA
ATOM      5  H   UNL A   1      33.131  21.403  27.018  1.00  0.00     0.163 HD
BRANCH   3   6
ATOM      6  C   UNL A   1      32.722  23.325  24.313  1.00  0.00     0.052 A 
ATOM      7  C   UNL A   1      32.538  24.700  24.494  1.00  0.00     0.054 A 
ATOM      8  C   UNL A   1      32.436  25.525  23.369  1.00  0.00     0.015 A 
ATOM      9  C   UNL A   1      32.686  25.001  22.094  1.00  0.00     0.001 A 
ATOM     10  C   UNL A   1      33.082  22.824  23.054  1.00  0.00     0.014 A 
ATOM     11  C   UNL A   1      33.072  23.668  21.945  1.00  0.00     0.001 A 
BRANCH   7  12
ATOM     12  C   UNL A   1      32.378  25.262  25.856  1.00  0.00     0.270 C 
ATOM     13  N   UNL A   1      31.283  26.092  26.026  1.00  0.00    -0.263 N 
ATOM     14  H   UNL A   1      30.440  25.923  25.548  1.00  0.00     0.191 HD
ATOM     15  O   UNL A   1      33.236  25.065  26.710  1.00  0.00    -0.267 OA
BRANCH  13  16
ATOM     16  N   UNL A   1      31.411  27.189  26.907  1.00  0.00    -0.263 N 
ATOM     17  C   UNL A   1      31.755  28.404  26.327  1.00  0.00     0.269 C 
ATOM     18  O   UNL A   1      31.336  28.765  25.231  1.00  0.00    -0.267 OA
ATOM     19  H   UNL A   1      31.263  27.099  27.876  1.00  0.00     0.191 HD
BRANCH  17  20
ATOM     20  C   UNL A   1      32.822  29.198  27.000  1.00  0.00     0.041 A 
ATOM     21  C   UNL A   1      35.080  30.759  27.684  1.00  0.00     0.041 A 
ATOM     22  C   UNL A   1      35.178  29.384  27.561  1.00  0.00     0.027 A 
ATOM     23  C   UNL A   1      33.812  31.343  27.576  1.00  0.00     0.027 A 
ATOM     24  C   UNL A   1      34.062  28.610  27.229  1.00  0.00     0.016 A 
ATOM     25  C   UNL A   1      32.693  30.573  27.202  1.00  0.00     0.016 A 
BRANCH  21  26
ATOM     26  N   UNL A   1      36.193  31.578  27.938  1.00  0.00    -0.322 N 
ATOM     27  C   UNL A   1      36.360  32.742  28.670  1.00  0.00     0.255 C 
ATOM     28  O   UNL A   1      37.361  33.425  28.446  1.00  0.00    -0.269 OA
ATOM     29  H   UNL A   1      37.021  31.261  27.510  1.00  0.00     0.170 HD
BRANCH  27  30
ATOM     30  C   UNL A   1      35.444  33.181  29.769  1.00  0.00     0.040 A 
ATOM     31  C   UNL A   1      33.220  36.101  30.810  1.00  0.00     0.044 C 
ATOM     32  C   UNL A   1      33.906  34.767  30.807  1.00  0.00    -0.050 A 
ATOM     33  C   UNL A   1      33.749  33.902  31.894  1.00  0.00     0.003 A 
ATOM     34  C   UNL A   1      34.707  34.372  29.723  1.00  0.00     0.017 A 
ATOM     35  C   UNL A   1      34.402  32.671  31.911  1.00  0.00     0.001 A 
ATOM     36  C   UNL A   1      35.255  32.318  30.860  1.00  0.00     0.014 A 
ENDBRANCH  27  30
ENDBRANCH  21  26
ENDBRANCH  17  20
ENDBRANCH  13  16
ENDBRANCH   7  12
ENDBRANCH   3   6
ENDBRANCH   1   2
BRANCH   1  37
ATOM     37  C   UNL A   1      35.688  21.192  25.319  1.00  0.00     0.023 C 
BRANCH  37  38
ATOM     38  C   UNL A   1      37.130  21.567  24.943  1.00  0.00     0.023 C 
BRANCH  38  39
ATOM     39  C   UNL A   1      37.801  22.658  25.791  1.00  0.00     0.116 C 
BRANCH  39  40
ATOM     40  N   UNL A   1      39.239  22.484  25.976  1.00  0.00    -0.352 N 
ATOM     41  C   UNL A   1      40.183  23.313  26.557  1.00  0.00     0.251 C 
ATOM     42  H   UNL A   1      39.598  21.636  25.627  1.00  0.00     0.163 HD
ATOM     43  O   UNL A   1      41.337  22.901  26.695  1.00  0.00    -0.269 OA
BRANCH  41  44
ATOM     44  C   UNL A   1      39.808  24.622  27.152  1.00  0.00     0.039 A 
ATOM     45  C   UNL A   1      40.110  25.787  26.437  1.00  0.00     0.014 A 
ATOM     46  C   UNL A   1      39.308  24.734  28.443  1.00  0.00     0.014 A 
ATOM     47  C   UNL A   1      40.211  27.005  27.109  1.00  0.00     0.010 A 
ATOM     48  C   UNL A   1      39.479  25.918  29.138  1.00  0.00     0.010 A 
ATOM     49  C   UNL A   1      40.025  27.026  28.489  1.00  0.00    -0.014 A 
BRANCH  49  50
ATOM     50  C   UNL A   1      40.514  28.106  29.338  1.00  0.00     0.031 A 
ATOM     51  C   UNL A   1      39.607  29.154  29.843  1.00  0.00     0.074 A 
ATOM     52  C   UNL A   1      41.822  28.120  29.683  1.00  0.00     0.049 A 
ATOM     53  N   UNL A   1      39.987  30.346  30.155  1.00  0.00    -0.248 NA
ATOM     54  C   UNL A   1      38.175  28.945  30.003  1.00  0.00     0.031 C 
ATOM     55  C   UNL A   1      42.469  28.972  30.677  1.00  0.00     0.029 A 
ATOM     56  N   UNL A   1      42.887  27.503  29.009  1.00  0.00    -0.354 N 
ATOM     57  C   UNL A   1      38.939  30.971  30.793  1.00  0.00     0.074 A 
ATOM     58  C   UNL A   1      37.815  30.081  30.612  1.00  0.00     0.031 C 
ATOM     59  C   UNL A   1      43.772  29.076  30.371  1.00  0.00     0.029 A 
ATOM     60  C   UNL A   1      43.969  28.404  29.099  1.00  0.00     0.049 A 
ATOM     61  H   UNL A   1      42.880  26.623  28.565  1.00  0.00     0.167 HD
ATOM     62  C   UNL A   1      39.179  32.107  31.511  1.00  0.00     0.037 A 
ATOM     63  C   UNL A   1      44.544  28.963  27.996  1.00  0.00     0.037 A 
ATOM     64  C   UNL A   1      40.581  32.505  31.414  1.00  0.00     0.049 A 
ATOM     65  C   UNL A   1      44.551  30.470  28.012  1.00  0.00     0.074 A 
ATOM     66  C   UNL A   1      41.672  32.282  32.240  1.00  0.00     0.029 A 
ATOM     67  N   UNL A   1      41.086  32.975  30.209  1.00  0.00    -0.354 N 
ATOM     68  N   UNL A   1      43.724  31.190  28.718  1.00  0.00    -0.248 NA
ATOM     69  C   UNL A   1      45.476  31.284  27.231  1.00  0.00     0.031 C 
ATOM     70  C   UNL A   1      42.844  32.593  31.512  1.00  0.00     0.029 A 
ATOM     71  C   UNL A   1      42.465  33.020  30.252  1.00  0.00     0.049 A 
ATOM     72  H   UNL A   1      40.538  33.238  29.434  1.00  0.00     0.167 HD
ATOM     73  C   UNL A   1      43.979  32.522  28.503  1.00  0.00     0.074 A 
ATOM     74  C   UNL A   1      45.095  32.527  27.577  1.00  0.00     0.031 C 
ATOM     75  C   UNL A   1      43.239  33.496  29.114  1.00  0.00     0.037 A 
BRANCH  62  76
ATOM     76  C   UNL A   1      38.228  32.691  32.535  1.00  0.00     0.057 A 
ATOM     77  C   UNL A   1      37.798  34.032  32.443  1.00  0.00     0.134 A 
ATOM     78  C   UNL A   1      37.735  32.007  33.657  1.00  0.00     0.134 A 
ATOM     79  F   UNL A   1      38.079  34.796  31.379  1.00  0.00    -0.206 F 
ATOM     80  C   UNL A   1      37.050  34.669  33.443  1.00  0.00     0.040 A 
ATOM     81  C   UNL A   1      37.026  32.641  34.690  1.00  0.00     0.040 A 
ATOM     82  F   UNL A   1      37.866  30.680  33.779  1.00  0.00    -0.206 F 
ATOM     83  C   UNL A   1      36.695  33.985  34.593  1.00  0.00     0.006 A 
ENDBRANCH  62  76
BRANCH  63  84
ATOM     84  C   UNL A   1      44.429  28.119  26.780  1.00  0.00     0.057 A 
ATOM     85  C   UNL A   1      45.241  26.974  26.680  1.00  0.00     0.134 A 
ATOM     86  C   UNL A   1      43.310  28.181  25.947  1.00  0.00     0.134 A 
ATOM     87  F   UNL A   1      46.337  26.857  27.445  1.00  0.00    -0.206 F 
ATOM     88  C   UNL A   1      44.883  25.883  25.884  1.00  0.00     0.040 A 
ATOM     89  C   UNL A   1      42.954  27.102  25.130  1.00  0.00     0.040 A 
ATOM     90  F   UNL A   1      42.478  29.231  25.998  1.00  0.00    -0.206 F 
ATOM     91  C   UNL A   1      43.714  25.932  25.132  1.00  0.00     0.006 A 
ENDBRANCH  63  84
BRANCH  75  92
ATOM     92  C   UNL A   1      43.229  34.979  28.801  1.00  0.00     0.057 A 
ATOM     93  C   UNL A   1      42.155  35.667  28.221  1.00  0.00     0.134 A 
ATOM     94  C   UNL A   1      44.297  35.809  29.227  1.00  0.00     0.134 A 
ATOM     95  F   UNL A   1      41.023  35.045  27.868  1.00  0.00    -0.206 F 
ATOM     96  C   UNL A   1      42.163  37.058  28.025  1.00  0.00     0.040 A 
ATOM     97  C   UNL A   1      44.290  37.200  29.090  1.00  0.00     0.040 A 
ATOM     98  F   UNL A   1      45.388  35.311  29.825  1.00  0.00    -0.206 F 
ATOM     99  C   UNL A   1      43.225  37.831  28.472  1.00  0.00     0.006 A 
ENDBRANCH  75  92
ENDBRANCH  49  50
ENDBRANCH  41  44
ENDBRANCH  39  40
ENDBRANCH  38  39
ENDBRANCH  37  38
ENDBRANCH   1  37
TORSDOF 16
ENDMDL
MODEL 3
REMARK VINA RESULT:     -14.5      3.466      9.720
REMARK SMILES Cc1cccc(C(=O)Nc2ccc(C(=O)NNC(=O)c3ccccc3C(=O)NCCCCNC(=O)c3ccc(-c4c5nc(c(-c6c(F)cccc6F)c6ccc([nH]6)c(-c6c(F)cccc6F)c6nc(c(-c7c(F)cccc7F)c7ccc4[nH]7)C=C6)C=C5)cc3)cc2)c1
REMARK SMILES IDX 29 1 28 2 26 3 27 4 25 6 20 7 21 8 22 9 24 10 23 11 18 12
REMARK SMILES IDX 17 13 19 15 16 16 14 17 15 18 13 20 10 21 11 22 91 23 12 24
REMARK SMILES IDX 90 25 9 26 7 27 8 28 6 30 1 31 2 32 3 33 92 34 4 35 5 36
REMARK SMILES IDX 30 37 31 38 32 39 33 40 34 41 35 43 36 44 37 45 89 46 38 47
REMARK SMILES IDX 88 48 39 49 40 50 41 51 82 52 42 53 87 54 81 55 83 56 43 57
REMARK SMILES IDX 86 58 80 59 79 60 44 62 70 63 53 64 69 65 54 66 57 67 68 68
REMARK SMILES IDX 84 69 55 70 56 71 67 73 85 74 58 75 45 76 46 77 51 78 47 79
REMARK SMILES IDX 48 80 50 81 52 82 49 83 71 84 72 85 77 86 73 87 74 88 76 89
REMARK SMILES IDX 78 90 75 91 59 92 60 93 65 94 61 95 62 96 64 97 66 98 63 99
REMARK H PARENT 28 5 17 14 16 19 9 29 33 42 83 61 57 72
REMARK Flexibility Score: inf
ROOT
ATOM      1  C   UNL A   1      36.041  22.078  24.521  1.00  0.00     0.116 C 
ENDROOT
BRANCH   1   2
ATOM      2  N   UNL A   1      35.107  21.859  25.621  1.00  0.00    -0.352 N 
ATOM      3  C   UNL A   1      34.220  20.816  25.826  1.00  0.00     0.252 C 
ATOM      4  O   UNL A   1      33.600  20.727  26.880  1.00  0.00    -0.269 OA
ATOM      5  H   UNL A   1      35.106  22.554  26.318  1.00  0.00     0.163 HD
BRANCH   3   6
ATOM      6  C   UNL A   1      33.928  19.847  24.747  1.00  0.00     0.052 A 
ATOM      7  C   UNL A   1      32.853  19.989  23.862  1.00  0.00     0.054 A 
ATOM      8  C   UNL A   1      32.408  18.871  23.149  1.00  0.00     0.015 A 
ATOM      9  C   UNL A   1      33.141  17.677  23.196  1.00  0.00     0.001 A 
ATOM     10  C   UNL A   1      34.723  18.693  24.707  1.00  0.00     0.014 A 
ATOM     11  C   UNL A   1      34.331  17.611  23.921  1.00  0.00     0.001 A 
BRANCH   7  12
ATOM     12  C   UNL A   1      32.147  21.287  23.742  1.00  0.00     0.270 C 
ATOM     13  N   UNL A   1      32.075  21.803  22.459  1.00  0.00    -0.263 N 
ATOM     14  H   UNL A   1      31.985  21.210  21.679  1.00  0.00     0.191 HD
ATOM     15  O   UNL A   1      31.763  21.876  24.747  1.00  0.00    -0.267 OA
BRANCH  13  16
ATOM     16  N   UNL A   1      32.137  23.206  22.303  1.00  0.00    -0.263 N 
ATOM     17  C   UNL A   1      33.398  23.779  22.404  1.00  0.00     0.269 C 
ATOM     18  O   UNL A   1      34.414  23.242  21.971  1.00  0.00    -0.267 OA
ATOM     19  H   UNL A   1      31.332  23.746  22.131  1.00  0.00     0.191 HD
BRANCH  17  20
ATOM     20  C   UNL A   1      33.519  25.008  23.238  1.00  0.00     0.041 A 
ATOM     21  C   UNL A   1      33.137  27.427  24.655  1.00  0.00     0.041 A 
ATOM     22  C   UNL A   1      33.469  27.435  23.311  1.00  0.00     0.027 A 
ATOM     23  C   UNL A   1      33.109  26.195  25.320  1.00  0.00     0.027 A 
ATOM     24  C   UNL A   1      33.665  26.241  22.611  1.00  0.00     0.016 A 
ATOM     25  C   UNL A   1      33.265  24.988  24.611  1.00  0.00     0.016 A 
BRANCH  21  26
ATOM     26  N   UNL A   1      32.855  28.601  25.373  1.00  0.00    -0.322 N 
ATOM     27  C   UNL A   1      31.935  29.621  25.190  1.00  0.00     0.255 C 
ATOM     28  O   UNL A   1      32.133  30.687  25.775  1.00  0.00    -0.269 OA
ATOM     29  H   UNL A   1      33.426  28.725  26.165  1.00  0.00     0.170 HD
BRANCH  27  30
ATOM     30  C   UNL A   1      30.677  29.482  24.392  1.00  0.00     0.040 A 
ATOM     31  C   UNL A   1      27.840  31.561  22.913  1.00  0.00     0.044 C 
ATOM     32  C   UNL A   1      28.714  30.393  23.262  1.00  0.00    -0.050 A 
ATOM     33  C   UNL A   1      28.328  29.101  22.892  1.00  0.00     0.003 A 
ATOM     34  C   UNL A   1      29.919  30.579  23.959  1.00  0.00     0.017 A 
ATOM     35  C   UNL A   1      29.122  28.008  23.235  1.00  0.00     0.001 A 
ATOM     36  C   UNL A   1      30.283  28.196  23.992  1.00  0.00     0.014 A 
ENDBRANCH  27  30
ENDBRANCH  21  26
ENDBRANCH  17  20
ENDBRANCH  13  16
ENDBRANCH   7  12
ENDBRANCH   3   6
ENDBRANCH   1   2
BRANCH   1  37
ATOM     37  C   UNL A   1      37.378  22.726  24.888  1.00  0.00     0.023 C 
BRANCH  37  38
ATOM     38  C   UNL A   1      38.521  21.828  25.385  1.00  0.00     0.023 C 
BRANCH  38  39
ATOM     39  C   UNL A   1      39.258  22.288  26.651  1.00  0.00     0.116 C 
BRANCH  39  40
ATOM     40  N   UNL A   1      40.645  22.692  26.434  1.00  0.00    -0.352 N 
ATOM     41  C   UNL A   1      41.244  23.938  26.491  1.00  0.00     0.251 C 
ATOM     42  H   UNL A   1      41.256  21.953  26.207  1.00  0.00     0.163 HD
ATOM     43  O   UNL A   1      42.469  24.019  26.371  1.00  0.00    -0.269 OA
BRANCH  41  44
ATOM     44  C   UNL A   1      40.470  25.158  26.840  1.00  0.00     0.039 A 
ATOM     45  C   UNL A   1      40.771  26.349  26.169  1.00  0.00     0.014 A 
ATOM     46  C   UNL A   1      39.573  25.189  27.900  1.00  0.00     0.014 A 
ATOM     47  C   UNL A   1      40.432  27.573  26.746  1.00  0.00     0.010 A 
ATOM     48  C   UNL A   1      39.298  26.393  28.523  1.00  0.00     0.010 A 
ATOM     49  C   UNL A   1      39.814  27.577  27.994  1.00  0.00    -0.014 A 
BRANCH  49  50
ATOM     50  C   UNL A   1      39.805  28.743  28.870  1.00  0.00     0.031 A 
ATOM     51  C   UNL A   1      38.769  29.785  28.747  1.00  0.00     0.074 A 
ATOM     52  C   UNL A   1      40.756  28.845  29.828  1.00  0.00     0.049 A 
ATOM     53  N   UNL A   1      38.940  31.015  29.096  1.00  0.00    -0.248 NA
ATOM     54  C   UNL A   1      37.455  29.524  28.178  1.00  0.00     0.031 C 
ATOM     55  C   UNL A   1      40.808  29.802  30.929  1.00  0.00     0.029 A 
ATOM     56  N   UNL A   1      42.014  28.224  29.846  1.00  0.00    -0.354 N 
ATOM     57  C   UNL A   1      37.714  31.641  29.054  1.00  0.00     0.074 A 
ATOM     58  C   UNL A   1      36.836  30.688  28.412  1.00  0.00     0.031 C 
ATOM     59  C   UNL A   1      42.085  29.941  31.317  1.00  0.00     0.029 A 
ATOM     60  C   UNL A   1      42.902  29.178  30.389  1.00  0.00     0.049 A 
ATOM     61  H   UNL A   1      42.233  27.312  29.544  1.00  0.00     0.167 HD
ATOM     62  C   UNL A   1      37.556  32.840  29.687  1.00  0.00     0.037 A 
ATOM     63  C   UNL A   1      43.958  29.672  29.684  1.00  0.00     0.037 A 
ATOM     64  C   UNL A   1      38.813  33.293  30.277  1.00  0.00     0.049 A 
ATOM     65  C   UNL A   1      43.958  31.175  29.561  1.00  0.00     0.074 A 
ATOM     66  C   UNL A   1      39.332  33.187  31.558  1.00  0.00     0.029 A 
ATOM     67  N   UNL A   1      39.862  33.688  29.457  1.00  0.00    -0.354 N 
ATOM     68  N   UNL A   1      42.889  31.910  29.681  1.00  0.00    -0.248 NA
ATOM     69  C   UNL A   1      45.153  31.965  29.286  1.00  0.00     0.031 C 
ATOM     70  C   UNL A   1      40.712  33.491  31.500  1.00  0.00     0.029 A 
ATOM     71  C   UNL A   1      41.028  33.799  30.188  1.00  0.00     0.049 A 
ATOM     72  H   UNL A   1      39.785  33.862  28.491  1.00  0.00     0.167 HD
ATOM     73  C   UNL A   1      43.220  33.231  29.502  1.00  0.00     0.074 A 
ATOM     74  C   UNL A   1      44.652  33.213  29.274  1.00  0.00     0.031 C 
ATOM     75  C   UNL A   1      42.274  34.216  29.561  1.00  0.00     0.037 A 
BRANCH  62  76
ATOM     76  C   UNL A   1      36.218  33.461  30.028  1.00  0.00     0.057 A 
ATOM     77  C   UNL A   1      35.387  33.995  29.019  1.00  0.00     0.134 A 
ATOM     78  C   UNL A   1      35.707  33.606  31.327  1.00  0.00     0.134 A 
ATOM     79  F   UNL A   1      35.665  33.843  27.718  1.00  0.00    -0.206 F 
ATOM     80  C   UNL A   1      34.219  34.719  29.291  1.00  0.00     0.040 A 
ATOM     81  C   UNL A   1      34.565  34.369  31.620  1.00  0.00     0.040 A 
ATOM     82  F   UNL A   1      36.256  32.969  32.369  1.00  0.00    -0.206 F 
ATOM     83  C   UNL A   1      33.824  34.945  30.599  1.00  0.00     0.006 A 
ENDBRANCH  62  76
BRANCH  63  84
ATOM     84  C   UNL A   1      44.477  28.729  28.661  1.00  0.00     0.057 A 
ATOM     85  C   UNL A   1      44.082  28.906  27.323  1.00  0.00     0.134 A 
ATOM     86  C   UNL A   1      45.614  27.950  28.892  1.00  0.00     0.134 A 
ATOM     87  F   UNL A   1      42.993  29.636  27.034  1.00  0.00    -0.206 F 
ATOM     88  C   UNL A   1      44.856  28.442  26.257  1.00  0.00     0.040 A 
ATOM     89  C   UNL A   1      46.385  27.462  27.830  1.00  0.00     0.040 A 
ATOM     90  F   UNL A   1      46.064  27.750  30.138  1.00  0.00    -0.206 F 
ATOM     91  C   UNL A   1      46.034  27.748  26.511  1.00  0.00     0.006 A 
ENDBRANCH  63  84
BRANCH  75  92
ATOM     92  C   UNL A   1      42.426  35.667  29.150  1.00  0.00     0.057 A 
ATOM     93  C   UNL A   1      43.216  36.611  29.820  1.00  0.00     0.134 A 
ATOM     94  C   UNL A   1      41.865  36.130  27.933  1.00  0.00     0.134 A 
ATOM     95  F   UNL A   1      43.907  36.299  30.924  1.00  0.00    -0.206 F 
ATOM     96  C   UNL A   1      43.389  37.923  29.352  1.00  0.00     0.040 A 
ATOM     97  C   UNL A   1      42.078  37.416  27.428  1.00  0.00     0.040 A 
ATOM     98  F   UNL A   1      41.105  35.343  27.157  1.00  0.00    -0.206 F 
ATOM     99  C   UNL A   1      42.832  38.326  28.147  1.00  0.00     0.006 A 
ENDBRANCH  75  92
ENDBRANCH  49  50
ENDBRANCH  41  44
ENDBRANCH  39  40
ENDBRANCH  38  39
ENDBRANCH  37  38
ENDBRANCH   1  37
TORSDOF 16
ENDMDL
