MODEL 1
REMARK VINA RESULT:     -12.6      0.000      0.000
REMARK SMILES NS(=O)(=O)c1ccc(/N=N/c2ccc(O)c(C(=O)NCCCCNC(=O)c3ccc(-c4c5nc(c(-c6c(F)cccc6F)c6ccc([nH]6)c(-c6c(F)cccc6F)c6nc(c(-c7c(F)cccc7F)c7ccc4[nH]7)C=C6)C=C5)cc3)c2)cc1
REMARK SMILES IDX 20 1 19 2 17 3 18 4 16 6 11 7 12 8 81 9 13 10 14 11 10 12
REMARK SMILES IDX 9 13 8 14 5 15 6 16 83 17 7 18 82 19 2 20 3 21 4 22 1 23
REMARK SMILES IDX 15 26 21 28 22 29 23 30 24 31 25 32 26 34 27 35 28 36 80 37
REMARK SMILES IDX 29 38 79 39 30 40 31 41 32 42 73 43 33 44 78 45 72 46 74 47
REMARK SMILES IDX 34 48 77 49 71 50 70 51 35 53 61 54 44 55 60 56 45 57 48 58
REMARK SMILES IDX 59 59 75 60 46 61 47 62 58 64 76 65 49 66 36 67 37 68 42 69
REMARK SMILES IDX 38 70 39 71 41 72 43 73 40 74 62 75 63 76 68 77 64 78 65 79
REMARK SMILES IDX 67 80 69 81 66 82 50 83 51 84 56 85 52 86 53 87 55 88 57 89
REMARK SMILES IDX 54 90
REMARK H PARENT 19 5 1 24 1 25 15 27 24 33 74 52 48 63
REMARK Flexibility Score: inf
ROOT
ATOM      1  C   UNL A   1      33.169  29.701  26.484  1.00  0.00     0.116 C 
ENDROOT
BRANCH   1   2
ATOM      2  N   UNL A   1      33.595  29.693  25.092  1.00  0.00    -0.352 N 
ATOM      3  C   UNL A   1      33.060  29.056  23.993  1.00  0.00     0.255 C 
ATOM      4  O   UNL A   1      33.643  29.129  22.910  1.00  0.00    -0.269 OA
ATOM      5  H   UNL A   1      34.398  30.232  24.904  1.00  0.00     0.163 HD
BRANCH   3   6
ATOM      6  C   UNL A   1      31.848  28.203  24.079  1.00  0.00     0.083 A 
ATOM      7  C   UNL A   1      30.849  26.003  24.401  1.00  0.00     0.087 A 
ATOM      8  C   UNL A   1      29.650  26.485  23.865  1.00  0.00     0.034 A 
ATOM      9  C   UNL A   1      31.901  26.910  24.599  1.00  0.00     0.048 A 
ATOM     10  C   UNL A   1      29.526  27.829  23.494  1.00  0.00     0.049 A 
ATOM     11  C   UNL A   1      30.627  28.679  23.587  1.00  0.00     0.128 A 
BRANCH   7  12
ATOM     12  N   UNL A   1      30.997  24.615  24.649  1.00  0.00    -0.151 NA
ATOM     13  N   UNL A   1      31.868  24.138  23.885  1.00  0.00    -0.151 NA
BRANCH  13  14
ATOM     14  C   UNL A   1      31.946  22.739  23.924  1.00  0.00     0.086 A 
ATOM     15  C   UNL A   1      32.445  19.983  24.014  1.00  0.00     0.082 A 
ATOM     16  C   UNL A   1      32.489  20.732  25.192  1.00  0.00     0.024 A 
ATOM     17  C   UNL A   1      32.152  20.596  22.793  1.00  0.00     0.024 A 
ATOM     18  C   UNL A   1      32.243  22.108  25.139  1.00  0.00     0.031 A 
ATOM     19  C   UNL A   1      31.902  21.970  22.752  1.00  0.00     0.031 A 
BRANCH  15  20
ATOM     20  S   UNL A   1      32.825  18.255  24.045  1.00  0.00     0.238 S 
ATOM     21  O   UNL A   1      31.906  17.591  24.939  1.00  0.00    -0.207 OA
ATOM     22  O   UNL A   1      34.256  18.106  24.139  1.00  0.00    -0.207 OA
BRANCH  20  23
ATOM     23  N   UNL A   1      32.393  17.730  22.507  1.00  0.00    -0.225 NA
ATOM     24  H   UNL A   1      31.545  18.213  22.209  1.00  0.00     0.137 HD
ATOM     25  H   UNL A   1      32.222  16.725  22.527  1.00  0.00     0.137 HD
ENDBRANCH  20  23
ENDBRANCH  15  20
ENDBRANCH  13  14
ENDBRANCH   7  12
BRANCH  11  26
ATOM     26  O   UNL A   1      30.445  29.969  23.167  1.00  0.00    -0.507 OA
ATOM     27  H   UNL A   1      30.902  30.669  23.590  1.00  0.00     0.293 HD
ENDBRANCH  11  26
ENDBRANCH   3   6
ENDBRANCH   1   2
BRANCH   1  28
ATOM     28  C   UNL A   1      31.791  30.305  26.723  1.00  0.00     0.023 C 
BRANCH  28  29
ATOM     29  C   UNL A   1      31.678  31.818  26.592  1.00  0.00     0.023 C 
BRANCH  29  30
ATOM     30  C   UNL A   1      32.771  32.634  27.271  1.00  0.00     0.116 C 
BRANCH  30  31
ATOM     31  N   UNL A   1      32.382  34.002  27.582  1.00  0.00    -0.352 N 
ATOM     32  C   UNL A   1      32.942  34.895  28.467  1.00  0.00     0.251 C 
ATOM     33  H   UNL A   1      31.602  34.340  27.085  1.00  0.00     0.163 HD
ATOM     34  O   UNL A   1      32.428  35.995  28.641  1.00  0.00    -0.269 OA
BRANCH  32  35
ATOM     35  C   UNL A   1      34.140  34.510  29.245  1.00  0.00     0.039 A 
ATOM     36  C   UNL A   1      33.969  33.976  30.524  1.00  0.00     0.014 A 
ATOM     37  C   UNL A   1      35.421  34.630  28.702  1.00  0.00     0.014 A 
ATOM     38  C   UNL A   1      35.073  33.476  31.219  1.00  0.00     0.010 A 
ATOM     39  C   UNL A   1      36.505  34.053  29.355  1.00  0.00     0.010 A 
ATOM     40  C   UNL A   1      36.342  33.462  30.617  1.00  0.00    -0.014 A 
BRANCH  40  41
ATOM     41  C   UNL A   1      37.504  32.817  31.282  1.00  0.00     0.031 A 
ATOM     42  C   UNL A   1      38.186  31.639  30.643  1.00  0.00     0.074 A 
ATOM     43  C   UNL A   1      37.898  33.243  32.499  1.00  0.00     0.049 A 
ATOM     44  N   UNL A   1      39.164  30.900  31.101  1.00  0.00    -0.248 NA
ATOM     45  C   UNL A   1      37.680  31.217  29.326  1.00  0.00     0.031 C 
ATOM     46  C   UNL A   1      37.284  34.338  33.254  1.00  0.00     0.029 A 
ATOM     47  N   UNL A   1      38.903  32.797  33.322  1.00  0.00    -0.354 N 
ATOM     48  C   UNL A   1      39.380  29.922  30.139  1.00  0.00     0.074 A 
ATOM     49  C   UNL A   1      38.394  30.125  29.100  1.00  0.00     0.031 C 
ATOM     50  C   UNL A   1      37.941  34.496  34.414  1.00  0.00     0.029 A 
ATOM     51  C   UNL A   1      38.996  33.491  34.505  1.00  0.00     0.049 A 
ATOM     52  H   UNL A   1      39.500  32.051  33.086  1.00  0.00     0.167 HD
ATOM     53  C   UNL A   1      40.330  28.957  30.111  1.00  0.00     0.037 A 
ATOM     54  C   UNL A   1      39.832  33.332  35.548  1.00  0.00     0.037 A 
ATOM     55  C   UNL A   1      41.326  28.772  31.134  1.00  0.00     0.049 A 
ATOM     56  C   UNL A   1      40.877  32.251  35.494  1.00  0.00     0.074 A 
ATOM     57  C   UNL A   1      42.370  27.863  31.166  1.00  0.00     0.029 A 
ATOM     58  N   UNL A   1      41.400  29.507  32.307  1.00  0.00    -0.354 N 
ATOM     59  N   UNL A   1      41.117  31.380  34.544  1.00  0.00    -0.248 NA
ATOM     60  C   UNL A   1      41.770  32.134  36.655  1.00  0.00     0.031 C 
ATOM     61  C   UNL A   1      43.048  28.019  32.380  1.00  0.00     0.029 A 
ATOM     62  C   UNL A   1      42.458  29.058  33.080  1.00  0.00     0.049 A 
ATOM     63  H   UNL A   1      40.791  30.240  32.554  1.00  0.00     0.167 HD
ATOM     64  C   UNL A   1      42.204  30.632  34.979  1.00  0.00     0.074 A 
ATOM     65  C   UNL A   1      42.586  31.162  36.272  1.00  0.00     0.031 C 
ATOM     66  C   UNL A   1      42.830  29.600  34.363  1.00  0.00     0.037 A 
BRANCH  53  67
ATOM     67  C   UNL A   1      40.341  28.032  28.929  1.00  0.00     0.057 A 
ATOM     68  C   UNL A   1      41.076  28.322  27.771  1.00  0.00     0.134 A 
ATOM     69  C   UNL A   1      39.635  26.824  28.958  1.00  0.00     0.134 A 
ATOM     70  F   UNL A   1      41.765  29.469  27.672  1.00  0.00    -0.206 F 
ATOM     71  C   UNL A   1      41.085  27.457  26.675  1.00  0.00     0.040 A 
ATOM     72  C   UNL A   1      39.659  25.936  27.880  1.00  0.00     0.040 A 
ATOM     73  F   UNL A   1      38.916  26.480  30.037  1.00  0.00    -0.206 F 
ATOM     74  C   UNL A   1      40.380  26.257  26.731  1.00  0.00     0.006 A 
ENDBRANCH  53  67
BRANCH  54  75
ATOM     75  C   UNL A   1      39.737  34.232  36.725  1.00  0.00     0.057 A 
ATOM     76  C   UNL A   1      40.415  35.456  36.754  1.00  0.00     0.134 A 
ATOM     77  C   UNL A   1      38.978  33.890  37.851  1.00  0.00     0.134 A 
ATOM     78  F   UNL A   1      41.174  35.831  35.714  1.00  0.00    -0.206 F 
ATOM     79  C   UNL A   1      40.361  36.298  37.866  1.00  0.00     0.040 A 
ATOM     80  C   UNL A   1      38.893  34.733  38.960  1.00  0.00     0.040 A 
ATOM     81  F   UNL A   1      38.297  32.734  37.883  1.00  0.00    -0.206 F 
ATOM     82  C   UNL A   1      39.593  35.939  38.972  1.00  0.00     0.006 A 
ENDBRANCH  54  75
BRANCH  66  83
ATOM     83  C   UNL A   1      44.015  28.999  35.061  1.00  0.00     0.057 A 
ATOM     84  C   UNL A   1      45.315  29.480  34.862  1.00  0.00     0.134 A 
ATOM     85  C   UNL A   1      43.846  27.948  35.972  1.00  0.00     0.134 A 
ATOM     86  F   UNL A   1      45.546  30.475  33.992  1.00  0.00    -0.206 F 
ATOM     87  C   UNL A   1      46.408  28.923  35.528  1.00  0.00     0.040 A 
ATOM     88  C   UNL A   1      44.927  27.401  36.664  1.00  0.00     0.040 A 
ATOM     89  F   UNL A   1      42.626  27.447  36.215  1.00  0.00    -0.206 F 
ATOM     90  C   UNL A   1      46.214  27.886  36.438  1.00  0.00     0.006 A 
ENDBRANCH  66  83
ENDBRANCH  40  41
ENDBRANCH  32  35
ENDBRANCH  30  31
ENDBRANCH  29  30
ENDBRANCH  28  29
ENDBRANCH   1  28
TORSDOF 16
ENDMDL
MODEL 2
REMARK VINA RESULT:     -12.5      0.667      6.133
REMARK SMILES NS(=O)(=O)c1ccc(/N=N/c2ccc(O)c(C(=O)NCCCCNC(=O)c3ccc(-c4c5nc(c(-c6c(F)cccc6F)c6ccc([nH]6)c(-c6c(F)cccc6F)c6nc(c(-c7c(F)cccc7F)c7ccc4[nH]7)C=C6)C=C5)cc3)c2)cc1
REMARK SMILES IDX 20 1 19 2 17 3 18 4 16 6 11 7 12 8 81 9 13 10 14 11 10 12
REMARK SMILES IDX 9 13 8 14 5 15 6 16 83 17 7 18 82 19 2 20 3 21 4 22 1 23
REMARK SMILES IDX 15 26 21 28 22 29 23 30 24 31 25 32 26 34 27 35 28 36 80 37
REMARK SMILES IDX 29 38 79 39 30 40 31 41 32 42 73 43 33 44 78 45 72 46 74 47
REMARK SMILES IDX 34 48 77 49 71 50 70 51 35 53 61 54 44 55 60 56 45 57 48 58
REMARK SMILES IDX 59 59 75 60 46 61 47 62 58 64 76 65 49 66 36 67 37 68 42 69
REMARK SMILES IDX 38 70 39 71 41 72 43 73 40 74 62 75 63 76 68 77 64 78 65 79
REMARK SMILES IDX 67 80 69 81 66 82 50 83 51 84 56 85 52 86 53 87 55 88 57 89
REMARK SMILES IDX 54 90
REMARK H PARENT 19 5 1 24 1 25 15 27 24 33 74 52 48 63
REMARK Flexibility Score: inf
ROOT
ATOM      1  C   UNL A   1      32.892  29.970  26.324  1.00  0.00     0.116 C 
ENDROOT
BRANCH   1   2
ATOM      2  N   UNL A   1      33.330  29.902  24.937  1.00  0.00    -0.352 N 
ATOM      3  C   UNL A   1      32.806  29.214  23.863  1.00  0.00     0.255 C 
ATOM      4  O   UNL A   1      33.398  29.242  22.783  1.00  0.00    -0.269 OA
ATOM      5  H   UNL A   1      34.132  30.435  24.732  1.00  0.00     0.163 HD
BRANCH   3   6
ATOM      6  C   UNL A   1      31.597  28.362  23.977  1.00  0.00     0.083 A 
ATOM      7  C   UNL A   1      30.602  26.177  24.398  1.00  0.00     0.087 A 
ATOM      8  C   UNL A   1      29.409  26.624  23.822  1.00  0.00     0.034 A 
ATOM      9  C   UNL A   1      31.648  27.097  24.564  1.00  0.00     0.048 A 
ATOM     10  C   UNL A   1      29.285  27.947  23.381  1.00  0.00     0.049 A 
ATOM     11  C   UNL A   1      30.380  28.806  23.445  1.00  0.00     0.128 A 
BRANCH   7  12
ATOM     12  N   UNL A   1      30.753  24.804  24.721  1.00  0.00    -0.151 NA
ATOM     13  N   UNL A   1      31.801  24.358  24.198  1.00  0.00    -0.151 NA
BRANCH  13  14
ATOM     14  C   UNL A   1      31.932  22.966  24.300  1.00  0.00     0.086 A 
ATOM     15  C   UNL A   1      32.533  20.241  24.561  1.00  0.00     0.082 A 
ATOM     16  C   UNL A   1      32.384  21.030  25.704  1.00  0.00     0.024 A 
ATOM     17  C   UNL A   1      32.382  20.800  23.289  1.00  0.00     0.024 A 
ATOM     18  C   UNL A   1      32.089  22.389  25.567  1.00  0.00     0.031 A 
ATOM     19  C   UNL A   1      32.081  22.159  23.163  1.00  0.00     0.031 A 
BRANCH  15  20
ATOM     20  S   UNL A   1      32.980  18.535  24.708  1.00  0.00     0.238 S 
ATOM     21  O   UNL A   1      34.410  18.413  24.557  1.00  0.00    -0.207 OA
ATOM     22  O   UNL A   1      32.040  17.753  23.942  1.00  0.00    -0.207 OA
BRANCH  20  23
ATOM     23  N   UNL A   1      32.680  18.187  26.325  1.00  0.00    -0.225 NA
ATOM     24  H   UNL A   1      32.170  18.962  26.750  1.00  0.00     0.137 HD
ATOM     25  H   UNL A   1      33.565  18.054  26.813  1.00  0.00     0.137 HD
ENDBRANCH  20  23
ENDBRANCH  15  20
ENDBRANCH  13  14
ENDBRANCH   7  12
BRANCH  11  26
ATOM     26  O   UNL A   1      30.199  30.071  22.955  1.00  0.00    -0.507 OA
ATOM     27  H   UNL A   1      29.339  30.368  22.731  1.00  0.00     0.293 HD
ENDBRANCH  11  26
ENDBRANCH   3   6
ENDBRANCH   1   2
BRANCH   1  28
ATOM     28  C   UNL A   1      31.522  30.604  26.527  1.00  0.00     0.023 C 
BRANCH  28  29
ATOM     29  C   UNL A   1      31.472  32.126  26.552  1.00  0.00     0.023 C 
BRANCH  29  30
ATOM     30  C   UNL A   1      32.598  32.821  27.307  1.00  0.00     0.116 C 
BRANCH  30  31
ATOM     31  N   UNL A   1      32.301  34.197  27.680  1.00  0.00    -0.352 N 
ATOM     32  C   UNL A   1      32.949  35.028  28.565  1.00  0.00     0.251 C 
ATOM     33  H   UNL A   1      31.519  34.593  27.231  1.00  0.00     0.163 HD
ATOM     34  O   UNL A   1      32.505  36.147  28.798  1.00  0.00    -0.269 OA
BRANCH  32  35
ATOM     35  C   UNL A   1      34.158  34.552  29.272  1.00  0.00     0.039 A 
ATOM     36  C   UNL A   1      34.018  34.000  30.547  1.00  0.00     0.014 A 
ATOM     37  C   UNL A   1      35.415  34.608  28.666  1.00  0.00     0.014 A 
ATOM     38  C   UNL A   1      35.122  33.417  31.174  1.00  0.00     0.010 A 
ATOM     39  C   UNL A   1      36.493  33.950  29.252  1.00  0.00     0.010 A 
ATOM     40  C   UNL A   1      36.357  33.341  30.508  1.00  0.00    -0.014 A 
BRANCH  40  41
ATOM     41  C   UNL A   1      37.508  32.610  31.099  1.00  0.00     0.031 A 
ATOM     42  C   UNL A   1      38.124  33.080  32.388  1.00  0.00     0.074 A 
ATOM     43  C   UNL A   1      38.049  31.569  30.435  1.00  0.00     0.049 A 
ATOM     44  N   UNL A   1      39.174  32.620  33.019  1.00  0.00    -0.248 NA
ATOM     45  C   UNL A   1      37.493  34.240  33.038  1.00  0.00     0.031 C 
ATOM     46  C   UNL A   1      37.583  31.049  29.148  1.00  0.00     0.029 A 
ATOM     47  N   UNL A   1      39.119  30.766  30.748  1.00  0.00    -0.354 N 
ATOM     48  C   UNL A   1      39.337  33.441  34.128  1.00  0.00     0.074 A 
ATOM     49  C   UNL A   1      38.314  34.461  34.053  1.00  0.00     0.031 C 
ATOM     50  C   UNL A   1      38.343  30.000  28.795  1.00  0.00     0.029 A 
ATOM     51  C   UNL A   1      39.375  29.797  29.808  1.00  0.00     0.049 A 
ATOM     52  H   UNL A   1      39.652  30.875  31.568  1.00  0.00     0.167 HD
ATOM     53  C   UNL A   1      40.240  33.338  35.132  1.00  0.00     0.037 A 
ATOM     54  C   UNL A   1      40.335  28.855  29.763  1.00  0.00     0.037 A 
ATOM     55  C   UNL A   1      41.241  32.308  35.218  1.00  0.00     0.049 A 
ATOM     56  C   UNL A   1      41.329  28.764  30.888  1.00  0.00     0.074 A 
ATOM     57  C   UNL A   1      42.162  32.082  36.227  1.00  0.00     0.029 A 
ATOM     58  N   UNL A   1      41.457  31.333  34.256  1.00  0.00    -0.354 N 
ATOM     59  N   UNL A   1      41.424  29.501  31.968  1.00  0.00    -0.248 NA
ATOM     60  C   UNL A   1      42.345  27.707  30.791  1.00  0.00     0.031 C 
ATOM     61  C   UNL A   1      42.963  30.997  35.855  1.00  0.00     0.029 A 
ATOM     62  C   UNL A   1      42.508  30.516  34.637  1.00  0.00     0.049 A 
ATOM     63  H   UNL A   1      40.937  31.234  33.425  1.00  0.00     0.167 HD
ATOM     64  C   UNL A   1      42.490  28.980  32.692  1.00  0.00     0.074 A 
ATOM     65  C   UNL A   1      42.999  27.855  31.935  1.00  0.00     0.031 C 
ATOM     66  C   UNL A   1      43.000  29.396  33.876  1.00  0.00     0.037 A 
BRANCH  53  67
ATOM     67  C   UNL A   1      40.179  34.367  36.224  1.00  0.00     0.057 A 
ATOM     68  C   UNL A   1      39.430  34.161  37.391  1.00  0.00     0.134 A 
ATOM     69  C   UNL A   1      40.901  35.562  36.124  1.00  0.00     0.134 A 
ATOM     70  F   UNL A   1      38.705  33.043  37.546  1.00  0.00    -0.206 F 
ATOM     71  C   UNL A   1      39.378  35.119  38.405  1.00  0.00     0.040 A 
ATOM     72  C   UNL A   1      40.880  36.516  37.144  1.00  0.00     0.040 A 
ATOM     73  F   UNL A   1      41.643  35.821  35.037  1.00  0.00    -0.206 F 
ATOM     74  C   UNL A   1      40.110  36.299  38.285  1.00  0.00     0.006 A 
ENDBRANCH  53  67
BRANCH  54  75
ATOM     75  C   UNL A   1      40.394  27.902  28.625  1.00  0.00     0.057 A 
ATOM     76  C   UNL A   1      41.108  28.212  27.461  1.00  0.00     0.134 A 
ATOM     77  C   UNL A   1      39.733  26.668  28.665  1.00  0.00     0.134 A 
ATOM     78  F   UNL A   1      41.746  29.387  27.354  1.00  0.00    -0.206 F 
ATOM     79  C   UNL A   1      41.146  27.341  26.371  1.00  0.00     0.040 A 
ATOM     80  C   UNL A   1      39.783  25.777  27.593  1.00  0.00     0.040 A 
ATOM     81  F   UNL A   1      39.038  26.308  29.754  1.00  0.00    -0.206 F 
ATOM     82  C   UNL A   1      40.485  26.116  26.438  1.00  0.00     0.006 A 
ENDBRANCH  54  75
BRANCH  66  83
ATOM     83  C   UNL A   1      44.145  28.610  34.446  1.00  0.00     0.057 A 
ATOM     84  C   UNL A   1      45.477  28.916  34.141  1.00  0.00     0.134 A 
ATOM     85  C   UNL A   1      43.910  27.557  35.340  1.00  0.00     0.134 A 
ATOM     86  F   UNL A   1      45.768  29.904  33.282  1.00  0.00    -0.206 F 
ATOM     87  C   UNL A   1      46.535  28.188  34.688  1.00  0.00     0.040 A 
ATOM     88  C   UNL A   1      44.961  26.840  35.914  1.00  0.00     0.040 A 
ATOM     89  F   UNL A   1      42.658  27.218  35.680  1.00  0.00    -0.206 F 
ATOM     90  C   UNL A   1      46.278  27.151  35.584  1.00  0.00     0.006 A 
ENDBRANCH  66  83
ENDBRANCH  40  41
ENDBRANCH  32  35
ENDBRANCH  30  31
ENDBRANCH  29  30
ENDBRANCH  28  29
ENDBRANCH   1  28
TORSDOF 16
ENDMDL
MODEL 3
REMARK VINA RESULT:     -12.4      3.020      7.069
REMARK SMILES NS(=O)(=O)c1ccc(/N=N/c2ccc(O)c(C(=O)NCCCCNC(=O)c3ccc(-c4c5nc(c(-c6c(F)cccc6F)c6ccc([nH]6)c(-c6c(F)cccc6F)c6nc(c(-c7c(F)cccc7F)c7ccc4[nH]7)C=C6)C=C5)cc3)c2)cc1
REMARK SMILES IDX 20 1 19 2 17 3 18 4 16 6 11 7 12 8 81 9 13 10 14 11 10 12
REMARK SMILES IDX 9 13 8 14 5 15 6 16 83 17 7 18 82 19 2 20 3 21 4 22 1 23
REMARK SMILES IDX 15 26 21 28 22 29 23 30 24 31 25 32 26 34 27 35 28 36 80 37
REMARK SMILES IDX 29 38 79 39 30 40 31 41 32 42 73 43 33 44 78 45 72 46 74 47
REMARK SMILES IDX 34 48 77 49 71 50 70 51 35 53 61 54 44 55 60 56 45 57 48 58
REMARK SMILES IDX 59 59 75 60 46 61 47 62 58 64 76 65 49 66 36 67 37 68 42 69
REMARK SMILES IDX 38 70 39 71 41 72 43 73 40 74 62 75 63 76 68 77 64 78 65 79
REMARK SMILES IDX 67 80 69 81 66 82 50 83 51 84 56 85 52 86 53 87 55 88 57 89
REMARK SMILES IDX 54 90
REMARK H PARENT 19 5 1 24 1 25 15 27 24 33 74 52 48 63
REMARK Flexibility Score: inf
ROOT
ATOM      1  C   UNL A   1      33.577  28.784  22.876  1.00  0.00     0.116 C 
ENDROOT
BRANCH   1   2
ATOM      2  N   UNL A   1      33.482  27.741  21.865  1.00  0.00    -0.352 N 
ATOM      3  C   UNL A   1      33.233  26.391  21.988  1.00  0.00     0.255 C 
ATOM      4  O   UNL A   1      33.278  25.676  20.987  1.00  0.00    -0.269 OA
ATOM      5  H   UNL A   1      33.619  28.051  20.940  1.00  0.00     0.163 HD
BRANCH   3   6
ATOM      6  C   UNL A   1      32.996  25.743  23.302  1.00  0.00     0.083 A 
ATOM      7  C   UNL A   1      33.829  24.401  25.159  1.00  0.00     0.087 A 
ATOM      8  C   UNL A   1      32.510  24.178  25.571  1.00  0.00     0.034 A 
ATOM      9  C   UNL A   1      34.052  25.276  24.086  1.00  0.00     0.048 A 
ATOM     10  C   UNL A   1      31.443  24.780  24.894  1.00  0.00     0.049 A 
ATOM     11  C   UNL A   1      31.686  25.545  23.755  1.00  0.00     0.128 A 
BRANCH   7  12
ATOM     12  N   UNL A   1      34.885  23.682  25.775  1.00  0.00    -0.151 NA
ATOM     13  N   UNL A   1      35.959  23.905  25.168  1.00  0.00    -0.151 NA
BRANCH  13  14
ATOM     14  C   UNL A   1      37.020  23.088  25.584  1.00  0.00     0.086 A 
ATOM     15  C   UNL A   1      39.316  21.582  26.142  1.00  0.00     0.082 A 
ATOM     16  C   UNL A   1      39.270  22.930  26.501  1.00  0.00     0.024 A 
ATOM     17  C   UNL A   1      38.225  20.977  25.510  1.00  0.00     0.024 A 
ATOM     18  C   UNL A   1      38.124  23.678  26.215  1.00  0.00     0.031 A 
ATOM     19  C   UNL A   1      37.082  21.733  25.235  1.00  0.00     0.031 A 
BRANCH  15  20
ATOM     20  S   UNL A   1      40.783  20.634  26.426  1.00  0.00     0.238 S 
ATOM     21  O   UNL A   1      40.913  20.389  27.843  1.00  0.00    -0.207 OA
ATOM     22  O   UNL A   1      41.846  21.191  25.625  1.00  0.00    -0.207 OA
BRANCH  20  23
ATOM     23  N   UNL A   1      40.421  19.136  25.756  1.00  0.00    -0.225 NA
ATOM     24  H   UNL A   1      39.811  18.619  26.391  1.00  0.00     0.137 HD
ATOM     25  H   UNL A   1      41.283  18.611  25.611  1.00  0.00     0.137 HD
ENDBRANCH  20  23
ENDBRANCH  15  20
ENDBRANCH  13  14
ENDBRANCH   7  12
BRANCH  11  26
ATOM     26  O   UNL A   1      30.592  26.067  23.120  1.00  0.00    -0.507 OA
ATOM     27  H   UNL A   1      30.631  26.928  22.750  1.00  0.00     0.293 HD
ENDBRANCH  11  26
ENDBRANCH   3   6
ENDBRANCH   1   2
BRANCH   1  28
ATOM     28  C   UNL A   1      32.237  29.322  23.362  1.00  0.00     0.023 C 
BRANCH  28  29
ATOM     29  C   UNL A   1      31.894  29.078  24.825  1.00  0.00     0.023 C 
BRANCH  29  30
ATOM     30  C   UNL A   1      32.921  29.560  25.844  1.00  0.00     0.116 C 
BRANCH  30  31
ATOM     31  N   UNL A   1      32.658  30.895  26.364  1.00  0.00    -0.352 N 
ATOM     32  C   UNL A   1      33.389  31.650  27.252  1.00  0.00     0.251 C 
ATOM     33  H   UNL A   1      31.836  31.320  26.030  1.00  0.00     0.163 HD
ATOM     34  O   UNL A   1      32.968  32.740  27.626  1.00  0.00    -0.269 OA
BRANCH  32  35
ATOM     35  C   UNL A   1      34.661  31.127  27.794  1.00  0.00     0.039 A 
ATOM     36  C   UNL A   1      35.751  31.993  27.912  1.00  0.00     0.014 A 
ATOM     37  C   UNL A   1      34.769  29.803  28.226  1.00  0.00     0.014 A 
ATOM     38  C   UNL A   1      36.915  31.559  28.550  1.00  0.00     0.010 A 
ATOM     39  C   UNL A   1      35.894  29.398  28.938  1.00  0.00     0.010 A 
ATOM     40  C   UNL A   1      36.976  30.274  29.115  1.00  0.00    -0.014 A 
BRANCH  40  41
ATOM     41  C   UNL A   1      38.152  29.837  29.912  1.00  0.00     0.031 A 
ATOM     42  C   UNL A   1      38.360  30.359  31.306  1.00  0.00     0.074 A 
ATOM     43  C   UNL A   1      39.074  29.029  29.352  1.00  0.00     0.049 A 
ATOM     44  N   UNL A   1      39.359  30.152  32.127  1.00  0.00    -0.248 NA
ATOM     45  C   UNL A   1      37.323  31.258  31.838  1.00  0.00     0.031 C 
ATOM     46  C   UNL A   1      39.021  28.498  27.988  1.00  0.00     0.029 A 
ATOM     47  N   UNL A   1      40.246  28.521  29.858  1.00  0.00    -0.354 N 
ATOM     48  C   UNL A   1      39.077  30.904  33.261  1.00  0.00     0.074 A 
ATOM     49  C   UNL A   1      37.845  31.616  33.001  1.00  0.00     0.031 C 
ATOM     50  C   UNL A   1      40.093  27.719  27.775  1.00  0.00     0.029 A 
ATOM     51  C   UNL A   1      40.931  27.726  28.970  1.00  0.00     0.049 A 
ATOM     52  H   UNL A   1      40.564  28.708  30.770  1.00  0.00     0.167 HD
ATOM     53  C   UNL A   1      39.768  30.973  34.424  1.00  0.00     0.037 A 
ATOM     54  C   UNL A   1      42.105  27.080  29.102  1.00  0.00     0.037 A 
ATOM     55  C   UNL A   1      40.980  30.245  34.690  1.00  0.00     0.049 A 
ATOM     56  C   UNL A   1      42.855  27.177  30.402  1.00  0.00     0.074 A 
ATOM     57  C   UNL A   1      41.720  30.200  35.860  1.00  0.00     0.029 A 
ATOM     58  N   UNL A   1      41.633  29.435  33.773  1.00  0.00    -0.354 N 
ATOM     59  N   UNL A   1      42.539  27.832  31.492  1.00  0.00    -0.248 NA
ATOM     60  C   UNL A   1      44.124  26.439  30.492  1.00  0.00     0.031 C 
ATOM     61  C   UNL A   1      42.844  29.399  35.636  1.00  0.00     0.029 A 
ATOM     62  C   UNL A   1      42.778  28.903  34.343  1.00  0.00     0.049 A 
ATOM     63  H   UNL A   1      41.327  29.262  32.853  1.00  0.00     0.167 HD
ATOM     64  C   UNL A   1      43.551  27.564  32.406  1.00  0.00     0.074 A 
ATOM     65  C   UNL A   1      44.483  26.674  31.746  1.00  0.00     0.031 C 
ATOM     66  C   UNL A   1      43.694  28.013  33.676  1.00  0.00     0.037 A 
BRANCH  53  67
ATOM     67  C   UNL A   1      39.221  31.866  35.500  1.00  0.00     0.057 A 
ATOM     68  C   UNL A   1      39.607  33.208  35.613  1.00  0.00     0.134 A 
ATOM     69  C   UNL A   1      38.276  31.388  36.415  1.00  0.00     0.134 A 
ATOM     70  F   UNL A   1      40.519  33.727  34.776  1.00  0.00    -0.206 F 
ATOM     71  C   UNL A   1      39.095  34.035  36.614  1.00  0.00     0.040 A 
ATOM     72  C   UNL A   1      37.734  32.213  37.404  1.00  0.00     0.040 A 
ATOM     73  F   UNL A   1      37.857  30.115  36.361  1.00  0.00    -0.206 F 
ATOM     74  C   UNL A   1      38.150  33.539  37.510  1.00  0.00     0.006 A 
ENDBRANCH  53  67
BRANCH  54  75
ATOM     75  C   UNL A   1      42.637  26.263  27.982  1.00  0.00     0.057 A 
ATOM     76  C   UNL A   1      43.469  26.829  27.008  1.00  0.00     0.134 A 
ATOM     77  C   UNL A   1      42.323  24.905  27.849  1.00  0.00     0.134 A 
ATOM     78  F   UNL A   1      43.791  28.130  27.070  1.00  0.00    -0.206 F 
ATOM     79  C   UNL A   1      43.951  26.082  25.933  1.00  0.00     0.040 A 
ATOM     80  C   UNL A   1      42.817  24.140  26.793  1.00  0.00     0.040 A 
ATOM     81  F   UNL A   1      41.537  24.301  28.753  1.00  0.00    -0.206 F 
ATOM     82  C   UNL A   1      43.629  24.730  25.826  1.00  0.00     0.006 A 
ENDBRANCH  54  75
BRANCH  66  83
ATOM     83  C   UNL A   1      44.883  27.523  34.449  1.00  0.00     0.057 A 
ATOM     84  C   UNL A   1      46.097  28.221  34.463  1.00  0.00     0.134 A 
ATOM     85  C   UNL A   1      44.799  26.355  35.219  1.00  0.00     0.134 A 
ATOM     86  F   UNL A   1      46.247  29.338  33.736  1.00  0.00    -0.206 F 
ATOM     87  C   UNL A   1      47.192  27.763  35.198  1.00  0.00     0.040 A 
ATOM     88  C   UNL A   1      45.878  25.903  35.979  1.00  0.00     0.040 A 
ATOM     89  F   UNL A   1      43.662  25.644  35.257  1.00  0.00    -0.206 F 
ATOM     90  C   UNL A   1      47.082  26.605  35.965  1.00  0.00     0.006 A 
ENDBRANCH  66  83
ENDBRANCH  40  41
ENDBRANCH  32  35
ENDBRANCH  30  31
ENDBRANCH  29  30
ENDBRANCH  28  29
ENDBRANCH   1  28
TORSDOF 16
ENDMDL
