MODEL 1
REMARK VINA RESULT:     -10.4      0.000      0.000
REMARK SMILES CS(=O)(=O)NCC[NH2+]Cc1ccc(C(=O)NCCCCNC(=O)c2ccc(-c3c4nc(c(-c5c(F)cccc5F)c5ccc([nH]5)c(-c5c(F)cccc5F)c5nc(c(-c6c(F)cccc6F)c6ccc3[nH]6)C=C5)C=C4)cc2)cn1
REMARK SMILES IDX 14 1 15 2 16 3 13 5 10 6 11 7 79 8 12 9 78 10 9 11 8 12 7 15
REMARK SMILES IDX 6 16 5 17 2 19 1 20 3 21 4 22 17 23 18 24 19 25 20 26 21 27
REMARK SMILES IDX 22 28 23 30 24 31 25 32 77 33 26 34 76 35 27 36 28 37 29 38
REMARK SMILES IDX 70 39 30 40 75 41 69 42 71 43 31 44 74 45 68 46 67 47 32 49
REMARK SMILES IDX 58 50 41 51 57 52 42 53 45 54 56 55 72 56 43 57 44 58 55 60
REMARK SMILES IDX 73 61 46 62 33 63 34 64 39 65 35 66 36 67 38 68 40 69 37 70
REMARK SMILES IDX 59 71 60 72 65 73 61 74 62 75 64 76 66 77 63 78 47 79 48 80
REMARK SMILES IDX 53 81 49 82 50 83 52 84 54 85 51 86
REMARK H PARENT 16 4 8 13 8 14 5 18 21 29 71 48 45 59
REMARK Flexibility Score: inf
ROOT
ATOM      1  C   UNL A   1      38.486  23.471  26.147  1.00  0.00     0.252 C 
ATOM      2  O   UNL A   1      38.543  24.646  26.505  1.00  0.00    -0.269 OA
ATOM      3  N   UNL A   1      39.564  22.670  26.415  1.00  0.00    -0.352 N 
ATOM      4  H   UNL A   1      40.315  23.128  26.857  1.00  0.00     0.163 HD
ENDROOT
BRANCH   1   5
ATOM      5  C   UNL A   1      37.259  22.965  25.490  1.00  0.00     0.058 A 
ATOM      6  C   UNL A   1      34.818  22.114  24.525  1.00  0.00     0.094 A 
ATOM      7  C   UNL A   1      35.809  22.472  23.619  1.00  0.00     0.030 A 
ATOM      8  N   UNL A   1      35.026  22.104  25.865  1.00  0.00    -0.255 NA
ATOM      9  C   UNL A   1      37.035  22.919  24.113  1.00  0.00     0.017 A 
ATOM     10  C   UNL A   1      36.221  22.561  26.316  1.00  0.00     0.125 A 
BRANCH   6  11
ATOM     11  C   UNL A   1      33.390  21.878  24.069  1.00  0.00     0.317 C 
BRANCH  11  12
ATOM     12  N   UNL A   1      32.724  20.819  24.864  1.00  0.00    -0.340 N 
ATOM     13  H   UNL A   1      33.199  20.727  25.762  1.00  0.00     0.346 HD
ATOM     14  H   UNL A   1      31.747  21.081  25.003  1.00  0.00     0.346 HD
BRANCH  12  15
ATOM     15  C   UNL A   1      32.768  19.525  24.159  1.00  0.00     0.277 C 
BRANCH  15  16
ATOM     16  C   UNL A   1      32.721  18.329  25.123  1.00  0.00     0.159 C 
BRANCH  16  17
ATOM     17  N   UNL A   1      34.005  17.612  25.260  1.00  0.00    -0.210 NA
ATOM     18  H   UNL A   1      34.700  18.169  24.762  1.00  0.00     0.141 HD
BRANCH  17  19
ATOM     19  S   UNL A   1      34.188  16.038  24.722  1.00  0.00     0.208 S 
ATOM     20  C   UNL A   1      32.747  15.213  25.355  1.00  0.00     0.176 C 
ATOM     21  O   UNL A   1      35.341  15.461  25.362  1.00  0.00    -0.213 OA
ATOM     22  O   UNL A   1      34.080  16.098  23.279  1.00  0.00    -0.213 OA
ENDBRANCH  17  19
ENDBRANCH  16  17
ENDBRANCH  15  16
ENDBRANCH  12  15
ENDBRANCH  11  12
ENDBRANCH   6  11
ENDBRANCH   1   5
BRANCH   3  23
ATOM     23  C   UNL A   1      39.788  21.264  26.157  1.00  0.00     0.116 C 
BRANCH  23  24
ATOM     24  C   UNL A   1      41.278  20.940  26.270  1.00  0.00     0.023 C 
BRANCH  24  25
ATOM     25  C   UNL A   1      41.642  19.537  25.783  1.00  0.00     0.023 C 
BRANCH  25  26
ATOM     26  C   UNL A   1      43.053  19.093  26.147  1.00  0.00     0.116 C 
BRANCH  26  27
ATOM     27  N   UNL A   1      43.845  18.705  24.988  1.00  0.00    -0.352 N 
ATOM     28  C   UNL A   1      44.651  19.498  24.211  1.00  0.00     0.251 C 
ATOM     29  H   UNL A   1      43.795  17.756  24.730  1.00  0.00     0.163 HD
ATOM     30  O   UNL A   1      45.153  19.061  23.181  1.00  0.00    -0.269 OA
BRANCH  28  31
ATOM     31  C   UNL A   1      44.875  20.896  24.621  1.00  0.00     0.039 A 
ATOM     32  C   UNL A   1      44.335  21.922  23.846  1.00  0.00     0.014 A 
ATOM     33  C   UNL A   1      45.580  21.180  25.793  1.00  0.00     0.014 A 
ATOM     34  C   UNL A   1      44.469  23.242  24.275  1.00  0.00     0.010 A 
ATOM     35  C   UNL A   1      45.631  22.485  26.265  1.00  0.00     0.010 A 
ATOM     36  C   UNL A   1      45.096  23.531  25.499  1.00  0.00    -0.014 A 
BRANCH  36  37
ATOM     37  C   UNL A   1      45.245  24.927  25.975  1.00  0.00     0.031 A 
ATOM     38  C   UNL A   1      46.592  25.595  25.912  1.00  0.00     0.074 A 
ATOM     39  C   UNL A   1      44.187  25.575  26.500  1.00  0.00     0.049 A 
ATOM     40  N   UNL A   1      46.944  26.788  26.318  1.00  0.00    -0.248 NA
ATOM     41  C   UNL A   1      47.698  24.803  25.347  1.00  0.00     0.031 C 
ATOM     42  C   UNL A   1      42.843  25.017  26.657  1.00  0.00     0.029 A 
ATOM     43  N   UNL A   1      44.081  26.846  27.004  1.00  0.00    -0.354 N 
ATOM     44  C   UNL A   1      48.307  26.882  26.069  1.00  0.00     0.074 A 
ATOM     45  C   UNL A   1      48.733  25.604  25.545  1.00  0.00     0.031 C 
ATOM     46  C   UNL A   1      42.040  25.952  27.190  1.00  0.00     0.029 A 
ATOM     47  C   UNL A   1      42.820  27.158  27.450  1.00  0.00     0.049 A 
ATOM     48  H   UNL A   1      44.837  27.476  27.043  1.00  0.00     0.167 HD
ATOM     49  C   UNL A   1      49.126  27.948  26.232  1.00  0.00     0.037 A 
ATOM     50  C   UNL A   1      42.350  28.289  28.009  1.00  0.00     0.037 A 
ATOM     51  C   UNL A   1      48.691  29.224  26.733  1.00  0.00     0.049 A 
ATOM     52  C   UNL A   1      43.283  29.454  28.196  1.00  0.00     0.074 A 
ATOM     53  C   UNL A   1      49.427  30.384  26.889  1.00  0.00     0.029 A 
ATOM     54  N   UNL A   1      47.402  29.504  27.165  1.00  0.00    -0.354 N 
ATOM     55  N   UNL A   1      44.555  29.554  27.891  1.00  0.00    -0.248 NA
ATOM     56  C   UNL A   1      42.713  30.668  28.797  1.00  0.00     0.031 C 
ATOM     57  C   UNL A   1      48.599  31.350  27.468  1.00  0.00     0.029 A 
ATOM     58  C   UNL A   1      47.329  30.813  27.610  1.00  0.00     0.049 A 
ATOM     59  H   UNL A   1      46.652  28.867  27.156  1.00  0.00     0.167 HD
ATOM     60  C   UNL A   1      44.927  30.850  28.227  1.00  0.00     0.074 A 
ATOM     61  C   UNL A   1      43.743  31.502  28.747  1.00  0.00     0.031 C 
ATOM     62  C   UNL A   1      46.138  31.449  28.114  1.00  0.00     0.037 A 
BRANCH  49  63
ATOM     63  C   UNL A   1      50.572  27.773  25.864  1.00  0.00     0.057 A 
ATOM     64  C   UNL A   1      51.019  27.891  24.540  1.00  0.00     0.134 A 
ATOM     65  C   UNL A   1      51.533  27.508  26.846  1.00  0.00     0.134 A 
ATOM     66  F   UNL A   1      50.150  28.130  23.546  1.00  0.00    -0.206 F 
ATOM     67  C   UNL A   1      52.364  27.719  24.204  1.00  0.00     0.040 A 
ATOM     68  C   UNL A   1      52.885  27.367  26.527  1.00  0.00     0.040 A 
ATOM     69  F   UNL A   1      51.176  27.388  28.134  1.00  0.00    -0.206 F 
ATOM     70  C   UNL A   1      53.302  27.463  25.202  1.00  0.00     0.006 A 
ENDBRANCH  49  63
BRANCH  50  71
ATOM     71  C   UNL A   1      40.922  28.387  28.412  1.00  0.00     0.057 A 
ATOM     72  C   UNL A   1      40.501  27.989  29.686  1.00  0.00     0.134 A 
ATOM     73  C   UNL A   1      39.943  28.862  27.530  1.00  0.00     0.134 A 
ATOM     74  F   UNL A   1      41.388  27.510  30.571  1.00  0.00    -0.206 F 
ATOM     75  C   UNL A   1      39.156  28.031  30.060  1.00  0.00     0.040 A 
ATOM     76  C   UNL A   1      38.600  28.938  27.900  1.00  0.00     0.040 A 
ATOM     77  F   UNL A   1      40.281  29.269  26.298  1.00  0.00    -0.206 F 
ATOM     78  C   UNL A   1      38.202  28.512  29.166  1.00  0.00     0.006 A 
ENDBRANCH  50  71
BRANCH  62  79
ATOM     79  C   UNL A   1      46.233  32.895  28.510  1.00  0.00     0.057 A 
ATOM     80  C   UNL A   1      45.940  33.934  27.619  1.00  0.00     0.134 A 
ATOM     81  C   UNL A   1      46.584  33.248  29.821  1.00  0.00     0.134 A 
ATOM     82  F   UNL A   1      45.606  33.665  26.347  1.00  0.00    -0.206 F 
ATOM     83  C   UNL A   1      46.022  35.272  28.006  1.00  0.00     0.040 A 
ATOM     84  C   UNL A   1      46.637  34.580  30.229  1.00  0.00     0.040 A 
ATOM     85  F   UNL A   1      46.867  32.303  30.730  1.00  0.00    -0.206 F 
ATOM     86  C   UNL A   1      46.364  35.598  29.317  1.00  0.00     0.006 A 
ENDBRANCH  62  79
ENDBRANCH  36  37
ENDBRANCH  28  31
ENDBRANCH  26  27
ENDBRANCH  25  26
ENDBRANCH  24  25
ENDBRANCH  23  24
ENDBRANCH   3  23
TORSDOF 17
ENDMDL
MODEL 2
REMARK VINA RESULT:     -10.1      5.823     10.906
REMARK SMILES CS(=O)(=O)NCC[NH2+]Cc1ccc(C(=O)NCCCCNC(=O)c2ccc(-c3c4nc(c(-c5c(F)cccc5F)c5ccc([nH]5)c(-c5c(F)cccc5F)c5nc(c(-c6c(F)cccc6F)c6ccc3[nH]6)C=C5)C=C4)cc2)cn1
REMARK SMILES IDX 14 1 15 2 16 3 13 5 10 6 11 7 79 8 12 9 78 10 9 11 8 12 7 15
REMARK SMILES IDX 6 16 5 17 2 19 1 20 3 21 4 22 17 23 18 24 19 25 20 26 21 27
REMARK SMILES IDX 22 28 23 30 24 31 25 32 77 33 26 34 76 35 27 36 28 37 29 38
REMARK SMILES IDX 70 39 30 40 75 41 69 42 71 43 31 44 74 45 68 46 67 47 32 49
REMARK SMILES IDX 58 50 41 51 57 52 42 53 45 54 56 55 72 56 43 57 44 58 55 60
REMARK SMILES IDX 73 61 46 62 33 63 34 64 39 65 35 66 36 67 38 68 40 69 37 70
REMARK SMILES IDX 59 71 60 72 65 73 61 74 62 75 64 76 66 77 63 78 47 79 48 80
REMARK SMILES IDX 53 81 49 82 50 83 52 84 54 85 51 86
REMARK H PARENT 16 4 8 13 8 14 5 18 21 29 71 48 45 59
REMARK Flexibility Score: inf
ROOT
ATOM      1  C   UNL A   1      33.274  28.719  23.688  1.00  0.00     0.252 C 
ATOM      2  O   UNL A   1      34.095  29.040  22.831  1.00  0.00    -0.269 OA
ATOM      3  N   UNL A   1      32.396  29.677  24.121  1.00  0.00    -0.352 N 
ATOM      4  H   UNL A   1      32.525  30.564  23.715  1.00  0.00     0.163 HD
ENDROOT
BRANCH   1   5
ATOM      5  C   UNL A   1      33.237  27.322  24.179  1.00  0.00     0.058 A 
ATOM      6  C   UNL A   1      33.202  24.632  24.793  1.00  0.00     0.094 A 
ATOM      7  C   UNL A   1      33.637  25.534  25.757  1.00  0.00     0.030 A 
ATOM      8  N   UNL A   1      32.732  25.028  23.585  1.00  0.00    -0.255 NA
ATOM      9  C   UNL A   1      33.670  26.891  25.434  1.00  0.00     0.017 A 
ATOM     10  C   UNL A   1      32.794  26.352  23.293  1.00  0.00     0.125 A 
BRANCH   6  11
ATOM     11  C   UNL A   1      33.391  23.138  24.979  1.00  0.00     0.317 C 
BRANCH  11  12
ATOM     12  N   UNL A   1      32.232  22.516  25.662  1.00  0.00    -0.340 N 
ATOM     13  H   UNL A   1      32.338  22.629  26.670  1.00  0.00     0.346 HD
ATOM     14  H   UNL A   1      31.379  22.973  25.339  1.00  0.00     0.346 HD
BRANCH  12  15
ATOM     15  C   UNL A   1      32.144  21.078  25.345  1.00  0.00     0.277 C 
BRANCH  15  16
ATOM     16  C   UNL A   1      32.794  20.735  23.995  1.00  0.00     0.159 C 
BRANCH  16  17
ATOM     17  N   UNL A   1      32.504  19.370  23.514  1.00  0.00    -0.210 NA
ATOM     18  H   UNL A   1      31.552  19.154  23.815  1.00  0.00     0.141 HD
BRANCH  17  19
ATOM     19  S   UNL A   1      33.449  18.064  23.964  1.00  0.00     0.208 S 
ATOM     20  C   UNL A   1      32.529  17.326  25.293  1.00  0.00     0.176 C 
ATOM     21  O   UNL A   1      34.688  18.555  24.509  1.00  0.00    -0.213 OA
ATOM     22  O   UNL A   1      33.429  17.155  22.838  1.00  0.00    -0.213 OA
ENDBRANCH  17  19
ENDBRANCH  16  17
ENDBRANCH  15  16
ENDBRANCH  12  15
ENDBRANCH  11  12
ENDBRANCH   6  11
ENDBRANCH   1   5
BRANCH   3  23
ATOM     23  C   UNL A   1      31.312  29.607  25.077  1.00  0.00     0.116 C 
BRANCH  23  24
ATOM     24  C   UNL A   1      31.775  30.135  26.435  1.00  0.00     0.023 C 
BRANCH  24  25
ATOM     25  C   UNL A   1      31.514  31.629  26.636  1.00  0.00     0.023 C 
BRANCH  25  26
ATOM     26  C   UNL A   1      32.769  32.461  26.860  1.00  0.00     0.116 C 
BRANCH  26  27
ATOM     27  N   UNL A   1      32.486  33.792  27.376  1.00  0.00    -0.352 N 
ATOM     28  C   UNL A   1      33.087  34.437  28.429  1.00  0.00     0.251 C 
ATOM     29  H   UNL A   1      31.775  34.292  26.914  1.00  0.00     0.163 HD
ATOM     30  O   UNL A   1      32.651  35.507  28.839  1.00  0.00    -0.269 OA
BRANCH  28  31
ATOM     31  C   UNL A   1      34.246  33.800  29.079  1.00  0.00     0.039 A 
ATOM     32  C   UNL A   1      34.028  32.763  29.986  1.00  0.00     0.014 A 
ATOM     33  C   UNL A   1      35.544  34.203  28.753  1.00  0.00     0.014 A 
ATOM     34  C   UNL A   1      35.123  32.100  30.538  1.00  0.00     0.010 A 
ATOM     35  C   UNL A   1      36.628  33.481  29.232  1.00  0.00     0.010 A 
ATOM     36  C   UNL A   1      36.430  32.436  30.146  1.00  0.00    -0.014 A 
BRANCH  36  37
ATOM     37  C   UNL A   1      37.607  31.740  30.719  1.00  0.00     0.031 A 
ATOM     38  C   UNL A   1      38.086  32.100  32.098  1.00  0.00     0.074 A 
ATOM     39  C   UNL A   1      38.266  30.822  29.987  1.00  0.00     0.049 A 
ATOM     40  N   UNL A   1      39.118  31.646  32.761  1.00  0.00    -0.248 NA
ATOM     41  C   UNL A   1      37.320  33.134  32.817  1.00  0.00     0.031 C 
ATOM     42  C   UNL A   1      37.925  30.422  28.620  1.00  0.00     0.029 A 
ATOM     43  N   UNL A   1      39.367  30.063  30.291  1.00  0.00    -0.354 N 
ATOM     44  C   UNL A   1      39.131  32.344  33.962  1.00  0.00     0.074 A 
ATOM     45  C   UNL A   1      38.050  33.301  33.909  1.00  0.00     0.031 C 
ATOM     46  C   UNL A   1      38.780  29.468  28.217  1.00  0.00     0.029 A 
ATOM     47  C   UNL A   1      39.752  29.220  29.277  1.00  0.00     0.049 A 
ATOM     48  H   UNL A   1      39.837  30.116  31.155  1.00  0.00     0.167 HD
ATOM     49  C   UNL A   1      39.951  32.181  35.027  1.00  0.00     0.037 A 
ATOM     50  C   UNL A   1      40.777  28.349  29.212  1.00  0.00     0.037 A 
ATOM     51  C   UNL A   1      41.012  31.212  35.082  1.00  0.00     0.049 A 
ATOM     52  C   UNL A   1      41.685  28.198  30.401  1.00  0.00     0.074 A 
ATOM     53  C   UNL A   1      41.867  30.929  36.131  1.00  0.00     0.029 A 
ATOM     54  N   UNL A   1      41.364  30.369  34.038  1.00  0.00    -0.354 N 
ATOM     55  N   UNL A   1      41.644  28.815  31.559  1.00  0.00    -0.248 NA
ATOM     56  C   UNL A   1      42.777  27.223  30.280  1.00  0.00     0.031 C 
ATOM     57  C   UNL A   1      42.774  29.955  35.704  1.00  0.00     0.029 A 
ATOM     58  C   UNL A   1      42.441  29.582  34.411  1.00  0.00     0.049 A 
ATOM     59  H   UNL A   1      40.916  30.335  33.163  1.00  0.00     0.167 HD
ATOM     60  C   UNL A   1      42.677  28.276  32.315  1.00  0.00     0.074 A 
ATOM     61  C   UNL A   1      43.320  27.275  31.489  1.00  0.00     0.031 C 
ATOM     62  C   UNL A   1      43.060  28.581  33.579  1.00  0.00     0.037 A 
BRANCH  49  63
ATOM     63  C   UNL A   1      39.728  33.073  36.215  1.00  0.00     0.057 A 
ATOM     64  C   UNL A   1      40.413  34.286  36.371  1.00  0.00     0.134 A 
ATOM     65  C   UNL A   1      38.800  32.726  37.205  1.00  0.00     0.134 A 
ATOM     66  F   UNL A   1      41.327  34.673  35.468  1.00  0.00    -0.206 F 
ATOM     67  C   UNL A   1      40.207  35.105  37.483  1.00  0.00     0.040 A 
ATOM     68  C   UNL A   1      38.560  33.554  38.304  1.00  0.00     0.040 A 
ATOM     69  F   UNL A   1      38.104  31.582  37.117  1.00  0.00    -0.206 F 
ATOM     70  C   UNL A   1      39.272  34.742  38.450  1.00  0.00     0.006 A 
ENDBRANCH  49  63
BRANCH  50  71
ATOM     71  C   UNL A   1      40.989  27.534  27.986  1.00  0.00     0.057 A 
ATOM     72  C   UNL A   1      40.436  26.254  27.863  1.00  0.00     0.134 A 
ATOM     73  C   UNL A   1      41.762  28.006  26.918  1.00  0.00     0.134 A 
ATOM     74  F   UNL A   1      39.698  25.740  28.858  1.00  0.00    -0.206 F 
ATOM     75  C   UNL A   1      40.667  25.461  26.738  1.00  0.00     0.040 A 
ATOM     76  C   UNL A   1      41.977  27.235  25.774  1.00  0.00     0.040 A 
ATOM     77  F   UNL A   1      42.312  29.228  26.967  1.00  0.00    -0.206 F 
ATOM     78  C   UNL A   1      41.437  25.955  25.686  1.00  0.00     0.006 A 
ENDBRANCH  50  71
BRANCH  62  79
ATOM     79  C   UNL A   1      44.192  27.788  34.167  1.00  0.00     0.057 A 
ATOM     80  C   UNL A   1      43.988  26.565  34.818  1.00  0.00     0.134 A 
ATOM     81  C   UNL A   1      45.513  28.239  34.042  1.00  0.00     0.134 A 
ATOM     82  F   UNL A   1      42.747  26.080  34.981  1.00  0.00    -0.206 F 
ATOM     83  C   UNL A   1      45.052  25.834  35.350  1.00  0.00     0.040 A 
ATOM     84  C   UNL A   1      46.588  27.502  34.539  1.00  0.00     0.040 A 
ATOM     85  F   UNL A   1      45.783  29.397  33.420  1.00  0.00    -0.206 F 
ATOM     86  C   UNL A   1      46.357  26.299  35.203  1.00  0.00     0.006 A 
ENDBRANCH  62  79
ENDBRANCH  36  37
ENDBRANCH  28  31
ENDBRANCH  26  27
ENDBRANCH  25  26
ENDBRANCH  24  25
ENDBRANCH  23  24
ENDBRANCH   3  23
TORSDOF 17
ENDMDL
MODEL 3
REMARK VINA RESULT:     -10.1      5.165      9.966
REMARK SMILES CS(=O)(=O)NCC[NH2+]Cc1ccc(C(=O)NCCCCNC(=O)c2ccc(-c3c4nc(c(-c5c(F)cccc5F)c5ccc([nH]5)c(-c5c(F)cccc5F)c5nc(c(-c6c(F)cccc6F)c6ccc3[nH]6)C=C5)C=C4)cc2)cn1
REMARK SMILES IDX 14 1 15 2 16 3 13 5 10 6 11 7 79 8 12 9 78 10 9 11 8 12 7 15
REMARK SMILES IDX 6 16 5 17 2 19 1 20 3 21 4 22 17 23 18 24 19 25 20 26 21 27
REMARK SMILES IDX 22 28 23 30 24 31 25 32 77 33 26 34 76 35 27 36 28 37 29 38
REMARK SMILES IDX 70 39 30 40 75 41 69 42 71 43 31 44 74 45 68 46 67 47 32 49
REMARK SMILES IDX 58 50 41 51 57 52 42 53 45 54 56 55 72 56 43 57 44 58 55 60
REMARK SMILES IDX 73 61 46 62 33 63 34 64 39 65 35 66 36 67 38 68 40 69 37 70
REMARK SMILES IDX 59 71 60 72 65 73 61 74 62 75 64 76 66 77 63 78 47 79 48 80
REMARK SMILES IDX 53 81 49 82 50 83 52 84 54 85 51 86
REMARK H PARENT 16 4 8 13 8 14 5 18 21 29 71 48 45 59
REMARK Flexibility Score: inf
ROOT
ATOM      1  C   UNL A   1      33.484  28.589  23.595  1.00  0.00     0.252 C 
ATOM      2  O   UNL A   1      34.288  29.049  22.786  1.00  0.00    -0.269 OA
ATOM      3  N   UNL A   1      32.560  29.445  24.133  1.00  0.00    -0.352 N 
ATOM      4  H   UNL A   1      32.645  30.379  23.834  1.00  0.00     0.163 HD
ENDROOT
BRANCH   1   5
ATOM      5  C   UNL A   1      33.518  27.144  23.918  1.00  0.00     0.058 A 
ATOM      6  C   UNL A   1      33.606  24.402  24.211  1.00  0.00     0.094 A 
ATOM      7  C   UNL A   1      34.039  25.202  25.261  1.00  0.00     0.030 A 
ATOM      8  N   UNL A   1      33.079  24.917  23.073  1.00  0.00    -0.255 NA
ATOM      9  C   UNL A   1      34.010  26.588  25.100  1.00  0.00     0.017 A 
ATOM     10  C   UNL A   1      33.081  26.266  22.938  1.00  0.00     0.125 A 
BRANCH   6  11
ATOM     11  C   UNL A   1      33.857  22.905  24.213  1.00  0.00     0.317 C 
BRANCH  11  12
ATOM     12  N   UNL A   1      34.148  22.396  25.575  1.00  0.00    -0.340 N 
ATOM     13  H   UNL A   1      34.792  21.609  25.506  1.00  0.00     0.346 HD
ATOM     14  H   UNL A   1      34.563  23.151  26.123  1.00  0.00     0.346 HD
BRANCH  12  15
ATOM     15  C   UNL A   1      32.912  21.953  26.246  1.00  0.00     0.277 C 
BRANCH  15  16
ATOM     16  C   UNL A   1      31.980  21.175  25.304  1.00  0.00     0.159 C 
BRANCH  16  17
ATOM     17  N   UNL A   1      32.029  19.710  25.478  1.00  0.00    -0.210 NA
ATOM     18  H   UNL A   1      32.287  19.544  26.451  1.00  0.00     0.141 HD
BRANCH  17  19
ATOM     19  S   UNL A   1      33.043  18.753  24.551  1.00  0.00     0.208 S 
ATOM     20  C   UNL A   1      32.954  17.165  25.344  1.00  0.00     0.176 C 
ATOM     21  O   UNL A   1      34.392  19.237  24.690  1.00  0.00    -0.213 OA
ATOM     22  O   UNL A   1      32.410  18.648  23.253  1.00  0.00    -0.213 OA
ENDBRANCH  17  19
ENDBRANCH  16  17
ENDBRANCH  15  16
ENDBRANCH  12  15
ENDBRANCH  11  12
ENDBRANCH   6  11
ENDBRANCH   1   5
BRANCH   3  23
ATOM     23  C   UNL A   1      31.482  29.209  25.068  1.00  0.00     0.116 C 
BRANCH  23  24
ATOM     24  C   UNL A   1      31.861  29.740  26.451  1.00  0.00     0.023 C 
BRANCH  24  25
ATOM     25  C   UNL A   1      31.571  31.229  26.641  1.00  0.00     0.023 C 
BRANCH  25  26
ATOM     26  C   UNL A   1      32.783  32.059  27.042  1.00  0.00     0.116 C 
BRANCH  26  27
ATOM     27  N   UNL A   1      32.434  33.405  27.475  1.00  0.00    -0.352 N 
ATOM     28  C   UNL A   1      33.107  34.210  28.360  1.00  0.00     0.251 C 
ATOM     29  H   UNL A   1      31.613  33.784  27.086  1.00  0.00     0.163 HD
ATOM     30  O   UNL A   1      32.621  35.271  28.736  1.00  0.00    -0.269 OA
BRANCH  28  31
ATOM     31  C   UNL A   1      34.411  33.757  28.877  1.00  0.00     0.039 A 
ATOM     32  C   UNL A   1      34.444  32.923  29.994  1.00  0.00     0.014 A 
ATOM     33  C   UNL A   1      35.592  34.126  28.226  1.00  0.00     0.014 A 
ATOM     34  C   UNL A   1      35.668  32.422  30.435  1.00  0.00     0.010 A 
ATOM     35  C   UNL A   1      36.795  33.551  28.609  1.00  0.00     0.010 A 
ATOM     36  C   UNL A   1      36.849  32.712  29.731  1.00  0.00    -0.014 A 
BRANCH  36  37
ATOM     37  C   UNL A   1      38.160  32.185  30.182  1.00  0.00     0.031 A 
ATOM     38  C   UNL A   1      38.660  30.873  29.642  1.00  0.00     0.074 A 
ATOM     39  C   UNL A   1      38.874  32.860  31.103  1.00  0.00     0.049 A 
ATOM     40  N   UNL A   1      39.752  30.218  29.941  1.00  0.00    -0.248 NA
ATOM     41  C   UNL A   1      37.801  30.190  28.658  1.00  0.00     0.031 C 
ATOM     42  C   UNL A   1      38.472  34.118  31.734  1.00  0.00     0.029 A 
ATOM     43  N   UNL A   1      40.089  32.575  31.671  1.00  0.00    -0.354 N 
ATOM     44  C   UNL A   1      39.703  29.047  29.195  1.00  0.00     0.074 A 
ATOM     45  C   UNL A   1      38.444  29.047  28.485  1.00  0.00     0.031 C 
ATOM     46  C   UNL A   1      39.438  34.513  32.578  1.00  0.00     0.029 A 
ATOM     47  C   UNL A   1      40.506  33.518  32.580  1.00  0.00     0.049 A 
ATOM     48  H   UNL A   1      40.614  31.772  31.449  1.00  0.00     0.167 HD
ATOM     49  C   UNL A   1      40.638  28.074  29.085  1.00  0.00     0.037 A 
ATOM     50  C   UNL A   1      41.622  33.568  33.331  1.00  0.00     0.037 A 
ATOM     51  C   UNL A   1      41.899  28.090  29.777  1.00  0.00     0.049 A 
ATOM     52  C   UNL A   1      42.638  32.465  33.206  1.00  0.00     0.074 A 
ATOM     53  C   UNL A   1      42.938  27.182  29.697  1.00  0.00     0.029 A 
ATOM     54  N   UNL A   1      42.289  29.068  30.682  1.00  0.00    -0.354 N 
ATOM     55  N   UNL A   1      42.612  31.399  32.443  1.00  0.00    -0.248 NA
ATOM     56  C   UNL A   1      43.843  32.579  34.038  1.00  0.00     0.031 C 
ATOM     57  C   UNL A   1      43.933  27.577  30.595  1.00  0.00     0.029 A 
ATOM     58  C   UNL A   1      43.543  28.770  31.185  1.00  0.00     0.049 A 
ATOM     59  H   UNL A   1      41.753  29.855  30.928  1.00  0.00     0.167 HD
ATOM     60  C   UNL A   1      43.811  30.735  32.674  1.00  0.00     0.074 A 
ATOM     61  C   UNL A   1      44.545  31.527  33.640  1.00  0.00     0.031 C 
ATOM     62  C   UNL A   1      44.265  29.576  32.137  1.00  0.00     0.037 A 
BRANCH  49  63
ATOM     63  C   UNL A   1      40.327  26.913  28.183  1.00  0.00     0.057 A 
ATOM     64  C   UNL A   1      39.496  25.860  28.591  1.00  0.00     0.134 A 
ATOM     65  C   UNL A   1      40.844  26.858  26.884  1.00  0.00     0.134 A 
ATOM     66  F   UNL A   1      38.978  25.840  29.828  1.00  0.00    -0.206 F 
ATOM     67  C   UNL A   1      39.219  24.779  27.750  1.00  0.00     0.040 A 
ATOM     68  C   UNL A   1      40.547  25.800  26.022  1.00  0.00     0.040 A 
ATOM     69  F   UNL A   1      41.642  27.835  26.425  1.00  0.00    -0.206 F 
ATOM     70  C   UNL A   1      39.739  24.752  26.458  1.00  0.00     0.006 A 
ENDBRANCH  49  63
BRANCH  50  71
ATOM     71  C   UNL A   1      41.852  34.711  34.254  1.00  0.00     0.057 A 
ATOM     72  C   UNL A   1      42.554  35.848  33.838  1.00  0.00     0.134 A 
ATOM     73  C   UNL A   1      41.392  34.687  35.577  1.00  0.00     0.134 A 
ATOM     74  F   UNL A   1      43.034  35.923  32.587  1.00  0.00    -0.206 F 
ATOM     75  C   UNL A   1      42.817  36.906  34.708  1.00  0.00     0.040 A 
ATOM     76  C   UNL A   1      41.622  35.752  36.450  1.00  0.00     0.040 A 
ATOM     77  F   UNL A   1      40.703  33.633  36.036  1.00  0.00    -0.206 F 
ATOM     78  C   UNL A   1      42.345  36.862  36.019  1.00  0.00     0.006 A 
ENDBRANCH  50  71
BRANCH  62  79
ATOM     79  C   UNL A   1      45.639  29.121  32.538  1.00  0.00     0.057 A 
ATOM     80  C   UNL A   1      46.790  29.529  31.853  1.00  0.00     0.134 A 
ATOM     81  C   UNL A   1      45.813  28.293  33.655  1.00  0.00     0.134 A 
ATOM     82  F   UNL A   1      46.694  30.314  30.768  1.00  0.00    -0.206 F 
ATOM     83  C   UNL A   1      48.061  29.106  32.245  1.00  0.00     0.040 A 
ATOM     84  C   UNL A   1      47.080  27.891  34.077  1.00  0.00     0.040 A 
ATOM     85  F   UNL A   1      44.754  27.873  34.365  1.00  0.00    -0.206 F 
ATOM     86  C   UNL A   1      48.208  28.291  33.365  1.00  0.00     0.006 A 
ENDBRANCH  62  79
ENDBRANCH  36  37
ENDBRANCH  28  31
ENDBRANCH  26  27
ENDBRANCH  25  26
ENDBRANCH  24  25
ENDBRANCH  23  24
ENDBRANCH   3  23
TORSDOF 17
ENDMDL
