MODEL 1
REMARK VINA RESULT:     -12.2      0.000      0.000
REMARK SMILES Cc1ccc(NC(=O)C[C@H]([NH2+]Cc2cccnc2)C(=O)NCCCCNC(=O)c2ccc(-c3c4nc(c(-c5c(F)cccc5F)c5ccc([nH]5)c(-c5c(F)cccc5F)c5nc(c(-c6c(F)cccc6F)c6ccc3[nH]6)C=C5)C=C4)cc2)cc1Cl
REMARK SMILES IDX 23 1 22 2 21 3 19 4 20 5 10 7 9 8 7 9 6 10 8 12 5 13 1 14
REMARK SMILES IDX 2 15 3 16 84 17 4 18 83 19 85 20 11 21 12 24 13 25 14 26
REMARK SMILES IDX 18 27 15 28 17 29 16 30 24 31 25 32 26 33 27 34 28 36 29 37
REMARK SMILES IDX 30 38 82 39 31 40 81 41 32 42 33 43 34 44 75 45 35 46 80 47
REMARK SMILES IDX 74 48 76 49 36 50 79 51 73 52 72 53 37 55 63 56 46 57 62 58
REMARK SMILES IDX 47 59 50 60 61 61 77 62 48 63 49 64 60 66 78 67 51 68 38 69
REMARK SMILES IDX 39 70 44 71 40 72 41 73 43 74 45 75 42 76 64 77 65 78 70 79
REMARK SMILES IDX 66 80 67 81 69 82 71 83 68 84 52 85 53 86 58 87 54 88 55 89
REMARK SMILES IDX 57 90 59 91 56 92
REMARK H PARENT 21 6 6 11 11 22 11 23 26 35 76 54 50 65
REMARK Flexibility Score: inf
ROOT
ATOM      1  C   UNL A   1      36.158  21.147  25.180  1.00  0.00     0.023 C 
ENDROOT
BRANCH   1   2
ATOM      2  C   UNL A   1      35.549  22.402  25.808  1.00  0.00     0.116 C 
BRANCH   2   3
ATOM      3  N   UNL A   1      34.973  23.290  24.800  1.00  0.00    -0.351 N 
ATOM      4  C   UNL A   1      33.746  23.551  24.286  1.00  0.00     0.278 C 
ATOM      5  O   UNL A   1      33.737  24.389  23.368  1.00  0.00    -0.268 OA
ATOM      6  H   UNL A   1      35.664  23.852  24.381  1.00  0.00     0.163 HD
BRANCH   4   7
ATOM      7  C   UNL A   1      32.388  22.879  24.668  1.00  0.00     0.282 C 
BRANCH   7   8
ATOM      8  C   UNL A   1      31.889  23.102  26.078  1.00  0.00     0.175 C 
BRANCH   8   9
ATOM      9  C   UNL A   1      30.643  23.809  26.588  1.00  0.00     0.230 C 
ATOM     10  N   UNL A   1      30.042  24.973  26.291  1.00  0.00    -0.326 N 
ATOM     11  H   UNL A   1      29.237  25.075  26.848  1.00  0.00     0.169 HD
ATOM     12  O   UNL A   1      30.008  23.165  27.451  1.00  0.00    -0.274 OA
BRANCH  10  13
ATOM     13  C   UNL A   1      30.172  26.094  25.456  1.00  0.00     0.042 A 
ATOM     14  C   UNL A   1      30.334  29.406  22.646  1.00  0.00     0.046 C 
ATOM     15  C   UNL A   1      30.291  28.261  23.611  1.00  0.00    -0.032 A 
ATOM     16  C   UNL A   1      29.408  27.196  23.412  1.00  0.00     0.007 A 
ATOM     17  C   UNL A   1      31.112  28.223  24.735  1.00  0.00     0.046 A 
ATOM     18  C   UNL A   1      29.349  26.132  24.324  1.00  0.00     0.026 A 
ATOM     19  C   UNL A   1      31.058  27.140  25.619  1.00  0.00     0.047 A 
ATOM     20  Cl  UNL A   1      32.250  29.482  25.077  1.00  0.00    -0.084 Cl
ENDBRANCH  10  13
ENDBRANCH   8   9
ENDBRANCH   7   8
BRANCH   7  21
ATOM     21  N   UNL A   1      32.335  21.536  24.070  1.00  0.00    -0.332 N 
ATOM     22  H   UNL A   1      33.122  21.462  23.426  1.00  0.00     0.347 HD
ATOM     23  H   UNL A   1      31.405  21.487  23.653  1.00  0.00     0.347 HD
BRANCH  21  24
ATOM     24  C   UNL A   1      32.390  20.377  24.950  1.00  0.00     0.299 C 
BRANCH  24  25
ATOM     25  C   UNL A   1      32.951  19.192  24.201  1.00  0.00     0.024 A 
ATOM     26  C   UNL A   1      34.034  18.448  24.685  1.00  0.00     0.013 A 
ATOM     27  C   UNL A   1      32.358  18.741  23.023  1.00  0.00     0.120 A 
ATOM     28  C   UNL A   1      34.440  17.294  24.018  1.00  0.00     0.021 A 
ATOM     29  N   UNL A   1      32.738  17.631  22.345  1.00  0.00    -0.264 NA
ATOM     30  C   UNL A   1      33.761  16.926  22.870  1.00  0.00     0.111 A 
ENDBRANCH  24  25
ENDBRANCH  21  24
ENDBRANCH   7  21
ENDBRANCH   4   7
ENDBRANCH   2   3
ENDBRANCH   1   2
BRANCH   1  31
ATOM     31  C   UNL A   1      37.594  21.243  24.698  1.00  0.00     0.023 C 
BRANCH  31  32
ATOM     32  C   UNL A   1      38.646  21.109  25.785  1.00  0.00     0.116 C 
BRANCH  32  33
ATOM     33  N   UNL A   1      39.508  19.936  25.672  1.00  0.00    -0.352 N 
ATOM     34  C   UNL A   1      40.838  19.808  26.022  1.00  0.00     0.251 C 
ATOM     35  H   UNL A   1      39.085  19.130  25.299  1.00  0.00     0.163 HD
ATOM     36  O   UNL A   1      41.437  18.754  25.835  1.00  0.00    -0.269 OA
BRANCH  34  37
ATOM     37  C   UNL A   1      41.556  20.986  26.560  1.00  0.00     0.039 A 
ATOM     38  C   UNL A   1      42.111  21.909  25.669  1.00  0.00     0.014 A 
ATOM     39  C   UNL A   1      41.563  21.242  27.930  1.00  0.00     0.014 A 
ATOM     40  C   UNL A   1      42.547  23.149  26.145  1.00  0.00     0.010 A 
ATOM     41  C   UNL A   1      41.885  22.515  28.383  1.00  0.00     0.010 A 
ATOM     42  C   UNL A   1      42.367  23.491  27.496  1.00  0.00    -0.014 A 
BRANCH  42  43
ATOM     43  C   UNL A   1      42.649  24.857  28.010  1.00  0.00     0.031 A 
ATOM     44  C   UNL A   1      44.042  25.221  28.448  1.00  0.00     0.074 A 
ATOM     45  C   UNL A   1      41.637  25.732  28.195  1.00  0.00     0.049 A 
ATOM     46  N   UNL A   1      44.463  26.298  29.061  1.00  0.00    -0.248 NA
ATOM     47  C   UNL A   1      45.092  24.217  28.212  1.00  0.00     0.031 C 
ATOM     48  C   UNL A   1      40.226  25.485  27.885  1.00  0.00     0.029 A 
ATOM     49  N   UNL A   1      41.641  27.007  28.706  1.00  0.00    -0.354 N 
ATOM     50  C   UNL A   1      45.809  26.079  29.323  1.00  0.00     0.074 A 
ATOM     51  C   UNL A   1      46.124  24.750  28.848  1.00  0.00     0.031 C 
ATOM     52  C   UNL A   1      39.511  26.583  28.180  1.00  0.00     0.029 A 
ATOM     53  C   UNL A   1      40.399  27.596  28.736  1.00  0.00     0.049 A 
ATOM     54  H   UNL A   1      42.458  27.457  29.022  1.00  0.00     0.167 HD
ATOM     55  C   UNL A   1      46.712  26.917  29.884  1.00  0.00     0.037 A 
ATOM     56  C   UNL A   1      40.022  28.816  29.164  1.00  0.00     0.037 A 
ATOM     57  C   UNL A   1      46.419  28.267  30.283  1.00  0.00     0.049 A 
ATOM     58  C   UNL A   1      41.055  29.752  29.726  1.00  0.00     0.074 A 
ATOM     59  C   UNL A   1      47.289  29.232  30.759  1.00  0.00     0.029 A 
ATOM     60  N   UNL A   1      45.162  28.846  30.239  1.00  0.00    -0.354 N 
ATOM     61  N   UNL A   1      42.341  29.558  29.894  1.00  0.00    -0.248 NA
ATOM     62  C   UNL A   1      40.587  31.078  30.155  1.00  0.00     0.031 C 
ATOM     63  C   UNL A   1      46.552  30.391  31.027  1.00  0.00     0.029 A 
ATOM     64  C   UNL A   1      45.229  30.153  30.689  1.00  0.00     0.049 A 
ATOM     65  H   UNL A   1      44.342  28.396  29.932  1.00  0.00     0.167 HD
ATOM     66  C   UNL A   1      42.837  30.745  30.418  1.00  0.00     0.074 A 
ATOM     67  C   UNL A   1      41.718  31.656  30.531  1.00  0.00     0.031 C 
ATOM     68  C   UNL A   1      44.108  31.052  30.773  1.00  0.00     0.037 A 
BRANCH  55  69
ATOM     69  C   UNL A   1      48.107  26.403  30.078  1.00  0.00     0.057 A 
ATOM     70  C   UNL A   1      48.503  25.773  31.264  1.00  0.00     0.134 A 
ATOM     71  C   UNL A   1      49.058  26.519  29.057  1.00  0.00     0.134 A 
ATOM     72  F   UNL A   1      47.644  25.644  32.286  1.00  0.00    -0.206 F 
ATOM     73  C   UNL A   1      49.806  25.301  31.439  1.00  0.00     0.040 A 
ATOM     74  C   UNL A   1      50.355  26.026  29.210  1.00  0.00     0.040 A 
ATOM     75  F   UNL A   1      48.742  27.108  27.893  1.00  0.00    -0.206 F 
ATOM     76  C   UNL A   1      50.733  25.422  30.407  1.00  0.00     0.006 A 
ENDBRANCH  55  69
BRANCH  56  77
ATOM     77  C   UNL A   1      38.606  29.247  29.047  1.00  0.00     0.057 A 
ATOM     78  C   UNL A   1      37.750  29.198  30.154  1.00  0.00     0.134 A 
ATOM     79  C   UNL A   1      38.066  29.689  27.834  1.00  0.00     0.134 A 
ATOM     80  F   UNL A   1      38.204  28.763  31.338  1.00  0.00    -0.206 F 
ATOM     81  C   UNL A   1      36.403  29.550  30.055  1.00  0.00     0.040 A 
ATOM     82  C   UNL A   1      36.726  30.066  27.725  1.00  0.00     0.040 A 
ATOM     83  F   UNL A   1      38.835  29.763  26.738  1.00  0.00    -0.206 F 
ATOM     84  C   UNL A   1      35.888  29.989  28.837  1.00  0.00     0.006 A 
ENDBRANCH  56  77
BRANCH  68  85
ATOM     85  C   UNL A   1      44.363  32.440  31.275  1.00  0.00     0.057 A 
ATOM     86  C   UNL A   1      44.667  33.495  30.407  1.00  0.00     0.134 A 
ATOM     87  C   UNL A   1      44.258  32.732  32.641  1.00  0.00     0.134 A 
ATOM     88  F   UNL A   1      44.796  33.275  29.089  1.00  0.00    -0.206 F 
ATOM     89  C   UNL A   1      44.875  34.790  30.882  1.00  0.00     0.040 A 
ATOM     90  C   UNL A   1      44.441  34.027  33.125  1.00  0.00     0.040 A 
ATOM     91  F   UNL A   1      43.962  31.765  33.523  1.00  0.00    -0.206 F 
ATOM     92  C   UNL A   1      44.754  35.060  32.244  1.00  0.00     0.006 A 
ENDBRANCH  68  85
ENDBRANCH  42  43
ENDBRANCH  34  37
ENDBRANCH  32  33
ENDBRANCH  31  32
ENDBRANCH   1  31
TORSDOF 17
ENDMDL
MODEL 2
REMARK VINA RESULT:     -12.2      4.227      9.514
REMARK SMILES Cc1ccc(NC(=O)C[C@H]([NH2+]Cc2cccnc2)C(=O)NCCCCNC(=O)c2ccc(-c3c4nc(c(-c5c(F)cccc5F)c5ccc([nH]5)c(-c5c(F)cccc5F)c5nc(c(-c6c(F)cccc6F)c6ccc3[nH]6)C=C5)C=C4)cc2)cc1Cl
REMARK SMILES IDX 23 1 22 2 21 3 19 4 20 5 10 7 9 8 7 9 6 10 8 12 5 13 1 14
REMARK SMILES IDX 2 15 3 16 84 17 4 18 83 19 85 20 11 21 12 24 13 25 14 26
REMARK SMILES IDX 18 27 15 28 17 29 16 30 24 31 25 32 26 33 27 34 28 36 29 37
REMARK SMILES IDX 30 38 82 39 31 40 81 41 32 42 33 43 34 44 75 45 35 46 80 47
REMARK SMILES IDX 74 48 76 49 36 50 79 51 73 52 72 53 37 55 63 56 46 57 62 58
REMARK SMILES IDX 47 59 50 60 61 61 77 62 48 63 49 64 60 66 78 67 51 68 38 69
REMARK SMILES IDX 39 70 44 71 40 72 41 73 43 74 45 75 42 76 64 77 65 78 70 79
REMARK SMILES IDX 66 80 67 81 69 82 71 83 68 84 52 85 53 86 58 87 54 88 55 89
REMARK SMILES IDX 57 90 59 91 56 92
REMARK H PARENT 21 6 6 11 11 22 11 23 26 35 76 54 50 65
REMARK Flexibility Score: inf
ROOT
ATOM      1  C   UNL A   1      31.956  29.802  26.786  1.00  0.00     0.023 C 
ENDROOT
BRANCH   1   2
ATOM      2  C   UNL A   1      33.229  29.072  26.352  1.00  0.00     0.116 C 
BRANCH   2   3
ATOM      3  N   UNL A   1      33.599  29.394  24.975  1.00  0.00    -0.351 N 
ATOM      4  C   UNL A   1      33.388  28.877  23.739  1.00  0.00     0.278 C 
ATOM      5  O   UNL A   1      33.963  29.484  22.819  1.00  0.00    -0.268 OA
ATOM      6  H   UNL A   1      34.151  30.208  24.933  1.00  0.00     0.163 HD
BRANCH   4   7
ATOM      7  C   UNL A   1      32.576  27.595  23.367  1.00  0.00     0.282 C 
BRANCH   7   8
ATOM      8  C   UNL A   1      33.371  26.334  23.115  1.00  0.00     0.175 C 
BRANCH   8   9
ATOM      9  C   UNL A   1      33.277  25.309  21.995  1.00  0.00     0.230 C 
ATOM     10  N   UNL A   1      33.259  23.966  21.958  1.00  0.00    -0.326 N 
ATOM     11  H   UNL A   1      33.182  23.668  21.022  1.00  0.00     0.169 HD
ATOM     12  O   UNL A   1      33.157  25.808  20.856  1.00  0.00    -0.274 OA
BRANCH  10  13
ATOM     13  C   UNL A   1      33.313  22.843  22.798  1.00  0.00     0.042 A 
ATOM     14  C   UNL A   1      33.161  19.261  25.255  1.00  0.00     0.046 C 
ATOM     15  C   UNL A   1      33.211  20.504  24.420  1.00  0.00    -0.032 A 
ATOM     16  C   UNL A   1      32.239  20.744  23.444  1.00  0.00     0.007 A 
ATOM     17  C   UNL A   1      34.224  21.447  24.576  1.00  0.00     0.046 A 
ATOM     18  C   UNL A   1      32.294  21.895  22.644  1.00  0.00     0.026 A 
ATOM     19  C   UNL A   1      34.245  22.603  23.788  1.00  0.00     0.047 A 
ATOM     20  Cl  UNL A   1      35.473  21.258  25.758  1.00  0.00    -0.084 Cl
ENDBRANCH  10  13
ENDBRANCH   8   9
ENDBRANCH   7   8
BRANCH   7  21
ATOM     21  N   UNL A   1      31.478  27.969  22.463  1.00  0.00    -0.332 N 
ATOM     22  H   UNL A   1      31.687  27.562  21.552  1.00  0.00     0.347 HD
ATOM     23  H   UNL A   1      31.455  28.987  22.508  1.00  0.00     0.347 HD
BRANCH  21  24
ATOM     24  C   UNL A   1      30.121  27.569  22.809  1.00  0.00     0.299 C 
BRANCH  24  25
ATOM     25  C   UNL A   1      29.292  28.791  23.126  1.00  0.00     0.024 A 
ATOM     26  C   UNL A   1      29.869  29.992  23.556  1.00  0.00     0.013 A 
ATOM     27  C   UNL A   1      27.913  28.794  22.929  1.00  0.00     0.120 A 
ATOM     28  C   UNL A   1      29.076  31.125  23.722  1.00  0.00     0.021 A 
ATOM     29  N   UNL A   1      27.113  29.875  23.094  1.00  0.00    -0.264 NA
ATOM     30  C   UNL A   1      27.719  31.019  23.473  1.00  0.00     0.111 A 
ENDBRANCH  24  25
ENDBRANCH  21  24
ENDBRANCH   7  21
ENDBRANCH   4   7
ENDBRANCH   2   3
ENDBRANCH   1   2
BRANCH   1  31
ATOM     31  C   UNL A   1      31.902  31.299  26.542  1.00  0.00     0.023 C 
BRANCH  31  32
ATOM     32  C   UNL A   1      32.909  32.115  27.334  1.00  0.00     0.116 C 
BRANCH  32  33
ATOM     33  N   UNL A   1      32.537  33.508  27.560  1.00  0.00    -0.352 N 
ATOM     34  C   UNL A   1      33.137  34.436  28.389  1.00  0.00     0.251 C 
ATOM     35  H   UNL A   1      31.756  33.830  27.055  1.00  0.00     0.163 HD
ATOM     36  O   UNL A   1      32.682  35.571  28.495  1.00  0.00    -0.269 OA
BRANCH  34  37
ATOM     37  C   UNL A   1      34.298  34.021  29.210  1.00  0.00     0.039 A 
ATOM     38  C   UNL A   1      34.076  33.311  30.393  1.00  0.00     0.014 A 
ATOM     39  C   UNL A   1      35.597  34.218  28.744  1.00  0.00     0.014 A 
ATOM     40  C   UNL A   1      35.149  32.683  31.030  1.00  0.00     0.010 A 
ATOM     41  C   UNL A   1      36.640  33.496  29.310  1.00  0.00     0.010 A 
ATOM     42  C   UNL A   1      36.428  32.707  30.451  1.00  0.00    -0.014 A 
BRANCH  42  43
ATOM     43  C   UNL A   1      37.557  31.906  30.994  1.00  0.00     0.031 A 
ATOM     44  C   UNL A   1      38.093  32.203  32.370  1.00  0.00     0.074 A 
ATOM     45  C   UNL A   1      38.179  30.998  30.214  1.00  0.00     0.049 A 
ATOM     46  N   UNL A   1      39.158  31.729  32.964  1.00  0.00    -0.248 NA
ATOM     47  C   UNL A   1      37.360  33.203  33.162  1.00  0.00     0.031 C 
ATOM     48  C   UNL A   1      37.815  30.664  28.834  1.00  0.00     0.029 A 
ATOM     49  N   UNL A   1      39.266  30.196  30.468  1.00  0.00    -0.354 N 
ATOM     50  C   UNL A   1      39.247  32.407  34.173  1.00  0.00     0.074 A 
ATOM     51  C   UNL A   1      38.159  33.359  34.208  1.00  0.00     0.031 C 
ATOM     52  C   UNL A   1      38.638  29.705  28.379  1.00  0.00     0.029 A 
ATOM     53  C   UNL A   1      39.614  29.383  29.415  1.00  0.00     0.049 A 
ATOM     54  H   UNL A   1      39.750  30.202  31.325  1.00  0.00     0.167 HD
ATOM     55  C   UNL A   1      40.137  32.236  35.177  1.00  0.00     0.037 A 
ATOM     56  C   UNL A   1      40.607  28.482  29.298  1.00  0.00     0.037 A 
ATOM     57  C   UNL A   1      41.170  31.236  35.179  1.00  0.00     0.049 A 
ATOM     58  C   UNL A   1      41.546  28.267  30.453  1.00  0.00     0.074 A 
ATOM     59  C   UNL A   1      42.052  30.910  36.194  1.00  0.00     0.029 A 
ATOM     60  N   UNL A   1      41.450  30.391  34.117  1.00  0.00    -0.354 N 
ATOM     61  N   UNL A   1      41.568  28.862  31.621  1.00  0.00    -0.248 NA
ATOM     62  C   UNL A   1      42.596  27.253  30.276  1.00  0.00     0.031 C 
ATOM     63  C   UNL A   1      42.884  29.882  35.736  1.00  0.00     0.029 A 
ATOM     64  C   UNL A   1      42.498  29.550  34.448  1.00  0.00     0.049 A 
ATOM     65  H   UNL A   1      40.973  30.389  33.255  1.00  0.00     0.167 HD
ATOM     66  C   UNL A   1      42.610  28.273  32.326  1.00  0.00     0.074 A 
ATOM     67  C   UNL A   1      43.191  27.270  31.460  1.00  0.00     0.031 C 
ATOM     68  C   UNL A   1      43.047  28.542  33.580  1.00  0.00     0.037 A 
BRANCH  55  69
ATOM     69  C   UNL A   1      40.017  33.138  36.370  1.00  0.00     0.057 A 
ATOM     70  C   UNL A   1      39.150  32.848  37.431  1.00  0.00     0.134 A 
ATOM     71  C   UNL A   1      40.797  34.297  36.468  1.00  0.00     0.134 A 
ATOM     72  F   UNL A   1      38.366  31.760  37.390  1.00  0.00    -0.206 F 
ATOM     73  C   UNL A   1      39.041  33.695  38.535  1.00  0.00     0.040 A 
ATOM     74  C   UNL A   1      40.716  35.137  37.580  1.00  0.00     0.040 A 
ATOM     75  F   UNL A   1      41.651  34.630  35.489  1.00  0.00    -0.206 F 
ATOM     76  C   UNL A   1      39.830  34.840  38.614  1.00  0.00     0.006 A 
ENDBRANCH  55  69
BRANCH  56  77
ATOM     77  C   UNL A   1      40.752  27.681  28.057  1.00  0.00     0.057 A 
ATOM     78  C   UNL A   1      40.141  26.426  27.941  1.00  0.00     0.134 A 
ATOM     79  C   UNL A   1      41.517  28.127  26.974  1.00  0.00     0.134 A 
ATOM     80  F   UNL A   1      39.412  25.935  28.954  1.00  0.00    -0.206 F 
ATOM     81  C   UNL A   1      40.304  25.633  26.804  1.00  0.00     0.040 A 
ATOM     82  C   UNL A   1      41.671  27.354  25.821  1.00  0.00     0.040 A 
ATOM     83  F   UNL A   1      42.124  29.322  27.021  1.00  0.00    -0.206 F 
ATOM     84  C   UNL A   1      41.070  26.099  25.738  1.00  0.00     0.006 A 
ENDBRANCH  56  77
BRANCH  68  85
ATOM     85  C   UNL A   1      44.178  27.711  34.104  1.00  0.00     0.057 A 
ATOM     86  C   UNL A   1      43.963  26.459  34.692  1.00  0.00     0.134 A 
ATOM     87  C   UNL A   1      45.501  28.151  33.977  1.00  0.00     0.134 A 
ATOM     88  F   UNL A   1      42.716  25.990  34.855  1.00  0.00    -0.206 F 
ATOM     89  C   UNL A   1      45.025  25.680  35.151  1.00  0.00     0.040 A 
ATOM     90  C   UNL A   1      46.572  27.371  34.412  1.00  0.00     0.040 A 
ATOM     91  F   UNL A   1      45.773  29.339  33.416  1.00  0.00    -0.206 F 
ATOM     92  C   UNL A   1      46.336  26.133  35.004  1.00  0.00     0.006 A 
ENDBRANCH  68  85
ENDBRANCH  42  43
ENDBRANCH  34  37
ENDBRANCH  32  33
ENDBRANCH  31  32
ENDBRANCH   1  31
TORSDOF 17
ENDMDL
MODEL 3
REMARK VINA RESULT:     -12.2      4.302      9.183
REMARK SMILES Cc1ccc(NC(=O)C[C@H]([NH2+]Cc2cccnc2)C(=O)NCCCCNC(=O)c2ccc(-c3c4nc(c(-c5c(F)cccc5F)c5ccc([nH]5)c(-c5c(F)cccc5F)c5nc(c(-c6c(F)cccc6F)c6ccc3[nH]6)C=C5)C=C4)cc2)cc1Cl
REMARK SMILES IDX 23 1 22 2 21 3 19 4 20 5 10 7 9 8 7 9 6 10 8 12 5 13 1 14
REMARK SMILES IDX 2 15 3 16 84 17 4 18 83 19 85 20 11 21 12 24 13 25 14 26
REMARK SMILES IDX 18 27 15 28 17 29 16 30 24 31 25 32 26 33 27 34 28 36 29 37
REMARK SMILES IDX 30 38 82 39 31 40 81 41 32 42 33 43 34 44 75 45 35 46 80 47
REMARK SMILES IDX 74 48 76 49 36 50 79 51 73 52 72 53 37 55 63 56 46 57 62 58
REMARK SMILES IDX 47 59 50 60 61 61 77 62 48 63 49 64 60 66 78 67 51 68 38 69
REMARK SMILES IDX 39 70 44 71 40 72 41 73 43 74 45 75 42 76 64 77 65 78 70 79
REMARK SMILES IDX 66 80 67 81 69 82 71 83 68 84 52 85 53 86 58 87 54 88 55 89
REMARK SMILES IDX 57 90 59 91 56 92
REMARK H PARENT 21 6 6 11 11 22 11 23 26 35 76 54 50 65
REMARK Flexibility Score: inf
ROOT
ATOM      1  C   UNL A   1      31.474  30.817  25.876  1.00  0.00     0.023 C 
ENDROOT
BRANCH   1   2
ATOM      2  C   UNL A   1      32.431  29.622  25.875  1.00  0.00     0.116 C 
BRANCH   2   3
ATOM      3  N   UNL A   1      33.234  29.569  24.655  1.00  0.00    -0.351 N 
ATOM      4  C   UNL A   1      33.325  28.780  23.555  1.00  0.00     0.278 C 
ATOM      5  O   UNL A   1      34.229  29.099  22.763  1.00  0.00    -0.268 OA
ATOM      6  H   UNL A   1      33.885  30.306  24.622  1.00  0.00     0.163 HD
BRANCH   4   7
ATOM      7  C   UNL A   1      32.484  27.506  23.223  1.00  0.00     0.282 C 
BRANCH   7   8
ATOM      8  C   UNL A   1      33.252  26.228  22.968  1.00  0.00     0.175 C 
BRANCH   8   9
ATOM      9  C   UNL A   1      33.130  25.204  21.852  1.00  0.00     0.230 C 
ATOM     10  N   UNL A   1      33.066  23.862  21.819  1.00  0.00    -0.326 N 
ATOM     11  H   UNL A   1      32.986  23.563  20.884  1.00  0.00     0.169 HD
ATOM     12  O   UNL A   1      33.036  25.702  20.709  1.00  0.00    -0.274 OA
BRANCH  10  13
ATOM     13  C   UNL A   1      33.075  22.741  22.663  1.00  0.00     0.042 A 
ATOM     14  C   UNL A   1      32.836  19.130  25.071  1.00  0.00     0.046 C 
ATOM     15  C   UNL A   1      32.913  20.382  24.252  1.00  0.00    -0.032 A 
ATOM     16  C   UNL A   1      32.147  20.519  23.090  1.00  0.00     0.007 A 
ATOM     17  C   UNL A   1      33.750  21.436  24.608  1.00  0.00     0.046 A 
ATOM     18  C   UNL A   1      32.232  21.681  22.308  1.00  0.00     0.026 A 
ATOM     19  C   UNL A   1      33.800  22.598  23.830  1.00  0.00     0.047 A 
ATOM     20  Cl  UNL A   1      34.736  21.380  26.030  1.00  0.00    -0.084 Cl
ENDBRANCH  10  13
ENDBRANCH   8   9
ENDBRANCH   7   8
BRANCH   7  21
ATOM     21  N   UNL A   1      31.369  27.885  22.341  1.00  0.00    -0.332 N 
ATOM     22  H   UNL A   1      31.553  27.468  21.429  1.00  0.00     0.347 HD
ATOM     23  H   UNL A   1      31.360  28.904  22.378  1.00  0.00     0.347 HD
BRANCH  21  24
ATOM     24  C   UNL A   1      30.016  27.505  22.723  1.00  0.00     0.299 C 
BRANCH  24  25
ATOM     25  C   UNL A   1      29.189  28.742  22.978  1.00  0.00     0.024 A 
ATOM     26  C   UNL A   1      29.753  30.023  23.008  1.00  0.00     0.013 A 
ATOM     27  C   UNL A   1      27.805  28.664  23.118  1.00  0.00     0.120 A 
ATOM     28  C   UNL A   1      28.933  31.142  23.129  1.00  0.00     0.021 A 
ATOM     29  N   UNL A   1      26.982  29.731  23.250  1.00  0.00    -0.264 NA
ATOM     30  C   UNL A   1      27.567  30.947  23.236  1.00  0.00     0.111 A 
ENDBRANCH  24  25
ENDBRANCH  21  24
ENDBRANCH   7  21
ENDBRANCH   4   7
ENDBRANCH   2   3
ENDBRANCH   1   2
BRANCH   1  31
ATOM     31  C   UNL A   1      31.612  31.811  27.014  1.00  0.00     0.023 C 
BRANCH  31  32
ATOM     32  C   UNL A   1      32.368  33.082  26.668  1.00  0.00     0.116 C 
BRANCH  32  33
ATOM     33  N   UNL A   1      32.211  34.175  27.623  1.00  0.00    -0.352 N 
ATOM     34  C   UNL A   1      33.050  34.543  28.656  1.00  0.00     0.251 C 
ATOM     35  H   UNL A   1      31.402  34.724  27.515  1.00  0.00     0.163 HD
ATOM     36  O   UNL A   1      32.761  35.476  29.399  1.00  0.00    -0.269 OA
BRANCH  34  37
ATOM     37  C   UNL A   1      34.273  33.745  28.907  1.00  0.00     0.039 A 
ATOM     38  C   UNL A   1      35.523  34.320  28.660  1.00  0.00     0.014 A 
ATOM     39  C   UNL A   1      34.185  32.490  29.507  1.00  0.00     0.014 A 
ATOM     40  C   UNL A   1      36.676  33.693  29.142  1.00  0.00     0.010 A 
ATOM     41  C   UNL A   1      35.316  31.931  30.087  1.00  0.00     0.010 A 
ATOM     42  C   UNL A   1      36.575  32.533  29.925  1.00  0.00    -0.014 A 
BRANCH  42  43
ATOM     43  C   UNL A   1      37.753  31.934  30.607  1.00  0.00     0.031 A 
ATOM     44  C   UNL A   1      38.561  30.871  29.912  1.00  0.00     0.074 A 
ATOM     45  C   UNL A   1      38.028  32.254  31.889  1.00  0.00     0.049 A 
ATOM     46  N   UNL A   1      39.523  30.120  30.384  1.00  0.00    -0.248 NA
ATOM     47  C   UNL A   1      38.203  30.578  28.514  1.00  0.00     0.031 C 
ATOM     48  C   UNL A   1      37.281  33.212  32.710  1.00  0.00     0.029 A 
ATOM     49  N   UNL A   1      39.008  31.793  32.735  1.00  0.00    -0.354 N 
ATOM     50  C   UNL A   1      39.850  29.240  29.361  1.00  0.00     0.074 A 
ATOM     51  C   UNL A   1      38.953  29.515  28.260  1.00  0.00     0.031 C 
ATOM     52  C   UNL A   1      37.850  33.291  33.924  1.00  0.00     0.029 A 
ATOM     53  C   UNL A   1      38.974  32.364  33.985  1.00  0.00     0.049 A 
ATOM     54  H   UNL A   1      39.672  31.117  32.470  1.00  0.00     0.167 HD
ATOM     55  C   UNL A   1      40.827  28.304  29.326  1.00  0.00     0.037 A 
ATOM     56  C   UNL A   1      39.761  32.162  35.059  1.00  0.00     0.037 A 
ATOM     57  C   UNL A   1      41.772  28.084  30.388  1.00  0.00     0.049 A 
ATOM     58  C   UNL A   1      40.879  31.160  34.974  1.00  0.00     0.074 A 
ATOM     59  C   UNL A   1      42.865  27.237  30.406  1.00  0.00     0.029 A 
ATOM     60  N   UNL A   1      41.741  28.728  31.615  1.00  0.00    -0.354 N 
ATOM     61  N   UNL A   1      41.225  30.391  33.970  1.00  0.00    -0.248 NA
ATOM     62  C   UNL A   1      41.720  31.000  36.170  1.00  0.00     0.031 C 
ATOM     63  C   UNL A   1      43.484  27.350  31.656  1.00  0.00     0.029 A 
ATOM     64  C   UNL A   1      42.791  28.289  32.402  1.00  0.00     0.049 A 
ATOM     65  H   UNL A   1      41.072  29.399  31.885  1.00  0.00     0.167 HD
ATOM     66  C   UNL A   1      42.338  29.681  34.403  1.00  0.00     0.074 A 
ATOM     67  C   UNL A   1      42.616  30.117  35.755  1.00  0.00     0.031 C 
ATOM     68  C   UNL A   1      43.065  28.751  33.737  1.00  0.00     0.037 A 
BRANCH  55  69
ATOM     69  C   UNL A   1      40.936  27.462  28.090  1.00  0.00     0.057 A 
ATOM     70  C   UNL A   1      41.715  27.857  26.995  1.00  0.00     0.134 A 
ATOM     71  C   UNL A   1      40.275  26.231  28.005  1.00  0.00     0.134 A 
ATOM     72  F   UNL A   1      42.362  29.032  27.008  1.00  0.00    -0.206 F 
ATOM     73  C   UNL A   1      41.808  27.070  25.845  1.00  0.00     0.040 A 
ATOM     74  C   UNL A   1      40.383  25.423  26.872  1.00  0.00     0.040 A 
ATOM     75  F   UNL A   1      39.517  25.792  29.021  1.00  0.00    -0.206 F 
ATOM     76  C   UNL A   1      41.146  25.846  25.785  1.00  0.00     0.006 A 
ENDBRANCH  55  69
BRANCH  56  77
ATOM     77  C   UNL A   1      39.552  32.947  36.301  1.00  0.00     0.057 A 
ATOM     78  C   UNL A   1      40.252  34.140  36.518  1.00  0.00     0.134 A 
ATOM     79  C   UNL A   1      38.679  32.520  37.307  1.00  0.00     0.134 A 
ATOM     80  F   UNL A   1      41.120  34.590  35.600  1.00  0.00    -0.206 F 
ATOM     81  C   UNL A   1      40.110  34.869  37.700  1.00  0.00     0.040 A 
ATOM     82  C   UNL A   1      38.509  33.250  38.485  1.00  0.00     0.040 A 
ATOM     83  F   UNL A   1      37.975  31.389  37.157  1.00  0.00    -0.206 F 
ATOM     84  C   UNL A   1      39.233  34.425  38.688  1.00  0.00     0.006 A 
ENDBRANCH  56  77
BRANCH  68  85
ATOM     85  C   UNL A   1      44.253  28.176  34.445  1.00  0.00     0.057 A 
ATOM     86  C   UNL A   1      45.507  28.795  34.405  1.00  0.00     0.134 A 
ATOM     87  C   UNL A   1      44.127  27.011  35.213  1.00  0.00     0.134 A 
ATOM     88  F   UNL A   1      45.694  29.905  33.676  1.00  0.00    -0.206 F 
ATOM     89  C   UNL A   1      46.601  28.266  35.092  1.00  0.00     0.040 A 
ATOM     90  C   UNL A   1      45.207  26.485  35.921  1.00  0.00     0.040 A 
ATOM     91  F   UNL A   1      42.948  26.375  35.296  1.00  0.00    -0.206 F 
ATOM     92  C   UNL A   1      46.450  27.112  35.859  1.00  0.00     0.006 A 
ENDBRANCH  68  85
ENDBRANCH  42  43
ENDBRANCH  34  37
ENDBRANCH  32  33
ENDBRANCH  31  32
ENDBRANCH   1  31
TORSDOF 17
ENDMDL
