MODEL 1
REMARK VINA RESULT:     -12.5      0.000      0.000
REMARK SMILES Cc1nc(-c2cccc(N3C[C@H](C(=O)NCCCCNC(=O)c4ccc(-c5c6nc(c(-c7c(F)cccc7F)c7ccc([nH]7)c(-c7c(F)cccc7F)c7nc(c(-c8c(F)cccc8F)c8ccc5[nH]8)C=C7)C=C6)cc4)CC3=O)c2)no1
REMARK SMILES IDX 17 1 16 2 15 3 13 4 14 5 12 7 10 8 11 9 78 10 77 11 79 12
REMARK SMILES IDX 9 13 5 14 6 15 80 16 7 17 8 18 4 19 1 20 2 21 3 22 82 23
REMARK SMILES IDX 81 24 18 25 19 26 20 27 21 28 22 30 23 31 24 32 76 33 25 34
REMARK SMILES IDX 75 35 26 36 27 37 28 38 69 39 29 40 74 41 68 42 70 43 30 44
REMARK SMILES IDX 73 45 67 46 66 47 31 49 57 50 40 51 56 52 41 53 44 54 55 55
REMARK SMILES IDX 71 56 42 57 43 58 54 60 72 61 45 62 32 63 33 64 38 65 34 66
REMARK SMILES IDX 35 67 37 68 39 69 36 70 58 71 59 72 64 73 60 74 61 75 63 76
REMARK SMILES IDX 65 77 62 78 46 79 47 80 52 81 48 82 49 83 51 84 53 85 50 86
REMARK H PARENT 15 6 20 29 70 48 44 59
REMARK Flexibility Score: inf
ROOT
ATOM      1  C   UNL A   1      36.414  20.754  24.966  1.00  0.00     0.023 C 
ENDROOT
BRANCH   1   2
ATOM      2  C   UNL A   1      36.578  22.183  24.452  1.00  0.00     0.116 C 
BRANCH   2   3
ATOM      3  N   UNL A   1      35.384  22.627  23.755  1.00  0.00    -0.356 N 
ATOM      4  C   UNL A   1      34.250  23.204  24.250  1.00  0.00     0.225 C 
ATOM      5  O   UNL A   1      33.298  23.365  23.491  1.00  0.00    -0.275 OA
ATOM      6  H   UNL A   1      35.392  22.491  22.781  1.00  0.00     0.163 HD
BRANCH   4   7
ATOM      7  C   UNL A   1      34.252  23.709  25.678  1.00  0.00     0.107 C 
ATOM      8  N   UNL A   1      32.908  25.618  25.938  1.00  0.00    -0.312 N 
ATOM      9  C   UNL A   1      34.261  25.229  25.637  1.00  0.00     0.139 C 
ATOM     10  C   UNL A   1      32.153  24.574  26.464  1.00  0.00     0.227 C 
ATOM     11  C   UNL A   1      32.997  23.328  26.454  1.00  0.00     0.116 C 
ATOM     12  O   UNL A   1      31.009  24.610  26.894  1.00  0.00    -0.274 OA
BRANCH   8  13
ATOM     13  C   UNL A   1      32.462  26.951  25.844  1.00  0.00     0.044 A 
ATOM     14  C   UNL A   1      31.300  28.695  24.612  1.00  0.00     0.025 A 
ATOM     15  C   UNL A   1      31.647  29.620  25.602  1.00  0.00     0.012 A 
ATOM     16  C   UNL A   1      31.733  27.369  24.727  1.00  0.00     0.038 A 
ATOM     17  C   UNL A   1      32.372  29.209  26.721  1.00  0.00     0.003 A 
ATOM     18  C   UNL A   1      32.757  27.873  26.854  1.00  0.00     0.026 A 
BRANCH  14  19
ATOM     19  C   UNL A   1      30.456  29.078  23.494  1.00  0.00     0.202 A 
ATOM     20  C   UNL A   1      28.326  31.266  21.678  1.00  0.00     0.114 C 
ATOM     21  C   UNL A   1      29.181  30.252  22.317  1.00  0.00     0.223 A 
ATOM     22  N   UNL A   1      29.739  30.256  23.505  1.00  0.00    -0.191 NA
ATOM     23  O   UNL A   1      29.479  29.144  21.581  1.00  0.00    -0.339 OA
ATOM     24  N   UNL A   1      30.344  28.374  22.358  1.00  0.00    -0.057 NA
ENDBRANCH  14  19
ENDBRANCH   8  13
ENDBRANCH   4   7
ENDBRANCH   2   3
ENDBRANCH   1   2
BRANCH   1  25
ATOM     25  C   UNL A   1      37.674  19.889  24.845  1.00  0.00     0.023 C 
BRANCH  25  26
ATOM     26  C   UNL A   1      38.859  20.340  25.695  1.00  0.00     0.116 C 
BRANCH  26  27
ATOM     27  N   UNL A   1      39.941  19.371  25.715  1.00  0.00    -0.352 N 
ATOM     28  C   UNL A   1      41.260  19.541  26.060  1.00  0.00     0.251 C 
ATOM     29  H   UNL A   1      39.692  18.458  25.441  1.00  0.00     0.163 HD
ATOM     30  O   UNL A   1      42.059  18.627  25.874  1.00  0.00    -0.269 OA
BRANCH  28  31
ATOM     31  C   UNL A   1      41.727  20.828  26.619  1.00  0.00     0.039 A 
ATOM     32  C   UNL A   1      42.207  21.803  25.739  1.00  0.00     0.014 A 
ATOM     33  C   UNL A   1      41.699  21.081  27.993  1.00  0.00     0.014 A 
ATOM     34  C   UNL A   1      42.590  23.052  26.230  1.00  0.00     0.010 A 
ATOM     35  C   UNL A   1      42.013  22.352  28.473  1.00  0.00     0.010 A 
ATOM     36  C   UNL A   1      42.457  23.353  27.596  1.00  0.00    -0.014 A 
BRANCH  36  37
ATOM     37  C   UNL A   1      42.747  24.719  28.104  1.00  0.00     0.031 A 
ATOM     38  C   UNL A   1      44.145  25.115  28.495  1.00  0.00     0.074 A 
ATOM     39  C   UNL A   1      41.735  25.596  28.255  1.00  0.00     0.049 A 
ATOM     40  N   UNL A   1      44.577  26.252  28.979  1.00  0.00    -0.248 NA
ATOM     41  C   UNL A   1      45.194  24.094  28.342  1.00  0.00     0.031 C 
ATOM     42  C   UNL A   1      40.326  25.321  27.963  1.00  0.00     0.029 A 
ATOM     43  N   UNL A   1      41.732  26.897  28.695  1.00  0.00    -0.354 N 
ATOM     44  C   UNL A   1      45.940  26.085  29.187  1.00  0.00     0.074 A 
ATOM     45  C   UNL A   1      46.255  24.719  28.832  1.00  0.00     0.031 C 
ATOM     46  C   UNL A   1      39.601  26.425  28.205  1.00  0.00     0.029 A 
ATOM     47  C   UNL A   1      40.484  27.473  28.707  1.00  0.00     0.049 A 
ATOM     48  H   UNL A   1      42.547  27.372  28.976  1.00  0.00     0.167 HD
ATOM     49  C   UNL A   1      46.850  26.994  29.610  1.00  0.00     0.037 A 
ATOM     50  C   UNL A   1      40.091  28.704  29.086  1.00  0.00     0.037 A 
ATOM     51  C   UNL A   1      46.538  28.358  29.954  1.00  0.00     0.049 A 
ATOM     52  C   UNL A   1      41.122  29.685  29.572  1.00  0.00     0.074 A 
ATOM     53  C   UNL A   1      47.401  29.366  30.350  1.00  0.00     0.029 A 
ATOM     54  N   UNL A   1      45.265  28.905  29.947  1.00  0.00    -0.354 N 
ATOM     55  N   UNL A   1      42.418  29.532  29.693  1.00  0.00    -0.248 NA
ATOM     56  C   UNL A   1      40.635  31.015  29.966  1.00  0.00     0.031 C 
ATOM     57  C   UNL A   1      46.644  30.508  30.630  1.00  0.00     0.029 A 
ATOM     58  C   UNL A   1      45.316  30.229  30.355  1.00  0.00     0.049 A 
ATOM     59  H   UNL A   1      44.444  28.424  29.691  1.00  0.00     0.167 HD
ATOM     60  C   UNL A   1      42.904  30.752  30.149  1.00  0.00     0.074 A 
ATOM     61  C   UNL A   1      41.765  31.640  30.258  1.00  0.00     0.031 C 
ATOM     62  C   UNL A   1      44.176  31.104  30.455  1.00  0.00     0.037 A 
BRANCH  49  63
ATOM     63  C   UNL A   1      48.282  26.551  29.716  1.00  0.00     0.057 A 
ATOM     64  C   UNL A   1      49.200  26.774  28.681  1.00  0.00     0.134 A 
ATOM     65  C   UNL A   1      48.764  25.951  30.886  1.00  0.00     0.134 A 
ATOM     66  F   UNL A   1      48.803  27.334  27.528  1.00  0.00    -0.206 F 
ATOM     67  C   UNL A   1      50.540  26.401  28.800  1.00  0.00     0.040 A 
ATOM     68  C   UNL A   1      50.107  25.600  31.027  1.00  0.00     0.040 A 
ATOM     69  F   UNL A   1      47.941  25.714  31.919  1.00  0.00    -0.206 F 
ATOM     70  C   UNL A   1      50.999  25.821  29.980  1.00  0.00     0.006 A 
ENDBRANCH  49  63
BRANCH  50  71
ATOM     71  C   UNL A   1      38.657  29.088  29.021  1.00  0.00     0.057 A 
ATOM     72  C   UNL A   1      38.094  29.593  27.842  1.00  0.00     0.134 A 
ATOM     73  C   UNL A   1      37.824  28.997  30.142  1.00  0.00     0.134 A 
ATOM     74  F   UNL A   1      38.844  29.722  26.737  1.00  0.00    -0.206 F 
ATOM     75  C   UNL A   1      36.768  30.023  27.789  1.00  0.00     0.040 A 
ATOM     76  C   UNL A   1      36.487  29.394  30.097  1.00  0.00     0.040 A 
ATOM     77  F   UNL A   1      38.298  28.514  31.300  1.00  0.00    -0.206 F 
ATOM     78  C   UNL A   1      35.959  29.921  28.920  1.00  0.00     0.006 A 
ENDBRANCH  50  71
BRANCH  62  79
ATOM     79  C   UNL A   1      44.406  32.519  30.903  1.00  0.00     0.057 A 
ATOM     80  C   UNL A   1      44.665  33.553  29.993  1.00  0.00     0.134 A 
ATOM     81  C   UNL A   1      44.350  32.856  32.261  1.00  0.00     0.134 A 
ATOM     82  F   UNL A   1      44.744  33.297  28.678  1.00  0.00    -0.206 F 
ATOM     83  C   UNL A   1      44.896  34.861  30.420  1.00  0.00     0.040 A 
ATOM     84  C   UNL A   1      44.548  34.166  32.699  1.00  0.00     0.040 A 
ATOM     85  F   UNL A   1      44.095  31.918  33.187  1.00  0.00    -0.206 F 
ATOM     86  C   UNL A   1      44.832  35.172  31.777  1.00  0.00     0.006 A 
ENDBRANCH  62  79
ENDBRANCH  36  37
ENDBRANCH  28  31
ENDBRANCH  26  27
ENDBRANCH  25  26
ENDBRANCH   1  25
TORSDOF 13
ENDMDL
MODEL 2
REMARK VINA RESULT:     -12.4      3.180      9.037
REMARK SMILES Cc1nc(-c2cccc(N3C[C@H](C(=O)NCCCCNC(=O)c4ccc(-c5c6nc(c(-c7c(F)cccc7F)c7ccc([nH]7)c(-c7c(F)cccc7F)c7nc(c(-c8c(F)cccc8F)c8ccc5[nH]8)C=C7)C=C6)cc4)CC3=O)c2)no1
REMARK SMILES IDX 17 1 16 2 15 3 13 4 14 5 12 7 10 8 11 9 78 10 77 11 79 12
REMARK SMILES IDX 9 13 5 14 6 15 80 16 7 17 8 18 4 19 1 20 2 21 3 22 82 23
REMARK SMILES IDX 81 24 18 25 19 26 20 27 21 28 22 30 23 31 24 32 76 33 25 34
REMARK SMILES IDX 75 35 26 36 27 37 28 38 69 39 29 40 74 41 68 42 70 43 30 44
REMARK SMILES IDX 73 45 67 46 66 47 31 49 57 50 40 51 56 52 41 53 44 54 55 55
REMARK SMILES IDX 71 56 42 57 43 58 54 60 72 61 45 62 32 63 33 64 38 65 34 66
REMARK SMILES IDX 35 67 37 68 39 69 36 70 58 71 59 72 64 73 60 74 61 75 63 76
REMARK SMILES IDX 65 77 62 78 46 79 47 80 52 81 48 82 49 83 51 84 53 85 50 86
REMARK H PARENT 15 6 20 29 70 48 44 59
REMARK Flexibility Score: inf
ROOT
ATOM      1  C   UNL A   1      31.620  29.990  25.886  1.00  0.00     0.023 C 
ENDROOT
BRANCH   1   2
ATOM      2  C   UNL A   1      32.216  28.960  26.845  1.00  0.00     0.116 C 
BRANCH   2   3
ATOM      3  N   UNL A   1      31.659  27.641  26.603  1.00  0.00    -0.356 N 
ATOM      4  C   UNL A   1      32.075  26.663  25.746  1.00  0.00     0.225 C 
ATOM      5  O   UNL A   1      31.362  25.674  25.600  1.00  0.00    -0.275 OA
ATOM      6  H   UNL A   1      30.863  27.418  27.137  1.00  0.00     0.163 HD
BRANCH   4   7
ATOM      7  C   UNL A   1      33.436  26.793  25.096  1.00  0.00     0.107 C 
ATOM      8  N   UNL A   1      34.327  24.705  24.492  1.00  0.00    -0.312 N 
ATOM      9  C   UNL A   1      34.301  25.642  25.584  1.00  0.00     0.139 C 
ATOM     10  C   UNL A   1      33.867  25.258  23.299  1.00  0.00     0.227 C 
ATOM     11  C   UNL A   1      33.395  26.658  23.578  1.00  0.00     0.116 C 
ATOM     12  O   UNL A   1      33.848  24.748  22.188  1.00  0.00    -0.274 OA
BRANCH   8  13
ATOM     13  C   UNL A   1      34.899  23.423  24.604  1.00  0.00     0.044 A 
ATOM     14  C   UNL A   1      34.633  21.019  24.851  1.00  0.00     0.025 A 
ATOM     15  C   UNL A   1      36.023  20.876  24.918  1.00  0.00     0.012 A 
ATOM     16  C   UNL A   1      34.078  22.298  24.720  1.00  0.00     0.038 A 
ATOM     17  C   UNL A   1      36.848  21.995  24.799  1.00  0.00     0.003 A 
ATOM     18  C   UNL A   1      36.288  23.262  24.617  1.00  0.00     0.026 A 
BRANCH  14  19
ATOM     19  C   UNL A   1      33.761  19.858  24.865  1.00  0.00     0.202 A 
ATOM     20  C   UNL A   1      33.016  16.395  24.586  1.00  0.00     0.114 C 
ATOM     21  C   UNL A   1      33.169  17.854  24.721  1.00  0.00     0.223 A 
ATOM     22  N   UNL A   1      34.223  18.607  24.514  1.00  0.00    -0.191 NA
ATOM     23  O   UNL A   1      32.079  18.551  25.150  1.00  0.00    -0.339 OA
ATOM     24  N   UNL A   1      32.481  19.881  25.265  1.00  0.00    -0.057 NA
ENDBRANCH  14  19
ENDBRANCH   8  13
ENDBRANCH   4   7
ENDBRANCH   2   3
ENDBRANCH   1   2
BRANCH   1  25
ATOM     25  C   UNL A   1      31.385  31.371  26.507  1.00  0.00     0.023 C 
BRANCH  25  26
ATOM     26  C   UNL A   1      32.640  32.087  26.999  1.00  0.00     0.116 C 
BRANCH  26  27
ATOM     27  N   UNL A   1      32.371  33.432  27.480  1.00  0.00    -0.352 N 
ATOM     28  C   UNL A   1      33.095  34.210  28.350  1.00  0.00     0.251 C 
ATOM     29  H   UNL A   1      31.549  33.847  27.130  1.00  0.00     0.163 HD
ATOM     30  O   UNL A   1      32.627  35.273  28.749  1.00  0.00    -0.269 OA
BRANCH  28  31
ATOM     31  C   UNL A   1      34.417  33.757  28.837  1.00  0.00     0.039 A 
ATOM     32  C   UNL A   1      34.476  33.039  30.035  1.00  0.00     0.014 A 
ATOM     33  C   UNL A   1      35.589  34.032  28.128  1.00  0.00     0.014 A 
ATOM     34  C   UNL A   1      35.700  32.540  30.484  1.00  0.00     0.010 A 
ATOM     35  C   UNL A   1      36.798  33.471  28.540  1.00  0.00     0.010 A 
ATOM     36  C   UNL A   1      36.865  32.714  29.719  1.00  0.00    -0.014 A 
BRANCH  36  37
ATOM     37  C   UNL A   1      38.145  32.080  30.130  1.00  0.00     0.031 A 
ATOM     38  C   UNL A   1      39.078  32.776  31.083  1.00  0.00     0.074 A 
ATOM     39  C   UNL A   1      38.489  30.887  29.605  1.00  0.00     0.049 A 
ATOM     40  N   UNL A   1      40.245  32.384  31.531  1.00  0.00    -0.248 NA
ATOM     41  C   UNL A   1      38.657  34.094  31.585  1.00  0.00     0.031 C 
ATOM     42  C   UNL A   1      37.698  30.132  28.630  1.00  0.00     0.029 A 
ATOM     43  N   UNL A   1      39.594  30.099  29.814  1.00  0.00    -0.354 N 
ATOM     44  C   UNL A   1      40.694  33.400  32.363  1.00  0.00     0.074 A 
ATOM     45  C   UNL A   1      39.704  34.454  32.314  1.00  0.00     0.031 C 
ATOM     46  C   UNL A   1      38.329  28.981  28.347  1.00  0.00     0.029 A 
ATOM     47  C   UNL A   1      39.586  28.932  29.088  1.00  0.00     0.049 A 
ATOM     48  H   UNL A   1      40.323  30.346  30.427  1.00  0.00     0.167 HD
ATOM     49  C   UNL A   1      41.817  33.442  33.120  1.00  0.00     0.037 A 
ATOM     50  C   UNL A   1      40.491  27.938  29.018  1.00  0.00     0.037 A 
ATOM     51  C   UNL A   1      42.799  32.389  33.177  1.00  0.00     0.049 A 
ATOM     52  C   UNL A   1      41.738  28.022  29.853  1.00  0.00     0.074 A 
ATOM     53  C   UNL A   1      43.946  32.322  33.949  1.00  0.00     0.029 A 
ATOM     54  N   UNL A   1      42.751  31.221  32.431  1.00  0.00    -0.354 N 
ATOM     55  N   UNL A   1      42.113  28.958  30.690  1.00  0.00    -0.248 NA
ATOM     56  C   UNL A   1      42.686  26.904  29.741  1.00  0.00     0.031 C 
ATOM     57  C   UNL A   1      44.618  31.136  33.633  1.00  0.00     0.029 A 
ATOM     58  C   UNL A   1      43.862  30.439  32.707  1.00  0.00     0.049 A 
ATOM     59  H   UNL A   1      42.035  30.983  31.799  1.00  0.00     0.167 HD
ATOM     60  C   UNL A   1      43.322  28.530  31.224  1.00  0.00     0.074 A 
ATOM     61  C   UNL A   1      43.605  27.239  30.633  1.00  0.00     0.031 C 
ATOM     62  C   UNL A   1      44.130  29.153  32.117  1.00  0.00     0.037 A 
BRANCH  49  63
ATOM     63  C   UNL A   1      42.045  34.665  33.962  1.00  0.00     0.057 A 
ATOM     64  C   UNL A   1      42.636  35.822  33.436  1.00  0.00     0.134 A 
ATOM     65  C   UNL A   1      41.615  34.710  35.294  1.00  0.00     0.134 A 
ATOM     66  F   UNL A   1      43.081  35.843  32.170  1.00  0.00    -0.206 F 
ATOM     67  C   UNL A   1      42.806  36.972  34.209  1.00  0.00     0.040 A 
ATOM     68  C   UNL A   1      41.753  35.864  36.068  1.00  0.00     0.040 A 
ATOM     69  F   UNL A   1      41.035  33.641  35.860  1.00  0.00    -0.206 F 
ATOM     70  C   UNL A   1      42.355  36.998  35.526  1.00  0.00     0.006 A 
ENDBRANCH  49  63
BRANCH  50  71
ATOM     71  C   UNL A   1      40.256  26.770  28.129  1.00  0.00     0.057 A 
ATOM     72  C   UNL A   1      40.811  26.714  26.844  1.00  0.00     0.134 A 
ATOM     73  C   UNL A   1      39.443  25.702  28.524  1.00  0.00     0.134 A 
ATOM     74  F   UNL A   1      41.584  27.714  26.397  1.00  0.00    -0.206 F 
ATOM     75  C   UNL A   1      40.539  25.656  25.975  1.00  0.00     0.040 A 
ATOM     76  C   UNL A   1      39.187  24.623  27.679  1.00  0.00     0.040 A 
ATOM     77  F   UNL A   1      38.888  25.689  29.746  1.00  0.00    -0.206 F 
ATOM     78  C   UNL A   1      39.726  24.604  26.394  1.00  0.00     0.006 A 
ENDBRANCH  50  71
BRANCH  62  79
ATOM     79  C   UNL A   1      45.376  28.426  32.535  1.00  0.00     0.057 A 
ATOM     80  C   UNL A   1      46.589  28.580  31.851  1.00  0.00     0.134 A 
ATOM     81  C   UNL A   1      45.366  27.572  33.645  1.00  0.00     0.134 A 
ATOM     82  F   UNL A   1      46.666  29.373  30.771  1.00  0.00    -0.206 F 
ATOM     83  C   UNL A   1      47.737  27.884  32.235  1.00  0.00     0.040 A 
ATOM     84  C   UNL A   1      46.514  26.896  34.059  1.00  0.00     0.040 A 
ATOM     85  F   UNL A   1      44.240  27.387  34.353  1.00  0.00    -0.206 F 
ATOM     86  C   UNL A   1      47.703  27.043  33.346  1.00  0.00     0.006 A 
ENDBRANCH  62  79
ENDBRANCH  36  37
ENDBRANCH  28  31
ENDBRANCH  26  27
ENDBRANCH  25  26
ENDBRANCH   1  25
TORSDOF 13
ENDMDL
MODEL 3
REMARK VINA RESULT:     -12.4      2.266      8.210
REMARK SMILES Cc1nc(-c2cccc(N3C[C@H](C(=O)NCCCCNC(=O)c4ccc(-c5c6nc(c(-c7c(F)cccc7F)c7ccc([nH]7)c(-c7c(F)cccc7F)c7nc(c(-c8c(F)cccc8F)c8ccc5[nH]8)C=C7)C=C6)cc4)CC3=O)c2)no1
REMARK SMILES IDX 17 1 16 2 15 3 13 4 14 5 12 7 10 8 11 9 78 10 77 11 79 12
REMARK SMILES IDX 9 13 5 14 6 15 80 16 7 17 8 18 4 19 1 20 2 21 3 22 82 23
REMARK SMILES IDX 81 24 18 25 19 26 20 27 21 28 22 30 23 31 24 32 76 33 25 34
REMARK SMILES IDX 75 35 26 36 27 37 28 38 69 39 29 40 74 41 68 42 70 43 30 44
REMARK SMILES IDX 73 45 67 46 66 47 31 49 57 50 40 51 56 52 41 53 44 54 55 55
REMARK SMILES IDX 71 56 42 57 43 58 54 60 72 61 45 62 32 63 33 64 38 65 34 66
REMARK SMILES IDX 35 67 37 68 39 69 36 70 58 71 59 72 64 73 60 74 61 75 63 76
REMARK SMILES IDX 65 77 62 78 46 79 47 80 52 81 48 82 49 83 51 84 53 85 50 86
REMARK H PARENT 15 6 20 29 70 48 44 59
REMARK Flexibility Score: inf
ROOT
ATOM      1  C   UNL A   1      31.662  28.757  25.760  1.00  0.00     0.023 C 
ENDROOT
BRANCH   1   2
ATOM      2  C   UNL A   1      31.080  28.480  24.375  1.00  0.00     0.116 C 
BRANCH   2   3
ATOM      3  N   UNL A   1      30.577  27.121  24.283  1.00  0.00    -0.356 N 
ATOM      4  C   UNL A   1      31.083  26.049  23.606  1.00  0.00     0.225 C 
ATOM      5  O   UNL A   1      30.409  25.024  23.549  1.00  0.00    -0.275 OA
ATOM      6  H   UNL A   1      29.747  26.946  24.781  1.00  0.00     0.163 HD
BRANCH   4   7
ATOM      7  C   UNL A   1      32.488  26.135  23.047  1.00  0.00     0.107 C 
ATOM      8  N   UNL A   1      33.625  24.086  23.201  1.00  0.00    -0.312 N 
ATOM      9  C   UNL A   1      33.398  25.303  23.935  1.00  0.00     0.139 C 
ATOM     10  C   UNL A   1      33.245  24.186  21.865  1.00  0.00     0.227 C 
ATOM     11  C   UNL A   1      32.619  25.537  21.652  1.00  0.00     0.116 C 
ATOM     12  O   UNL A   1      33.390  23.361  20.975  1.00  0.00    -0.274 OA
BRANCH   8  13
ATOM     13  C   UNL A   1      34.297  22.978  23.754  1.00  0.00     0.044 A 
ATOM     14  C   UNL A   1      34.248  20.698  24.595  1.00  0.00     0.025 A 
ATOM     15  C   UNL A   1      35.601  20.800  24.937  1.00  0.00     0.012 A 
ATOM     16  C   UNL A   1      33.597  21.800  24.028  1.00  0.00     0.038 A 
ATOM     17  C   UNL A   1      36.306  21.972  24.663  1.00  0.00     0.003 A 
ATOM     18  C   UNL A   1      35.662  23.050  24.050  1.00  0.00     0.026 A 
BRANCH  14  19
ATOM     19  C   UNL A   1      33.524  19.452  24.773  1.00  0.00     0.202 A 
ATOM     20  C   UNL A   1      33.174  15.916  24.816  1.00  0.00     0.114 C 
ATOM     21  C   UNL A   1      33.164  17.389  24.830  1.00  0.00     0.223 A 
ATOM     22  N   UNL A   1      34.100  18.236  24.473  1.00  0.00    -0.191 NA
ATOM     23  O   UNL A   1      32.038  17.993  25.305  1.00  0.00    -0.339 OA
ATOM     24  N   UNL A   1      32.287  19.365  25.285  1.00  0.00    -0.057 NA
ENDBRANCH  14  19
ENDBRANCH   8  13
ENDBRANCH   4   7
ENDBRANCH   2   3
ENDBRANCH   1   2
BRANCH   1  25
ATOM     25  C   UNL A   1      33.181  28.573  25.857  1.00  0.00     0.023 C 
BRANCH  25  26
ATOM     26  C   UNL A   1      33.762  28.676  27.265  1.00  0.00     0.116 C 
BRANCH  26  27
ATOM     27  N   UNL A   1      33.747  30.033  27.784  1.00  0.00    -0.352 N 
ATOM     28  C   UNL A   1      34.732  30.729  28.441  1.00  0.00     0.251 C 
ATOM     29  H   UNL A   1      32.905  30.527  27.644  1.00  0.00     0.163 HD
ATOM     30  O   UNL A   1      34.478  31.825  28.932  1.00  0.00    -0.269 OA
BRANCH  28  31
ATOM     31  C   UNL A   1      36.085  30.149  28.590  1.00  0.00     0.039 A 
ATOM     32  C   UNL A   1      36.954  30.193  27.496  1.00  0.00     0.014 A 
ATOM     33  C   UNL A   1      36.501  29.565  29.790  1.00  0.00     0.014 A 
ATOM     34  C   UNL A   1      38.259  29.717  27.628  1.00  0.00     0.010 A 
ATOM     35  C   UNL A   1      37.826  29.157  29.942  1.00  0.00     0.010 A 
ATOM     36  C   UNL A   1      38.720  29.233  28.864  1.00  0.00    -0.014 A 
BRANCH  36  37
ATOM     37  C   UNL A   1      40.143  28.839  29.042  1.00  0.00     0.031 A 
ATOM     38  C   UNL A   1      41.139  29.799  29.633  1.00  0.00     0.074 A 
ATOM     39  C   UNL A   1      40.547  27.621  28.629  1.00  0.00     0.049 A 
ATOM     40  N   UNL A   1      42.422  29.634  29.840  1.00  0.00    -0.248 NA
ATOM     41  C   UNL A   1      40.635  31.125  30.026  1.00  0.00     0.031 C 
ATOM     42  C   UNL A   1      39.692  26.617  27.992  1.00  0.00     0.029 A 
ATOM     43  N   UNL A   1      41.782  27.021  28.678  1.00  0.00    -0.354 N 
ATOM     44  C   UNL A   1      42.876  30.829  30.383  1.00  0.00     0.074 A 
ATOM     45  C   UNL A   1      41.746  31.731  30.422  1.00  0.00     0.031 C 
ATOM     46  C   UNL A   1      40.419  25.517  27.735  1.00  0.00     0.029 A 
ATOM     47  C   UNL A   1      41.798  25.751  28.151  1.00  0.00     0.049 A 
ATOM     48  H   UNL A   1      42.578  27.458  29.055  1.00  0.00     0.167 HD
ATOM     49  C   UNL A   1      44.115  31.138  30.834  1.00  0.00     0.037 A 
ATOM     50  C   UNL A   1      42.812  24.876  28.010  1.00  0.00     0.037 A 
ATOM     51  C   UNL A   1      45.239  30.236  30.805  1.00  0.00     0.049 A 
ATOM     52  C   UNL A   1      44.182  25.255  28.500  1.00  0.00     0.074 A 
ATOM     53  C   UNL A   1      46.523  30.444  31.280  1.00  0.00     0.029 A 
ATOM     54  N   UNL A   1      45.215  28.958  30.270  1.00  0.00    -0.354 N 
ATOM     55  N   UNL A   1      44.577  26.363  29.078  1.00  0.00    -0.248 NA
ATOM     56  C   UNL A   1      45.246  24.256  28.326  1.00  0.00     0.031 C 
ATOM     57  C   UNL A   1      47.288  29.311  30.987  1.00  0.00     0.029 A 
ATOM     58  C   UNL A   1      46.468  28.375  30.381  1.00  0.00     0.049 A 
ATOM     59  H   UNL A   1      44.425  28.528  29.869  1.00  0.00     0.167 HD
ATOM     60  C   UNL A   1      45.926  26.184  29.362  1.00  0.00     0.074 A 
ATOM     61  C   UNL A   1      46.273  24.851  28.913  1.00  0.00     0.031 C 
ATOM     62  C   UNL A   1      46.800  27.046  29.935  1.00  0.00     0.037 A 
BRANCH  49  63
ATOM     63  C   UNL A   1      44.326  32.508  31.412  1.00  0.00     0.057 A 
ATOM     64  C   UNL A   1      44.153  32.766  32.779  1.00  0.00     0.134 A 
ATOM     65  C   UNL A   1      44.768  33.567  30.607  1.00  0.00     0.134 A 
ATOM     66  F   UNL A   1      43.722  31.800  33.603  1.00  0.00    -0.206 F 
ATOM     67  C   UNL A   1      44.393  34.030  33.320  1.00  0.00     0.040 A 
ATOM     68  C   UNL A   1      45.038  34.827  31.143  1.00  0.00     0.040 A 
ATOM     69  F   UNL A   1      44.961  33.388  29.292  1.00  0.00    -0.206 F 
ATOM     70  C   UNL A   1      44.847  35.063  32.503  1.00  0.00     0.006 A 
ENDBRANCH  49  63
BRANCH  50  71
ATOM     71  C   UNL A   1      42.576  23.550  27.381  1.00  0.00     0.057 A 
ATOM     72  C   UNL A   1      42.272  22.424  28.157  1.00  0.00     0.134 A 
ATOM     73  C   UNL A   1      42.687  23.367  25.998  1.00  0.00     0.134 A 
ATOM     74  F   UNL A   1      42.171  22.528  29.490  1.00  0.00    -0.206 F 
ATOM     75  C   UNL A   1      42.119  21.160  27.584  1.00  0.00     0.040 A 
ATOM     76  C   UNL A   1      42.506  22.116  25.407  1.00  0.00     0.040 A 
ATOM     77  F   UNL A   1      42.967  24.406  25.197  1.00  0.00    -0.206 F 
ATOM     78  C   UNL A   1      42.234  21.004  26.203  1.00  0.00     0.006 A 
ENDBRANCH  50  71
BRANCH  62  79
ATOM     79  C   UNL A   1      48.206  26.559  30.142  1.00  0.00     0.057 A 
ATOM     80  C   UNL A   1      49.212  26.772  29.191  1.00  0.00     0.134 A 
ATOM     81  C   UNL A   1      48.560  25.880  31.315  1.00  0.00     0.134 A 
ATOM     82  F   UNL A   1      48.938  27.404  28.040  1.00  0.00    -0.206 F 
ATOM     83  C   UNL A   1      50.511  26.298  29.383  1.00  0.00     0.040 A 
ATOM     84  C   UNL A   1      49.863  25.429  31.534  1.00  0.00     0.040 A 
ATOM     85  F   UNL A   1      47.648  25.652  32.273  1.00  0.00    -0.206 F 
ATOM     86  C   UNL A   1      50.841  25.629  30.561  1.00  0.00     0.006 A 
ENDBRANCH  62  79
ENDBRANCH  36  37
ENDBRANCH  28  31
ENDBRANCH  26  27
ENDBRANCH  25  26
ENDBRANCH   1  25
TORSDOF 13
ENDMDL
