MODEL 1
REMARK VINA RESULT:     -12.4      0.000      0.000
REMARK SMILES COc1ccc2c(c1)c(CC(=O)NCCCCNC(=O)c1ccc(-c3c4nc(c(-c5c(F)cccc5F)c5ccc([nH]5)c(-c5c(F)cccc5F)c5nc(c(-c6c(F)cccc6F)c6ccc3[nH]6)C=C5)C=C4)cc1)c(C)n2Cc1ccn(C(F)F)c(=O)c1
REMARK SMILES IDX 14 1 13 2 11 3 12 4 10 6 9 7 3 8 4 9 8 10 5 11 7 12 6 13
REMARK SMILES IDX 77 14 75 15 76 16 2 17 1 18 78 19 79 20 80 21 88 22 81 23
REMARK SMILES IDX 86 24 82 25 87 26 83 27 84 28 85 29 15 30 16 31 17 32 18 33
REMARK SMILES IDX 19 34 20 36 21 37 22 38 74 39 23 40 73 41 24 42 25 43 26 44
REMARK SMILES IDX 67 45 27 46 72 47 66 48 68 49 28 50 71 51 65 52 64 53 29 55
REMARK SMILES IDX 55 56 38 57 54 58 39 59 42 60 53 61 69 62 40 63 41 64 52 66
REMARK SMILES IDX 70 67 43 68 30 69 31 70 36 71 32 72 33 73 35 74 37 75 34 76
REMARK SMILES IDX 56 77 57 78 62 79 58 80 59 81 61 82 63 83 60 84 44 85 45 86
REMARK SMILES IDX 50 87 46 88 47 89 49 90 51 91 48 92
REMARK H PARENT 13 5 18 35 68 54 42 65
REMARK Flexibility Score: inf
ROOT
ATOM      1  C   UNL A   1      35.306  30.120  27.661  1.00  0.00     0.116 C 
ENDROOT
BRANCH   1   2
ATOM      2  N   UNL A   1      33.951  29.644  27.858  1.00  0.00    -0.356 N 
ATOM      3  C   UNL A   1      33.320  28.574  27.287  1.00  0.00     0.224 C 
ATOM      4  O   UNL A   1      32.155  28.344  27.623  1.00  0.00    -0.275 OA
ATOM      5  H   UNL A   1      33.409  30.165  28.494  1.00  0.00     0.163 HD
BRANCH   3   6
ATOM      6  C   UNL A   1      34.063  27.650  26.331  1.00  0.00     0.138 C 
BRANCH   6   7
ATOM      7  C   UNL A   1      33.167  26.985  25.330  1.00  0.00    -0.010 A 
ATOM      8  C   UNL A   1      31.647  23.665  26.420  1.00  0.00     0.119 A 
ATOM      9  C   UNL A   1      30.824  23.500  25.312  1.00  0.00     0.048 A 
ATOM     10  C   UNL A   1      32.430  24.811  26.553  1.00  0.00     0.057 A 
ATOM     11  C   UNL A   1      30.799  24.456  24.286  1.00  0.00     0.031 A 
ATOM     12  C   UNL A   1      32.453  25.767  25.515  1.00  0.00     0.007 A 
ATOM     13  C   UNL A   1      31.643  25.577  24.392  1.00  0.00     0.049 A 
ATOM     14  N   UNL A   1      31.856  26.662  23.550  1.00  0.00    -0.340 N 
ATOM     15  C   UNL A   1      32.919  27.410  24.030  1.00  0.00     0.020 A 
ATOM     16  C   UNL A   1      33.599  28.506  23.285  1.00  0.00     0.065 C 
BRANCH   8  17
ATOM     17  O   UNL A   1      31.687  22.771  27.458  1.00  0.00    -0.497 OA
ATOM     18  C   UNL A   1      33.018  22.460  27.865  1.00  0.00     0.278 C 
ENDBRANCH   8  17
BRANCH  14  19
ATOM     19  C   UNL A   1      31.098  26.929  22.320  1.00  0.00     0.158 C 
BRANCH  19  20
ATOM     20  C   UNL A   1      30.124  28.083  22.454  1.00  0.00    -0.021 A 
ATOM     21  C   UNL A   1      30.522  29.406  22.008  1.00  0.00     0.024 A 
ATOM     22  C   UNL A   1      28.873  27.921  22.924  1.00  0.00     0.077 A 
ATOM     23  C   UNL A   1      29.736  30.468  22.219  1.00  0.00     0.095 A 
ATOM     24  C   UNL A   1      27.944  29.080  23.077  1.00  0.00     0.255 A 
ATOM     25  N   UNL A   1      28.489  30.323  22.793  1.00  0.00    -0.258 N 
ATOM     26  O   UNL A   1      26.799  28.864  23.446  1.00  0.00    -0.269 OA
BRANCH  25  27
ATOM     27  C   UNL A   1      27.656  31.477  23.020  1.00  0.00     0.451 C 
ATOM     28  F   UNL A   1      28.270  32.354  23.851  1.00  0.00    -0.185 F 
ATOM     29  F   UNL A   1      27.396  32.119  21.859  1.00  0.00    -0.185 F 
ENDBRANCH  25  27
ENDBRANCH  19  20
ENDBRANCH  14  19
ENDBRANCH   6   7
ENDBRANCH   3   6
ENDBRANCH   1   2
BRANCH   1  30
ATOM     30  C   UNL A   1      35.390  31.645  27.659  1.00  0.00     0.023 C 
BRANCH  30  31
ATOM     31  C   UNL A   1      34.184  32.356  28.285  1.00  0.00     0.023 C 
BRANCH  31  32
ATOM     32  C   UNL A   1      34.531  33.452  29.298  1.00  0.00     0.116 C 
BRANCH  32  33
ATOM     33  N   UNL A   1      34.472  33.027  30.684  1.00  0.00    -0.352 N 
ATOM     34  C   UNL A   1      35.295  32.288  31.491  1.00  0.00     0.251 C 
ATOM     35  H   UNL A   1      33.660  33.339  31.147  1.00  0.00     0.163 HD
ATOM     36  O   UNL A   1      35.005  32.277  32.692  1.00  0.00    -0.269 OA
BRANCH  34  37
ATOM     37  C   UNL A   1      36.416  31.430  31.014  1.00  0.00     0.039 A 
ATOM     38  C   UNL A   1      36.406  30.039  31.015  1.00  0.00     0.014 A 
ATOM     39  C   UNL A   1      37.613  32.094  30.671  1.00  0.00     0.014 A 
ATOM     40  C   UNL A   1      37.585  29.333  30.833  1.00  0.00     0.010 A 
ATOM     41  C   UNL A   1      38.796  31.390  30.469  1.00  0.00     0.010 A 
ATOM     42  C   UNL A   1      38.788  30.009  30.610  1.00  0.00    -0.014 A 
BRANCH  42  43
ATOM     43  C   UNL A   1      39.977  29.181  30.452  1.00  0.00     0.031 A 
ATOM     44  C   UNL A   1      40.740  28.961  31.711  1.00  0.00     0.074 A 
ATOM     45  C   UNL A   1      40.384  28.634  29.291  1.00  0.00     0.049 A 
ATOM     46  N   UNL A   1      41.915  29.408  32.013  1.00  0.00    -0.248 NA
ATOM     47  C   UNL A   1      40.054  28.280  32.819  1.00  0.00     0.031 C 
ATOM     48  C   UNL A   1      39.678  28.536  28.014  1.00  0.00     0.029 A 
ATOM     49  N   UNL A   1      41.553  27.976  29.048  1.00  0.00    -0.354 N 
ATOM     50  C   UNL A   1      42.192  28.943  33.295  1.00  0.00     0.074 A 
ATOM     51  C   UNL A   1      40.971  28.356  33.786  1.00  0.00     0.031 C 
ATOM     52  C   UNL A   1      40.336  27.667  27.210  1.00  0.00     0.029 A 
ATOM     53  C   UNL A   1      41.575  27.265  27.858  1.00  0.00     0.049 A 
ATOM     54  H   UNL A   1      42.318  28.003  29.666  1.00  0.00     0.167 HD
ATOM     55  C   UNL A   1      43.460  28.924  33.790  1.00  0.00     0.037 A 
ATOM     56  C   UNL A   1      42.522  26.373  27.475  1.00  0.00     0.037 A 
ATOM     57  C   UNL A   1      44.337  29.784  33.039  1.00  0.00     0.049 A 
ATOM     58  C   UNL A   1      43.753  26.654  28.258  1.00  0.00     0.074 A 
ATOM     59  C   UNL A   1      44.395  31.142  32.791  1.00  0.00     0.029 A 
ATOM     60  N   UNL A   1      45.174  29.205  32.118  1.00  0.00    -0.354 N 
ATOM     61  N   UNL A   1      44.500  27.706  28.077  1.00  0.00    -0.248 NA
ATOM     62  C   UNL A   1      43.909  25.991  29.545  1.00  0.00     0.031 C 
ATOM     63  C   UNL A   1      44.854  31.251  31.445  1.00  0.00     0.029 A 
ATOM     64  C   UNL A   1      45.089  29.959  30.976  1.00  0.00     0.049 A 
ATOM     65  H   UNL A   1      45.728  28.403  32.251  1.00  0.00     0.167 HD
ATOM     66  C   UNL A   1      44.875  28.094  29.355  1.00  0.00     0.074 A 
ATOM     67  C   UNL A   1      44.559  26.951  30.209  1.00  0.00     0.031 C 
ATOM     68  C   UNL A   1      45.143  29.400  29.649  1.00  0.00     0.037 A 
BRANCH  55  69
ATOM     69  C   UNL A   1      43.996  27.866  34.720  1.00  0.00     0.057 A 
ATOM     70  C   UNL A   1      44.230  28.078  36.093  1.00  0.00     0.134 A 
ATOM     71  C   UNL A   1      43.967  26.518  34.318  1.00  0.00     0.134 A 
ATOM     72  F   UNL A   1      44.234  29.300  36.638  1.00  0.00    -0.206 F 
ATOM     73  C   UNL A   1      44.368  27.030  37.005  1.00  0.00     0.040 A 
ATOM     74  C   UNL A   1      44.056  25.461  35.231  1.00  0.00     0.040 A 
ATOM     75  F   UNL A   1      43.759  26.185  33.034  1.00  0.00    -0.206 F 
ATOM     76  C   UNL A   1      44.242  25.717  36.583  1.00  0.00     0.006 A 
ENDBRANCH  55  69
BRANCH  56  77
ATOM     77  C   UNL A   1      42.347  25.121  26.705  1.00  0.00     0.057 A 
ATOM     78  C   UNL A   1      41.641  24.028  27.239  1.00  0.00     0.134 A 
ATOM     79  C   UNL A   1      43.102  24.861  25.551  1.00  0.00     0.134 A 
ATOM     80  F   UNL A   1      40.952  24.139  28.383  1.00  0.00    -0.206 F 
ATOM     81  C   UNL A   1      41.694  22.751  26.670  1.00  0.00     0.040 A 
ATOM     82  C   UNL A   1      43.168  23.584  24.976  1.00  0.00     0.040 A 
ATOM     83  F   UNL A   1      43.847  25.825  24.992  1.00  0.00    -0.206 F 
ATOM     84  C   UNL A   1      42.470  22.522  25.542  1.00  0.00     0.006 A 
ENDBRANCH  56  77
BRANCH  68  85
ATOM     85  C   UNL A   1      45.242  30.365  28.503  1.00  0.00     0.057 A 
ATOM     86  C   UNL A   1      44.076  30.965  28.017  1.00  0.00     0.134 A 
ATOM     87  C   UNL A   1      46.427  30.613  27.794  1.00  0.00     0.134 A 
ATOM     88  F   UNL A   1      42.894  30.721  28.605  1.00  0.00    -0.206 F 
ATOM     89  C   UNL A   1      44.088  31.793  26.893  1.00  0.00     0.040 A 
ATOM     90  C   UNL A   1      46.459  31.467  26.688  1.00  0.00     0.040 A 
ATOM     91  F   UNL A   1      47.571  29.997  28.119  1.00  0.00    -0.206 F 
ATOM     92  C   UNL A   1      45.285  32.059  26.232  1.00  0.00     0.006 A 
ENDBRANCH  68  85
ENDBRANCH  42  43
ENDBRANCH  34  37
ENDBRANCH  32  33
ENDBRANCH  31  32
ENDBRANCH  30  31
ENDBRANCH   1  30
TORSDOF 16
ENDMDL
MODEL 2
REMARK VINA RESULT:     -12.4      3.850      8.827
REMARK SMILES COc1ccc2c(c1)c(CC(=O)NCCCCNC(=O)c1ccc(-c3c4nc(c(-c5c(F)cccc5F)c5ccc([nH]5)c(-c5c(F)cccc5F)c5nc(c(-c6c(F)cccc6F)c6ccc3[nH]6)C=C5)C=C4)cc1)c(C)n2Cc1ccn(C(F)F)c(=O)c1
REMARK SMILES IDX 14 1 13 2 11 3 12 4 10 6 9 7 3 8 4 9 8 10 5 11 7 12 6 13
REMARK SMILES IDX 77 14 75 15 76 16 2 17 1 18 78 19 79 20 80 21 88 22 81 23
REMARK SMILES IDX 86 24 82 25 87 26 83 27 84 28 85 29 15 30 16 31 17 32 18 33
REMARK SMILES IDX 19 34 20 36 21 37 22 38 74 39 23 40 73 41 24 42 25 43 26 44
REMARK SMILES IDX 67 45 27 46 72 47 66 48 68 49 28 50 71 51 65 52 64 53 29 55
REMARK SMILES IDX 55 56 38 57 54 58 39 59 42 60 53 61 69 62 40 63 41 64 52 66
REMARK SMILES IDX 70 67 43 68 30 69 31 70 36 71 32 72 33 73 35 74 37 75 34 76
REMARK SMILES IDX 56 77 57 78 62 79 58 80 59 81 61 82 63 83 60 84 44 85 45 86
REMARK SMILES IDX 50 87 46 88 47 89 49 90 51 91 48 92
REMARK H PARENT 13 5 18 35 68 54 42 65
REMARK Flexibility Score: inf
ROOT
ATOM      1  C   UNL A   1      38.217  22.339  25.999  1.00  0.00     0.116 C 
ENDROOT
BRANCH   1   2
ATOM      2  N   UNL A   1      37.841  22.469  24.605  1.00  0.00    -0.356 N 
ATOM      3  C   UNL A   1      36.828  23.197  24.047  1.00  0.00     0.224 C 
ATOM      4  O   UNL A   1      36.706  23.173  22.820  1.00  0.00    -0.275 OA
ATOM      5  H   UNL A   1      38.395  21.960  23.969  1.00  0.00     0.163 HD
BRANCH   3   6
ATOM      6  C   UNL A   1      35.933  24.076  24.911  1.00  0.00     0.138 C 
BRANCH   6   7
ATOM      7  C   UNL A   1      34.492  23.664  24.887  1.00  0.00    -0.010 A 
ATOM      8  C   UNL A   1      32.195  25.812  22.733  1.00  0.00     0.119 A 
ATOM      9  C   UNL A   1      31.061  25.022  22.881  1.00  0.00     0.048 A 
ATOM     10  C   UNL A   1      33.403  25.428  23.315  1.00  0.00     0.057 A 
ATOM     11  C   UNL A   1      31.095  23.852  23.654  1.00  0.00     0.031 A 
ATOM     12  C   UNL A   1      33.452  24.278  24.131  1.00  0.00     0.007 A 
ATOM     13  C   UNL A   1      32.298  23.506  24.296  1.00  0.00     0.049 A 
ATOM     14  N   UNL A   1      32.635  22.444  25.127  1.00  0.00    -0.340 N 
ATOM     15  C   UNL A   1      33.908  22.650  25.636  1.00  0.00     0.020 A 
ATOM     16  C   UNL A   1      34.524  21.863  26.740  1.00  0.00     0.065 C 
BRANCH   8  17
ATOM     17  O   UNL A   1      32.217  26.948  21.968  1.00  0.00    -0.497 OA
ATOM     18  C   UNL A   1      31.853  28.114  22.705  1.00  0.00     0.278 C 
ENDBRANCH   8  17
BRANCH  14  19
ATOM     19  C   UNL A   1      31.751  21.316  25.445  1.00  0.00     0.158 C 
BRANCH  19  20
ATOM     20  C   UNL A   1      32.230  19.996  24.873  1.00  0.00    -0.021 A 
ATOM     21  C   UNL A   1      32.812  19.005  25.760  1.00  0.00     0.024 A 
ATOM     22  C   UNL A   1      32.090  19.679  23.573  1.00  0.00     0.077 A 
ATOM     23  C   UNL A   1      33.354  17.882  25.275  1.00  0.00     0.095 A 
ATOM     24  C   UNL A   1      32.600  18.386  23.028  1.00  0.00     0.255 A 
ATOM     25  N   UNL A   1      33.301  17.595  23.927  1.00  0.00    -0.258 N 
ATOM     26  O   UNL A   1      32.386  18.123  21.854  1.00  0.00    -0.269 OA
BRANCH  25  27
ATOM     27  C   UNL A   1      33.894  16.385  23.417  1.00  0.00     0.451 C 
ATOM     28  F   UNL A   1      34.648  16.646  22.322  1.00  0.00    -0.185 F 
ATOM     29  F   UNL A   1      34.697  15.815  24.345  1.00  0.00    -0.185 F 
ENDBRANCH  25  27
ENDBRANCH  19  20
ENDBRANCH  14  19
ENDBRANCH   6   7
ENDBRANCH   3   6
ENDBRANCH   1   2
BRANCH   1  30
ATOM     30  C   UNL A   1      39.055  23.520  26.484  1.00  0.00     0.023 C 
BRANCH  30  31
ATOM     31  C   UNL A   1      40.132  23.162  27.517  1.00  0.00     0.023 C 
BRANCH  31  32
ATOM     32  C   UNL A   1      41.091  22.044  27.094  1.00  0.00     0.116 C 
BRANCH  32  33
ATOM     33  N   UNL A   1      41.886  22.350  25.920  1.00  0.00    -0.352 N 
ATOM     34  C   UNL A   1      42.650  23.421  25.538  1.00  0.00     0.251 C 
ATOM     35  H   UNL A   1      41.875  21.629  25.250  1.00  0.00     0.163 HD
ATOM     36  O   UNL A   1      43.343  23.256  24.529  1.00  0.00    -0.269 OA
BRANCH  34  37
ATOM     37  C   UNL A   1      42.615  24.767  26.174  1.00  0.00     0.039 A 
ATOM     38  C   UNL A   1      43.201  25.084  27.396  1.00  0.00     0.014 A 
ATOM     39  C   UNL A   1      41.809  25.739  25.544  1.00  0.00     0.014 A 
ATOM     40  C   UNL A   1      42.872  26.265  28.043  1.00  0.00     0.010 A 
ATOM     41  C   UNL A   1      41.489  26.935  26.180  1.00  0.00     0.010 A 
ATOM     42  C   UNL A   1      41.979  27.167  27.458  1.00  0.00    -0.014 A 
BRANCH  42  43
ATOM     43  C   UNL A   1      41.679  28.370  28.224  1.00  0.00     0.031 A 
ATOM     44  C   UNL A   1      42.717  29.434  28.124  1.00  0.00     0.074 A 
ATOM     45  C   UNL A   1      40.571  28.552  28.967  1.00  0.00     0.049 A 
ATOM     46  N   UNL A   1      43.512  29.853  29.052  1.00  0.00    -0.248 NA
ATOM     47  C   UNL A   1      42.995  29.996  26.794  1.00  0.00     0.031 C 
ATOM     48  C   UNL A   1      39.349  27.751  29.021  1.00  0.00     0.029 A 
ATOM     49  N   UNL A   1      40.299  29.584  29.814  1.00  0.00    -0.354 N 
ATOM     50  C   UNL A   1      44.298  30.845  28.473  1.00  0.00     0.074 A 
ATOM     51  C   UNL A   1      44.020  30.809  27.060  1.00  0.00     0.031 C 
ATOM     52  C   UNL A   1      38.391  28.447  29.678  1.00  0.00     0.029 A 
ATOM     53  C   UNL A   1      38.974  29.668  30.211  1.00  0.00     0.049 A 
ATOM     54  H   UNL A   1      40.988  30.218  30.120  1.00  0.00     0.167 HD
ATOM     55  C   UNL A   1      44.994  31.738  29.229  1.00  0.00     0.037 A 
ATOM     56  C   UNL A   1      38.401  30.701  30.878  1.00  0.00     0.037 A 
ATOM     57  C   UNL A   1      45.143  31.283  30.586  1.00  0.00     0.049 A 
ATOM     58  C   UNL A   1      39.484  31.461  31.553  1.00  0.00     0.074 A 
ATOM     59  C   UNL A   1      45.761  30.206  31.193  1.00  0.00     0.029 A 
ATOM     60  N   UNL A   1      44.311  31.815  31.539  1.00  0.00    -0.354 N 
ATOM     61  N   UNL A   1      40.152  31.012  32.579  1.00  0.00    -0.248 NA
ATOM     62  C   UNL A   1      40.128  32.536  30.812  1.00  0.00     0.031 C 
ATOM     63  C   UNL A   1      44.906  29.856  32.279  1.00  0.00     0.029 A 
ATOM     64  C   UNL A   1      43.851  30.767  32.293  1.00  0.00     0.049 A 
ATOM     65  H   UNL A   1      44.087  32.766  31.659  1.00  0.00     0.167 HD
ATOM     66  C   UNL A   1      41.458  31.419  32.351  1.00  0.00     0.074 A 
ATOM     67  C   UNL A   1      41.366  32.429  31.299  1.00  0.00     0.031 C 
ATOM     68  C   UNL A   1      42.516  30.703  32.833  1.00  0.00     0.037 A 
BRANCH  55  69
ATOM     69  C   UNL A   1      45.231  33.177  28.847  1.00  0.00     0.057 A 
ATOM     70  C   UNL A   1      46.475  33.678  28.419  1.00  0.00     0.134 A 
ATOM     71  C   UNL A   1      44.126  34.007  28.580  1.00  0.00     0.134 A 
ATOM     72  F   UNL A   1      47.611  32.983  28.552  1.00  0.00    -0.206 F 
ATOM     73  C   UNL A   1      46.606  34.885  27.730  1.00  0.00     0.040 A 
ATOM     74  C   UNL A   1      44.240  35.195  27.848  1.00  0.00     0.040 A 
ATOM     75  F   UNL A   1      42.886  33.645  28.944  1.00  0.00    -0.206 F 
ATOM     76  C   UNL A   1      45.483  35.629  27.406  1.00  0.00     0.006 A 
ENDBRANCH  55  69
BRANCH  56  77
ATOM     77  C   UNL A   1      37.032  31.244  30.731  1.00  0.00     0.057 A 
ATOM     78  C   UNL A   1      36.609  31.843  29.530  1.00  0.00     0.134 A 
ATOM     79  C   UNL A   1      36.201  31.445  31.843  1.00  0.00     0.134 A 
ATOM     80  F   UNL A   1      37.363  31.786  28.423  1.00  0.00    -0.206 F 
ATOM     81  C   UNL A   1      35.441  32.607  29.444  1.00  0.00     0.040 A 
ATOM     82  C   UNL A   1      35.031  32.214  31.771  1.00  0.00     0.040 A 
ATOM     83  F   UNL A   1      36.540  30.954  33.044  1.00  0.00    -0.206 F 
ATOM     84  C   UNL A   1      34.654  32.806  30.570  1.00  0.00     0.006 A 
ENDBRANCH  56  77
BRANCH  68  85
ATOM     85  C   UNL A   1      42.223  29.595  33.804  1.00  0.00     0.057 A 
ATOM     86  C   UNL A   1      42.414  29.821  35.170  1.00  0.00     0.134 A 
ATOM     87  C   UNL A   1      41.886  28.289  33.417  1.00  0.00     0.134 A 
ATOM     88  F   UNL A   1      42.801  31.029  35.610  1.00  0.00    -0.206 F 
ATOM     89  C   UNL A   1      42.256  28.803  36.114  1.00  0.00     0.040 A 
ATOM     90  C   UNL A   1      41.690  27.270  34.353  1.00  0.00     0.040 A 
ATOM     91  F   UNL A   1      41.789  27.952  32.125  1.00  0.00    -0.206 F 
ATOM     92  C   UNL A   1      41.878  27.526  35.708  1.00  0.00     0.006 A 
ENDBRANCH  68  85
ENDBRANCH  42  43
ENDBRANCH  34  37
ENDBRANCH  32  33
ENDBRANCH  31  32
ENDBRANCH  30  31
ENDBRANCH   1  30
TORSDOF 16
ENDMDL
MODEL 3
REMARK VINA RESULT:     -12.1      3.256      5.510
REMARK SMILES COc1ccc2c(c1)c(CC(=O)NCCCCNC(=O)c1ccc(-c3c4nc(c(-c5c(F)cccc5F)c5ccc([nH]5)c(-c5c(F)cccc5F)c5nc(c(-c6c(F)cccc6F)c6ccc3[nH]6)C=C5)C=C4)cc1)c(C)n2Cc1ccn(C(F)F)c(=O)c1
REMARK SMILES IDX 14 1 13 2 11 3 12 4 10 6 9 7 3 8 4 9 8 10 5 11 7 12 6 13
REMARK SMILES IDX 77 14 75 15 76 16 2 17 1 18 78 19 79 20 80 21 88 22 81 23
REMARK SMILES IDX 86 24 82 25 87 26 83 27 84 28 85 29 15 30 16 31 17 32 18 33
REMARK SMILES IDX 19 34 20 36 21 37 22 38 74 39 23 40 73 41 24 42 25 43 26 44
REMARK SMILES IDX 67 45 27 46 72 47 66 48 68 49 28 50 71 51 65 52 64 53 29 55
REMARK SMILES IDX 55 56 38 57 54 58 39 59 42 60 53 61 69 62 40 63 41 64 52 66
REMARK SMILES IDX 70 67 43 68 30 69 31 70 36 71 32 72 33 73 35 74 37 75 34 76
REMARK SMILES IDX 56 77 57 78 62 79 58 80 59 81 61 82 63 83 60 84 44 85 45 86
REMARK SMILES IDX 50 87 46 88 47 89 49 90 51 91 48 92
REMARK H PARENT 13 5 18 35 68 54 42 65
REMARK Flexibility Score: inf
ROOT
ATOM      1  C   UNL A   1      31.361  27.546  26.092  1.00  0.00     0.116 C 
ENDROOT
BRANCH   1   2
ATOM      2  N   UNL A   1      31.051  26.247  26.656  1.00  0.00    -0.356 N 
ATOM      3  C   UNL A   1      31.804  25.107  26.662  1.00  0.00     0.224 C 
ATOM      4  O   UNL A   1      31.340  24.112  27.226  1.00  0.00    -0.275 OA
ATOM      5  H   UNL A   1      30.174  26.178  27.098  1.00  0.00     0.163 HD
BRANCH   3   6
ATOM      6  C   UNL A   1      33.205  25.094  26.066  1.00  0.00     0.138 C 
BRANCH   6   7
ATOM      7  C   UNL A   1      33.494  23.869  25.251  1.00  0.00    -0.010 A 
ATOM      8  C   UNL A   1      37.001  22.426  25.620  1.00  0.00     0.119 A 
ATOM      9  C   UNL A   1      36.783  21.289  24.851  1.00  0.00     0.048 A 
ATOM     10  C   UNL A   1      35.963  23.325  25.860  1.00  0.00     0.057 A 
ATOM     11  C   UNL A   1      35.533  21.047  24.263  1.00  0.00     0.031 A 
ATOM     12  C   UNL A   1      34.708  23.126  25.246  1.00  0.00     0.007 A 
ATOM     13  C   UNL A   1      34.508  21.993  24.452  1.00  0.00     0.049 A 
ATOM     14  N   UNL A   1      33.198  22.047  23.992  1.00  0.00    -0.340 N 
ATOM     15  C   UNL A   1      32.650  23.278  24.319  1.00  0.00     0.020 A 
ATOM     16  C   UNL A   1      31.358  23.804  23.796  1.00  0.00     0.065 C 
BRANCH   8  17
ATOM     17  O   UNL A   1      38.197  22.692  26.235  1.00  0.00    -0.497 OA
ATOM     18  C   UNL A   1      38.365  24.076  26.536  1.00  0.00     0.278 C 
ENDBRANCH   8  17
BRANCH  14  19
ATOM     19  C   UNL A   1      32.531  20.979  23.236  1.00  0.00     0.158 C 
BRANCH  19  20
ATOM     20  C   UNL A   1      32.741  19.600  23.829  1.00  0.00    -0.021 A 
ATOM     21  C   UNL A   1      32.468  19.383  25.239  1.00  0.00     0.024 A 
ATOM     22  C   UNL A   1      33.125  18.546  23.087  1.00  0.00     0.077 A 
ATOM     23  C   UNL A   1      32.756  18.214  25.822  1.00  0.00     0.095 A 
ATOM     24  C   UNL A   1      33.358  17.205  23.703  1.00  0.00     0.255 A 
ATOM     25  N   UNL A   1      33.244  17.155  25.085  1.00  0.00    -0.258 N 
ATOM     26  O   UNL A   1      33.641  16.268  22.971  1.00  0.00    -0.269 OA
BRANCH  25  27
ATOM     27  C   UNL A   1      33.555  15.904  25.728  1.00  0.00     0.451 C 
ATOM     28  F   UNL A   1      32.851  14.890  25.167  1.00  0.00    -0.185 F 
ATOM     29  F   UNL A   1      34.870  15.613  25.601  1.00  0.00    -0.185 F 
ENDBRANCH  25  27
ENDBRANCH  19  20
ENDBRANCH  14  19
ENDBRANCH   6   7
ENDBRANCH   3   6
ENDBRANCH   1   2
BRANCH   1  30
ATOM     30  C   UNL A   1      31.818  28.544  27.154  1.00  0.00     0.023 C 
BRANCH  30  31
ATOM     31  C   UNL A   1      33.334  28.592  27.383  1.00  0.00     0.023 C 
BRANCH  31  32
ATOM     32  C   UNL A   1      34.027  29.862  26.879  1.00  0.00     0.116 C 
BRANCH  32  33
ATOM     33  N   UNL A   1      33.945  30.990  27.788  1.00  0.00    -0.352 N 
ATOM     34  C   UNL A   1      34.833  31.599  28.634  1.00  0.00     0.251 C 
ATOM     35  H   UNL A   1      33.055  31.410  27.798  1.00  0.00     0.163 HD
ATOM     36  O   UNL A   1      34.458  32.666  29.131  1.00  0.00    -0.269 OA
BRANCH  34  37
ATOM     37  C   UNL A   1      36.134  31.020  29.070  1.00  0.00     0.039 A 
ATOM     38  C   UNL A   1      37.377  31.605  28.850  1.00  0.00     0.014 A 
ATOM     39  C   UNL A   1      36.090  29.722  29.623  1.00  0.00     0.014 A 
ATOM     40  C   UNL A   1      38.537  30.866  29.026  1.00  0.00     0.010 A 
ATOM     41  C   UNL A   1      37.252  28.982  29.818  1.00  0.00     0.010 A 
ATOM     42  C   UNL A   1      38.472  29.540  29.462  1.00  0.00    -0.014 A 
BRANCH  42  43
ATOM     43  C   UNL A   1      39.743  28.840  29.595  1.00  0.00     0.031 A 
ATOM     44  C   UNL A   1      40.250  28.754  30.993  1.00  0.00     0.074 A 
ATOM     45  C   UNL A   1      40.432  28.295  28.575  1.00  0.00     0.049 A 
ATOM     46  N   UNL A   1      41.288  29.337  31.495  1.00  0.00    -0.248 NA
ATOM     47  C   UNL A   1      39.422  28.046  31.980  1.00  0.00     0.031 C 
ATOM     48  C   UNL A   1      40.016  28.071  27.191  1.00  0.00     0.029 A 
ATOM     49  N   UNL A   1      41.684  27.758  28.610  1.00  0.00    -0.354 N 
ATOM     50  C   UNL A   1      41.341  28.955  32.833  1.00  0.00     0.074 A 
ATOM     51  C   UNL A   1      40.109  28.259  33.105  1.00  0.00     0.031 C 
ATOM     52  C   UNL A   1      40.906  27.247  26.588  1.00  0.00     0.029 A 
ATOM     53  C   UNL A   1      42.019  27.008  27.494  1.00  0.00     0.049 A 
ATOM     54  H   UNL A   1      42.300  27.892  29.366  1.00  0.00     0.167 HD
ATOM     55  C   UNL A   1      42.476  29.093  33.571  1.00  0.00     0.037 A 
ATOM     56  C   UNL A   1      43.107  26.209  27.363  1.00  0.00     0.037 A 
ATOM     57  C   UNL A   1      43.400  30.012  32.960  1.00  0.00     0.049 A 
ATOM     58  C   UNL A   1      44.118  26.652  28.357  1.00  0.00     0.074 A 
ATOM     59  C   UNL A   1      43.375  31.358  32.647  1.00  0.00     0.029 A 
ATOM     60  N   UNL A   1      44.460  29.492  32.262  1.00  0.00    -0.354 N 
ATOM     61  N   UNL A   1      44.780  27.771  28.267  1.00  0.00    -0.248 NA
ATOM     62  C   UNL A   1      44.071  26.061  29.687  1.00  0.00     0.031 C 
ATOM     63  C   UNL A   1      44.086  31.463  31.416  1.00  0.00     0.029 A 
ATOM     64  C   UNL A   1      44.538  30.187  31.083  1.00  0.00     0.049 A 
ATOM     65  H   UNL A   1      45.052  28.760  32.551  1.00  0.00     0.167 HD
ATOM     66  C   UNL A   1      44.845  28.246  29.568  1.00  0.00     0.074 A 
ATOM     67  C   UNL A   1      44.473  27.110  30.409  1.00  0.00     0.031 C 
ATOM     68  C   UNL A   1      44.918  29.584  29.829  1.00  0.00     0.037 A 
BRANCH  55  69
ATOM     69  C   UNL A   1      42.911  28.137  34.653  1.00  0.00     0.057 A 
ATOM     70  C   UNL A   1      42.674  28.348  36.025  1.00  0.00     0.134 A 
ATOM     71  C   UNL A   1      43.279  26.824  34.302  1.00  0.00     0.134 A 
ATOM     72  F   UNL A   1      42.265  29.527  36.507  1.00  0.00    -0.206 F 
ATOM     73  C   UNL A   1      42.741  27.322  36.969  1.00  0.00     0.040 A 
ATOM     74  C   UNL A   1      43.302  25.779  35.232  1.00  0.00     0.040 A 
ATOM     75  F   UNL A   1      43.538  26.497  33.026  1.00  0.00    -0.206 F 
ATOM     76  C   UNL A   1      43.017  26.024  36.569  1.00  0.00     0.006 A 
ENDBRANCH  55  69
BRANCH  56  77
ATOM     77  C   UNL A   1      43.218  24.916  26.650  1.00  0.00     0.057 A 
ATOM     78  C   UNL A   1      43.891  24.816  25.420  1.00  0.00     0.134 A 
ATOM     79  C   UNL A   1      42.431  23.812  27.011  1.00  0.00     0.134 A 
ATOM     80  F   UNL A   1      44.606  25.842  24.935  1.00  0.00    -0.206 F 
ATOM     81  C   UNL A   1      43.779  23.695  24.591  1.00  0.00     0.040 A 
ATOM     82  C   UNL A   1      42.305  22.685  26.186  1.00  0.00     0.040 A 
ATOM     83  F   UNL A   1      41.713  23.827  28.143  1.00  0.00    -0.206 F 
ATOM     84  C   UNL A   1      42.972  22.630  24.967  1.00  0.00     0.006 A 
ENDBRANCH  56  77
BRANCH  68  85
ATOM     85  C   UNL A   1      45.155  30.509  28.670  1.00  0.00     0.057 A 
ATOM     86  C   UNL A   1      44.060  30.963  27.928  1.00  0.00     0.134 A 
ATOM     87  C   UNL A   1      46.429  30.852  28.195  1.00  0.00     0.134 A 
ATOM     88  F   UNL A   1      42.811  30.620  28.284  1.00  0.00    -0.206 F 
ATOM     89  C   UNL A   1      44.221  31.743  26.781  1.00  0.00     0.040 A 
ATOM     90  C   UNL A   1      46.604  31.661  27.069  1.00  0.00     0.040 A 
ATOM     91  F   UNL A   1      47.537  30.373  28.776  1.00  0.00    -0.206 F 
ATOM     92  C   UNL A   1      45.496  32.107  26.355  1.00  0.00     0.006 A 
ENDBRANCH  68  85
ENDBRANCH  42  43
ENDBRANCH  34  37
ENDBRANCH  32  33
ENDBRANCH  31  32
ENDBRANCH  30  31
ENDBRANCH   1  30
TORSDOF 16
ENDMDL
