MODEL 1
REMARK VINA RESULT:     -12.4      0.000      0.000
REMARK SMILES Cc1ccc(Nc2c(C)cccc2Cl)c(CC(=O)NCCCCNC(=O)c2ccc(-c3c4nc(c(-c5c(F)cccc5F)c5ccc([nH]5)c(-c5c(F)cccc5F)c5nc(c(-c6c(F)cccc6F)c6ccc3[nH]6)C=C5)C=C4)cc2)c1
REMARK SMILES IDX 21 1 20 2 19 3 17 4 18 5 16 7 15 8 1 9 2 10 3 11 81 12 4 13
REMARK SMILES IDX 5 14 6 15 7 17 8 18 13 19 9 20 10 21 12 22 14 23 11 24 22 25
REMARK SMILES IDX 23 26 24 27 25 28 26 30 27 31 28 32 80 33 29 34 79 35 30 36
REMARK SMILES IDX 31 37 32 38 73 39 33 40 78 41 72 42 74 43 34 44 77 45 71 46
REMARK SMILES IDX 70 47 35 49 61 50 44 51 60 52 45 53 48 54 59 55 75 56 46 57
REMARK SMILES IDX 47 58 58 60 76 61 49 62 36 63 37 64 42 65 38 66 39 67 41 68
REMARK SMILES IDX 43 69 40 70 62 71 63 72 68 73 64 74 65 75 67 76 69 77 66 78
REMARK SMILES IDX 50 79 51 80 56 81 52 82 53 83 55 84 57 85 54 86
REMARK H PARENT 19 6 6 16 24 29 74 48 48 59
REMARK Flexibility Score: inf
ROOT
ATOM      1  C   UNL A   1      32.268  30.412  26.127  1.00  0.00     0.023 C 
ENDROOT
BRANCH   1   2
ATOM      2  C   UNL A   1      32.873  29.039  25.792  1.00  0.00     0.116 C 
BRANCH   2   3
ATOM      3  N   UNL A   1      32.099  27.921  26.302  1.00  0.00    -0.356 N 
ATOM      4  C   UNL A   1      32.383  26.588  26.307  1.00  0.00     0.224 C 
ATOM      5  O   UNL A   1      31.517  25.808  26.715  1.00  0.00    -0.275 OA
ATOM      6  H   UNL A   1      31.234  28.163  26.705  1.00  0.00     0.163 HD
BRANCH   4   7
ATOM      7  C   UNL A   1      33.717  26.059  25.811  1.00  0.00     0.137 C 
BRANCH   7   8
ATOM      8  C   UNL A   1      33.621  25.316  24.498  1.00  0.00    -0.015 A 
ATOM      9  C   UNL A   1      32.109  26.074  21.068  1.00  0.00     0.044 C 
ATOM     10  C   UNL A   1      32.797  25.359  22.193  1.00  0.00    -0.051 A 
ATOM     11  C   UNL A   1      33.137  24.015  22.066  1.00  0.00     0.005 A 
ATOM     12  C   UNL A   1      33.068  26.009  23.398  1.00  0.00     0.009 A 
ATOM     13  C   UNL A   1      33.739  23.334  23.129  1.00  0.00     0.026 A 
ATOM     14  C   UNL A   1      33.992  23.960  24.361  1.00  0.00     0.042 A 
BRANCH  14  15
ATOM     15  N   UNL A   1      34.635  23.266  25.411  1.00  0.00    -0.354 N 
ATOM     16  H   UNL A   1      34.374  23.539  26.320  1.00  0.00     0.167 HD
BRANCH  15  17
ATOM     17  C   UNL A   1      35.604  22.233  25.341  1.00  0.00     0.060 A 
ATOM     18  C   UNL A   1      36.990  22.502  25.361  1.00  0.00    -0.026 A 
ATOM     19  C   UNL A   1      35.181  20.895  25.170  1.00  0.00     0.064 A 
ATOM     20  C   UNL A   1      37.549  23.879  25.602  1.00  0.00     0.046 C 
ATOM     21  C   UNL A   1      37.903  21.452  25.153  1.00  0.00     0.005 A 
ATOM     22  C   UNL A   1      36.102  19.861  24.990  1.00  0.00     0.023 A 
ATOM     23  Cl  UNL A   1      33.497  20.488  25.139  1.00  0.00    -0.082 Cl
ATOM     24  C   UNL A   1      37.464  20.142  24.969  1.00  0.00     0.002 A 
ENDBRANCH  15  17
ENDBRANCH  14  15
ENDBRANCH   7   8
ENDBRANCH   4   7
ENDBRANCH   2   3
ENDBRANCH   1   2
BRANCH   1  25
ATOM     25  C   UNL A   1      32.905  31.155  27.302  1.00  0.00     0.023 C 
BRANCH  25  26
ATOM     26  C   UNL A   1      34.366  30.807  27.529  1.00  0.00     0.116 C 
BRANCH  26  27
ATOM     27  N   UNL A   1      35.004  31.540  28.617  1.00  0.00    -0.352 N 
ATOM     28  C   UNL A   1      36.061  31.162  29.430  1.00  0.00     0.251 C 
ATOM     29  H   UNL A   1      34.628  32.432  28.801  1.00  0.00     0.163 HD
ATOM     30  O   UNL A   1      36.435  31.891  30.335  1.00  0.00    -0.269 OA
BRANCH  28  31
ATOM     31  C   UNL A   1      36.834  29.936  29.095  1.00  0.00     0.039 A 
ATOM     32  C   UNL A   1      37.013  28.993  30.115  1.00  0.00     0.014 A 
ATOM     33  C   UNL A   1      37.568  29.840  27.917  1.00  0.00     0.014 A 
ATOM     34  C   UNL A   1      38.122  28.155  30.075  1.00  0.00     0.010 A 
ATOM     35  C   UNL A   1      38.724  29.083  27.920  1.00  0.00     0.010 A 
ATOM     36  C   UNL A   1      39.045  28.315  29.043  1.00  0.00    -0.014 A 
BRANCH  36  37
ATOM     37  C   UNL A   1      40.430  27.872  29.147  1.00  0.00     0.031 A 
ATOM     38  C   UNL A   1      40.840  26.540  28.666  1.00  0.00     0.074 A 
ATOM     39  C   UNL A   1      41.362  28.738  29.611  1.00  0.00     0.049 A 
ATOM     40  N   UNL A   1      41.985  26.010  28.931  1.00  0.00    -0.248 NA
ATOM     41  C   UNL A   1      39.960  25.655  27.905  1.00  0.00     0.031 C 
ATOM     42  C   UNL A   1      42.817  28.627  29.520  1.00  0.00     0.029 A 
ATOM     43  N   UNL A   1      41.155  29.797  30.511  1.00  0.00    -0.354 N 
ATOM     44  C   UNL A   1      42.113  24.893  28.150  1.00  0.00     0.074 A 
ATOM     45  C   UNL A   1      40.789  24.636  27.644  1.00  0.00     0.031 C 
ATOM     46  C   UNL A   1      43.366  29.326  30.525  1.00  0.00     0.029 A 
ATOM     47  C   UNL A   1      42.280  29.782  31.372  1.00  0.00     0.049 A 
ATOM     48  H   UNL A   1      40.391  30.416  30.537  1.00  0.00     0.167 HD
ATOM     49  C   UNL A   1      43.359  24.396  27.923  1.00  0.00     0.037 A 
ATOM     50  C   UNL A   1      42.137  29.481  32.695  1.00  0.00     0.037 A 
ATOM     51  C   UNL A   1      44.323  24.906  28.898  1.00  0.00     0.049 A 
ATOM     52  C   UNL A   1      42.877  28.237  33.152  1.00  0.00     0.074 A 
ATOM     53  C   UNL A   1      45.408  25.763  28.878  1.00  0.00     0.029 A 
ATOM     54  N   UNL A   1      44.065  24.656  30.237  1.00  0.00    -0.354 N 
ATOM     55  N   UNL A   1      43.591  27.468  32.375  1.00  0.00    -0.248 NA
ATOM     56  C   UNL A   1      42.782  27.712  34.516  1.00  0.00     0.031 C 
ATOM     57  C   UNL A   1      45.743  26.081  30.234  1.00  0.00     0.029 A 
ATOM     58  C   UNL A   1      44.886  25.387  31.070  1.00  0.00     0.049 A 
ATOM     59  H   UNL A   1      43.376  24.031  30.556  1.00  0.00     0.167 HD
ATOM     60  C   UNL A   1      43.977  26.354  33.073  1.00  0.00     0.074 A 
ATOM     61  C   UNL A   1      43.455  26.555  34.411  1.00  0.00     0.031 C 
ATOM     62  C   UNL A   1      44.649  25.313  32.503  1.00  0.00     0.037 A 
BRANCH  49  63
ATOM     63  C   UNL A   1      43.726  23.521  26.748  1.00  0.00     0.057 A 
ATOM     64  C   UNL A   1      43.450  22.141  26.774  1.00  0.00     0.134 A 
ATOM     65  C   UNL A   1      44.464  23.944  25.621  1.00  0.00     0.134 A 
ATOM     66  F   UNL A   1      42.789  21.582  27.798  1.00  0.00    -0.206 F 
ATOM     67  C   UNL A   1      43.863  21.263  25.760  1.00  0.00     0.040 A 
ATOM     68  C   UNL A   1      44.832  23.088  24.576  1.00  0.00     0.040 A 
ATOM     69  F   UNL A   1      44.932  25.191  25.497  1.00  0.00    -0.206 F 
ATOM     70  C   UNL A   1      44.543  21.737  24.648  1.00  0.00     0.006 A 
ENDBRANCH  49  63
BRANCH  50  71
ATOM     71  C   UNL A   1      40.853  29.968  33.264  1.00  0.00     0.057 A 
ATOM     72  C   UNL A   1      40.718  31.338  33.554  1.00  0.00     0.134 A 
ATOM     73  C   UNL A   1      39.678  29.215  33.198  1.00  0.00     0.134 A 
ATOM     74  F   UNL A   1      41.806  32.122  33.631  1.00  0.00    -0.206 F 
ATOM     75  C   UNL A   1      39.468  31.953  33.656  1.00  0.00     0.040 A 
ATOM     76  C   UNL A   1      38.420  29.816  33.318  1.00  0.00     0.040 A 
ATOM     77  F   UNL A   1      39.719  27.908  32.899  1.00  0.00    -0.206 F 
ATOM     78  C   UNL A   1      38.313  31.194  33.507  1.00  0.00     0.006 A 
ENDBRANCH  50  71
BRANCH  62  79
ATOM     79  C   UNL A   1      45.089  24.107  33.284  1.00  0.00     0.057 A 
ATOM     80  C   UNL A   1      44.257  22.995  33.475  1.00  0.00     0.134 A 
ATOM     81  C   UNL A   1      46.324  24.072  33.961  1.00  0.00     0.134 A 
ATOM     82  F   UNL A   1      43.037  22.944  32.921  1.00  0.00    -0.206 F 
ATOM     83  C   UNL A   1      44.643  21.899  34.258  1.00  0.00     0.040 A 
ATOM     84  C   UNL A   1      46.701  23.004  34.782  1.00  0.00     0.040 A 
ATOM     85  F   UNL A   1      47.224  25.057  33.832  1.00  0.00    -0.206 F 
ATOM     86  C   UNL A   1      45.863  21.907  34.925  1.00  0.00     0.006 A 
ENDBRANCH  62  79
ENDBRANCH  36  37
ENDBRANCH  28  31
ENDBRANCH  26  27
ENDBRANCH  25  26
ENDBRANCH   1  25
TORSDOF 14
ENDMDL
MODEL 2
REMARK VINA RESULT:     -12.3      3.911      9.360
REMARK SMILES Cc1ccc(Nc2c(C)cccc2Cl)c(CC(=O)NCCCCNC(=O)c2ccc(-c3c4nc(c(-c5c(F)cccc5F)c5ccc([nH]5)c(-c5c(F)cccc5F)c5nc(c(-c6c(F)cccc6F)c6ccc3[nH]6)C=C5)C=C4)cc2)c1
REMARK SMILES IDX 21 1 20 2 19 3 17 4 18 5 16 7 15 8 1 9 2 10 3 11 81 12 4 13
REMARK SMILES IDX 5 14 6 15 7 17 8 18 13 19 9 20 10 21 12 22 14 23 11 24 22 25
REMARK SMILES IDX 23 26 24 27 25 28 26 30 27 31 28 32 80 33 29 34 79 35 30 36
REMARK SMILES IDX 31 37 32 38 73 39 33 40 78 41 72 42 74 43 34 44 77 45 71 46
REMARK SMILES IDX 70 47 35 49 61 50 44 51 60 52 45 53 48 54 59 55 75 56 46 57
REMARK SMILES IDX 47 58 58 60 76 61 49 62 36 63 37 64 42 65 38 66 39 67 41 68
REMARK SMILES IDX 43 69 40 70 62 71 63 72 68 73 64 74 65 75 67 76 69 77 66 78
REMARK SMILES IDX 50 79 51 80 56 81 52 82 53 83 55 84 57 85 54 86
REMARK H PARENT 19 6 6 16 24 29 74 48 48 59
REMARK Flexibility Score: inf
ROOT
ATOM      1  C   UNL A   1      37.340  23.598  26.019  1.00  0.00     0.023 C 
ENDROOT
BRANCH   1   2
ATOM      2  C   UNL A   1      35.953  22.994  25.749  1.00  0.00     0.116 C 
BRANCH   2   3
ATOM      3  N   UNL A   1      35.422  23.317  24.436  1.00  0.00    -0.356 N 
ATOM      4  C   UNL A   1      34.677  24.385  24.031  1.00  0.00     0.224 C 
ATOM      5  O   UNL A   1      34.256  24.396  22.870  1.00  0.00    -0.275 OA
ATOM      6  H   UNL A   1      35.633  22.666  23.729  1.00  0.00     0.163 HD
BRANCH   4   7
ATOM      7  C   UNL A   1      34.347  25.527  24.976  1.00  0.00     0.137 C 
BRANCH   7   8
ATOM      8  C   UNL A   1      32.907  25.534  25.436  1.00  0.00    -0.015 A 
ATOM      9  C   UNL A   1      30.437  22.870  26.627  1.00  0.00     0.044 C 
ATOM     10  C   UNL A   1      31.016  24.191  26.218  1.00  0.00    -0.051 A 
ATOM     11  C   UNL A   1      30.194  25.307  26.088  1.00  0.00     0.005 A 
ATOM     12  C   UNL A   1      32.374  24.319  25.920  1.00  0.00     0.009 A 
ATOM     13  C   UNL A   1      30.724  26.530  25.665  1.00  0.00     0.026 A 
ATOM     14  C   UNL A   1      32.080  26.674  25.329  1.00  0.00     0.042 A 
BRANCH  14  15
ATOM     15  N   UNL A   1      32.604  27.928  24.940  1.00  0.00    -0.354 N 
ATOM     16  H   UNL A   1      33.182  27.915  24.144  1.00  0.00     0.167 HD
BRANCH  15  17
ATOM     17  C   UNL A   1      32.417  29.201  25.535  1.00  0.00     0.060 A 
ATOM     18  C   UNL A   1      33.223  29.658  26.601  1.00  0.00    -0.026 A 
ATOM     19  C   UNL A   1      31.344  30.016  25.107  1.00  0.00     0.064 A 
ATOM     20  C   UNL A   1      34.429  28.901  27.092  1.00  0.00     0.046 C 
ATOM     21  C   UNL A   1      32.906  30.870  27.239  1.00  0.00     0.005 A 
ATOM     22  C   UNL A   1      31.058  31.229  25.736  1.00  0.00     0.023 A 
ATOM     23  Cl  UNL A   1      30.313  29.523  23.803  1.00  0.00    -0.082 Cl
ATOM     24  C   UNL A   1      31.833  31.650  26.812  1.00  0.00     0.002 A 
ENDBRANCH  15  17
ENDBRANCH  14  15
ENDBRANCH   7   8
ENDBRANCH   4   7
ENDBRANCH   2   3
ENDBRANCH   1   2
BRANCH   1  25
ATOM     25  C   UNL A   1      38.536  22.734  25.614  1.00  0.00     0.023 C 
BRANCH  25  26
ATOM     26  C   UNL A   1      39.502  22.451  26.751  1.00  0.00     0.116 C 
BRANCH  26  27
ATOM     27  N   UNL A   1      40.880  22.852  26.493  1.00  0.00    -0.352 N 
ATOM     28  C   UNL A   1      41.431  24.123  26.444  1.00  0.00     0.251 C 
ATOM     29  H   UNL A   1      41.510  22.113  26.329  1.00  0.00     0.163 HD
ATOM     30  O   UNL A   1      42.609  24.275  26.160  1.00  0.00    -0.269 OA
BRANCH  28  31
ATOM     31  C   UNL A   1      40.618  25.286  26.890  1.00  0.00     0.039 A 
ATOM     32  C   UNL A   1      40.741  26.472  26.156  1.00  0.00     0.014 A 
ATOM     33  C   UNL A   1      39.970  25.289  28.120  1.00  0.00     0.014 A 
ATOM     34  C   UNL A   1      40.488  27.687  26.784  1.00  0.00     0.010 A 
ATOM     35  C   UNL A   1      39.814  26.493  28.781  1.00  0.00     0.010 A 
ATOM     36  C   UNL A   1      40.167  27.685  28.140  1.00  0.00    -0.014 A 
BRANCH  36  37
ATOM     37  C   UNL A   1      40.358  28.847  28.999  1.00  0.00     0.031 A 
ATOM     38  C   UNL A   1      39.318  29.885  29.115  1.00  0.00     0.074 A 
ATOM     39  C   UNL A   1      41.472  28.918  29.766  1.00  0.00     0.049 A 
ATOM     40  N   UNL A   1      39.518  31.031  29.673  1.00  0.00    -0.248 NA
ATOM     41  C   UNL A   1      37.981  29.751  28.541  1.00  0.00     0.031 C 
ATOM     42  C   UNL A   1      41.728  29.807  30.898  1.00  0.00     0.029 A 
ATOM     43  N   UNL A   1      42.725  28.347  29.488  1.00  0.00    -0.354 N 
ATOM     44  C   UNL A   1      38.300  31.642  29.806  1.00  0.00     0.074 A 
ATOM     45  C   UNL A   1      37.406  30.882  28.969  1.00  0.00     0.031 C 
ATOM     46  C   UNL A   1      43.054  29.974  31.022  1.00  0.00     0.029 A 
ATOM     47  C   UNL A   1      43.676  29.318  29.888  1.00  0.00     0.049 A 
ATOM     48  H   UNL A   1      42.903  27.462  29.099  1.00  0.00     0.167 HD
ATOM     49  C   UNL A   1      38.169  32.644  30.717  1.00  0.00     0.037 A 
ATOM     50  C   UNL A   1      44.470  29.933  28.965  1.00  0.00     0.037 A 
ATOM     51  C   UNL A   1      39.472  33.179  31.112  1.00  0.00     0.049 A 
ATOM     52  C   UNL A   1      44.287  31.436  28.862  1.00  0.00     0.074 A 
ATOM     53  C   UNL A   1      40.253  33.170  32.254  1.00  0.00     0.029 A 
ATOM     54  N   UNL A   1      40.278  33.695  30.109  1.00  0.00    -0.354 N 
ATOM     55  N   UNL A   1      43.435  32.132  29.564  1.00  0.00    -0.248 NA
ATOM     56  C   UNL A   1      44.994  32.257  27.876  1.00  0.00     0.031 C 
ATOM     57  C   UNL A   1      41.565  33.620  31.893  1.00  0.00     0.029 A 
ATOM     58  C   UNL A   1      41.564  33.935  30.546  1.00  0.00     0.049 A 
ATOM     59  H   UNL A   1      39.969  33.870  29.191  1.00  0.00     0.167 HD
ATOM     60  C   UNL A   1      43.416  33.422  29.103  1.00  0.00     0.074 A 
ATOM     61  C   UNL A   1      44.415  33.455  28.053  1.00  0.00     0.031 C 
ATOM     62  C   UNL A   1      42.550  34.368  29.569  1.00  0.00     0.037 A 
BRANCH  49  63
ATOM     63  C   UNL A   1      36.857  33.074  31.329  1.00  0.00     0.057 A 
ATOM     64  C   UNL A   1      36.513  32.668  32.633  1.00  0.00     0.134 A 
ATOM     65  C   UNL A   1      35.836  33.772  30.650  1.00  0.00     0.134 A 
ATOM     66  F   UNL A   1      37.365  31.963  33.391  1.00  0.00    -0.206 F 
ATOM     67  C   UNL A   1      35.265  32.947  33.211  1.00  0.00     0.040 A 
ATOM     68  C   UNL A   1      34.609  34.106  31.236  1.00  0.00     0.040 A 
ATOM     69  F   UNL A   1      35.935  34.114  29.360  1.00  0.00    -0.206 F 
ATOM     70  C   UNL A   1      34.313  33.682  32.520  1.00  0.00     0.006 A 
ENDBRANCH  49  63
BRANCH  50  71
ATOM     71  C   UNL A   1      44.845  29.038  27.837  1.00  0.00     0.057 A 
ATOM     72  C   UNL A   1      45.856  28.081  28.041  1.00  0.00     0.134 A 
ATOM     73  C   UNL A   1      44.023  28.866  26.721  1.00  0.00     0.134 A 
ATOM     74  F   UNL A   1      46.682  28.184  29.096  1.00  0.00    -0.206 F 
ATOM     75  C   UNL A   1      45.968  26.943  27.240  1.00  0.00     0.040 A 
ATOM     76  C   UNL A   1      44.138  27.739  25.899  1.00  0.00     0.040 A 
ATOM     77  F   UNL A   1      43.019  29.720  26.473  1.00  0.00    -0.206 F 
ATOM     78  C   UNL A   1      45.085  26.755  26.182  1.00  0.00     0.006 A 
ENDBRANCH  50  71
BRANCH  62  79
ATOM     79  C   UNL A   1      42.557  35.786  29.074  1.00  0.00     0.057 A 
ATOM     80  C   UNL A   1      41.777  36.202  27.985  1.00  0.00     0.134 A 
ATOM     81  C   UNL A   1      43.429  36.755  29.608  1.00  0.00     0.134 A 
ATOM     82  F   UNL A   1      40.950  35.349  27.364  1.00  0.00    -0.206 F 
ATOM     83  C   UNL A   1      41.832  37.509  27.483  1.00  0.00     0.040 A 
ATOM     84  C   UNL A   1      43.526  38.049  29.086  1.00  0.00     0.040 A 
ATOM     85  F   UNL A   1      44.200  36.494  30.673  1.00  0.00    -0.206 F 
ATOM     86  C   UNL A   1      42.718  38.433  28.026  1.00  0.00     0.006 A 
ENDBRANCH  62  79
ENDBRANCH  36  37
ENDBRANCH  28  31
ENDBRANCH  26  27
ENDBRANCH  25  26
ENDBRANCH   1  25
TORSDOF 14
ENDMDL
MODEL 3
REMARK VINA RESULT:     -12.2      3.919      9.242
REMARK SMILES Cc1ccc(Nc2c(C)cccc2Cl)c(CC(=O)NCCCCNC(=O)c2ccc(-c3c4nc(c(-c5c(F)cccc5F)c5ccc([nH]5)c(-c5c(F)cccc5F)c5nc(c(-c6c(F)cccc6F)c6ccc3[nH]6)C=C5)C=C4)cc2)c1
REMARK SMILES IDX 21 1 20 2 19 3 17 4 18 5 16 7 15 8 1 9 2 10 3 11 81 12 4 13
REMARK SMILES IDX 5 14 6 15 7 17 8 18 13 19 9 20 10 21 12 22 14 23 11 24 22 25
REMARK SMILES IDX 23 26 24 27 25 28 26 30 27 31 28 32 80 33 29 34 79 35 30 36
REMARK SMILES IDX 31 37 32 38 73 39 33 40 78 41 72 42 74 43 34 44 77 45 71 46
REMARK SMILES IDX 70 47 35 49 61 50 44 51 60 52 45 53 48 54 59 55 75 56 46 57
REMARK SMILES IDX 47 58 58 60 76 61 49 62 36 63 37 64 42 65 38 66 39 67 41 68
REMARK SMILES IDX 43 69 40 70 62 71 63 72 68 73 64 74 65 75 67 76 69 77 66 78
REMARK SMILES IDX 50 79 51 80 56 81 52 82 53 83 55 84 57 85 54 86
REMARK H PARENT 19 6 6 16 24 29 74 48 48 59
REMARK Flexibility Score: inf
ROOT
ATOM      1  C   UNL A   1      37.483  21.487  24.766  1.00  0.00     0.023 C 
ENDROOT
BRANCH   1   2
ATOM      2  C   UNL A   1      36.208  20.926  25.417  1.00  0.00     0.116 C 
BRANCH   2   3
ATOM      3  N   UNL A   1      35.606  21.824  26.387  1.00  0.00    -0.356 N 
ATOM      4  C   UNL A   1      34.347  21.831  26.910  1.00  0.00     0.224 C 
ATOM      5  O   UNL A   1      34.032  22.763  27.658  1.00  0.00    -0.275 OA
ATOM      6  H   UNL A   1      36.198  22.537  26.717  1.00  0.00     0.163 HD
BRANCH   4   7
ATOM      7  C   UNL A   1      33.343  20.742  26.579  1.00  0.00     0.137 C 
BRANCH   7   8
ATOM      8  C   UNL A   1      32.842  20.797  25.153  1.00  0.00    -0.015 A 
ATOM      9  C   UNL A   1      32.290  18.220  22.382  1.00  0.00     0.044 C 
ATOM     10  C   UNL A   1      32.364  19.525  23.117  1.00  0.00    -0.051 A 
ATOM     11  C   UNL A   1      32.168  20.725  22.437  1.00  0.00     0.005 A 
ATOM     12  C   UNL A   1      32.670  19.568  24.478  1.00  0.00     0.009 A 
ATOM     13  C   UNL A   1      32.279  21.945  23.110  1.00  0.00     0.026 A 
ATOM     14  C   UNL A   1      32.618  22.013  24.472  1.00  0.00     0.042 A 
BRANCH  14  15
ATOM     15  N   UNL A   1      32.688  23.255  25.143  1.00  0.00    -0.354 N 
ATOM     16  H   UNL A   1      33.424  23.344  25.790  1.00  0.00     0.167 HD
BRANCH  15  17
ATOM     17  C   UNL A   1      31.847  24.389  25.019  1.00  0.00     0.060 A 
ATOM     18  C   UNL A   1      32.175  25.478  24.181  1.00  0.00    -0.026 A 
ATOM     19  C   UNL A   1      30.679  24.478  25.809  1.00  0.00     0.064 A 
ATOM     20  C   UNL A   1      33.358  25.463  23.251  1.00  0.00     0.046 C 
ATOM     21  C   UNL A   1      31.372  26.633  24.200  1.00  0.00     0.005 A 
ATOM     22  C   UNL A   1      29.879  25.622  25.797  1.00  0.00     0.023 A 
ATOM     23  Cl  UNL A   1      30.210  23.180  26.858  1.00  0.00    -0.082 Cl
ATOM     24  C   UNL A   1      30.234  26.706  25.001  1.00  0.00     0.002 A 
ENDBRANCH  15  17
ENDBRANCH  14  15
ENDBRANCH   7   8
ENDBRANCH   4   7
ENDBRANCH   2   3
ENDBRANCH   1   2
BRANCH   1  25
ATOM     25  C   UNL A   1      38.748  21.439  25.622  1.00  0.00     0.023 C 
BRANCH  25  26
ATOM     26  C   UNL A   1      39.106  22.768  26.265  1.00  0.00     0.116 C 
BRANCH  26  27
ATOM     27  N   UNL A   1      40.535  22.978  26.473  1.00  0.00    -0.352 N 
ATOM     28  C   UNL A   1      41.217  24.147  26.772  1.00  0.00     0.251 C 
ATOM     29  H   UNL A   1      41.095  22.173  26.389  1.00  0.00     0.163 HD
ATOM     30  O   UNL A   1      42.434  24.145  26.863  1.00  0.00    -0.269 OA
BRANCH  28  31
ATOM     31  C   UNL A   1      40.446  25.366  27.134  1.00  0.00     0.039 A 
ATOM     32  C   UNL A   1      40.669  26.516  26.366  1.00  0.00     0.014 A 
ATOM     33  C   UNL A   1      39.737  25.450  28.327  1.00  0.00     0.014 A 
ATOM     34  C   UNL A   1      40.450  27.765  26.936  1.00  0.00     0.010 A 
ATOM     35  C   UNL A   1      39.613  26.685  28.936  1.00  0.00     0.010 A 
ATOM     36  C   UNL A   1      40.062  27.831  28.273  1.00  0.00    -0.014 A 
BRANCH  36  37
ATOM     37  C   UNL A   1      40.272  29.014  29.099  1.00  0.00     0.031 A 
ATOM     38  C   UNL A   1      39.244  30.067  29.193  1.00  0.00     0.074 A 
ATOM     39  C   UNL A   1      41.392  29.093  29.856  1.00  0.00     0.049 A 
ATOM     40  N   UNL A   1      39.460  31.225  29.719  1.00  0.00    -0.248 NA
ATOM     41  C   UNL A   1      37.901  29.932  28.632  1.00  0.00     0.031 C 
ATOM     42  C   UNL A   1      41.665  30.010  30.962  1.00  0.00     0.029 A 
ATOM     43  N   UNL A   1      42.636  28.501  29.586  1.00  0.00    -0.354 N 
ATOM     44  C   UNL A   1      38.249  31.852  29.844  1.00  0.00     0.074 A 
ATOM     45  C   UNL A   1      37.342  31.080  29.033  1.00  0.00     0.031 C 
ATOM     46  C   UNL A   1      42.993  30.165  31.073  1.00  0.00     0.029 A 
ATOM     47  C   UNL A   1      43.600  29.472  29.953  1.00  0.00     0.049 A 
ATOM     48  H   UNL A   1      42.802  27.604  29.219  1.00  0.00     0.167 HD
ATOM     49  C   UNL A   1      38.136  32.880  30.728  1.00  0.00     0.037 A 
ATOM     50  C   UNL A   1      44.395  30.053  29.008  1.00  0.00     0.037 A 
ATOM     51  C   UNL A   1      39.448  33.411  31.100  1.00  0.00     0.049 A 
ATOM     52  C   UNL A   1      44.227  31.554  28.866  1.00  0.00     0.074 A 
ATOM     53  C   UNL A   1      40.236  33.424  32.236  1.00  0.00     0.029 A 
ATOM     54  N   UNL A   1      40.252  33.891  30.078  1.00  0.00    -0.354 N 
ATOM     55  N   UNL A   1      43.388  32.278  29.554  1.00  0.00    -0.248 NA
ATOM     56  C   UNL A   1      44.937  32.341  27.853  1.00  0.00     0.031 C 
ATOM     57  C   UNL A   1      41.550  33.849  31.855  1.00  0.00     0.029 A 
ATOM     58  C   UNL A   1      41.543  34.128  30.500  1.00  0.00     0.049 A 
ATOM     59  H   UNL A   1      39.939  34.044  29.158  1.00  0.00     0.167 HD
ATOM     60  C   UNL A   1      43.380  33.556  29.059  1.00  0.00     0.074 A 
ATOM     61  C   UNL A   1      44.372  33.550  28.001  1.00  0.00     0.031 C 
ATOM     62  C   UNL A   1      42.528  34.523  29.505  1.00  0.00     0.037 A 
BRANCH  49  63
ATOM     63  C   UNL A   1      36.834  33.340  31.337  1.00  0.00     0.057 A 
ATOM     64  C   UNL A   1      36.502  32.989  32.659  1.00  0.00     0.134 A 
ATOM     65  C   UNL A   1      35.808  34.017  30.642  1.00  0.00     0.134 A 
ATOM     66  F   UNL A   1      37.359  32.310  33.436  1.00  0.00    -0.206 F 
ATOM     67  C   UNL A   1      35.262  33.297  33.240  1.00  0.00     0.040 A 
ATOM     68  C   UNL A   1      34.589  34.381  31.228  1.00  0.00     0.040 A 
ATOM     69  F   UNL A   1      35.894  34.307  29.338  1.00  0.00    -0.206 F 
ATOM     70  C   UNL A   1      34.306  34.009  32.530  1.00  0.00     0.006 A 
ENDBRANCH  49  63
BRANCH  50  71
ATOM     71  C   UNL A   1      44.753  29.124  27.903  1.00  0.00     0.057 A 
ATOM     72  C   UNL A   1      45.720  28.131  28.140  1.00  0.00     0.134 A 
ATOM     73  C   UNL A   1      43.942  28.965  26.775  1.00  0.00     0.134 A 
ATOM     74  F   UNL A   1      46.533  28.221  29.206  1.00  0.00    -0.206 F 
ATOM     75  C   UNL A   1      45.800  26.976  27.361  1.00  0.00     0.040 A 
ATOM     76  C   UNL A   1      44.026  27.820  25.975  1.00  0.00     0.040 A 
ATOM     77  F   UNL A   1      42.977  29.853  26.496  1.00  0.00    -0.206 F 
ATOM     78  C   UNL A   1      44.928  26.804  26.291  1.00  0.00     0.006 A 
ENDBRANCH  50  71
BRANCH  62  79
ATOM     79  C   UNL A   1      42.547  35.928  28.972  1.00  0.00     0.057 A 
ATOM     80  C   UNL A   1      41.899  36.284  27.780  1.00  0.00     0.134 A 
ATOM     81  C   UNL A   1      43.306  36.944  29.583  1.00  0.00     0.134 A 
ATOM     82  F   UNL A   1      41.191  35.383  27.085  1.00  0.00    -0.206 F 
ATOM     83  C   UNL A   1      41.971  37.579  27.250  1.00  0.00     0.040 A 
ATOM     84  C   UNL A   1      43.423  38.227  29.039  1.00  0.00     0.040 A 
ATOM     85  F   UNL A   1      43.943  36.741  30.745  1.00  0.00    -0.206 F 
ATOM     86  C   UNL A   1      42.745  38.551  27.872  1.00  0.00     0.006 A 
ENDBRANCH  62  79
ENDBRANCH  36  37
ENDBRANCH  28  31
ENDBRANCH  26  27
ENDBRANCH  25  26
ENDBRANCH   1  25
TORSDOF 14
ENDMDL
