MODEL 1
REMARK VINA RESULT:     -10.9      0.000      0.000
REMARK SMILES C[C@@H](NC1=[NH+]CCC1)C(=O)NCCCCNC(=O)c1ccc(-c2c3nc(c(-c4c(F)cccc4F)c4ccc([nH]4)c(-c4c(F)cccc4F)c4nc(c(-c5c(F)cccc5F)c5ccc2[nH]5)C=C4)C=C3)cc1
REMARK SMILES IDX 14 1 13 2 12 3 11 4 9 5 10 6 2 8 1 9 3 10 4 11 5 13 8 14
REMARK SMILES IDX 6 15 7 17 15 18 16 19 17 20 18 22 19 23 20 24 72 25 21 26
REMARK SMILES IDX 71 27 22 28 23 29 24 30 65 31 25 32 70 33 64 34 66 35 26 36
REMARK SMILES IDX 69 37 63 38 62 39 27 41 53 42 36 43 52 44 37 45 40 46 51 47
REMARK SMILES IDX 67 48 38 49 39 50 50 52 68 53 41 54 28 55 29 56 34 57 30 58
REMARK SMILES IDX 31 59 33 60 35 61 32 62 54 63 55 64 60 65 56 66 57 67 59 68
REMARK SMILES IDX 61 69 58 70 42 71 43 72 48 73 44 74 45 75 47 76 49 77 46 78
REMARK H PARENT 11 7 3 12 5 16 16 21 66 40 40 51
REMARK Flexibility Score: inf
ROOT
ATOM      1  C   UNL A   1      34.879  32.496  31.585  1.00  0.00     0.023 C 
ENDROOT
BRANCH   1   2
ATOM      2  C   UNL A   1      35.340  33.715  32.384  1.00  0.00     0.023 C 
BRANCH   2   3
ATOM      3  C   UNL A   1      34.492  34.010  33.614  1.00  0.00     0.116 C 
BRANCH   3   4
ATOM      4  N   UNL A   1      34.402  35.437  33.864  1.00  0.00    -0.352 N 
ATOM      5  C   UNL A   1      33.554  36.367  33.337  1.00  0.00     0.264 C 
ATOM      6  O   UNL A   1      33.685  37.535  33.714  1.00  0.00    -0.270 OA
ATOM      7  H   UNL A   1      35.054  35.789  34.513  1.00  0.00     0.163 HD
BRANCH   5   8
ATOM      8  C   UNL A   1      32.483  35.992  32.294  1.00  0.00     0.258 C 
ATOM      9  C   UNL A   1      31.103  36.048  32.951  1.00  0.00     0.069 C 
BRANCH   8  10
ATOM     10  N   UNL A   1      32.506  36.826  31.095  1.00  0.00    -0.267 N 
ATOM     11  C   UNL A   1      33.072  36.535  29.891  1.00  0.00     0.243 C 
ATOM     12  H   UNL A   1      32.061  37.701  31.167  1.00  0.00     0.305 HD
ATOM     13  N   UNL A   1      33.587  37.498  29.181  1.00  0.00    -0.279 N 
ATOM     14  C   UNL A   1      33.171  35.161  29.290  1.00  0.00     0.131 C 
ATOM     15  C   UNL A   1      34.211  36.843  28.013  1.00  0.00     0.234 C 
ATOM     16  H   UNL A   1      33.566  38.461  29.380  1.00  0.00     0.304 HD
ATOM     17  C   UNL A   1      34.372  35.386  28.404  1.00  0.00     0.058 C 
ENDBRANCH   8  10
ENDBRANCH   5   8
ENDBRANCH   3   4
ENDBRANCH   2   3
ENDBRANCH   1   2
BRANCH   1  18
ATOM     18  C   UNL A   1      35.421  32.419  30.162  1.00  0.00     0.116 C 
BRANCH  18  19
ATOM     19  N   UNL A   1      34.566  31.644  29.275  1.00  0.00    -0.352 N 
ATOM     20  C   UNL A   1      34.901  30.587  28.464  1.00  0.00     0.251 C 
ATOM     21  H   UNL A   1      33.620  31.912  29.254  1.00  0.00     0.163 HD
ATOM     22  O   UNL A   1      34.098  30.145  27.649  1.00  0.00    -0.269 OA
BRANCH  20  23
ATOM     23  C   UNL A   1      36.254  30.004  28.562  1.00  0.00     0.039 A 
ATOM     24  C   UNL A   1      37.139  30.157  27.492  1.00  0.00     0.014 A 
ATOM     25  C   UNL A   1      36.656  29.337  29.723  1.00  0.00     0.014 A 
ATOM     26  C   UNL A   1      38.452  29.703  27.615  1.00  0.00     0.010 A 
ATOM     27  C   UNL A   1      37.985  28.957  29.874  1.00  0.00     0.010 A 
ATOM     28  C   UNL A   1      38.896  29.136  28.822  1.00  0.00    -0.014 A 
BRANCH  28  29
ATOM     29  C   UNL A   1      40.312  28.727  29.004  1.00  0.00     0.031 A 
ATOM     30  C   UNL A   1      41.310  29.694  29.576  1.00  0.00     0.074 A 
ATOM     31  C   UNL A   1      40.712  27.508  28.593  1.00  0.00     0.049 A 
ATOM     32  N   UNL A   1      42.598  29.546  29.752  1.00  0.00    -0.248 NA
ATOM     33  C   UNL A   1      40.796  31.012  29.981  1.00  0.00     0.031 C 
ATOM     34  C   UNL A   1      39.852  26.497  27.974  1.00  0.00     0.029 A 
ATOM     35  N   UNL A   1      41.949  26.915  28.624  1.00  0.00    -0.354 N 
ATOM     36  C   UNL A   1      43.048  30.750  30.276  1.00  0.00     0.074 A 
ATOM     37  C   UNL A   1      41.909  31.640  30.332  1.00  0.00     0.031 C 
ATOM     38  C   UNL A   1      40.582  25.403  27.705  1.00  0.00     0.029 A 
ATOM     39  C   UNL A   1      41.967  25.647  28.094  1.00  0.00     0.049 A 
ATOM     40  H   UNL A   1      42.749  27.356  28.992  1.00  0.00     0.167 HD
ATOM     41  C   UNL A   1      44.293  31.079  30.698  1.00  0.00     0.037 A 
ATOM     42  C   UNL A   1      42.986  24.783  27.932  1.00  0.00     0.037 A 
ATOM     43  C   UNL A   1      45.422  30.187  30.654  1.00  0.00     0.049 A 
ATOM     44  C   UNL A   1      44.362  25.174  28.394  1.00  0.00     0.074 A 
ATOM     45  C   UNL A   1      46.712  30.407  31.103  1.00  0.00     0.029 A 
ATOM     46  N   UNL A   1      45.397  28.905  30.125  1.00  0.00    -0.354 N 
ATOM     47  N   UNL A   1      44.760  26.293  28.951  1.00  0.00    -0.248 NA
ATOM     48  C   UNL A   1      45.431  24.182  28.211  1.00  0.00     0.031 C 
ATOM     49  C   UNL A   1      47.479  29.277  30.802  1.00  0.00     0.029 A 
ATOM     50  C   UNL A   1      46.653  28.331  30.216  1.00  0.00     0.049 A 
ATOM     51  H   UNL A   1      44.602  28.468  29.741  1.00  0.00     0.167 HD
ATOM     52  C   UNL A   1      46.115  26.129  29.212  1.00  0.00     0.074 A 
ATOM     53  C   UNL A   1      46.466  24.796  28.764  1.00  0.00     0.031 C 
ATOM     54  C   UNL A   1      46.988  27.002  29.771  1.00  0.00     0.037 A 
BRANCH  41  55
ATOM     55  C   UNL A   1      44.494  32.463  31.246  1.00  0.00     0.057 A 
ATOM     56  C   UNL A   1      44.323  32.749  32.608  1.00  0.00     0.134 A 
ATOM     57  C   UNL A   1      44.887  33.515  30.411  1.00  0.00     0.134 A 
ATOM     58  F   UNL A   1      43.935  31.790  33.461  1.00  0.00    -0.206 F 
ATOM     59  C   UNL A   1      44.507  34.038  33.112  1.00  0.00     0.040 A 
ATOM     60  C   UNL A   1      45.104  34.802  30.908  1.00  0.00     0.040 A 
ATOM     61  F   UNL A   1      45.075  33.310  29.098  1.00  0.00    -0.206 F 
ATOM     62  C   UNL A   1      44.906  35.067  32.262  1.00  0.00     0.006 A 
ENDBRANCH  41  55
BRANCH  42  63
ATOM     63  C   UNL A   1      42.742  23.452  27.318  1.00  0.00     0.057 A 
ATOM     64  C   UNL A   1      42.332  22.362  28.095  1.00  0.00     0.134 A 
ATOM     65  C   UNL A   1      42.915  23.237  25.946  1.00  0.00     0.134 A 
ATOM     66  F   UNL A   1      42.166  22.500  29.418  1.00  0.00    -0.206 F 
ATOM     67  C   UNL A   1      42.125  21.101  27.533  1.00  0.00     0.040 A 
ATOM     68  C   UNL A   1      42.684  21.989  25.367  1.00  0.00     0.040 A 
ATOM     69  F   UNL A   1      43.296  24.243  25.145  1.00  0.00    -0.206 F 
ATOM     70  C   UNL A   1      42.296  20.914  26.163  1.00  0.00     0.006 A 
ENDBRANCH  42  63
BRANCH  54  71
ATOM     71  C   UNL A   1      48.401  26.532  29.964  1.00  0.00     0.057 A 
ATOM     72  C   UNL A   1      49.400  26.772  29.013  1.00  0.00     0.134 A 
ATOM     73  C   UNL A   1      48.774  25.865  31.139  1.00  0.00     0.134 A 
ATOM     74  F   UNL A   1      49.107  27.395  27.861  1.00  0.00    -0.206 F 
ATOM     75  C   UNL A   1      50.714  26.345  29.211  1.00  0.00     0.040 A 
ATOM     76  C   UNL A   1      50.090  25.458  31.361  1.00  0.00     0.040 A 
ATOM     77  F   UNL A   1      47.869  25.611  32.095  1.00  0.00    -0.206 F 
ATOM     78  C   UNL A   1      51.064  25.693  30.392  1.00  0.00     0.006 A 
ENDBRANCH  54  71
ENDBRANCH  28  29
ENDBRANCH  20  23
ENDBRANCH  18  19
ENDBRANCH   1  18
TORSDOF 12
ENDMDL
MODEL 2
REMARK VINA RESULT:     -10.5      3.251      5.260
REMARK SMILES C[C@@H](NC1=[NH+]CCC1)C(=O)NCCCCNC(=O)c1ccc(-c2c3nc(c(-c4c(F)cccc4F)c4ccc([nH]4)c(-c4c(F)cccc4F)c4nc(c(-c5c(F)cccc5F)c5ccc2[nH]5)C=C4)C=C3)cc1
REMARK SMILES IDX 14 1 13 2 12 3 11 4 9 5 10 6 2 8 1 9 3 10 4 11 5 13 8 14
REMARK SMILES IDX 6 15 7 17 15 18 16 19 17 20 18 22 19 23 20 24 72 25 21 26
REMARK SMILES IDX 71 27 22 28 23 29 24 30 65 31 25 32 70 33 64 34 66 35 26 36
REMARK SMILES IDX 69 37 63 38 62 39 27 41 53 42 36 43 52 44 37 45 40 46 51 47
REMARK SMILES IDX 67 48 38 49 39 50 50 52 68 53 41 54 28 55 29 56 34 57 30 58
REMARK SMILES IDX 31 59 33 60 35 61 32 62 54 63 55 64 60 65 56 66 57 67 59 68
REMARK SMILES IDX 61 69 58 70 42 71 43 72 48 73 44 74 45 75 47 76 49 77 46 78
REMARK H PARENT 11 7 3 12 5 16 16 21 66 40 40 51
REMARK Flexibility Score: inf
ROOT
ATOM      1  C   UNL A   1      32.253  27.974  27.252  1.00  0.00     0.023 C 
ENDROOT
BRANCH   1   2
ATOM      2  C   UNL A   1      32.109  26.754  26.343  1.00  0.00     0.023 C 
BRANCH   2   3
ATOM      3  C   UNL A   1      30.975  26.862  25.331  1.00  0.00     0.116 C 
BRANCH   3   4
ATOM      4  N   UNL A   1      31.397  26.417  24.015  1.00  0.00    -0.352 N 
ATOM      5  C   UNL A   1      32.091  27.083  23.047  1.00  0.00     0.264 C 
ATOM      6  O   UNL A   1      32.326  26.478  21.997  1.00  0.00    -0.270 OA
ATOM      7  H   UNL A   1      31.145  25.494  23.785  1.00  0.00     0.163 HD
BRANCH   5   8
ATOM      8  C   UNL A   1      32.550  28.543  23.234  1.00  0.00     0.258 C 
ATOM      9  C   UNL A   1      34.062  28.624  23.015  1.00  0.00     0.069 C 
BRANCH   8  10
ATOM     10  N   UNL A   1      31.862  29.495  22.366  1.00  0.00    -0.267 N 
ATOM     11  C   UNL A   1      30.538  29.812  22.364  1.00  0.00     0.243 C 
ATOM     12  H   UNL A   1      32.423  29.963  21.705  1.00  0.00     0.305 HD
ATOM     13  N   UNL A   1      29.958  30.117  21.239  1.00  0.00    -0.279 N 
ATOM     14  C   UNL A   1      29.651  29.833  23.578  1.00  0.00     0.131 C 
ATOM     15  C   UNL A   1      28.526  30.289  21.560  1.00  0.00     0.234 C 
ATOM     16  H   UNL A   1      30.384  30.214  20.358  1.00  0.00     0.304 HD
ATOM     17  C   UNL A   1      28.326  29.596  22.895  1.00  0.00     0.058 C 
ENDBRANCH   8  10
ENDBRANCH   5   8
ENDBRANCH   3   4
ENDBRANCH   2   3
ENDBRANCH   1   2
BRANCH   1  18
ATOM     18  C   UNL A   1      33.640  28.607  27.263  1.00  0.00     0.116 C 
BRANCH  18  19
ATOM     19  N   UNL A   1      33.620  30.002  27.676  1.00  0.00    -0.352 N 
ATOM     20  C   UNL A   1      34.606  30.731  28.295  1.00  0.00     0.251 C 
ATOM     21  H   UNL A   1      32.787  30.490  27.486  1.00  0.00     0.163 HD
ATOM     22  O   UNL A   1      34.374  31.855  28.730  1.00  0.00    -0.269 OA
BRANCH  20  23
ATOM     23  C   UNL A   1      35.947  30.135  28.459  1.00  0.00     0.039 A 
ATOM     24  C   UNL A   1      36.844  30.178  27.390  1.00  0.00     0.014 A 
ATOM     25  C   UNL A   1      36.326  29.567  29.679  1.00  0.00     0.014 A 
ATOM     26  C   UNL A   1      38.148  29.714  27.567  1.00  0.00     0.010 A 
ATOM     27  C   UNL A   1      37.646  29.180  29.878  1.00  0.00     0.010 A 
ATOM     28  C   UNL A   1      38.570  29.249  28.824  1.00  0.00    -0.014 A 
BRANCH  28  29
ATOM     29  C   UNL A   1      39.977  28.834  29.057  1.00  0.00     0.031 A 
ATOM     30  C   UNL A   1      40.955  29.791  29.678  1.00  0.00     0.074 A 
ATOM     31  C   UNL A   1      40.389  27.617  28.650  1.00  0.00     0.049 A 
ATOM     32  N   UNL A   1      42.234  29.637  29.903  1.00  0.00    -0.248 NA
ATOM     33  C   UNL A   1      40.429  31.107  30.075  1.00  0.00     0.031 C 
ATOM     34  C   UNL A   1      39.551  26.615  27.988  1.00  0.00     0.029 A 
ATOM     35  N   UNL A   1      41.622  27.020  28.724  1.00  0.00    -0.354 N 
ATOM     36  C   UNL A   1      42.667  30.835  30.456  1.00  0.00     0.074 A 
ATOM     37  C   UNL A   1      41.529  31.727  30.476  1.00  0.00     0.031 C 
ATOM     38  C   UNL A   1      40.287  25.522  27.737  1.00  0.00     0.029 A 
ATOM     39  C   UNL A   1      41.657  25.756  28.183  1.00  0.00     0.049 A 
ATOM     40  H   UNL A   1      42.408  27.454  29.127  1.00  0.00     0.167 HD
ATOM     41  C   UNL A   1      43.895  31.155  30.929  1.00  0.00     0.037 A 
ATOM     42  C   UNL A   1      42.679  24.891  28.052  1.00  0.00     0.037 A 
ATOM     43  C   UNL A   1      45.022  30.260  30.920  1.00  0.00     0.049 A 
ATOM     44  C   UNL A   1      44.037  25.273  28.572  1.00  0.00     0.074 A 
ATOM     45  C   UNL A   1      46.294  30.471  31.422  1.00  0.00     0.029 A 
ATOM     46  N   UNL A   1      45.014  28.983  30.378  1.00  0.00    -0.354 N 
ATOM     47  N   UNL A   1      44.416  26.385  29.155  1.00  0.00    -0.248 NA
ATOM     48  C   UNL A   1      45.109  24.279  28.421  1.00  0.00     0.031 C 
ATOM     49  C   UNL A   1      47.069  29.342  31.140  1.00  0.00     0.029 A 
ATOM     50  C   UNL A   1      46.264  28.404  30.513  1.00  0.00     0.049 A 
ATOM     51  H   UNL A   1      44.233  28.553  29.960  1.00  0.00     0.167 HD
ATOM     52  C   UNL A   1      45.759  26.214  29.467  1.00  0.00     0.074 A 
ATOM     53  C   UNL A   1      46.124  24.885  29.021  1.00  0.00     0.031 C 
ATOM     54  C   UNL A   1      46.613  27.078  30.068  1.00  0.00     0.037 A 
BRANCH  41  55
ATOM     55  C   UNL A   1      44.078  32.533  31.499  1.00  0.00     0.057 A 
ATOM     56  C   UNL A   1      43.870  32.804  32.859  1.00  0.00     0.134 A 
ATOM     57  C   UNL A   1      44.492  33.595  30.686  1.00  0.00     0.134 A 
ATOM     58  F   UNL A   1      43.461  31.833  33.690  1.00  0.00    -0.206 F 
ATOM     59  C   UNL A   1      44.037  34.086  33.382  1.00  0.00     0.040 A 
ATOM     60  C   UNL A   1      44.693  34.876  31.204  1.00  0.00     0.040 A 
ATOM     61  F   UNL A   1      44.716  33.406  29.377  1.00  0.00    -0.206 F 
ATOM     62  C   UNL A   1      44.457  35.126  32.555  1.00  0.00     0.006 A 
ENDBRANCH  41  55
BRANCH  42  63
ATOM     63  C   UNL A   1      42.455  23.567  27.416  1.00  0.00     0.057 A 
ATOM     64  C   UNL A   1      42.092  22.451  28.179  1.00  0.00     0.134 A 
ATOM     65  C   UNL A   1      42.602  23.385  26.036  1.00  0.00     0.134 A 
ATOM     66  F   UNL A   1      41.953  22.557  29.508  1.00  0.00    -0.206 F 
ATOM     67  C   UNL A   1      41.905  21.196  27.596  1.00  0.00     0.040 A 
ATOM     68  C   UNL A   1      42.390  22.143  25.436  1.00  0.00     0.040 A 
ATOM     69  F   UNL A   1      42.938  24.416  25.248  1.00  0.00    -0.206 F 
ATOM     70  C   UNL A   1      42.049  21.042  26.219  1.00  0.00     0.006 A 
ENDBRANCH  42  63
BRANCH  54  71
ATOM     71  C   UNL A   1      48.015  26.602  30.312  1.00  0.00     0.057 A 
ATOM     72  C   UNL A   1      48.373  25.912  31.476  1.00  0.00     0.134 A 
ATOM     73  C   UNL A   1      49.012  26.803  29.348  1.00  0.00     0.134 A 
ATOM     74  F   UNL A   1      47.469  25.697  32.445  1.00  0.00    -0.206 F 
ATOM     75  C   UNL A   1      49.677  25.459  31.685  1.00  0.00     0.040 A 
ATOM     76  C   UNL A   1      50.312  26.330  29.532  1.00  0.00     0.040 A 
ATOM     77  F   UNL A   1      48.735  27.449  28.205  1.00  0.00    -0.206 F 
ATOM     78  C   UNL A   1      50.649  25.662  30.706  1.00  0.00     0.006 A 
ENDBRANCH  54  71
ENDBRANCH  28  29
ENDBRANCH  20  23
ENDBRANCH  18  19
ENDBRANCH   1  18
TORSDOF 12
ENDMDL
MODEL 3
REMARK VINA RESULT:     -10.4      5.292     10.685
REMARK SMILES C[C@@H](NC1=[NH+]CCC1)C(=O)NCCCCNC(=O)c1ccc(-c2c3nc(c(-c4c(F)cccc4F)c4ccc([nH]4)c(-c4c(F)cccc4F)c4nc(c(-c5c(F)cccc5F)c5ccc2[nH]5)C=C4)C=C3)cc1
REMARK SMILES IDX 14 1 13 2 12 3 11 4 9 5 10 6 2 8 1 9 3 10 4 11 5 13 8 14
REMARK SMILES IDX 6 15 7 17 15 18 16 19 17 20 18 22 19 23 20 24 72 25 21 26
REMARK SMILES IDX 71 27 22 28 23 29 24 30 65 31 25 32 70 33 64 34 66 35 26 36
REMARK SMILES IDX 69 37 63 38 62 39 27 41 53 42 36 43 52 44 37 45 40 46 51 47
REMARK SMILES IDX 67 48 38 49 39 50 50 52 68 53 41 54 28 55 29 56 34 57 30 58
REMARK SMILES IDX 31 59 33 60 35 61 32 62 54 63 55 64 60 65 56 66 57 67 59 68
REMARK SMILES IDX 61 69 58 70 42 71 43 72 48 73 44 74 45 75 47 76 49 77 46 78
REMARK H PARENT 11 7 3 12 5 16 16 21 66 40 40 51
REMARK Flexibility Score: inf
ROOT
ATOM      1  C   UNL A   1      38.132  19.705  24.999  1.00  0.00     0.023 C 
ENDROOT
BRANCH   1   2
ATOM      2  C   UNL A   1      37.181  20.870  24.726  1.00  0.00     0.023 C 
BRANCH   2   3
ATOM      3  C   UNL A   1      35.716  20.555  25.001  1.00  0.00     0.116 C 
BRANCH   3   4
ATOM      4  N   UNL A   1      35.475  19.124  25.001  1.00  0.00    -0.352 N 
ATOM      5  C   UNL A   1      34.432  18.412  24.484  1.00  0.00     0.264 C 
ATOM      6  O   UNL A   1      34.457  17.185  24.620  1.00  0.00    -0.270 OA
ATOM      7  H   UNL A   1      36.170  18.583  25.442  1.00  0.00     0.163 HD
BRANCH   5   8
ATOM      8  C   UNL A   1      33.249  19.101  23.776  1.00  0.00     0.258 C 
ATOM      9  C   UNL A   1      32.528  18.078  22.896  1.00  0.00     0.069 C 
BRANCH   8  10
ATOM     10  N   UNL A   1      32.302  19.738  24.688  1.00  0.00    -0.267 N 
ATOM     11  C   UNL A   1      32.153  21.069  24.933  1.00  0.00     0.243 C 
ATOM     12  H   UNL A   1      31.702  19.134  25.182  1.00  0.00     0.305 HD
ATOM     13  N   UNL A   1      31.805  21.461  26.126  1.00  0.00    -0.279 N 
ATOM     14  C   UNL A   1      32.368  22.165  23.928  1.00  0.00     0.131 C 
ATOM     15  C   UNL A   1      31.846  22.937  26.089  1.00  0.00     0.234 C 
ATOM     16  H   UNL A   1      31.564  20.893  26.892  1.00  0.00     0.304 HD
ATOM     17  C   UNL A   1      32.694  23.289  24.882  1.00  0.00     0.058 C 
ENDBRANCH   8  10
ENDBRANCH   5   8
ENDBRANCH   3   4
ENDBRANCH   2   3
ENDBRANCH   1   2
BRANCH   1  18
ATOM     18  C   UNL A   1      39.278  20.023  25.953  1.00  0.00     0.116 C 
BRANCH  18  19
ATOM     19  N   UNL A   1      40.313  19.000  25.951  1.00  0.00    -0.352 N 
ATOM     20  C   UNL A   1      41.672  19.152  26.074  1.00  0.00     0.251 C 
ATOM     21  H   UNL A   1      39.996  18.075  25.848  1.00  0.00     0.163 HD
ATOM     22  O   UNL A   1      42.428  18.203  25.885  1.00  0.00    -0.269 OA
BRANCH  20  23
ATOM     23  C   UNL A   1      42.223  20.481  26.409  1.00  0.00     0.039 A 
ATOM     24  C   UNL A   1      42.653  21.316  25.376  1.00  0.00     0.014 A 
ATOM     25  C   UNL A   1      42.280  20.910  27.738  1.00  0.00     0.014 A 
ATOM     26  C   UNL A   1      43.075  22.613  25.672  1.00  0.00     0.010 A 
ATOM     27  C   UNL A   1      42.625  22.226  28.022  1.00  0.00     0.010 A 
ATOM     28  C   UNL A   1      43.027  23.091  26.992  1.00  0.00    -0.014 A 
BRANCH  28  29
ATOM     29  C   UNL A   1      43.387  24.494  27.316  1.00  0.00     0.031 A 
ATOM     30  C   UNL A   1      44.822  24.937  27.266  1.00  0.00     0.074 A 
ATOM     31  C   UNL A   1      42.430  25.353  27.718  1.00  0.00     0.049 A 
ATOM     32  N   UNL A   1      45.342  26.098  27.574  1.00  0.00    -0.248 NA
ATOM     33  C   UNL A   1      45.809  23.932  26.837  1.00  0.00     0.031 C 
ATOM     34  C   UNL A   1      41.008  25.032  27.858  1.00  0.00     0.029 A 
ATOM     35  N   UNL A   1      42.510  26.670  28.094  1.00  0.00    -0.354 N 
ATOM     36  C   UNL A   1      46.710  25.960  27.387  1.00  0.00     0.074 A 
ATOM     37  C   UNL A   1      46.949  24.588  26.998  1.00  0.00     0.031 C 
ATOM     38  C   UNL A   1      40.348  26.127  28.267  1.00  0.00     0.029 A 
ATOM     39  C   UNL A   1      41.301  27.216  28.456  1.00  0.00     0.049 A 
ATOM     40  H   UNL A   1      43.354  27.178  28.103  1.00  0.00     0.167 HD
ATOM     41  C   UNL A   1      47.680  26.900  27.502  1.00  0.00     0.037 A 
ATOM     42  C   UNL A   1      40.999  28.450  28.900  1.00  0.00     0.037 A 
ATOM     43  C   UNL A   1      47.438  28.268  27.875  1.00  0.00     0.049 A 
ATOM     44  C   UNL A   1      42.093  29.472  29.034  1.00  0.00     0.074 A 
ATOM     45  C   UNL A   1      48.345  29.308  27.971  1.00  0.00     0.029 A 
ATOM     46  N   UNL A   1      46.198  28.787  28.219  1.00  0.00    -0.354 N 
ATOM     47  N   UNL A   1      43.375  29.347  28.787  1.00  0.00    -0.248 NA
ATOM     48  C   UNL A   1      41.700  30.808  29.501  1.00  0.00     0.031 C 
ATOM     49  C   UNL A   1      47.663  30.444  28.419  1.00  0.00     0.029 A 
ATOM     50  C   UNL A   1      46.320  30.126  28.549  1.00  0.00     0.049 A 
ATOM     51  H   UNL A   1      45.355  28.277  28.227  1.00  0.00     0.167 HD
ATOM     52  C   UNL A   1      43.936  30.593  29.041  1.00  0.00     0.074 A 
ATOM     53  C   UNL A   1      42.850  31.462  29.447  1.00  0.00     0.031 C 
ATOM     54  C   UNL A   1      45.231  30.981  28.947  1.00  0.00     0.037 A 
BRANCH  41  55
ATOM     55  C   UNL A   1      49.092  26.473  27.217  1.00  0.00     0.057 A 
ATOM     56  C   UNL A   1      49.629  26.514  25.922  1.00  0.00     0.134 A 
ATOM     57  C   UNL A   1      49.933  26.042  28.250  1.00  0.00     0.134 A 
ATOM     58  F   UNL A   1      48.873  26.905  24.885  1.00  0.00    -0.206 F 
ATOM     59  C   UNL A   1      50.940  26.112  25.662  1.00  0.00     0.040 A 
ATOM     60  C   UNL A   1      51.256  25.668  28.007  1.00  0.00     0.040 A 
ATOM     61  F   UNL A   1      49.487  25.985  29.514  1.00  0.00    -0.206 F 
ATOM     62  C   UNL A   1      51.760  25.695  26.707  1.00  0.00     0.006 A 
ENDBRANCH  41  55
BRANCH  42  63
ATOM     63  C   UNL A   1      39.593  28.795  29.234  1.00  0.00     0.057 A 
ATOM     64  C   UNL A   1      38.722  29.302  28.262  1.00  0.00     0.134 A 
ATOM     65  C   UNL A   1      39.088  28.631  30.529  1.00  0.00     0.134 A 
ATOM     66  F   UNL A   1      39.152  29.498  27.007  1.00  0.00    -0.206 F 
ATOM     67  C   UNL A   1      37.407  29.655  28.571  1.00  0.00     0.040 A 
ATOM     68  C   UNL A   1      37.767  28.953  30.845  1.00  0.00     0.040 A 
ATOM     69  F   UNL A   1      39.868  28.140  31.503  1.00  0.00    -0.206 F 
ATOM     70  C   UNL A   1      36.926  29.475  29.866  1.00  0.00     0.006 A 
ENDBRANCH  42  63
BRANCH  54  71
ATOM     71  C   UNL A   1      45.542  32.417  29.252  1.00  0.00     0.057 A 
ATOM     72  C   UNL A   1      45.457  33.419  28.278  1.00  0.00     0.134 A 
ATOM     73  C   UNL A   1      45.892  32.808  30.552  1.00  0.00     0.134 A 
ATOM     74  F   UNL A   1      45.139  33.111  27.011  1.00  0.00    -0.206 F 
ATOM     75  C   UNL A   1      45.733  34.754  28.578  1.00  0.00     0.040 A 
ATOM     76  C   UNL A   1      46.142  34.143  30.871  1.00  0.00     0.040 A 
ATOM     77  F   UNL A   1      45.982  31.901  31.535  1.00  0.00    -0.206 F 
ATOM     78  C   UNL A   1      46.069  35.120  29.880  1.00  0.00     0.006 A 
ENDBRANCH  54  71
ENDBRANCH  28  29
ENDBRANCH  20  23
ENDBRANCH  18  19
ENDBRANCH   1  18
TORSDOF 12
ENDMDL
