MODEL 1
REMARK VINA RESULT:     -10.6      0.000      0.000
REMARK SMILES O=C(C[NH+]1CCC2(CC1)CC(=O)N2)NCCCCNC(=O)c1ccc(-c2c3nc(c(-c4c(F)cccc4F)c4ccc([nH]4)c(-c4c(F)cccc4F)c4nc(c(-c5c(F)cccc5F)c5ccc2[nH]5)C=C4)C=C3)cc1
REMARK SMILES IDX 17 1 16 2 15 3 14 4 1 5 2 6 3 8 4 9 5 10 9 11 6 13 8 14 7 15
REMARK SMILES IDX 10 16 13 17 11 18 12 20 18 21 19 22 20 23 21 25 22 26 23 27
REMARK SMILES IDX 75 28 24 29 74 30 25 31 26 32 27 33 68 34 28 35 73 36 67 37
REMARK SMILES IDX 69 38 29 39 72 40 66 41 65 42 30 44 56 45 39 46 55 47 40 48
REMARK SMILES IDX 43 49 54 50 70 51 41 52 42 53 53 55 71 56 44 57 31 58 32 59
REMARK SMILES IDX 37 60 33 61 34 62 36 63 38 64 35 65 57 66 58 67 63 68 59 69
REMARK SMILES IDX 60 70 62 71 64 72 61 73 45 74 46 75 51 76 47 77 48 78 50 79
REMARK SMILES IDX 52 80 49 81
REMARK H PARENT 14 7 4 12 13 19 19 24 69 43 43 54
REMARK Flexibility Score: inf
ROOT
ATOM      1  C   UNL A   1      34.426  34.131  28.098  1.00  0.00     0.023 C 
ENDROOT
BRANCH   1   2
ATOM      2  C   UNL A   1      33.130  34.660  28.736  1.00  0.00     0.023 C 
BRANCH   2   3
ATOM      3  C   UNL A   1      33.234  36.014  29.446  1.00  0.00     0.116 C 
BRANCH   3   4
ATOM      4  N   UNL A   1      33.947  35.894  30.697  1.00  0.00    -0.351 N 
ATOM      5  O   UNL A   1      32.148  35.495  32.068  1.00  0.00    -0.269 OA
ATOM      6  C   UNL A   1      33.357  35.629  31.917  1.00  0.00     0.275 C 
ATOM      7  H   UNL A   1      34.924  36.009  30.678  1.00  0.00     0.163 HD
BRANCH   6   8
ATOM      8  C   UNL A   1      34.375  35.578  33.071  1.00  0.00     0.363 C 
BRANCH   8   9
ATOM      9  N   UNL A   1      34.329  34.322  33.855  1.00  0.00    -0.327 N 
ATOM     10  C   UNL A   1      34.289  33.075  33.086  1.00  0.00     0.265 C 
ATOM     11  C   UNL A   1      35.431  34.259  34.832  1.00  0.00     0.265 C 
ATOM     12  H   UNL A   1      33.426  34.377  34.326  1.00  0.00     0.348 HD
ATOM     13  C   UNL A   1      35.577  32.792  32.315  1.00  0.00     0.090 C 
ATOM     14  C   UNL A   1      36.808  34.019  34.200  1.00  0.00     0.090 C 
ATOM     15  C   UNL A   1      36.786  32.832  33.244  1.00  0.00     0.059 C 
ATOM     16  C   UNL A   1      38.134  32.580  32.506  1.00  0.00     0.128 C 
ATOM     17  N   UNL A   1      37.003  31.548  33.904  1.00  0.00    -0.350 N 
ATOM     18  C   UNL A   1      38.060  31.183  33.141  1.00  0.00     0.222 C 
ATOM     19  H   UNL A   1      36.540  31.102  34.650  1.00  0.00     0.164 HD
ATOM     20  O   UNL A   1      38.623  30.121  33.028  1.00  0.00    -0.275 OA
ENDBRANCH   8   9
ENDBRANCH   6   8
ENDBRANCH   3   4
ENDBRANCH   2   3
ENDBRANCH   1   2
BRANCH   1  21
ATOM     21  C   UNL A   1      35.017  32.872  28.729  1.00  0.00     0.116 C 
BRANCH  21  22
ATOM     22  N   UNL A   1      34.248  31.686  28.404  1.00  0.00    -0.352 N 
ATOM     23  C   UNL A   1      34.657  30.394  28.179  1.00  0.00     0.251 C 
ATOM     24  H   UNL A   1      33.277  31.830  28.333  1.00  0.00     0.163 HD
ATOM     25  O   UNL A   1      33.851  29.581  27.734  1.00  0.00    -0.269 OA
BRANCH  23  26
ATOM     26  C   UNL A   1      36.052  29.962  28.443  1.00  0.00     0.039 A 
ATOM     27  C   UNL A   1      36.984  30.061  27.403  1.00  0.00     0.014 A 
ATOM     28  C   UNL A   1      36.438  29.396  29.662  1.00  0.00     0.014 A 
ATOM     29  C   UNL A   1      38.304  29.642  27.595  1.00  0.00     0.010 A 
ATOM     30  C   UNL A   1      37.769  29.020  29.870  1.00  0.00     0.010 A 
ATOM     31  C   UNL A   1      38.715  29.139  28.839  1.00  0.00    -0.014 A 
BRANCH  31  32
ATOM     32  C   UNL A   1      40.129  28.745  29.075  1.00  0.00     0.031 A 
ATOM     33  C   UNL A   1      41.095  29.698  29.724  1.00  0.00     0.074 A 
ATOM     34  C   UNL A   1      40.563  27.539  28.661  1.00  0.00     0.049 A 
ATOM     35  N   UNL A   1      42.378  29.552  29.942  1.00  0.00    -0.248 NA
ATOM     36  C   UNL A   1      40.552  30.988  30.170  1.00  0.00     0.031 C 
ATOM     37  C   UNL A   1      39.740  26.526  27.997  1.00  0.00     0.029 A 
ATOM     38  N   UNL A   1      41.808  26.965  28.727  1.00  0.00    -0.354 N 
ATOM     39  C   UNL A   1      42.801  30.737  30.530  1.00  0.00     0.074 A 
ATOM     40  C   UNL A   1      41.641  31.601  30.615  1.00  0.00     0.031 C 
ATOM     41  C   UNL A   1      40.500  25.453  27.725  1.00  0.00     0.029 A 
ATOM     42  C   UNL A   1      41.868  25.713  28.166  1.00  0.00     0.049 A 
ATOM     43  H   UNL A   1      42.585  27.410  29.136  1.00  0.00     0.167 HD
ATOM     44  C   UNL A   1      44.037  31.072  30.971  1.00  0.00     0.037 A 
ATOM     45  C   UNL A   1      42.907  24.871  28.014  1.00  0.00     0.037 A 
ATOM     46  C   UNL A   1      45.187  30.207  30.922  1.00  0.00     0.049 A 
ATOM     47  C   UNL A   1      44.268  25.267  28.509  1.00  0.00     0.074 A 
ATOM     48  C   UNL A   1      46.464  30.442  31.409  1.00  0.00     0.029 A 
ATOM     49  N   UNL A   1      45.203  28.944  30.355  1.00  0.00    -0.354 N 
ATOM     50  N   UNL A   1      44.639  26.372  29.109  1.00  0.00    -0.248 NA
ATOM     51  C   UNL A   1      45.355  24.297  28.307  1.00  0.00     0.031 C 
ATOM     52  C   UNL A   1      47.259  29.329  31.111  1.00  0.00     0.029 A 
ATOM     53  C   UNL A   1      46.470  28.391  30.466  1.00  0.00     0.049 A 
ATOM     54  H   UNL A   1      44.429  28.502  29.937  1.00  0.00     0.167 HD
ATOM     55  C   UNL A   1      45.993  26.222  29.374  1.00  0.00     0.074 A 
ATOM     56  C   UNL A   1      46.378  24.917  28.877  1.00  0.00     0.031 C 
ATOM     57  C   UNL A   1      46.840  27.090  29.976  1.00  0.00     0.037 A 
BRANCH  44  58
ATOM     58  C   UNL A   1      44.215  32.444  31.548  1.00  0.00     0.057 A 
ATOM     59  C   UNL A   1      44.539  33.543  30.743  1.00  0.00     0.134 A 
ATOM     60  C   UNL A   1      44.016  32.675  32.914  1.00  0.00     0.134 A 
ATOM     61  F   UNL A   1      44.751  33.383  29.429  1.00  0.00    -0.206 F 
ATOM     62  C   UNL A   1      44.675  34.823  31.282  1.00  0.00     0.040 A 
ATOM     63  C   UNL A   1      44.131  33.955  33.461  1.00  0.00     0.040 A 
ATOM     64  F   UNL A   1      43.697  31.665  33.737  1.00  0.00    -0.206 F 
ATOM     65  C   UNL A   1      44.465  35.032  32.644  1.00  0.00     0.006 A 
ENDBRANCH  44  58
BRANCH  45  66
ATOM     66  C   UNL A   1      42.699  23.552  27.372  1.00  0.00     0.057 A 
ATOM     67  C   UNL A   1      42.310  22.440  28.126  1.00  0.00     0.134 A 
ATOM     68  C   UNL A   1      42.888  23.371  25.997  1.00  0.00     0.134 A 
ATOM     69  F   UNL A   1      42.135  22.551  29.451  1.00  0.00    -0.206 F 
ATOM     70  C   UNL A   1      42.128  21.188  27.537  1.00  0.00     0.040 A 
ATOM     71  C   UNL A   1      42.692  22.129  25.392  1.00  0.00     0.040 A 
ATOM     72  F   UNL A   1      43.257  24.402  25.223  1.00  0.00    -0.206 F 
ATOM     73  C   UNL A   1      42.315  21.031  26.165  1.00  0.00     0.006 A 
ENDBRANCH  45  66
BRANCH  57  74
ATOM     74  C   UNL A   1      48.260  26.645  30.159  1.00  0.00     0.057 A 
ATOM     75  C   UNL A   1      48.666  25.933  31.294  1.00  0.00     0.134 A 
ATOM     76  C   UNL A   1      49.221  26.905  29.176  1.00  0.00     0.134 A 
ATOM     77  F   UNL A   1      47.793  25.667  32.278  1.00  0.00    -0.206 F 
ATOM     78  C   UNL A   1      49.986  25.508  31.452  1.00  0.00     0.040 A 
ATOM     79  C   UNL A   1      50.540  26.471  29.314  1.00  0.00     0.040 A 
ATOM     80  F   UNL A   1      48.893  27.580  28.063  1.00  0.00    -0.206 F 
ATOM     81  C   UNL A   1      50.925  25.773  30.457  1.00  0.00     0.006 A 
ENDBRANCH  57  74
ENDBRANCH  31  32
ENDBRANCH  23  26
ENDBRANCH  21  22
ENDBRANCH   1  21
TORSDOF 12
ENDMDL
MODEL 2
REMARK VINA RESULT:     -10.4      4.137      7.538
REMARK SMILES O=C(C[NH+]1CCC2(CC1)CC(=O)N2)NCCCCNC(=O)c1ccc(-c2c3nc(c(-c4c(F)cccc4F)c4ccc([nH]4)c(-c4c(F)cccc4F)c4nc(c(-c5c(F)cccc5F)c5ccc2[nH]5)C=C4)C=C3)cc1
REMARK SMILES IDX 17 1 16 2 15 3 14 4 1 5 2 6 3 8 4 9 5 10 9 11 6 13 8 14 7 15
REMARK SMILES IDX 10 16 13 17 11 18 12 20 18 21 19 22 20 23 21 25 22 26 23 27
REMARK SMILES IDX 75 28 24 29 74 30 25 31 26 32 27 33 68 34 28 35 73 36 67 37
REMARK SMILES IDX 69 38 29 39 72 40 66 41 65 42 30 44 56 45 39 46 55 47 40 48
REMARK SMILES IDX 43 49 54 50 70 51 41 52 42 53 53 55 71 56 44 57 31 58 32 59
REMARK SMILES IDX 37 60 33 61 34 62 36 63 38 64 35 65 57 66 58 67 63 68 59 69
REMARK SMILES IDX 60 70 62 71 64 72 61 73 45 74 46 75 51 76 47 77 48 78 50 79
REMARK SMILES IDX 52 80 49 81
REMARK H PARENT 14 7 4 12 13 19 19 24 69 43 43 54
REMARK Flexibility Score: inf
ROOT
ATOM      1  C   UNL A   1      33.029  34.917  28.773  1.00  0.00     0.023 C 
ENDROOT
BRANCH   1   2
ATOM      2  C   UNL A   1      34.271  34.058  28.480  1.00  0.00     0.023 C 
BRANCH   2   3
ATOM      3  C   UNL A   1      34.520  32.888  29.437  1.00  0.00     0.116 C 
BRANCH   3   4
ATOM      4  N   UNL A   1      34.246  31.622  28.795  1.00  0.00    -0.351 N 
ATOM      5  O   UNL A   1      36.248  31.366  27.700  1.00  0.00    -0.269 OA
ATOM      6  C   UNL A   1      35.133  30.943  27.984  1.00  0.00     0.275 C 
ATOM      7  H   UNL A   1      33.364  31.215  28.947  1.00  0.00     0.163 HD
BRANCH   6   8
ATOM      8  C   UNL A   1      34.548  29.631  27.431  1.00  0.00     0.363 C 
BRANCH   8   9
ATOM      9  N   UNL A   1      33.592  29.825  26.316  1.00  0.00    -0.327 N 
ATOM     10  C   UNL A   1      33.763  28.950  25.152  1.00  0.00     0.265 C 
ATOM     11  C   UNL A   1      32.197  29.747  26.786  1.00  0.00     0.265 C 
ATOM     12  H   UNL A   1      33.814  30.762  25.982  1.00  0.00     0.348 HD
ATOM     13  C   UNL A   1      33.451  27.483  25.441  1.00  0.00     0.090 C 
ATOM     14  C   UNL A   1      31.745  28.329  27.158  1.00  0.00     0.090 C 
ATOM     15  C   UNL A   1      32.061  27.332  26.048  1.00  0.00     0.059 C 
ATOM     16  C   UNL A   1      31.699  25.857  26.392  1.00  0.00     0.128 C 
ATOM     17  N   UNL A   1      31.026  27.258  25.020  1.00  0.00    -0.350 N 
ATOM     18  C   UNL A   1      30.822  25.925  25.133  1.00  0.00     0.222 C 
ATOM     19  H   UNL A   1      30.618  27.944  24.444  1.00  0.00     0.164 HD
ATOM     20  O   UNL A   1      30.213  25.157  24.427  1.00  0.00    -0.275 OA
ENDBRANCH   8   9
ENDBRANCH   6   8
ENDBRANCH   3   4
ENDBRANCH   2   3
ENDBRANCH   1   2
BRANCH   1  21
ATOM     21  C   UNL A   1      33.281  36.229  29.514  1.00  0.00     0.116 C 
BRANCH  21  22
ATOM     22  N   UNL A   1      32.465  36.346  30.708  1.00  0.00    -0.352 N 
ATOM     23  C   UNL A   1      32.618  35.779  31.949  1.00  0.00     0.251 C 
ATOM     24  H   UNL A   1      31.674  36.925  30.613  1.00  0.00     0.163 HD
ATOM     25  O   UNL A   1      31.703  35.867  32.763  1.00  0.00    -0.269 OA
BRANCH  23  26
ATOM     26  C   UNL A   1      33.854  35.048  32.325  1.00  0.00     0.039 A 
ATOM     27  C   UNL A   1      33.724  33.781  32.905  1.00  0.00     0.014 A 
ATOM     28  C   UNL A   1      35.125  35.615  32.187  1.00  0.00     0.014 A 
ATOM     29  C   UNL A   1      34.858  33.065  33.299  1.00  0.00     0.010 A 
ATOM     30  C   UNL A   1      36.262  34.880  32.538  1.00  0.00     0.010 A 
ATOM     31  C   UNL A   1      36.140  33.598  33.098  1.00  0.00    -0.014 A 
BRANCH  31  32
ATOM     32  C   UNL A   1      37.357  32.823  33.459  1.00  0.00     0.031 A 
ATOM     33  C   UNL A   1      38.100  33.109  34.734  1.00  0.00     0.074 A 
ATOM     34  C   UNL A   1      37.825  31.886  32.611  1.00  0.00     0.049 A 
ATOM     35  N   UNL A   1      39.218  32.584  35.173  1.00  0.00    -0.248 NA
ATOM     36  C   UNL A   1      37.524  34.128  35.622  1.00  0.00     0.031 C 
ATOM     37  C   UNL A   1      37.216  31.524  31.330  1.00  0.00     0.029 A 
ATOM     38  N   UNL A   1      38.930  31.077  32.696  1.00  0.00    -0.354 N 
ATOM     39  C   UNL A   1      39.489  33.222  36.377  1.00  0.00     0.074 A 
ATOM     40  C   UNL A   1      38.431  34.189  36.588  1.00  0.00     0.031 C 
ATOM     41  C   UNL A   1      37.950  30.558  30.754  1.00  0.00     0.029 A 
ATOM     42  C   UNL A   1      39.096  30.256  31.607  1.00  0.00     0.049 A 
ATOM     43  H   UNL A   1      39.546  31.085  33.463  1.00  0.00     0.167 HD
ATOM     44  C   UNL A   1      40.517  33.015  37.234  1.00  0.00     0.037 A 
ATOM     45  C   UNL A   1      40.065  29.368  31.321  1.00  0.00     0.037 A 
ATOM     46  C   UNL A   1      41.554  32.032  37.049  1.00  0.00     0.049 A 
ATOM     47  C   UNL A   1      41.196  29.158  32.287  1.00  0.00     0.074 A 
ATOM     48  C   UNL A   1      42.596  31.709  37.903  1.00  0.00     0.029 A 
ATOM     49  N   UNL A   1      41.680  31.215  35.938  1.00  0.00    -0.354 N 
ATOM     50  N   UNL A   1      41.410  29.734  33.444  1.00  0.00    -0.248 NA
ATOM     51  C   UNL A   1      42.219  28.173  31.906  1.00  0.00     0.031 C 
ATOM     52  C   UNL A   1      43.370  30.713  37.294  1.00  0.00     0.029 A 
ATOM     53  C   UNL A   1      42.791  30.398  36.075  1.00  0.00     0.049 A 
ATOM     54  H   UNL A   1      41.070  31.214  35.166  1.00  0.00     0.167 HD
ATOM     55  C   UNL A   1      42.577  29.168  33.939  1.00  0.00     0.074 A 
ATOM     56  C   UNL A   1      43.022  28.197  32.961  1.00  0.00     0.031 C 
ATOM     57  C   UNL A   1      43.220  29.431  35.101  1.00  0.00     0.037 A 
BRANCH  44  58
ATOM     58  C   UNL A   1      40.576  33.874  38.460  1.00  0.00     0.057 A 
ATOM     59  C   UNL A   1      39.884  33.534  39.629  1.00  0.00     0.134 A 
ATOM     60  C   UNL A   1      41.370  35.027  38.488  1.00  0.00     0.134 A 
ATOM     61  F   UNL A   1      39.100  32.447  39.662  1.00  0.00    -0.206 F 
ATOM     62  C   UNL A   1      39.965  34.323  40.778  1.00  0.00     0.040 A 
ATOM     63  C   UNL A   1      41.475  35.813  39.636  1.00  0.00     0.040 A 
ATOM     64  F   UNL A   1      42.064  35.402  37.402  1.00  0.00    -0.206 F 
ATOM     65  C   UNL A   1      40.767  35.463  40.785  1.00  0.00     0.006 A 
ENDBRANCH  44  58
BRANCH  45  66
ATOM     66  C   UNL A   1      40.004  28.590  30.060  1.00  0.00     0.057 A 
ATOM     67  C   UNL A   1      39.278  27.397  29.988  1.00  0.00     0.134 A 
ATOM     68  C   UNL A   1      40.672  29.016  28.907  1.00  0.00     0.134 A 
ATOM     69  F   UNL A   1      38.636  26.932  31.069  1.00  0.00    -0.206 F 
ATOM     70  C   UNL A   1      39.226  26.646  28.813  1.00  0.00     0.040 A 
ATOM     71  C   UNL A   1      40.615  28.284  27.720  1.00  0.00     0.040 A 
ATOM     72  F   UNL A   1      41.382  30.154  28.916  1.00  0.00    -0.206 F 
ATOM     73  C   UNL A   1      39.893  27.092  27.673  1.00  0.00     0.006 A 
ENDBRANCH  45  66
BRANCH  57  74
ATOM     74  C   UNL A   1      44.456  28.636  35.393  1.00  0.00     0.057 A 
ATOM     75  C   UNL A   1      45.727  29.086  35.014  1.00  0.00     0.134 A 
ATOM     76  C   UNL A   1      44.377  27.423  36.087  1.00  0.00     0.134 A 
ATOM     77  F   UNL A   1      45.865  30.233  34.333  1.00  0.00    -0.206 F 
ATOM     78  C   UNL A   1      46.876  28.348  35.302  1.00  0.00     0.040 A 
ATOM     79  C   UNL A   1      45.520  26.684  36.395  1.00  0.00     0.040 A 
ATOM     80  F   UNL A   1      43.189  26.939  36.480  1.00  0.00    -0.206 F 
ATOM     81  C   UNL A   1      46.773  27.145  35.999  1.00  0.00     0.006 A 
ENDBRANCH  57  74
ENDBRANCH  31  32
ENDBRANCH  23  26
ENDBRANCH  21  22
ENDBRANCH   1  21
TORSDOF 12
ENDMDL
MODEL 3
REMARK VINA RESULT:     -10.3      4.309      7.216
REMARK SMILES O=C(C[NH+]1CCC2(CC1)CC(=O)N2)NCCCCNC(=O)c1ccc(-c2c3nc(c(-c4c(F)cccc4F)c4ccc([nH]4)c(-c4c(F)cccc4F)c4nc(c(-c5c(F)cccc5F)c5ccc2[nH]5)C=C4)C=C3)cc1
REMARK SMILES IDX 17 1 16 2 15 3 14 4 1 5 2 6 3 8 4 9 5 10 9 11 6 13 8 14 7 15
REMARK SMILES IDX 10 16 13 17 11 18 12 20 18 21 19 22 20 23 21 25 22 26 23 27
REMARK SMILES IDX 75 28 24 29 74 30 25 31 26 32 27 33 68 34 28 35 73 36 67 37
REMARK SMILES IDX 69 38 29 39 72 40 66 41 65 42 30 44 56 45 39 46 55 47 40 48
REMARK SMILES IDX 43 49 54 50 70 51 41 52 42 53 53 55 71 56 44 57 31 58 32 59
REMARK SMILES IDX 37 60 33 61 34 62 36 63 38 64 35 65 57 66 58 67 63 68 59 69
REMARK SMILES IDX 60 70 62 71 64 72 61 73 45 74 46 75 51 76 47 77 48 78 50 79
REMARK SMILES IDX 52 80 49 81
REMARK H PARENT 14 7 4 12 13 19 19 24 69 43 43 54
REMARK Flexibility Score: inf
ROOT
ATOM      1  C   UNL A   1      33.754  28.093  25.769  1.00  0.00     0.023 C 
ENDROOT
BRANCH   1   2
ATOM      2  C   UNL A   1      34.010  26.629  25.370  1.00  0.00     0.023 C 
BRANCH   2   3
ATOM      3  C   UNL A   1      32.833  25.893  24.723  1.00  0.00     0.116 C 
BRANCH   3   4
ATOM      4  N   UNL A   1      33.128  24.489  24.548  1.00  0.00    -0.351 N 
ATOM      5  O   UNL A   1      33.937  24.585  22.401  1.00  0.00    -0.269 OA
ATOM      6  C   UNL A   1      33.672  23.936  23.406  1.00  0.00     0.275 C 
ATOM      7  H   UNL A   1      32.927  23.884  25.297  1.00  0.00     0.163 HD
BRANCH   6   8
ATOM      8  C   UNL A   1      33.854  22.411  23.513  1.00  0.00     0.363 C 
BRANCH   8   9
ATOM      9  N   UNL A   1      33.351  21.836  24.783  1.00  0.00    -0.327 N 
ATOM     10  C   UNL A   1      32.206  20.928  24.679  1.00  0.00     0.265 C 
ATOM     11  C   UNL A   1      34.432  21.176  25.538  1.00  0.00     0.265 C 
ATOM     12  H   UNL A   1      33.002  22.653  25.284  1.00  0.00     0.348 HD
ATOM     13  C   UNL A   1      32.531  19.614  23.970  1.00  0.00     0.090 C 
ATOM     14  C   UNL A   1      34.901  19.852  24.921  1.00  0.00     0.090 C 
ATOM     15  C   UNL A   1      33.726  18.927  24.622  1.00  0.00     0.059 C 
ATOM     16  C   UNL A   1      34.124  17.594  23.921  1.00  0.00     0.128 C 
ATOM     17  N   UNL A   1      33.323  18.110  25.764  1.00  0.00    -0.350 N 
ATOM     18  C   UNL A   1      33.451  16.922  25.127  1.00  0.00     0.222 C 
ATOM     19  H   UNL A   1      33.054  18.344  26.681  1.00  0.00     0.164 HD
ATOM     20  O   UNL A   1      33.088  15.814  25.444  1.00  0.00    -0.275 OA
ENDBRANCH   8   9
ENDBRANCH   6   8
ENDBRANCH   3   4
ENDBRANCH   2   3
ENDBRANCH   1   2
BRANCH   1  21
ATOM     21  C   UNL A   1      33.648  28.371  27.267  1.00  0.00     0.116 C 
BRANCH  21  22
ATOM     22  N   UNL A   1      33.588  29.791  27.556  1.00  0.00    -0.352 N 
ATOM     23  C   UNL A   1      34.511  30.617  28.150  1.00  0.00     0.251 C 
ATOM     24  H   UNL A   1      32.753  30.234  27.282  1.00  0.00     0.163 HD
ATOM     25  O   UNL A   1      34.177  31.757  28.464  1.00  0.00    -0.269 OA
BRANCH  23  26
ATOM     26  C   UNL A   1      35.894  30.162  28.437  1.00  0.00     0.039 A 
ATOM     27  C   UNL A   1      36.833  30.202  27.399  1.00  0.00     0.014 A 
ATOM     28  C   UNL A   1      36.260  29.630  29.677  1.00  0.00     0.014 A 
ATOM     29  C   UNL A   1      38.141  29.758  27.614  1.00  0.00     0.010 A 
ATOM     30  C   UNL A   1      37.581  29.230  29.906  1.00  0.00     0.010 A 
ATOM     31  C   UNL A   1      38.534  29.290  28.876  1.00  0.00    -0.014 A 
BRANCH  31  32
ATOM     32  C   UNL A   1      39.937  28.872  29.134  1.00  0.00     0.031 A 
ATOM     33  C   UNL A   1      40.909  29.806  29.800  1.00  0.00     0.074 A 
ATOM     34  C   UNL A   1      40.356  27.658  28.725  1.00  0.00     0.049 A 
ATOM     35  N   UNL A   1      42.186  29.638  30.038  1.00  0.00    -0.248 NA
ATOM     36  C   UNL A   1      40.381  31.105  30.241  1.00  0.00     0.031 C 
ATOM     37  C   UNL A   1      39.527  26.662  28.045  1.00  0.00     0.029 A 
ATOM     38  N   UNL A   1      41.590  27.064  28.809  1.00  0.00    -0.354 N 
ATOM     39  C   UNL A   1      42.619  30.814  30.636  1.00  0.00     0.074 A 
ATOM     40  C   UNL A   1      41.474  31.698  30.704  1.00  0.00     0.031 C 
ATOM     41  C   UNL A   1      40.273  25.576  27.783  1.00  0.00     0.029 A 
ATOM     42  C   UNL A   1      41.638  25.811  28.247  1.00  0.00     0.049 A 
ATOM     43  H   UNL A   1      42.368  27.494  29.232  1.00  0.00     0.167 HD
ATOM     44  C   UNL A   1      43.854  31.127  31.097  1.00  0.00     0.037 A 
ATOM     45  C   UNL A   1      42.664  24.952  28.110  1.00  0.00     0.037 A 
ATOM     46  C   UNL A   1      44.990  30.243  31.065  1.00  0.00     0.049 A 
ATOM     47  C   UNL A   1      44.024  25.323  28.627  1.00  0.00     0.074 A 
ATOM     48  C   UNL A   1      46.262  30.454  31.573  1.00  0.00     0.029 A 
ATOM     49  N   UNL A   1      44.993  28.980  30.495  1.00  0.00    -0.354 N 
ATOM     50  N   UNL A   1      44.404  26.420  29.235  1.00  0.00    -0.248 NA
ATOM     51  C   UNL A   1      45.097  24.336  28.440  1.00  0.00     0.031 C 
ATOM     52  C   UNL A   1      47.042  29.328  31.285  1.00  0.00     0.029 A 
ATOM     53  C   UNL A   1      46.248  28.406  30.625  1.00  0.00     0.049 A 
ATOM     54  H   UNL A   1      44.218  28.553  30.064  1.00  0.00     0.167 HD
ATOM     55  C   UNL A   1      45.751  26.247  29.521  1.00  0.00     0.074 A 
ATOM     56  C   UNL A   1      46.122  24.936  29.028  1.00  0.00     0.031 C 
ATOM     57  C   UNL A   1      46.604  27.099  30.139  1.00  0.00     0.037 A 
BRANCH  44  58
ATOM     58  C   UNL A   1      44.047  32.494  31.680  1.00  0.00     0.057 A 
ATOM     59  C   UNL A   1      44.419  33.586  30.885  1.00  0.00     0.134 A 
ATOM     60  C   UNL A   1      43.812  32.731  33.039  1.00  0.00     0.134 A 
ATOM     61  F   UNL A   1      44.666  33.421  29.578  1.00  0.00    -0.206 F 
ATOM     62  C   UNL A   1      44.569  34.863  31.428  1.00  0.00     0.040 A 
ATOM     63  C   UNL A   1      43.941  34.007  33.590  1.00  0.00     0.040 A 
ATOM     64  F   UNL A   1      43.446  31.728  33.852  1.00  0.00    -0.206 F 
ATOM     65  C   UNL A   1      44.324  35.077  32.783  1.00  0.00     0.006 A 
ENDBRANCH  44  58
BRANCH  45  66
ATOM     66  C   UNL A   1      42.443  23.638  27.461  1.00  0.00     0.057 A 
ATOM     67  C   UNL A   1      42.549  23.495  26.074  1.00  0.00     0.134 A 
ATOM     68  C   UNL A   1      42.117  22.501  28.209  1.00  0.00     0.134 A 
ATOM     69  F   UNL A   1      42.839  24.556  25.307  1.00  0.00    -0.206 F 
ATOM     70  C   UNL A   1      42.327  22.267  25.449  1.00  0.00     0.040 A 
ATOM     71  C   UNL A   1      41.909  21.263  27.599  1.00  0.00     0.040 A 
ATOM     72  F   UNL A   1      42.005  22.577  29.543  1.00  0.00    -0.206 F 
ATOM     73  C   UNL A   1      42.009  21.145  26.214  1.00  0.00     0.006 A 
ENDBRANCH  45  66
BRANCH  57  74
ATOM     74  C   UNL A   1      48.012  26.629  30.343  1.00  0.00     0.057 A 
ATOM     75  C   UNL A   1      48.391  25.923  31.491  1.00  0.00     0.134 A 
ATOM     76  C   UNL A   1      48.989  26.859  29.368  1.00  0.00     0.134 A 
ATOM     77  F   UNL A   1      47.502  25.685  32.467  1.00  0.00    -0.206 F 
ATOM     78  C   UNL A   1      49.701  25.475  31.669  1.00  0.00     0.040 A 
ATOM     79  C   UNL A   1      50.298  26.401  29.527  1.00  0.00     0.040 A 
ATOM     80  F   UNL A   1      48.687  27.527  28.244  1.00  0.00    -0.206 F 
ATOM     81  C   UNL A   1      50.657  25.710  30.683  1.00  0.00     0.006 A 
ENDBRANCH  57  74
ENDBRANCH  31  32
ENDBRANCH  23  26
ENDBRANCH  21  22
ENDBRANCH   1  21
TORSDOF 12
ENDMDL
