MODEL 1
REMARK VINA RESULT:     -11.5      0.000      0.000
REMARK SMILES O=C(CC1C[NH+]([C@@H]2CCO[C@]3(CCOC3)C2)C1)NCCCCNC(=O)c1ccc(-c2c3nc(c(-c4c(F)cccc4F)c4ccc([nH]4)c(-c4c(F)cccc4F)c4nc(c(-c5c(F)cccc5F)c5ccc2[nH]5)C=C4)C=C3)cc1
REMARK SMILES IDX 20 1 19 2 18 3 1 4 2 5 3 7 4 8 5 9 17 10 6 11 7 13 8 14
REMARK SMILES IDX 16 15 9 16 11 17 10 18 12 19 15 20 13 21 14 22 21 23 22 24
REMARK SMILES IDX 23 25 24 26 25 28 26 29 27 30 79 31 28 32 78 33 29 34 30 35
REMARK SMILES IDX 31 36 72 37 32 38 77 39 71 40 73 41 33 42 76 43 70 44 69 45
REMARK SMILES IDX 34 47 60 48 43 49 59 50 44 51 47 52 58 53 74 54 45 55 46 56
REMARK SMILES IDX 57 58 75 59 48 60 35 61 36 62 41 63 37 64 38 65 40 66 42 67
REMARK SMILES IDX 39 68 61 69 62 70 67 71 63 72 64 73 66 74 68 75 65 76 49 77
REMARK SMILES IDX 50 78 55 79 51 80 52 81 54 82 56 83 53 84
REMARK H PARENT 18 6 6 12 23 27 73 46 47 57
REMARK Flexibility Score: inf
ROOT
ATOM      1  C   UNL A   1      31.904  29.639  25.641  1.00  0.00     0.023 C 
ENDROOT
BRANCH   1   2
ATOM      2  C   UNL A   1      31.022  29.305  24.438  1.00  0.00     0.116 C 
BRANCH   2   3
ATOM      3  N   UNL A   1      31.260  27.975  23.894  1.00  0.00    -0.356 N 
ATOM      4  O   UNL A   1      30.098  28.328  21.940  1.00  0.00    -0.275 OA
ATOM      5  C   UNL A   1      30.844  27.630  22.619  1.00  0.00     0.220 C 
ATOM      6  H   UNL A   1      31.727  27.307  24.445  1.00  0.00     0.163 HD
BRANCH   5   7
ATOM      7  C   UNL A   1      31.436  26.335  22.071  1.00  0.00     0.115 C 
BRANCH   7   8
ATOM      8  C   UNL A   1      31.607  25.228  23.112  1.00  0.00     0.108 C 
ATOM      9  C   UNL A   1      30.668  24.008  23.362  1.00  0.00     0.272 C 
ATOM     10  C   UNL A   1      32.621  24.147  22.712  1.00  0.00     0.272 C 
ATOM     11  N   UNL A   1      31.872  23.131  23.440  1.00  0.00    -0.331 N 
ATOM     12  H   UNL A   1      31.849  22.169  23.103  1.00  0.00     0.348 HD
BRANCH  11  13
ATOM     13  C   UNL A   1      32.340  22.789  24.800  1.00  0.00     0.189 C 
ATOM     14  C   UNL A   1      33.779  23.073  25.238  1.00  0.00     0.093 C 
ATOM     15  C   UNL A   1      32.020  21.325  25.216  1.00  0.00     0.103 C 
ATOM     16  C   UNL A   1      34.772  22.050  24.716  1.00  0.00     0.167 C 
ATOM     17  C   UNL A   1      33.066  20.270  24.788  1.00  0.00     0.099 C 
ATOM     18  O   UNL A   1      34.417  20.705  24.989  1.00  0.00    -0.372 OA
ATOM     19  C   UNL A   1      32.781  19.694  23.397  1.00  0.00     0.066 C 
ATOM     20  C   UNL A   1      32.955  18.985  25.626  1.00  0.00     0.195 C 
ATOM     21  C   UNL A   1      32.114  18.347  23.605  1.00  0.00     0.163 C 
ATOM     22  O   UNL A   1      31.979  18.151  25.008  1.00  0.00    -0.378 OA
ENDBRANCH  11  13
ENDBRANCH   7   8
ENDBRANCH   5   7
ENDBRANCH   2   3
ENDBRANCH   1   2
BRANCH   1  23
ATOM     23  C   UNL A   1      33.079  28.686  25.884  1.00  0.00     0.023 C 
BRANCH  23  24
ATOM     24  C   UNL A   1      33.739  28.773  27.261  1.00  0.00     0.116 C 
BRANCH  24  25
ATOM     25  N   UNL A   1      33.755  30.117  27.815  1.00  0.00    -0.352 N 
ATOM     26  C   UNL A   1      34.756  30.795  28.474  1.00  0.00     0.251 C 
ATOM     27  H   UNL A   1      32.919  30.623  27.699  1.00  0.00     0.163 HD
ATOM     28  O   UNL A   1      34.521  31.893  28.967  1.00  0.00    -0.269 OA
BRANCH  26  29
ATOM     29  C   UNL A   1      36.105  30.200  28.630  1.00  0.00     0.039 A 
ATOM     30  C   UNL A   1      36.976  30.218  27.535  1.00  0.00     0.014 A 
ATOM     31  C   UNL A   1      36.516  29.614  29.829  1.00  0.00     0.014 A 
ATOM     32  C   UNL A   1      38.277  29.725  27.666  1.00  0.00     0.010 A 
ATOM     33  C   UNL A   1      37.837  29.191  29.982  1.00  0.00     0.010 A 
ATOM     34  C   UNL A   1      38.736  29.248  28.905  1.00  0.00    -0.014 A 
BRANCH  34  35
ATOM     35  C   UNL A   1      40.150  28.827  29.095  1.00  0.00     0.031 A 
ATOM     36  C   UNL A   1      41.161  29.777  29.679  1.00  0.00     0.074 A 
ATOM     37  C   UNL A   1      40.545  27.606  28.681  1.00  0.00     0.049 A 
ATOM     38  N   UNL A   1      42.448  29.611  29.856  1.00  0.00    -0.248 NA
ATOM     39  C   UNL A   1      40.663  31.096  30.099  1.00  0.00     0.031 C 
ATOM     40  C   UNL A   1      39.679  26.601  28.062  1.00  0.00     0.029 A 
ATOM     41  N   UNL A   1      41.780  27.005  28.706  1.00  0.00    -0.354 N 
ATOM     42  C   UNL A   1      42.915  30.805  30.391  1.00  0.00     0.074 A 
ATOM     43  C   UNL A   1      41.783  31.704  30.463  1.00  0.00     0.031 C 
ATOM     44  C   UNL A   1      40.401  25.502  27.791  1.00  0.00     0.029 A 
ATOM     45  C   UNL A   1      41.790  25.739  28.174  1.00  0.00     0.049 A 
ATOM     46  H   UNL A   1      42.584  27.441  29.073  1.00  0.00     0.167 HD
ATOM     47  C   UNL A   1      44.167  31.119  30.803  1.00  0.00     0.037 A 
ATOM     48  C   UNL A   1      42.803  24.868  28.002  1.00  0.00     0.037 A 
ATOM     49  C   UNL A   1      45.290  30.218  30.749  1.00  0.00     0.049 A 
ATOM     50  C   UNL A   1      44.189  25.250  28.445  1.00  0.00     0.074 A 
ATOM     51  C   UNL A   1      46.582  30.426  31.200  1.00  0.00     0.029 A 
ATOM     52  N   UNL A   1      45.257  28.944  30.204  1.00  0.00    -0.354 N 
ATOM     53  N   UNL A   1      44.600  26.357  29.013  1.00  0.00    -0.248 NA
ATOM     54  C   UNL A   1      45.252  24.258  28.225  1.00  0.00     0.031 C 
ATOM     55  C   UNL A   1      47.345  29.298  30.878  1.00  0.00     0.029 A 
ATOM     56  C   UNL A   1      46.514  28.365  30.281  1.00  0.00     0.049 A 
ATOM     57  H   UNL A   1      44.459  28.514  29.821  1.00  0.00     0.167 HD
ATOM     58  C   UNL A   1      45.958  26.181  29.250  1.00  0.00     0.074 A 
ATOM     59  C   UNL A   1      46.298  24.857  28.774  1.00  0.00     0.031 C 
ATOM     60  C   UNL A   1      46.842  27.041  29.811  1.00  0.00     0.037 A 
BRANCH  47  61
ATOM     61  C   UNL A   1      44.394  32.502  31.347  1.00  0.00     0.057 A 
ATOM     62  C   UNL A   1      44.762  33.572  30.521  1.00  0.00     0.134 A 
ATOM     63  C   UNL A   1      44.205  32.774  32.708  1.00  0.00     0.134 A 
ATOM     64  F   UNL A   1      44.967  33.379  29.209  1.00  0.00    -0.206 F 
ATOM     65  C   UNL A   1      44.960  34.856  31.032  1.00  0.00     0.040 A 
ATOM     66  C   UNL A   1      44.372  34.059  33.226  1.00  0.00     0.040 A 
ATOM     67  F   UNL A   1      43.844  31.798  33.556  1.00  0.00    -0.206 F 
ATOM     68  C   UNL A   1      44.758  35.103  32.389  1.00  0.00     0.006 A 
ENDBRANCH  47  61
BRANCH  48  69
ATOM     69  C   UNL A   1      42.547  23.535  27.395  1.00  0.00     0.057 A 
ATOM     70  C   UNL A   1      42.236  22.428  28.193  1.00  0.00     0.134 A 
ATOM     71  C   UNL A   1      42.624  23.331  26.011  1.00  0.00     0.134 A 
ATOM     72  F   UNL A   1      42.168  22.554  29.526  1.00  0.00    -0.206 F 
ATOM     73  C   UNL A   1      42.033  21.161  27.641  1.00  0.00     0.040 A 
ATOM     74  C   UNL A   1      42.395  22.077  25.443  1.00  0.00     0.040 A 
ATOM     75  F   UNL A   1      42.910  24.352  25.191  1.00  0.00    -0.206 F 
ATOM     76  C   UNL A   1      42.108  20.984  26.261  1.00  0.00     0.006 A 
ENDBRANCH  48  69
BRANCH  60  77
ATOM     77  C   UNL A   1      48.255  26.563  29.984  1.00  0.00     0.057 A 
ATOM     78  C   UNL A   1      49.242  26.793  29.016  1.00  0.00     0.134 A 
ATOM     79  C   UNL A   1      48.643  25.897  31.153  1.00  0.00     0.134 A 
ATOM     80  F   UNL A   1      48.935  27.414  27.868  1.00  0.00    -0.206 F 
ATOM     81  C   UNL A   1      50.555  26.355  29.195  1.00  0.00     0.040 A 
ATOM     82  C   UNL A   1      49.959  25.480  31.357  1.00  0.00     0.040 A 
ATOM     83  F   UNL A   1      47.751  25.652  32.126  1.00  0.00    -0.206 F 
ATOM     84  C   UNL A   1      50.918  25.703  30.372  1.00  0.00     0.006 A 
ENDBRANCH  60  77
ENDBRANCH  34  35
ENDBRANCH  26  29
ENDBRANCH  24  25
ENDBRANCH  23  24
ENDBRANCH   1  23
TORSDOF 13
ENDMDL
MODEL 2
REMARK VINA RESULT:     -11.3      2.830      8.372
REMARK SMILES O=C(CC1C[NH+]([C@@H]2CCO[C@]3(CCOC3)C2)C1)NCCCCNC(=O)c1ccc(-c2c3nc(c(-c4c(F)cccc4F)c4ccc([nH]4)c(-c4c(F)cccc4F)c4nc(c(-c5c(F)cccc5F)c5ccc2[nH]5)C=C4)C=C3)cc1
REMARK SMILES IDX 20 1 19 2 18 3 1 4 2 5 3 7 4 8 5 9 17 10 6 11 7 13 8 14
REMARK SMILES IDX 16 15 9 16 11 17 10 18 12 19 15 20 13 21 14 22 21 23 22 24
REMARK SMILES IDX 23 25 24 26 25 28 26 29 27 30 79 31 28 32 78 33 29 34 30 35
REMARK SMILES IDX 31 36 72 37 32 38 77 39 71 40 73 41 33 42 76 43 70 44 69 45
REMARK SMILES IDX 34 47 60 48 43 49 59 50 44 51 47 52 58 53 74 54 45 55 46 56
REMARK SMILES IDX 57 58 75 59 48 60 35 61 36 62 41 63 37 64 38 65 40 66 42 67
REMARK SMILES IDX 39 68 61 69 62 70 67 71 63 72 64 73 66 74 68 75 65 76 49 77
REMARK SMILES IDX 50 78 55 79 51 80 52 81 54 82 56 83 53 84
REMARK H PARENT 18 6 6 12 23 27 73 46 47 57
REMARK Flexibility Score: inf
ROOT
ATOM      1  C   UNL A   1      35.728  21.604  25.920  1.00  0.00     0.023 C 
ENDROOT
BRANCH   1   2
ATOM      2  C   UNL A   1      34.760  20.703  25.155  1.00  0.00     0.116 C 
BRANCH   2   3
ATOM      3  N   UNL A   1      33.892  21.428  24.237  1.00  0.00    -0.356 N 
ATOM      4  O   UNL A   1      31.935  20.489  25.001  1.00  0.00    -0.275 OA
ATOM      5  C   UNL A   1      32.513  21.322  24.309  1.00  0.00     0.220 C 
ATOM      6  H   UNL A   1      34.295  22.006  23.550  1.00  0.00     0.163 HD
BRANCH   5   7
ATOM      7  C   UNL A   1      31.739  22.367  23.512  1.00  0.00     0.115 C 
BRANCH   7   8
ATOM      8  C   UNL A   1      31.314  23.592  24.322  1.00  0.00     0.108 C 
ATOM      9  C   UNL A   1      31.572  23.866  25.836  1.00  0.00     0.272 C 
ATOM     10  C   UNL A   1      32.221  24.816  24.123  1.00  0.00     0.272 C 
ATOM     11  N   UNL A   1      31.974  25.259  25.490  1.00  0.00    -0.331 N 
ATOM     12  H   UNL A   1      32.701  25.747  26.012  1.00  0.00     0.348 HD
BRANCH  11  13
ATOM     13  C   UNL A   1      30.942  26.301  25.688  1.00  0.00     0.189 C 
ATOM     14  C   UNL A   1      30.215  26.932  24.498  1.00  0.00     0.093 C 
ATOM     15  C   UNL A   1      31.408  27.467  26.604  1.00  0.00     0.103 C 
ATOM     16  C   UNL A   1      31.042  27.987  23.786  1.00  0.00     0.167 C 
ATOM     17  C   UNL A   1      32.166  28.611  25.891  1.00  0.00     0.099 C 
ATOM     18  O   UNL A   1      31.570  28.985  24.643  1.00  0.00    -0.372 OA
ATOM     19  C   UNL A   1      33.677  28.362  25.829  1.00  0.00     0.066 C 
ATOM     20  C   UNL A   1      32.153  29.907  26.719  1.00  0.00     0.195 C 
ATOM     21  C   UNL A   1      34.307  29.189  26.934  1.00  0.00     0.163 C 
ATOM     22  O   UNL A   1      33.253  29.851  27.624  1.00  0.00    -0.378 OA
ENDBRANCH  11  13
ENDBRANCH   7   8
ENDBRANCH   5   7
ENDBRANCH   2   3
ENDBRANCH   1   2
BRANCH   1  23
ATOM     23  C   UNL A   1      35.764  23.068  25.470  1.00  0.00     0.023 C 
BRANCH  23  24
ATOM     24  C   UNL A   1      37.128  23.602  25.031  1.00  0.00     0.116 C 
BRANCH  24  25
ATOM     25  N   UNL A   1      38.235  22.725  25.376  1.00  0.00    -0.352 N 
ATOM     26  C   UNL A   1      39.369  22.972  26.116  1.00  0.00     0.251 C 
ATOM     27  H   UNL A   1      38.161  21.808  25.026  1.00  0.00     0.163 HD
ATOM     28  O   UNL A   1      40.243  22.115  26.191  1.00  0.00    -0.269 OA
BRANCH  26  29
ATOM     29  C   UNL A   1      39.567  24.276  26.794  1.00  0.00     0.039 A 
ATOM     30  C   UNL A   1      39.037  24.452  28.077  1.00  0.00     0.014 A 
ATOM     31  C   UNL A   1      40.250  25.328  26.180  1.00  0.00     0.014 A 
ATOM     32  C   UNL A   1      39.262  25.644  28.771  1.00  0.00     0.010 A 
ATOM     33  C   UNL A   1      40.537  26.489  26.899  1.00  0.00     0.010 A 
ATOM     34  C   UNL A   1      40.053  26.658  28.206  1.00  0.00    -0.014 A 
BRANCH  34  35
ATOM     35  C   UNL A   1      40.399  27.885  28.973  1.00  0.00     0.031 A 
ATOM     36  C   UNL A   1      41.721  27.998  29.683  1.00  0.00     0.074 A 
ATOM     37  C   UNL A   1      39.495  28.878  29.087  1.00  0.00     0.049 A 
ATOM     38  N   UNL A   1      42.168  28.959  30.452  1.00  0.00    -0.248 NA
ATOM     39  C   UNL A   1      42.655  26.873  29.525  1.00  0.00     0.031 C 
ATOM     40  C   UNL A   1      38.161  28.882  28.484  1.00  0.00     0.029 A 
ATOM     41  N   UNL A   1      39.554  30.074  29.761  1.00  0.00    -0.354 N 
ATOM     42  C   UNL A   1      43.425  28.548  30.881  1.00  0.00     0.074 A 
ATOM     43  C   UNL A   1      43.648  27.230  30.328  1.00  0.00     0.031 C 
ATOM     44  C   UNL A   1      37.540  30.032  28.792  1.00  0.00     0.029 A 
ATOM     45  C   UNL A   1      38.411  30.828  29.651  1.00  0.00     0.049 A 
ATOM     46  H   UNL A   1      40.344  30.364  30.273  1.00  0.00     0.167 HD
ATOM     47  C   UNL A   1      44.319  29.214  31.650  1.00  0.00     0.037 A 
ATOM     48  C   UNL A   1      38.093  32.022  30.189  1.00  0.00     0.037 A 
ATOM     49  C   UNL A   1      44.106  30.534  32.187  1.00  0.00     0.049 A 
ATOM     50  C   UNL A   1      39.094  32.730  31.060  1.00  0.00     0.074 A 
ATOM     51  C   UNL A   1      44.979  31.315  32.926  1.00  0.00     0.029 A 
ATOM     52  N   UNL A   1      42.935  31.264  32.051  1.00  0.00    -0.354 N 
ATOM     53  N   UNL A   1      40.305  32.359  31.398  1.00  0.00    -0.248 NA
ATOM     54  C   UNL A   1      38.685  34.026  31.621  1.00  0.00     0.031 C 
ATOM     55  C   UNL A   1      44.317  32.494  33.283  1.00  0.00     0.029 A 
ATOM     56  C   UNL A   1      43.052  32.474  32.717  1.00  0.00     0.049 A 
ATOM     57  H   UNL A   1      42.139  30.968  31.554  1.00  0.00     0.167 HD
ATOM     58  C   UNL A   1      40.813  33.389  32.181  1.00  0.00     0.074 A 
ATOM     59  C   UNL A   1      39.784  34.404  32.257  1.00  0.00     0.031 C 
ATOM     60  C   UNL A   1      42.025  33.483  32.781  1.00  0.00     0.037 A 
BRANCH  47  61
ATOM     61  C   UNL A   1      45.617  28.524  31.965  1.00  0.00     0.057 A 
ATOM     62  C   UNL A   1      45.765  27.702  33.089  1.00  0.00     0.134 A 
ATOM     63  C   UNL A   1      46.720  28.653  31.112  1.00  0.00     0.134 A 
ATOM     64  F   UNL A   1      44.751  27.541  33.953  1.00  0.00    -0.206 F 
ATOM     65  C   UNL A   1      46.971  27.055  33.369  1.00  0.00     0.040 A 
ATOM     66  C   UNL A   1      47.921  27.988  31.364  1.00  0.00     0.040 A 
ATOM     67  F   UNL A   1      46.646  29.418  30.011  1.00  0.00    -0.206 F 
ATOM     68  C   UNL A   1      48.051  27.192  32.500  1.00  0.00     0.006 A 
ENDBRANCH  47  61
BRANCH  48  69
ATOM     69  C   UNL A   1      36.770  32.638  29.908  1.00  0.00     0.057 A 
ATOM     70  C   UNL A   1      35.660  32.360  30.715  1.00  0.00     0.134 A 
ATOM     71  C   UNL A   1      36.577  33.502  28.823  1.00  0.00     0.134 A 
ATOM     72  F   UNL A   1      35.774  31.523  31.757  1.00  0.00    -0.206 F 
ATOM     73  C   UNL A   1      34.402  32.900  30.440  1.00  0.00     0.040 A 
ATOM     74  C   UNL A   1      35.332  34.072  28.553  1.00  0.00     0.040 A 
ATOM     75  F   UNL A   1      37.602  33.815  28.016  1.00  0.00    -0.206 F 
ATOM     76  C   UNL A   1      34.236  33.763  29.359  1.00  0.00     0.006 A 
ENDBRANCH  48  69
BRANCH  60  77
ATOM     77  C   UNL A   1      42.323  34.745  33.538  1.00  0.00     0.057 A 
ATOM     78  C   UNL A   1      42.926  35.854  32.929  1.00  0.00     0.134 A 
ATOM     79  C   UNL A   1      41.967  34.867  34.888  1.00  0.00     0.134 A 
ATOM     80  F   UNL A   1      43.303  35.801  31.643  1.00  0.00    -0.206 F 
ATOM     81  C   UNL A   1      43.185  37.026  33.640  1.00  0.00     0.040 A 
ATOM     82  C   UNL A   1      42.194  36.043  35.603  1.00  0.00     0.040 A 
ATOM     83  F   UNL A   1      41.378  33.847  35.531  1.00  0.00    -0.206 F 
ATOM     84  C   UNL A   1      42.812  37.125  34.980  1.00  0.00     0.006 A 
ENDBRANCH  60  77
ENDBRANCH  34  35
ENDBRANCH  26  29
ENDBRANCH  24  25
ENDBRANCH  23  24
ENDBRANCH   1  23
TORSDOF 13
ENDMDL
MODEL 3
REMARK VINA RESULT:     -11.3      2.435      7.683
REMARK SMILES O=C(CC1C[NH+]([C@@H]2CCO[C@]3(CCOC3)C2)C1)NCCCCNC(=O)c1ccc(-c2c3nc(c(-c4c(F)cccc4F)c4ccc([nH]4)c(-c4c(F)cccc4F)c4nc(c(-c5c(F)cccc5F)c5ccc2[nH]5)C=C4)C=C3)cc1
REMARK SMILES IDX 20 1 19 2 18 3 1 4 2 5 3 7 4 8 5 9 17 10 6 11 7 13 8 14
REMARK SMILES IDX 16 15 9 16 11 17 10 18 12 19 15 20 13 21 14 22 21 23 22 24
REMARK SMILES IDX 23 25 24 26 25 28 26 29 27 30 79 31 28 32 78 33 29 34 30 35
REMARK SMILES IDX 31 36 72 37 32 38 77 39 71 40 73 41 33 42 76 43 70 44 69 45
REMARK SMILES IDX 34 47 60 48 43 49 59 50 44 51 47 52 58 53 74 54 45 55 46 56
REMARK SMILES IDX 57 58 75 59 48 60 35 61 36 62 41 63 37 64 38 65 40 66 42 67
REMARK SMILES IDX 39 68 61 69 62 70 67 71 63 72 64 73 66 74 68 75 65 76 49 77
REMARK SMILES IDX 50 78 55 79 51 80 52 81 54 82 56 83 53 84
REMARK H PARENT 18 6 6 12 23 27 73 46 47 57
REMARK Flexibility Score: inf
ROOT
ATOM      1  C   UNL A   1      36.361  21.078  24.939  1.00  0.00     0.023 C 
ENDROOT
BRANCH   1   2
ATOM      2  C   UNL A   1      34.919  20.592  25.076  1.00  0.00     0.116 C 
BRANCH   2   3
ATOM      3  N   UNL A   1      34.002  21.216  24.133  1.00  0.00    -0.356 N 
ATOM      4  O   UNL A   1      32.142  20.061  24.840  1.00  0.00    -0.275 OA
ATOM      5  C   UNL A   1      32.642  20.956  24.164  1.00  0.00     0.220 C 
ATOM      6  H   UNL A   1      34.356  21.839  23.458  1.00  0.00     0.163 HD
BRANCH   5   7
ATOM      7  C   UNL A   1      31.778  21.910  23.345  1.00  0.00     0.115 C 
BRANCH   7   8
ATOM      8  C   UNL A   1      31.402  23.202  24.070  1.00  0.00     0.108 C 
ATOM      9  C   UNL A   1      32.211  23.936  25.183  1.00  0.00     0.272 C 
ATOM     10  C   UNL A   1      31.689  24.476  23.262  1.00  0.00     0.272 C 
ATOM     11  N   UNL A   1      31.956  25.227  24.482  1.00  0.00    -0.331 N 
ATOM     12  H   UNL A   1      32.647  25.977  24.484  1.00  0.00     0.348 HD
BRANCH  11  13
ATOM     13  C   UNL A   1      30.855  26.054  25.023  1.00  0.00     0.189 C 
ATOM     14  C   UNL A   1      29.933  26.850  24.097  1.00  0.00     0.093 C 
ATOM     15  C   UNL A   1      31.306  27.021  26.154  1.00  0.00     0.103 C 
ATOM     16  C   UNL A   1      30.561  28.139  23.597  1.00  0.00     0.167 C 
ATOM     17  C   UNL A   1      31.855  28.387  25.681  1.00  0.00     0.099 C 
ATOM     18  O   UNL A   1      31.082  28.966  24.623  1.00  0.00    -0.372 OA
ATOM     19  C   UNL A   1      33.365  28.353  25.425  1.00  0.00     0.066 C 
ATOM     20  C   UNL A   1      31.808  29.439  26.802  1.00  0.00     0.195 C 
ATOM     21  C   UNL A   1      34.034  28.969  26.639  1.00  0.00     0.163 C 
ATOM     22  O   UNL A   1      33.007  29.311  27.563  1.00  0.00    -0.378 OA
ENDBRANCH  11  13
ENDBRANCH   7   8
ENDBRANCH   5   7
ENDBRANCH   2   3
ENDBRANCH   1   2
BRANCH   1  23
ATOM     23  C   UNL A   1      37.435  19.988  25.000  1.00  0.00     0.023 C 
BRANCH  23  24
ATOM     24  C   UNL A   1      38.712  20.346  25.762  1.00  0.00     0.116 C 
BRANCH  24  25
ATOM     25  N   UNL A   1      39.713  19.291  25.748  1.00  0.00    -0.352 N 
ATOM     26  C   UNL A   1      41.071  19.350  25.966  1.00  0.00     0.251 C 
ATOM     27  H   UNL A   1      39.364  18.391  25.552  1.00  0.00     0.163 HD
ATOM     28  O   UNL A   1      41.757  18.349  25.791  1.00  0.00    -0.269 OA
BRANCH  26  29
ATOM     29  C   UNL A   1      41.722  20.618  26.374  1.00  0.00     0.039 A 
ATOM     30  C   UNL A   1      42.128  21.514  25.379  1.00  0.00     0.014 A 
ATOM     31  C   UNL A   1      41.953  20.928  27.717  1.00  0.00     0.014 A 
ATOM     32  C   UNL A   1      42.686  22.746  25.730  1.00  0.00     0.010 A 
ATOM     33  C   UNL A   1      42.441  22.187  28.069  1.00  0.00     0.010 A 
ATOM     34  C   UNL A   1      42.806  23.115  27.080  1.00  0.00    -0.014 A 
BRANCH  34  35
ATOM     35  C   UNL A   1      43.290  24.466  27.472  1.00  0.00     0.031 A 
ATOM     36  C   UNL A   1      42.318  25.535  27.893  1.00  0.00     0.074 A 
ATOM     37  C   UNL A   1      44.603  24.756  27.387  1.00  0.00     0.049 A 
ATOM     38  N   UNL A   1      42.547  26.787  28.202  1.00  0.00    -0.248 NA
ATOM     39  C   UNL A   1      40.898  25.153  27.951  1.00  0.00     0.031 C 
ATOM     40  C   UNL A   1      45.649  23.826  26.957  1.00  0.00     0.029 A 
ATOM     41  N   UNL A   1      45.285  25.920  27.648  1.00  0.00    -0.354 N 
ATOM     42  C   UNL A   1      41.303  27.344  28.477  1.00  0.00     0.074 A 
ATOM     43  C   UNL A   1      40.319  26.308  28.248  1.00  0.00     0.031 C 
ATOM     44  C   UNL A   1      46.839  24.446  27.007  1.00  0.00     0.029 A 
ATOM     45  C   UNL A   1      46.638  25.828  27.430  1.00  0.00     0.049 A 
ATOM     46  H   UNL A   1      44.844  26.742  27.963  1.00  0.00     0.167 HD
ATOM     47  C   UNL A   1      41.009  28.597  28.899  1.00  0.00     0.037 A 
ATOM     48  C   UNL A   1      47.609  26.755  27.546  1.00  0.00     0.037 A 
ATOM     49  C   UNL A   1      41.990  29.624  29.145  1.00  0.00     0.049 A 
ATOM     50  C   UNL A   1      47.253  28.147  27.992  1.00  0.00     0.074 A 
ATOM     51  C   UNL A   1      41.792  30.904  29.633  1.00  0.00     0.029 A 
ATOM     52  N   UNL A   1      43.350  29.490  28.913  1.00  0.00    -0.354 N 
ATOM     53  N   UNL A   1      46.081  28.638  28.315  1.00  0.00    -0.248 NA
ATOM     54  C   UNL A   1      48.356  29.113  28.094  1.00  0.00     0.031 C 
ATOM     55  C   UNL A   1      43.026  31.564  29.645  1.00  0.00     0.029 A 
ATOM     56  C   UNL A   1      44.000  30.675  29.220  1.00  0.00     0.049 A 
ATOM     57  H   UNL A   1      43.789  28.674  28.581  1.00  0.00     0.167 HD
ATOM     58  C   UNL A   1      46.311  29.956  28.690  1.00  0.00     0.074 A 
ATOM     59  C   UNL A   1      47.735  30.184  28.566  1.00  0.00     0.031 C 
ATOM     60  C   UNL A   1      45.421  30.891  29.101  1.00  0.00     0.037 A 
BRANCH  47  61
ATOM     61  C   UNL A   1      39.561  28.935  29.119  1.00  0.00     0.057 A 
ATOM     62  C   UNL A   1      38.735  29.371  28.076  1.00  0.00     0.134 A 
ATOM     63  C   UNL A   1      38.976  28.784  30.383  1.00  0.00     0.134 A 
ATOM     64  F   UNL A   1      39.232  29.544  26.842  1.00  0.00    -0.206 F 
ATOM     65  C   UNL A   1      37.387  29.672  28.286  1.00  0.00     0.040 A 
ATOM     66  C   UNL A   1      37.624  29.053  30.601  1.00  0.00     0.040 A 
ATOM     67  F   UNL A   1      39.707  28.361  31.427  1.00  0.00    -0.206 F 
ATOM     68  C   UNL A   1      36.828  29.507  29.552  1.00  0.00     0.006 A 
ENDBRANCH  47  61
BRANCH  48  69
ATOM     69  C   UNL A   1      49.021  26.398  27.251  1.00  0.00     0.057 A 
ATOM     70  C   UNL A   1      49.529  26.482  25.949  1.00  0.00     0.134 A 
ATOM     71  C   UNL A   1      49.890  25.949  28.253  1.00  0.00     0.134 A 
ATOM     72  F   UNL A   1      48.741  26.885  24.941  1.00  0.00    -0.206 F 
ATOM     73  C   UNL A   1      50.841  26.112  25.649  1.00  0.00     0.040 A 
ATOM     74  C   UNL A   1      51.213  25.602  27.973  1.00  0.00     0.040 A 
ATOM     75  F   UNL A   1      49.468  25.852  29.522  1.00  0.00    -0.206 F 
ATOM     76  C   UNL A   1      51.689  25.674  26.664  1.00  0.00     0.006 A 
ENDBRANCH  48  69
BRANCH  60  77
ATOM     77  C   UNL A   1      45.963  32.236  29.489  1.00  0.00     0.057 A 
ATOM     78  C   UNL A   1      46.056  33.293  28.574  1.00  0.00     0.134 A 
ATOM     79  C   UNL A   1      46.363  32.489  30.808  1.00  0.00     0.134 A 
ATOM     80  F   UNL A   1      45.702  33.116  27.293  1.00  0.00    -0.206 F 
ATOM     81  C   UNL A   1      46.550  34.543  28.952  1.00  0.00     0.040 A 
ATOM     82  C   UNL A   1      46.831  33.742  31.205  1.00  0.00     0.040 A 
ATOM     83  F   UNL A   1      46.292  31.524  31.738  1.00  0.00    -0.206 F 
ATOM     84  C   UNL A   1      46.932  34.772  30.273  1.00  0.00     0.006 A 
ENDBRANCH  60  77
ENDBRANCH  34  35
ENDBRANCH  26  29
ENDBRANCH  24  25
ENDBRANCH  23  24
ENDBRANCH   1  23
TORSDOF 13
ENDMDL
