MODEL 1
REMARK VINA RESULT:     -10.6      0.000      0.000
REMARK SMILES CCS(=O)(=O)N1CCC[C@@H](C(=O)NCCCCNC(=O)c2ccc(-c3c4nc(c(-c5c(F)cccc5F)c5ccc([nH]5)c(-c5c(F)cccc5F)c5nc(c(-c6c(F)cccc6F)c6ccc3[nH]6)C=C5)C=C4)cc2)C1
REMARK SMILES IDX 15 1 14 2 13 3 11 4 12 5 10 7 6 8 7 9 75 10 8 11 9 12 3 13
REMARK SMILES IDX 4 14 5 15 2 16 1 17 16 18 17 19 18 20 19 21 20 23 21 24
REMARK SMILES IDX 22 25 74 26 23 27 73 28 24 29 25 30 26 31 67 32 27 33 72 34
REMARK SMILES IDX 66 35 68 36 28 37 71 38 65 39 64 40 29 42 55 43 38 44 54 45
REMARK SMILES IDX 39 46 42 47 53 48 69 49 40 50 41 51 52 53 70 54 43 55 30 56
REMARK SMILES IDX 31 57 36 58 32 59 33 60 35 61 37 62 34 63 56 64 57 65 62 66
REMARK SMILES IDX 58 67 59 68 61 69 63 70 60 71 44 72 45 73 50 74 46 75 47 76
REMARK SMILES IDX 49 77 51 78 48 79
REMARK H PARENT 13 6 18 22 68 41 42 52
REMARK Flexibility Score: inf
ROOT
ATOM      1  C   UNL A   1      38.344  22.361  25.709  1.00  0.00     0.023 C 
ENDROOT
BRANCH   1   2
ATOM      2  C   UNL A   1      36.920  22.767  25.341  1.00  0.00     0.116 C 
BRANCH   2   3
ATOM      3  N   UNL A   1      35.966  22.407  26.378  1.00  0.00    -0.356 N 
ATOM      4  C   UNL A   1      34.865  21.605  26.344  1.00  0.00     0.224 C 
ATOM      5  O   UNL A   1      34.230  21.463  27.392  1.00  0.00    -0.275 OA
ATOM      6  H   UNL A   1      36.147  22.813  27.257  1.00  0.00     0.163 HD
BRANCH   4   7
ATOM      7  C   UNL A   1      34.432  20.890  25.072  1.00  0.00     0.093 C 
ATOM      8  N   UNL A   1      33.957  18.574  24.157  1.00  0.00    -0.201 NA
ATOM      9  C   UNL A   1      32.525  18.971  24.041  1.00  0.00     0.102 C 
ATOM     10  C   UNL A   1      34.672  19.383  25.203  1.00  0.00     0.115 C 
ATOM     11  C   UNL A   1      32.449  20.417  23.580  1.00  0.00     0.018 C 
ATOM     12  C   UNL A   1      33.030  21.334  24.644  1.00  0.00     0.016 C 
BRANCH   8  13
ATOM     13  S   UNL A   1      34.207  16.887  24.369  1.00  0.00     0.213 S 
ATOM     14  O   UNL A   1      35.493  16.711  25.006  1.00  0.00    -0.212 OA
ATOM     15  O   UNL A   1      33.923  16.245  23.099  1.00  0.00    -0.212 OA
BRANCH  13  16
ATOM     16  C   UNL A   1      32.902  16.388  25.486  1.00  0.00     0.151 C 
ATOM     17  C   UNL A   1      32.553  14.918  25.465  1.00  0.00     0.022 C 
ENDBRANCH  13  16
ENDBRANCH   8  13
ENDBRANCH   4   7
ENDBRANCH   2   3
ENDBRANCH   1   2
BRANCH   1  18
ATOM     18  C   UNL A   1      38.728  20.944  25.285  1.00  0.00     0.023 C 
BRANCH  18  19
ATOM     19  C   UNL A   1      39.293  20.068  26.397  1.00  0.00     0.116 C 
BRANCH  19  20
ATOM     20  N   UNL A   1      40.435  19.272  25.971  1.00  0.00    -0.352 N 
ATOM     21  C   UNL A   1      41.762  19.623  25.915  1.00  0.00     0.251 C 
ATOM     22  H   UNL A   1      40.226  18.354  25.683  1.00  0.00     0.163 HD
ATOM     23  O   UNL A   1      42.580  18.869  25.397  1.00  0.00    -0.269 OA
BRANCH  21  24
ATOM     24  C   UNL A   1      42.195  20.930  26.451  1.00  0.00     0.039 A 
ATOM     25  C   UNL A   1      42.530  21.949  25.557  1.00  0.00     0.014 A 
ATOM     26  C   UNL A   1      42.244  21.157  27.829  1.00  0.00     0.014 A 
ATOM     27  C   UNL A   1      42.844  23.218  26.044  1.00  0.00     0.010 A 
ATOM     28  C   UNL A   1      42.477  22.442  28.308  1.00  0.00     0.010 A 
ATOM     29  C   UNL A   1      42.780  23.486  27.422  1.00  0.00    -0.014 A 
BRANCH  29  30
ATOM     30  C   UNL A   1      43.020  24.854  27.952  1.00  0.00     0.031 A 
ATOM     31  C   UNL A   1      44.405  25.279  28.354  1.00  0.00     0.074 A 
ATOM     32  C   UNL A   1      41.980  25.692  28.130  1.00  0.00     0.049 A 
ATOM     33  N   UNL A   1      44.802  26.405  28.889  1.00  0.00    -0.248 NA
ATOM     34  C   UNL A   1      45.483  24.298  28.152  1.00  0.00     0.031 C 
ATOM     35  C   UNL A   1      40.581  25.384  27.824  1.00  0.00     0.029 A 
ATOM     36  N   UNL A   1      41.937  26.974  28.619  1.00  0.00    -0.354 N 
ATOM     37  C   UNL A   1      46.168  26.265  29.096  1.00  0.00     0.074 A 
ATOM     38  C   UNL A   1      46.522  24.923  28.686  1.00  0.00     0.031 C 
ATOM     39  C   UNL A   1      39.823  26.454  28.106  1.00  0.00     0.029 A 
ATOM     40  C   UNL A   1      40.671  27.508  28.653  1.00  0.00     0.049 A 
ATOM     41  H   UNL A   1      42.737  27.464  28.918  1.00  0.00     0.167 HD
ATOM     42  C   UNL A   1      47.053  27.178  29.561  1.00  0.00     0.037 A 
ATOM     43  C   UNL A   1      40.241  28.710  29.085  1.00  0.00     0.037 A 
ATOM     44  C   UNL A   1      46.700  28.518  29.955  1.00  0.00     0.049 A 
ATOM     45  C   UNL A   1      41.241  29.698  29.620  1.00  0.00     0.074 A 
ATOM     46  C   UNL A   1      47.533  29.534  30.389  1.00  0.00     0.029 A 
ATOM     47  N   UNL A   1      45.409  29.023  29.970  1.00  0.00    -0.354 N 
ATOM     48  N   UNL A   1      42.541  29.576  29.743  1.00  0.00    -0.248 NA
ATOM     49  C   UNL A   1      40.713  30.993  30.072  1.00  0.00     0.031 C 
ATOM     50  C   UNL A   1      46.739  30.638  30.719  1.00  0.00     0.029 A 
ATOM     51  C   UNL A   1      45.419  30.329  30.432  1.00  0.00     0.049 A 
ATOM     52  H   UNL A   1      44.605  28.527  29.693  1.00  0.00     0.167 HD
ATOM     53  C   UNL A   1      42.989  30.788  30.254  1.00  0.00     0.074 A 
ATOM     54  C   UNL A   1      41.825  31.635  30.405  1.00  0.00     0.031 C 
ATOM     55  C   UNL A   1      44.252  31.165  30.571  1.00  0.00     0.037 A 
BRANCH  42  56
ATOM     56  C   UNL A   1      48.491  26.757  29.670  1.00  0.00     0.057 A 
ATOM     57  C   UNL A   1      49.406  26.968  28.629  1.00  0.00     0.134 A 
ATOM     58  C   UNL A   1      48.976  26.162  30.842  1.00  0.00     0.134 A 
ATOM     59  F   UNL A   1      49.006  27.523  27.474  1.00  0.00    -0.206 F 
ATOM     60  C   UNL A   1      50.741  26.576  28.738  1.00  0.00     0.040 A 
ATOM     61  C   UNL A   1      50.316  25.794  30.974  1.00  0.00     0.040 A 
ATOM     62  F   UNL A   1      48.158  25.936  31.881  1.00  0.00    -0.206 F 
ATOM     63  C   UNL A   1      51.201  25.992  29.918  1.00  0.00     0.006 A 
ENDBRANCH  42  56
BRANCH  43  64
ATOM     64  C   UNL A   1      38.798  29.056  29.012  1.00  0.00     0.057 A 
ATOM     65  C   UNL A   1      38.226  29.525  27.824  1.00  0.00     0.134 A 
ATOM     66  C   UNL A   1      37.961  28.939  30.128  1.00  0.00     0.134 A 
ATOM     67  F   UNL A   1      38.981  29.676  26.726  1.00  0.00    -0.206 F 
ATOM     68  C   UNL A   1      36.880  29.888  27.753  1.00  0.00     0.040 A 
ATOM     69  C   UNL A   1      36.606  29.272  30.064  1.00  0.00     0.040 A 
ATOM     70  F   UNL A   1      38.444  28.489  31.295  1.00  0.00    -0.206 F 
ATOM     71  C   UNL A   1      36.064  29.757  28.875  1.00  0.00     0.006 A 
ENDBRANCH  43  64
BRANCH  55  72
ATOM     72  C   UNL A   1      44.449  32.568  31.070  1.00  0.00     0.057 A 
ATOM     73  C   UNL A   1      44.445  32.879  32.436  1.00  0.00     0.134 A 
ATOM     74  C   UNL A   1      44.683  33.616  30.170  1.00  0.00     0.134 A 
ATOM     75  F   UNL A   1      44.214  31.924  33.351  1.00  0.00    -0.206 F 
ATOM     76  C   UNL A   1      44.641  34.186  32.887  1.00  0.00     0.040 A 
ATOM     77  C   UNL A   1      44.911  34.920  30.611  1.00  0.00     0.040 A 
ATOM     78  F   UNL A   1      44.711  33.387  28.849  1.00  0.00    -0.206 F 
ATOM     79  C   UNL A   1      44.882  35.209  31.973  1.00  0.00     0.006 A 
ENDBRANCH  55  72
ENDBRANCH  29  30
ENDBRANCH  21  24
ENDBRANCH  19  20
ENDBRANCH  18  19
ENDBRANCH   1  18
TORSDOF 13
ENDMDL
MODEL 2
REMARK VINA RESULT:     -10.5      4.897      9.627
REMARK SMILES CCS(=O)(=O)N1CCC[C@@H](C(=O)NCCCCNC(=O)c2ccc(-c3c4nc(c(-c5c(F)cccc5F)c5ccc([nH]5)c(-c5c(F)cccc5F)c5nc(c(-c6c(F)cccc6F)c6ccc3[nH]6)C=C5)C=C4)cc2)C1
REMARK SMILES IDX 15 1 14 2 13 3 11 4 12 5 10 7 6 8 7 9 75 10 8 11 9 12 3 13
REMARK SMILES IDX 4 14 5 15 2 16 1 17 16 18 17 19 18 20 19 21 20 23 21 24
REMARK SMILES IDX 22 25 74 26 23 27 73 28 24 29 25 30 26 31 67 32 27 33 72 34
REMARK SMILES IDX 66 35 68 36 28 37 71 38 65 39 64 40 29 42 55 43 38 44 54 45
REMARK SMILES IDX 39 46 42 47 53 48 69 49 40 50 41 51 52 53 70 54 43 55 30 56
REMARK SMILES IDX 31 57 36 58 32 59 33 60 35 61 37 62 34 63 56 64 57 65 62 66
REMARK SMILES IDX 58 67 59 68 61 69 63 70 60 71 44 72 45 73 50 74 46 75 47 76
REMARK SMILES IDX 49 77 51 78 48 79
REMARK H PARENT 13 6 18 22 68 41 42 52
REMARK Flexibility Score: inf
ROOT
ATOM      1  C   UNL A   1      31.645  30.252  26.267  1.00  0.00     0.023 C 
ENDROOT
BRANCH   1   2
ATOM      2  C   UNL A   1      31.255  29.792  24.866  1.00  0.00     0.116 C 
BRANCH   2   3
ATOM      3  N   UNL A   1      32.410  29.682  23.988  1.00  0.00    -0.356 N 
ATOM      4  C   UNL A   1      33.189  28.612  23.662  1.00  0.00     0.224 C 
ATOM      5  O   UNL A   1      34.114  28.801  22.869  1.00  0.00    -0.275 OA
ATOM      6  H   UNL A   1      32.675  30.525  23.556  1.00  0.00     0.163 HD
BRANCH   4   7
ATOM      7  C   UNL A   1      32.926  27.225  24.231  1.00  0.00     0.093 C 
ATOM      8  N   UNL A   1      33.304  24.768  23.734  1.00  0.00    -0.201 NA
ATOM      9  C   UNL A   1      34.224  24.726  24.905  1.00  0.00     0.102 C 
ATOM     10  C   UNL A   1      33.193  26.155  23.167  1.00  0.00     0.115 C 
ATOM     11  C   UNL A   1      33.650  25.590  26.016  1.00  0.00     0.018 C 
ATOM     12  C   UNL A   1      33.625  27.046  25.582  1.00  0.00     0.016 C 
BRANCH   8  13
ATOM     13  S   UNL A   1      33.655  23.605  22.518  1.00  0.00     0.213 S 
ATOM     14  O   UNL A   1      35.005  23.135  22.737  1.00  0.00    -0.212 OA
ATOM     15  O   UNL A   1      33.278  24.185  21.243  1.00  0.00    -0.212 OA
BRANCH  13  16
ATOM     16  C   UNL A   1      32.492  22.281  22.831  1.00  0.00     0.151 C 
ATOM     17  C   UNL A   1      32.904  21.290  23.893  1.00  0.00     0.022 C 
ENDBRANCH  13  16
ENDBRANCH   8  13
ENDBRANCH   4   7
ENDBRANCH   2   3
ENDBRANCH   1   2
BRANCH   1  18
ATOM     18  C   UNL A   1      31.442  31.746  26.522  1.00  0.00     0.023 C 
BRANCH  18  19
ATOM     19  C   UNL A   1      32.667  32.482  27.051  1.00  0.00     0.116 C 
BRANCH  19  20
ATOM     20  N   UNL A   1      32.377  33.846  27.467  1.00  0.00    -0.352 N 
ATOM     21  C   UNL A   1      32.992  34.606  28.432  1.00  0.00     0.251 C 
ATOM     22  H   UNL A   1      31.635  34.285  26.990  1.00  0.00     0.163 HD
ATOM     23  O   UNL A   1      32.528  35.696  28.752  1.00  0.00    -0.269 OA
BRANCH  21  24
ATOM     24  C   UNL A   1      34.198  34.088  29.110  1.00  0.00     0.039 A 
ATOM     25  C   UNL A   1      34.043  33.262  30.226  1.00  0.00     0.014 A 
ATOM     26  C   UNL A   1      35.474  34.394  28.631  1.00  0.00     0.014 A 
ATOM     27  C   UNL A   1      35.168  32.684  30.816  1.00  0.00     0.010 A 
ATOM     28  C   UNL A   1      36.586  33.753  29.170  1.00  0.00     0.010 A 
ATOM     29  C   UNL A   1      36.445  32.892  30.268  1.00  0.00    -0.014 A 
BRANCH  29  30
ATOM     30  C   UNL A   1      37.642  32.211  30.826  1.00  0.00     0.031 A 
ATOM     31  C   UNL A   1      38.287  32.721  32.084  1.00  0.00     0.074 A 
ATOM     32  C   UNL A   1      38.186  31.170  30.165  1.00  0.00     0.049 A 
ATOM     33  N   UNL A   1      39.367  32.299  32.690  1.00  0.00    -0.248 NA
ATOM     34  C   UNL A   1      37.648  33.877  32.734  1.00  0.00     0.031 C 
ATOM     35  C   UNL A   1      37.684  30.608  28.909  1.00  0.00     0.029 A 
ATOM     36  N   UNL A   1      39.287  30.402  30.454  1.00  0.00    -0.354 N 
ATOM     37  C   UNL A   1      39.542  33.141  33.782  1.00  0.00     0.074 A 
ATOM     38  C   UNL A   1      38.492  34.134  33.721  1.00  0.00     0.031 C 
ATOM     39  C   UNL A   1      38.457  29.571  28.551  1.00  0.00     0.029 A 
ATOM     40  C   UNL A   1      39.533  29.420  29.525  1.00  0.00     0.049 A 
ATOM     41  H   UNL A   1      39.848  30.543  31.251  1.00  0.00     0.167 HD
ATOM     42  C   UNL A   1      40.476  33.076  34.760  1.00  0.00     0.037 A 
ATOM     43  C   UNL A   1      40.521  28.506  29.461  1.00  0.00     0.037 A 
ATOM     44  C   UNL A   1      41.511  32.076  34.826  1.00  0.00     0.049 A 
ATOM     45  C   UNL A   1      41.560  28.471  30.547  1.00  0.00     0.074 A 
ATOM     46  C   UNL A   1      42.471  31.895  35.806  1.00  0.00     0.029 A 
ATOM     47  N   UNL A   1      41.724  31.095  33.870  1.00  0.00    -0.354 N 
ATOM     48  N   UNL A   1      41.671  29.228  31.612  1.00  0.00    -0.248 NA
ATOM     49  C   UNL A   1      42.610  27.449  30.425  1.00  0.00     0.031 C 
ATOM     50  C   UNL A   1      43.299  30.838  35.415  1.00  0.00     0.029 A 
ATOM     51  C   UNL A   1      42.818  30.322  34.223  1.00  0.00     0.049 A 
ATOM     52  H   UNL A   1      41.178  30.967  33.060  1.00  0.00     0.167 HD
ATOM     53  C   UNL A   1      42.780  28.754  32.302  1.00  0.00     0.074 A 
ATOM     54  C   UNL A   1      43.299  27.636  31.543  1.00  0.00     0.031 C 
ATOM     55  C   UNL A   1      43.320  29.205  33.461  1.00  0.00     0.037 A 
BRANCH  42  56
ATOM     56  C   UNL A   1      40.420  34.119  35.841  1.00  0.00     0.057 A 
ATOM     57  C   UNL A   1      39.682  33.928  37.017  1.00  0.00     0.134 A 
ATOM     58  C   UNL A   1      41.140  35.314  35.719  1.00  0.00     0.134 A 
ATOM     59  F   UNL A   1      38.960  32.811  37.194  1.00  0.00    -0.206 F 
ATOM     60  C   UNL A   1      39.636  34.901  38.018  1.00  0.00     0.040 A 
ATOM     61  C   UNL A   1      41.127  36.280  36.727  1.00  0.00     0.040 A 
ATOM     62  F   UNL A   1      41.875  35.560  34.624  1.00  0.00    -0.206 F 
ATOM     63  C   UNL A   1      40.367  36.079  37.876  1.00  0.00     0.006 A 
ENDBRANCH  42  56
BRANCH  43  64
ATOM     64  C   UNL A   1      40.566  27.535  28.337  1.00  0.00     0.057 A 
ATOM     65  C   UNL A   1      39.871  26.321  28.403  1.00  0.00     0.134 A 
ATOM     66  C   UNL A   1      41.312  27.788  27.180  1.00  0.00     0.134 A 
ATOM     67  F   UNL A   1      39.153  26.013  29.492  1.00  0.00    -0.206 F 
ATOM     68  C   UNL A   1      39.935  25.384  27.370  1.00  0.00     0.040 A 
ATOM     69  C   UNL A   1      41.362  26.872  26.127  1.00  0.00     0.040 A 
ATOM     70  F   UNL A   1      41.995  28.935  27.052  1.00  0.00    -0.206 F 
ATOM     71  C   UNL A   1      40.679  25.662  26.225  1.00  0.00     0.006 A 
ENDBRANCH  43  64
BRANCH  55  72
ATOM     72  C   UNL A   1      44.509  28.464  34.002  1.00  0.00     0.057 A 
ATOM     73  C   UNL A   1      45.823  28.849  33.710  1.00  0.00     0.134 A 
ATOM     74  C   UNL A   1      44.333  27.370  34.860  1.00  0.00     0.134 A 
ATOM     75  F   UNL A   1      46.062  29.880  32.885  1.00  0.00    -0.206 F 
ATOM     76  C   UNL A   1      46.919  28.158  34.230  1.00  0.00     0.040 A 
ATOM     77  C   UNL A   1      45.420  26.691  35.411  1.00  0.00     0.040 A 
ATOM     78  F   UNL A   1      43.100  26.954  35.191  1.00  0.00    -0.206 F 
ATOM     79  C   UNL A   1      46.718  27.079  35.090  1.00  0.00     0.006 A 
ENDBRANCH  55  72
ENDBRANCH  29  30
ENDBRANCH  21  24
ENDBRANCH  19  20
ENDBRANCH  18  19
ENDBRANCH   1  18
TORSDOF 13
ENDMDL
MODEL 3
REMARK VINA RESULT:     -10.4      3.807      8.155
REMARK SMILES CCS(=O)(=O)N1CCC[C@@H](C(=O)NCCCCNC(=O)c2ccc(-c3c4nc(c(-c5c(F)cccc5F)c5ccc([nH]5)c(-c5c(F)cccc5F)c5nc(c(-c6c(F)cccc6F)c6ccc3[nH]6)C=C5)C=C4)cc2)C1
REMARK SMILES IDX 15 1 14 2 13 3 11 4 12 5 10 7 6 8 7 9 75 10 8 11 9 12 3 13
REMARK SMILES IDX 4 14 5 15 2 16 1 17 16 18 17 19 18 20 19 21 20 23 21 24
REMARK SMILES IDX 22 25 74 26 23 27 73 28 24 29 25 30 26 31 67 32 27 33 72 34
REMARK SMILES IDX 66 35 68 36 28 37 71 38 65 39 64 40 29 42 55 43 38 44 54 45
REMARK SMILES IDX 39 46 42 47 53 48 69 49 40 50 41 51 52 53 70 54 43 55 30 56
REMARK SMILES IDX 31 57 36 58 32 59 33 60 35 61 37 62 34 63 56 64 57 65 62 66
REMARK SMILES IDX 58 67 59 68 61 69 63 70 60 71 44 72 45 73 50 74 46 75 47 76
REMARK SMILES IDX 49 77 51 78 48 79
REMARK H PARENT 13 6 18 22 68 41 42 52
REMARK Flexibility Score: inf
ROOT
ATOM      1  C   UNL A   1      32.786  29.487  24.955  1.00  0.00     0.023 C 
ENDROOT
BRANCH   1   2
ATOM      2  C   UNL A   1      31.261  29.492  24.952  1.00  0.00     0.116 C 
BRANCH   2   3
ATOM      3  N   UNL A   1      30.720  29.913  23.670  1.00  0.00    -0.356 N 
ATOM      4  C   UNL A   1      30.255  29.191  22.612  1.00  0.00     0.224 C 
ATOM      5  O   UNL A   1      29.835  29.815  21.635  1.00  0.00    -0.275 OA
ATOM      6  H   UNL A   1      30.683  30.889  23.544  1.00  0.00     0.163 HD
BRANCH   4   7
ATOM      7  C   UNL A   1      30.230  27.669  22.629  1.00  0.00     0.093 C 
ATOM      8  N   UNL A   1      31.770  25.655  22.593  1.00  0.00    -0.201 NA
ATOM      9  C   UNL A   1      31.331  25.360  23.986  1.00  0.00     0.102 C 
ATOM     10  C   UNL A   1      31.608  27.111  22.258  1.00  0.00     0.115 C 
ATOM     11  C   UNL A   1      29.846  25.659  24.110  1.00  0.00     0.018 C 
ATOM     12  C   UNL A   1      29.596  27.146  23.922  1.00  0.00     0.016 C 
BRANCH   8  13
ATOM     13  S   UNL A   1      33.344  25.080  22.212  1.00  0.00     0.213 S 
ATOM     14  O   UNL A   1      34.149  26.222  21.837  1.00  0.00    -0.212 OA
ATOM     15  O   UNL A   1      33.187  23.962  21.301  1.00  0.00    -0.212 OA
BRANCH  13  16
ATOM     16  C   UNL A   1      33.943  24.393  23.751  1.00  0.00     0.151 C 
ATOM     17  C   UNL A   1      34.228  22.910  23.735  1.00  0.00     0.022 C 
ENDBRANCH  13  16
ENDBRANCH   8  13
ENDBRANCH   4   7
ENDBRANCH   2   3
ENDBRANCH   1   2
BRANCH   1  18
ATOM     18  C   UNL A   1      33.415  28.300  25.684  1.00  0.00     0.023 C 
BRANCH  18  19
ATOM     19  C   UNL A   1      33.640  28.505  27.177  1.00  0.00     0.116 C 
BRANCH  19  20
ATOM     20  N   UNL A   1      33.600  29.905  27.573  1.00  0.00    -0.352 N 
ATOM     21  C   UNL A   1      34.576  30.663  28.172  1.00  0.00     0.251 C 
ATOM     22  H   UNL A   1      32.754  30.373  27.385  1.00  0.00     0.163 HD
ATOM     23  O   UNL A   1      34.325  31.798  28.565  1.00  0.00    -0.269 OA
BRANCH  21  24
ATOM     24  C   UNL A   1      35.924  30.092  28.374  1.00  0.00     0.039 A 
ATOM     25  C   UNL A   1      36.829  30.107  27.310  1.00  0.00     0.014 A 
ATOM     26  C   UNL A   1      36.301  29.570  29.614  1.00  0.00     0.014 A 
ATOM     27  C   UNL A   1      38.137  29.665  27.513  1.00  0.00     0.010 A 
ATOM     28  C   UNL A   1      37.625  29.206  29.835  1.00  0.00     0.010 A 
ATOM     29  C   UNL A   1      38.558  29.249  28.787  1.00  0.00    -0.014 A 
BRANCH  29  30
ATOM     30  C   UNL A   1      39.969  28.863  29.044  1.00  0.00     0.031 A 
ATOM     31  C   UNL A   1      40.915  29.836  29.690  1.00  0.00     0.074 A 
ATOM     32  C   UNL A   1      40.416  27.658  28.638  1.00  0.00     0.049 A 
ATOM     33  N   UNL A   1      42.193  29.706  29.941  1.00  0.00    -0.248 NA
ATOM     34  C   UNL A   1      40.358  31.140  30.082  1.00  0.00     0.031 C 
ATOM     35  C   UNL A   1      39.612  26.641  27.958  1.00  0.00     0.029 A 
ATOM     36  N   UNL A   1      41.661  27.086  28.733  1.00  0.00    -0.354 N 
ATOM     37  C   UNL A   1      42.592  30.909  30.509  1.00  0.00     0.074 A 
ATOM     38  C   UNL A   1      41.436  31.780  30.510  1.00  0.00     0.031 C 
ATOM     39  C   UNL A   1      40.374  25.562  27.721  1.00  0.00     0.029 A 
ATOM     40  C   UNL A   1      41.730  25.825  28.192  1.00  0.00     0.049 A 
ATOM     41  H   UNL A   1      42.431  27.538  29.149  1.00  0.00     0.167 HD
ATOM     42  C   UNL A   1      43.804  31.250  31.008  1.00  0.00     0.037 A 
ATOM     43  C   UNL A   1      42.772  24.978  28.081  1.00  0.00     0.037 A 
ATOM     44  C   UNL A   1      44.949  30.376  31.020  1.00  0.00     0.049 A 
ATOM     45  C   UNL A   1      44.114  25.390  28.621  1.00  0.00     0.074 A 
ATOM     46  C   UNL A   1      46.205  30.610  31.551  1.00  0.00     0.029 A 
ATOM     47  N   UNL A   1      44.978  29.105  30.468  1.00  0.00    -0.354 N 
ATOM     48  N   UNL A   1      44.458  26.504  29.220  1.00  0.00    -0.248 NA
ATOM     49  C   UNL A   1      45.211  24.423  28.475  1.00  0.00     0.031 C 
ATOM     50  C   UNL A   1      47.010  29.502  31.272  1.00  0.00     0.029 A 
ATOM     51  C   UNL A   1      46.239  28.552  30.622  1.00  0.00     0.049 A 
ATOM     52  H   UNL A   1      44.215  28.660  30.032  1.00  0.00     0.167 HD
ATOM     53  C   UNL A   1      45.800  26.359  29.551  1.00  0.00     0.074 A 
ATOM     54  C   UNL A   1      46.203  25.044  29.098  1.00  0.00     0.031 C 
ATOM     55  C   UNL A   1      46.625  27.237  30.173  1.00  0.00     0.037 A 
BRANCH  42  56
ATOM     56  C   UNL A   1      43.953  32.630  31.584  1.00  0.00     0.057 A 
ATOM     57  C   UNL A   1      44.349  33.721  30.799  1.00  0.00     0.134 A 
ATOM     58  C   UNL A   1      43.665  32.877  32.933  1.00  0.00     0.134 A 
ATOM     59  F   UNL A   1      44.651  33.553  29.503  1.00  0.00    -0.206 F 
ATOM     60  C   UNL A   1      44.483  35.001  31.341  1.00  0.00     0.040 A 
ATOM     61  C   UNL A   1      43.765  34.159  33.478  1.00  0.00     0.040 A 
ATOM     62  F   UNL A   1      43.272  31.881  33.741  1.00  0.00    -0.206 F 
ATOM     63  C   UNL A   1      44.183  35.224  32.683  1.00  0.00     0.006 A 
ENDBRANCH  42  56
BRANCH  43  64
ATOM     64  C   UNL A   1      42.586  23.647  27.447  1.00  0.00     0.057 A 
ATOM     65  C   UNL A   1      42.711  23.482  26.063  1.00  0.00     0.134 A 
ATOM     66  C   UNL A   1      42.268  22.514  28.205  1.00  0.00     0.134 A 
ATOM     67  F   UNL A   1      42.996  24.533  25.281  1.00  0.00    -0.206 F 
ATOM     68  C   UNL A   1      42.502  22.244  25.452  1.00  0.00     0.040 A 
ATOM     69  C   UNL A   1      42.085  21.264  27.610  1.00  0.00     0.040 A 
ATOM     70  F   UNL A   1      42.142  22.602  29.537  1.00  0.00    -0.206 F 
ATOM     71  C   UNL A   1      42.194  21.129  26.228  1.00  0.00     0.006 A 
ENDBRANCH  43  64
BRANCH  55  72
ATOM     72  C   UNL A   1      48.034  26.789  30.440  1.00  0.00     0.057 A 
ATOM     73  C   UNL A   1      49.093  27.114  29.585  1.00  0.00     0.134 A 
ATOM     74  C   UNL A   1      48.338  26.053  31.593  1.00  0.00     0.134 A 
ATOM     75  F   UNL A   1      48.869  27.807  28.456  1.00  0.00    -0.206 F 
ATOM     76  C   UNL A   1      50.400  26.702  29.852  1.00  0.00     0.040 A 
ATOM     77  C   UNL A   1      49.644  25.662  31.887  1.00  0.00     0.040 A 
ATOM     78  F   UNL A   1      47.372  25.717  32.462  1.00  0.00    -0.206 F 
ATOM     79  C   UNL A   1      50.679  25.980  31.010  1.00  0.00     0.006 A 
ENDBRANCH  55  72
ENDBRANCH  29  30
ENDBRANCH  21  24
ENDBRANCH  19  20
ENDBRANCH  18  19
ENDBRANCH   1  18
TORSDOF 13
ENDMDL
