MODEL 1
REMARK VINA RESULT:     -11.8      0.000      0.000
REMARK SMILES CC[C@](C)([NH2+]CC(=O)Nc1c(Cl)ccc(C)c1Cl)C(=O)NCCCCNC(=O)c1ccc(-c2c3nc(c(-c4c(F)cccc4F)c4ccc([nH]4)c(-c4c(F)cccc4F)c4nc(c(-c5c(F)cccc5F)c5ccc2[nH]5)C=C4)C=C3)cc1
REMARK SMILES IDX 22 1 21 2 19 3 20 4 3 6 4 7 2 8 1 9 5 10 6 13 7 14 8 15 9 16
REMARK SMILES IDX 10 18 11 19 17 20 12 21 13 22 15 23 18 24 14 25 16 26 23 27
REMARK SMILES IDX 24 28 25 29 26 30 27 31 28 33 29 34 30 35 82 36 31 37 81 38
REMARK SMILES IDX 32 39 33 40 34 41 75 42 35 43 80 44 74 45 76 46 36 47 79 48
REMARK SMILES IDX 73 49 72 50 37 52 63 53 46 54 62 55 47 56 50 57 61 58 77 59
REMARK SMILES IDX 48 60 49 61 60 63 78 64 51 65 38 66 39 67 44 68 40 69 41 70
REMARK SMILES IDX 43 71 45 72 42 73 64 74 65 75 70 76 66 77 67 78 69 79 71 80
REMARK SMILES IDX 68 81 52 82 53 83 58 84 54 85 55 86 57 87 59 88 56 89
REMARK H PARENT 21 5 5 11 5 12 9 17 26 32 76 51 50 62
REMARK Flexibility Score: inf
ROOT
ATOM      1  C   UNL A   1      36.553  21.750  25.455  1.00  0.00     0.116 C 
ENDROOT
BRANCH   1   2
ATOM      2  N   UNL A   1      35.453  22.000  26.404  1.00  0.00    -0.351 N 
ATOM      3  C   UNL A   1      34.184  21.482  26.609  1.00  0.00     0.281 C 
ATOM      4  O   UNL A   1      33.848  21.452  27.804  1.00  0.00    -0.268 OA
ATOM      5  H   UNL A   1      35.674  22.708  27.051  1.00  0.00     0.163 HD
BRANCH   3   6
ATOM      6  C   UNL A   1      33.090  21.244  25.472  1.00  0.00     0.172 C 
ATOM      7  C   UNL A   1      33.286  19.669  25.368  1.00  0.00     0.090 C 
BRANCH   6   8
ATOM      8  C   UNL A   1      33.211  21.590  23.931  1.00  0.00     0.075 C 
ATOM      9  C   UNL A   1      33.687  22.912  23.321  1.00  0.00     0.011 C 
ENDBRANCH   6   8
BRANCH   6  10
ATOM     10  N   UNL A   1      31.776  21.493  26.021  1.00  0.00    -0.326 N 
ATOM     11  H   UNL A   1      31.911  21.665  27.017  1.00  0.00     0.347 HD
ATOM     12  H   UNL A   1      31.260  20.665  25.726  1.00  0.00     0.347 HD
BRANCH  10  13
ATOM     13  C   UNL A   1      30.923  22.575  25.530  1.00  0.00     0.363 C 
BRANCH  13  14
ATOM     14  C   UNL A   1      30.261  23.719  26.330  1.00  0.00     0.279 C 
ATOM     15  O   UNL A   1      29.731  23.330  27.398  1.00  0.00    -0.268 OA
ATOM     16  N   UNL A   1      30.130  25.066  26.202  1.00  0.00    -0.319 N 
ATOM     17  H   UNL A   1      29.346  25.379  26.710  1.00  0.00     0.170 HD
BRANCH  16  18
ATOM     18  C   UNL A   1      30.769  26.168  25.567  1.00  0.00     0.079 A 
ATOM     19  C   UNL A   1      32.166  26.369  25.574  1.00  0.00     0.066 A 
ATOM     20  C   UNL A   1      30.079  26.840  24.528  1.00  0.00     0.069 A 
ATOM     21  Cl  UNL A   1      33.325  25.264  26.219  1.00  0.00    -0.082 Cl
ATOM     22  C   UNL A   1      32.768  27.424  24.874  1.00  0.00     0.023 A 
ATOM     23  C   UNL A   1      30.717  27.795  23.695  1.00  0.00    -0.030 A 
ATOM     24  Cl  UNL A   1      28.420  26.423  24.199  1.00  0.00    -0.082 Cl
ATOM     25  C   UNL A   1      32.045  28.142  23.943  1.00  0.00     0.006 A 
ATOM     26  C   UNL A   1      30.069  28.358  22.459  1.00  0.00     0.046 C 
ENDBRANCH  16  18
ENDBRANCH  13  14
ENDBRANCH  10  13
ENDBRANCH   6  10
ENDBRANCH   3   6
ENDBRANCH   1   2
BRANCH   1  27
ATOM     27  C   UNL A   1      36.794  20.298  25.020  1.00  0.00     0.023 C 
BRANCH  27  28
ATOM     28  C   UNL A   1      38.262  19.965  24.683  1.00  0.00     0.023 C 
BRANCH  28  29
ATOM     29  C   UNL A   1      39.303  20.054  25.806  1.00  0.00     0.116 C 
BRANCH  29  30
ATOM     30  N   UNL A   1      40.266  18.964  25.844  1.00  0.00    -0.352 N 
ATOM     31  C   UNL A   1      41.610  19.009  26.161  1.00  0.00     0.251 C 
ATOM     32  H   UNL A   1      39.913  18.075  25.613  1.00  0.00     0.163 HD
ATOM     33  O   UNL A   1      42.300  17.991  26.105  1.00  0.00    -0.269 OA
BRANCH  31  34
ATOM     34  C   UNL A   1      42.246  20.299  26.517  1.00  0.00     0.039 A 
ATOM     35  C   UNL A   1      42.840  21.065  25.509  1.00  0.00     0.014 A 
ATOM     36  C   UNL A   1      42.209  20.779  27.828  1.00  0.00     0.014 A 
ATOM     37  C   UNL A   1      43.292  22.359  25.793  1.00  0.00     0.010 A 
ATOM     38  C   UNL A   1      42.598  22.091  28.095  1.00  0.00     0.010 A 
ATOM     39  C   UNL A   1      43.123  22.904  27.077  1.00  0.00    -0.014 A 
BRANCH  39  40
ATOM     40  C   UNL A   1      43.454  24.326  27.365  1.00  0.00     0.031 A 
ATOM     41  C   UNL A   1      44.879  24.805  27.295  1.00  0.00     0.074 A 
ATOM     42  C   UNL A   1      42.487  25.170  27.777  1.00  0.00     0.049 A 
ATOM     43  N   UNL A   1      45.375  25.977  27.601  1.00  0.00    -0.248 NA
ATOM     44  C   UNL A   1      45.883  23.825  26.853  1.00  0.00     0.031 C 
ATOM     45  C   UNL A   1      41.073  24.823  27.946  1.00  0.00     0.029 A 
ATOM     46  N   UNL A   1      42.546  26.493  28.142  1.00  0.00    -0.354 N 
ATOM     47  C   UNL A   1      46.747  25.867  27.414  1.00  0.00     0.074 A 
ATOM     48  C   UNL A   1      47.010  24.502  27.013  1.00  0.00     0.031 C 
ATOM     49  C   UNL A   1      40.398  25.910  28.355  1.00  0.00     0.029 A 
ATOM     50  C   UNL A   1      41.332  27.022  28.510  1.00  0.00     0.049 A 
ATOM     51  H   UNL A   1      43.381  27.015  28.140  1.00  0.00     0.167 HD
ATOM     52  C   UNL A   1      47.700  26.822  27.541  1.00  0.00     0.037 A 
ATOM     53  C   UNL A   1      41.005  28.260  28.927  1.00  0.00     0.037 A 
ATOM     54  C   UNL A   1      47.435  28.191  27.895  1.00  0.00     0.049 A 
ATOM     55  C   UNL A   1      42.077  29.308  29.037  1.00  0.00     0.074 A 
ATOM     56  C   UNL A   1      48.325  29.249  27.974  1.00  0.00     0.029 A 
ATOM     57  N   UNL A   1      46.187  28.694  28.226  1.00  0.00    -0.354 N 
ATOM     58  N   UNL A   1      43.361  29.206  28.789  1.00  0.00    -0.248 NA
ATOM     59  C   UNL A   1      41.656  30.645  29.481  1.00  0.00     0.031 C 
ATOM     60  C   UNL A   1      47.619  30.385  28.383  1.00  0.00     0.029 A 
ATOM     61  C   UNL A   1      46.285  30.043  28.524  1.00  0.00     0.049 A 
ATOM     62  H   UNL A   1      45.353  28.170  28.246  1.00  0.00     0.167 HD
ATOM     63  C   UNL A   1      43.893  30.469  29.016  1.00  0.00     0.074 A 
ATOM     64  C   UNL A   1      42.793  31.323  29.412  1.00  0.00     0.031 C 
ATOM     65  C   UNL A   1      45.178  30.883  28.905  1.00  0.00     0.037 A 
BRANCH  52  66
ATOM     66  C   UNL A   1      49.122  26.416  27.283  1.00  0.00     0.057 A 
ATOM     67  C   UNL A   1      49.968  25.998  28.319  1.00  0.00     0.134 A 
ATOM     68  C   UNL A   1      49.644  26.417  25.984  1.00  0.00     0.134 A 
ATOM     69  F   UNL A   1      49.533  25.983  29.589  1.00  0.00    -0.206 F 
ATOM     70  C   UNL A   1      51.291  25.625  28.076  1.00  0.00     0.040 A 
ATOM     71  C   UNL A   1      50.957  26.022  25.725  1.00  0.00     0.040 A 
ATOM     72  F   UNL A   1      48.885  26.800  24.945  1.00  0.00    -0.206 F 
ATOM     73  C   UNL A   1      51.787  25.631  26.773  1.00  0.00     0.006 A 
ENDBRANCH  52  66
BRANCH  53  74
ATOM     74  C   UNL A   1      39.593  28.595  29.240  1.00  0.00     0.057 A 
ATOM     75  C   UNL A   1      38.747  29.130  28.260  1.00  0.00     0.134 A 
ATOM     76  C   UNL A   1      39.059  28.410  30.521  1.00  0.00     0.134 A 
ATOM     77  F   UNL A   1      39.209  29.350  27.020  1.00  0.00    -0.206 F 
ATOM     78  C   UNL A   1      37.428  29.485  28.545  1.00  0.00     0.040 A 
ATOM     79  C   UNL A   1      37.734  28.740  30.814  1.00  0.00     0.040 A 
ATOM     80  F   UNL A   1      39.815  27.897  31.503  1.00  0.00    -0.206 F 
ATOM     81  C   UNL A   1      36.917  29.286  29.826  1.00  0.00     0.006 A 
ENDBRANCH  53  74
BRANCH  65  82
ATOM     82  C   UNL A   1      45.460  32.330  29.179  1.00  0.00     0.057 A 
ATOM     83  C   UNL A   1      45.365  33.304  28.178  1.00  0.00     0.134 A 
ATOM     84  C   UNL A   1      45.788  32.758  30.472  1.00  0.00     0.134 A 
ATOM     85  F   UNL A   1      45.069  32.955  26.917  1.00  0.00    -0.206 F 
ATOM     86  C   UNL A   1      45.604  34.652  28.448  1.00  0.00     0.040 A 
ATOM     87  C   UNL A   1      46.005  34.106  30.760  1.00  0.00     0.040 A 
ATOM     88  F   UNL A   1      45.886  31.876  31.478  1.00  0.00    -0.206 F 
ATOM     89  C   UNL A   1      45.918  35.057  29.744  1.00  0.00     0.006 A 
ENDBRANCH  65  82
ENDBRANCH  39  40
ENDBRANCH  31  34
ENDBRANCH  29  30
ENDBRANCH  28  29
ENDBRANCH  27  28
ENDBRANCH   1  27
TORSDOF 16
ENDMDL
MODEL 2
REMARK VINA RESULT:     -11.7      5.251     10.358
REMARK SMILES CC[C@](C)([NH2+]CC(=O)Nc1c(Cl)ccc(C)c1Cl)C(=O)NCCCCNC(=O)c1ccc(-c2c3nc(c(-c4c(F)cccc4F)c4ccc([nH]4)c(-c4c(F)cccc4F)c4nc(c(-c5c(F)cccc5F)c5ccc2[nH]5)C=C4)C=C3)cc1
REMARK SMILES IDX 22 1 21 2 19 3 20 4 3 6 4 7 2 8 1 9 5 10 6 13 7 14 8 15 9 16
REMARK SMILES IDX 10 18 11 19 17 20 12 21 13 22 15 23 18 24 14 25 16 26 23 27
REMARK SMILES IDX 24 28 25 29 26 30 27 31 28 33 29 34 30 35 82 36 31 37 81 38
REMARK SMILES IDX 32 39 33 40 34 41 75 42 35 43 80 44 74 45 76 46 36 47 79 48
REMARK SMILES IDX 73 49 72 50 37 52 63 53 46 54 62 55 47 56 50 57 61 58 77 59
REMARK SMILES IDX 48 60 49 61 60 63 78 64 51 65 38 66 39 67 44 68 40 69 41 70
REMARK SMILES IDX 43 71 45 72 42 73 64 74 65 75 70 76 66 77 67 78 69 79 71 80
REMARK SMILES IDX 68 81 52 82 53 83 58 84 54 85 55 86 57 87 59 88 56 89
REMARK H PARENT 21 5 5 11 5 12 9 17 26 32 76 51 50 62
REMARK Flexibility Score: inf
ROOT
ATOM      1  C   UNL A   1      31.751  30.037  25.062  1.00  0.00     0.116 C 
ENDROOT
BRANCH   1   2
ATOM      2  N   UNL A   1      33.004  29.523  24.483  1.00  0.00    -0.351 N 
ATOM      3  C   UNL A   1      33.415  28.329  23.911  1.00  0.00     0.281 C 
ATOM      4  O   UNL A   1      34.248  28.476  23.002  1.00  0.00    -0.268 OA
ATOM      5  H   UNL A   1      33.727  30.191  24.507  1.00  0.00     0.163 HD
BRANCH   3   6
ATOM      6  C   UNL A   1      33.151  26.877  24.516  1.00  0.00     0.172 C 
ATOM      7  C   UNL A   1      33.656  27.206  25.988  1.00  0.00     0.090 C 
BRANCH   6   8
ATOM      8  C   UNL A   1      34.003  25.563  24.273  1.00  0.00     0.075 C 
ATOM      9  C   UNL A   1      34.869  24.826  25.298  1.00  0.00     0.011 C 
ENDBRANCH   6   8
BRANCH   6  10
ATOM     10  N   UNL A   1      31.726  26.642  24.577  1.00  0.00    -0.326 N 
ATOM     11  H   UNL A   1      31.542  25.845  23.967  1.00  0.00     0.347 HD
ATOM     12  H   UNL A   1      31.348  27.555  24.330  1.00  0.00     0.347 HD
BRANCH  10  13
ATOM     13  C   UNL A   1      31.041  26.358  25.838  1.00  0.00     0.363 C 
BRANCH  13  14
ATOM     14  C   UNL A   1      30.392  25.037  26.306  1.00  0.00     0.279 C 
ATOM     15  O   UNL A   1      29.286  25.205  26.873  1.00  0.00    -0.268 OA
ATOM     16  N   UNL A   1      30.686  23.711  26.232  1.00  0.00    -0.319 N 
ATOM     17  H   UNL A   1      30.224  23.222  26.952  1.00  0.00     0.170 HD
BRANCH  16  18
ATOM     18  C   UNL A   1      31.450  22.806  25.443  1.00  0.00     0.079 A 
ATOM     19  C   UNL A   1      31.403  22.771  24.032  1.00  0.00     0.066 A 
ATOM     20  C   UNL A   1      32.615  22.233  26.011  1.00  0.00     0.069 A 
ATOM     21  Cl  UNL A   1      30.536  23.885  23.039  1.00  0.00    -0.082 Cl
ATOM     22  C   UNL A   1      32.226  21.918  23.283  1.00  0.00     0.023 A 
ATOM     23  C   UNL A   1      33.552  21.505  25.234  1.00  0.00    -0.030 A 
ATOM     24  Cl  UNL A   1      32.960  22.502  27.697  1.00  0.00    -0.082 Cl
ATOM     25  C   UNL A   1      33.293  21.279  23.882  1.00  0.00     0.006 A 
ATOM     26  C   UNL A   1      34.891  21.075  25.768  1.00  0.00     0.046 C 
ENDBRANCH  16  18
ENDBRANCH  13  14
ENDBRANCH  10  13
ENDBRANCH   6  10
ENDBRANCH   3   6
ENDBRANCH   1   2
BRANCH   1  27
ATOM     27  C   UNL A   1      31.776  30.465  26.535  1.00  0.00     0.023 C 
BRANCH  27  28
ATOM     28  C   UNL A   1      31.505  31.965  26.772  1.00  0.00     0.023 C 
BRANCH  28  29
ATOM     29  C   UNL A   1      32.664  32.844  27.259  1.00  0.00     0.116 C 
BRANCH  29  30
ATOM     30  N   UNL A   1      32.297  34.204  27.625  1.00  0.00    -0.352 N 
ATOM     31  C   UNL A   1      32.902  35.047  28.537  1.00  0.00     0.251 C 
ATOM     32  H   UNL A   1      31.513  34.574  27.160  1.00  0.00     0.163 HD
ATOM     33  O   UNL A   1      32.438  36.165  28.760  1.00  0.00    -0.269 OA
BRANCH  31  34
ATOM     34  C   UNL A   1      34.088  34.588  29.299  1.00  0.00     0.039 A 
ATOM     35  C   UNL A   1      33.914  34.109  30.602  1.00  0.00     0.014 A 
ATOM     36  C   UNL A   1      35.356  34.577  28.714  1.00  0.00     0.014 A 
ATOM     37  C   UNL A   1      34.988  33.515  31.273  1.00  0.00     0.010 A 
ATOM     38  C   UNL A   1      36.407  33.925  29.357  1.00  0.00     0.010 A 
ATOM     39  C   UNL A   1      36.230  33.366  30.634  1.00  0.00    -0.014 A 
BRANCH  39  40
ATOM     40  C   UNL A   1      37.342  32.604  31.266  1.00  0.00     0.031 A 
ATOM     41  C   UNL A   1      37.895  33.029  32.599  1.00  0.00     0.074 A 
ATOM     42  C   UNL A   1      37.915  31.581  30.602  1.00  0.00     0.049 A 
ATOM     43  N   UNL A   1      38.918  32.551  33.262  1.00  0.00    -0.248 NA
ATOM     44  C   UNL A   1      37.229  34.163  33.257  1.00  0.00     0.031 C 
ATOM     45  C   UNL A   1      37.518  31.099  29.276  1.00  0.00     0.029 A 
ATOM     46  N   UNL A   1      38.967  30.765  30.945  1.00  0.00    -0.354 N 
ATOM     47  C   UNL A   1      39.033  33.341  34.399  1.00  0.00     0.074 A 
ATOM     48  C   UNL A   1      38.006  34.357  34.313  1.00  0.00     0.031 C 
ATOM     49  C   UNL A   1      38.295  30.060  28.932  1.00  0.00     0.029 A 
ATOM     50  C   UNL A   1      39.268  29.820  29.993  1.00  0.00     0.049 A 
ATOM     51  H   UNL A   1      39.458  30.849  31.794  1.00  0.00     0.167 HD
ATOM     52  C   UNL A   1      39.899  33.218  35.433  1.00  0.00     0.037 A 
ATOM     53  C   UNL A   1      40.221  28.868  29.975  1.00  0.00     0.037 A 
ATOM     54  C   UNL A   1      40.892  32.181  35.542  1.00  0.00     0.049 A 
ATOM     55  C   UNL A   1      41.155  28.736  31.146  1.00  0.00     0.074 A 
ATOM     56  C   UNL A   1      41.763  31.928  36.588  1.00  0.00     0.029 A 
ATOM     57  N   UNL A   1      41.141  31.222  34.573  1.00  0.00    -0.354 N 
ATOM     58  N   UNL A   1      41.205  29.448  32.246  1.00  0.00    -0.248 NA
ATOM     59  C   UNL A   1      42.162  27.667  31.076  1.00  0.00     0.031 C 
ATOM     60  C   UNL A   1      42.562  30.835  36.237  1.00  0.00     0.029 A 
ATOM     61  C   UNL A   1      42.163  30.385  34.989  1.00  0.00     0.049 A 
ATOM     62  H   UNL A   1      40.663  31.147  33.716  1.00  0.00     0.167 HD
ATOM     63  C   UNL A   1      42.226  28.895  33.010  1.00  0.00     0.074 A 
ATOM     64  C   UNL A   1      42.761  27.783  32.253  1.00  0.00     0.031 C 
ATOM     65  C   UNL A   1      42.677  29.275  34.230  1.00  0.00     0.037 A 
BRANCH  52  66
ATOM     66  C   UNL A   1      39.803  34.230  36.537  1.00  0.00     0.057 A 
ATOM     67  C   UNL A   1      39.011  34.009  37.673  1.00  0.00     0.134 A 
ATOM     68  C   UNL A   1      40.529  35.426  36.480  1.00  0.00     0.134 A 
ATOM     69  F   UNL A   1      38.282  32.888  37.785  1.00  0.00    -0.206 F 
ATOM     70  C   UNL A   1      38.920  34.954  38.695  1.00  0.00     0.040 A 
ATOM     71  C   UNL A   1      40.467  36.367  37.508  1.00  0.00     0.040 A 
ATOM     72  F   UNL A   1      41.312  35.697  35.425  1.00  0.00    -0.206 F 
ATOM     73  C   UNL A   1      39.656  36.136  38.617  1.00  0.00     0.006 A 
ENDBRANCH  52  66
BRANCH  53  74
ATOM     74  C   UNL A   1      40.323  27.934  28.825  1.00  0.00     0.057 A 
ATOM     75  C   UNL A   1      39.649  26.706  28.835  1.00  0.00     0.134 A 
ATOM     76  C   UNL A   1      41.104  28.231  27.703  1.00  0.00     0.134 A 
ATOM     77  F   UNL A   1      38.903  26.356  29.894  1.00  0.00    -0.206 F 
ATOM     78  C   UNL A   1      39.763  25.800  27.780  1.00  0.00     0.040 A 
ATOM     79  C   UNL A   1      41.209  27.344  26.630  1.00  0.00     0.040 A 
ATOM     80  F   UNL A   1      41.771  29.393  27.629  1.00  0.00    -0.206 F 
ATOM     81  C   UNL A   1      40.542  26.121  26.670  1.00  0.00     0.006 A 
ENDBRANCH  53  74
BRANCH  65  82
ATOM     82  C   UNL A   1      43.780  28.461  34.838  1.00  0.00     0.057 A 
ATOM     83  C   UNL A   1      45.128  28.795  34.662  1.00  0.00     0.134 A 
ATOM     84  C   UNL A   1      43.486  27.355  35.646  1.00  0.00     0.134 A 
ATOM     85  F   UNL A   1      45.475  29.834  33.888  1.00  0.00    -0.206 F 
ATOM     86  C   UNL A   1      46.147  28.046  35.252  1.00  0.00     0.040 A 
ATOM     87  C   UNL A   1      44.495  26.613  36.262  1.00  0.00     0.040 A 
ATOM     88  F   UNL A   1      42.214  26.987  35.862  1.00  0.00    -0.206 F 
ATOM     89  C   UNL A   1      45.831  26.956  36.061  1.00  0.00     0.006 A 
ENDBRANCH  65  82
ENDBRANCH  39  40
ENDBRANCH  31  34
ENDBRANCH  29  30
ENDBRANCH  28  29
ENDBRANCH  27  28
ENDBRANCH   1  27
TORSDOF 16
ENDMDL
MODEL 3
REMARK VINA RESULT:     -11.5      1.637      2.326
REMARK SMILES CC[C@](C)([NH2+]CC(=O)Nc1c(Cl)ccc(C)c1Cl)C(=O)NCCCCNC(=O)c1ccc(-c2c3nc(c(-c4c(F)cccc4F)c4ccc([nH]4)c(-c4c(F)cccc4F)c4nc(c(-c5c(F)cccc5F)c5ccc2[nH]5)C=C4)C=C3)cc1
REMARK SMILES IDX 22 1 21 2 19 3 20 4 3 6 4 7 2 8 1 9 5 10 6 13 7 14 8 15 9 16
REMARK SMILES IDX 10 18 11 19 17 20 12 21 13 22 15 23 18 24 14 25 16 26 23 27
REMARK SMILES IDX 24 28 25 29 26 30 27 31 28 33 29 34 30 35 82 36 31 37 81 38
REMARK SMILES IDX 32 39 33 40 34 41 75 42 35 43 80 44 74 45 76 46 36 47 79 48
REMARK SMILES IDX 73 49 72 50 37 52 63 53 46 54 62 55 47 56 50 57 61 58 77 59
REMARK SMILES IDX 48 60 49 61 60 63 78 64 51 65 38 66 39 67 44 68 40 69 41 70
REMARK SMILES IDX 43 71 45 72 42 73 64 74 65 75 70 76 66 77 67 78 69 79 71 80
REMARK SMILES IDX 68 81 52 82 53 83 58 84 54 85 55 86 57 87 59 88 56 89
REMARK H PARENT 21 5 5 11 5 12 9 17 26 32 76 51 50 62
REMARK Flexibility Score: inf
ROOT
ATOM      1  C   UNL A   1      35.931  22.312  24.205  1.00  0.00     0.116 C 
ENDROOT
BRANCH   1   2
ATOM      2  N   UNL A   1      35.226  22.215  25.495  1.00  0.00    -0.351 N 
ATOM      3  C   UNL A   1      34.154  21.487  25.986  1.00  0.00     0.281 C 
ATOM      4  O   UNL A   1      34.269  21.183  27.184  1.00  0.00    -0.268 OA
ATOM      5  H   UNL A   1      35.614  22.811  26.176  1.00  0.00     0.163 HD
BRANCH   3   6
ATOM      6  C   UNL A   1      32.747  21.312  25.255  1.00  0.00     0.172 C 
ATOM      7  C   UNL A   1      32.722  19.722  25.301  1.00  0.00     0.090 C 
BRANCH   6   8
ATOM      8  C   UNL A   1      32.432  21.499  23.714  1.00  0.00     0.075 C 
ATOM      9  C   UNL A   1      32.147  20.394  22.693  1.00  0.00     0.011 C 
ENDBRANCH   6   8
BRANCH   6  10
ATOM     10  N   UNL A   1      31.698  21.797  26.124  1.00  0.00    -0.326 N 
ATOM     11  H   UNL A   1      32.165  22.189  26.942  1.00  0.00     0.347 HD
ATOM     12  H   UNL A   1      31.113  20.970  26.235  1.00  0.00     0.347 HD
BRANCH  10  13
ATOM     13  C   UNL A   1      30.730  22.801  25.685  1.00  0.00     0.363 C 
BRANCH  13  14
ATOM     14  C   UNL A   1      30.391  24.162  26.333  1.00  0.00     0.279 C 
ATOM     15  O   UNL A   1      29.563  24.068  27.269  1.00  0.00    -0.268 OA
ATOM     16  N   UNL A   1      30.786  25.454  26.181  1.00  0.00    -0.319 N 
ATOM     17  H   UNL A   1      30.089  26.062  26.518  1.00  0.00     0.170 HD
BRANCH  16  18
ATOM     18  C   UNL A   1      31.891  26.205  25.691  1.00  0.00     0.079 A 
ATOM     19  C   UNL A   1      32.419  26.056  24.390  1.00  0.00     0.066 A 
ATOM     20  C   UNL A   1      32.201  27.437  26.318  1.00  0.00     0.069 A 
ATOM     21  Cl  UNL A   1      31.745  25.061  23.152  1.00  0.00    -0.082 Cl
ATOM     22  C   UNL A   1      33.460  26.866  23.915  1.00  0.00     0.023 A 
ATOM     23  C   UNL A   1      33.132  28.352  25.764  1.00  0.00    -0.030 A 
ATOM     24  Cl  UNL A   1      31.350  27.891  27.769  1.00  0.00    -0.082 Cl
ATOM     25  C   UNL A   1      33.823  28.007  24.602  1.00  0.00     0.006 A 
ATOM     26  C   UNL A   1      33.315  29.748  26.294  1.00  0.00     0.046 C 
ENDBRANCH  16  18
ENDBRANCH  13  14
ENDBRANCH  10  13
ENDBRANCH   6  10
ENDBRANCH   3   6
ENDBRANCH   1   2
BRANCH   1  27
ATOM     27  C   UNL A   1      37.393  21.847  24.161  1.00  0.00     0.023 C 
BRANCH  27  28
ATOM     28  C   UNL A   1      37.674  20.541  24.934  1.00  0.00     0.023 C 
BRANCH  28  29
ATOM     29  C   UNL A   1      38.801  20.542  25.975  1.00  0.00     0.116 C 
BRANCH  29  30
ATOM     30  N   UNL A   1      39.822  19.523  25.780  1.00  0.00    -0.352 N 
ATOM     31  C   UNL A   1      41.178  19.601  26.032  1.00  0.00     0.251 C 
ATOM     32  H   UNL A   1      39.504  18.664  25.422  1.00  0.00     0.163 HD
ATOM     33  O   UNL A   1      41.917  18.652  25.772  1.00  0.00    -0.269 OA
BRANCH  31  34
ATOM     34  C   UNL A   1      41.764  20.853  26.567  1.00  0.00     0.039 A 
ATOM     35  C   UNL A   1      42.252  21.811  25.672  1.00  0.00     0.014 A 
ATOM     36  C   UNL A   1      41.782  21.106  27.940  1.00  0.00     0.014 A 
ATOM     37  C   UNL A   1      42.650  23.065  26.146  1.00  0.00     0.010 A 
ATOM     38  C   UNL A   1      42.115  22.378  28.403  1.00  0.00     0.010 A 
ATOM     39  C   UNL A   1      42.532  23.380  27.510  1.00  0.00    -0.014 A 
BRANCH  39  40
ATOM     40  C   UNL A   1      42.803  24.753  28.016  1.00  0.00     0.031 A 
ATOM     41  C   UNL A   1      44.194  25.153  28.424  1.00  0.00     0.074 A 
ATOM     42  C   UNL A   1      41.782  25.616  28.193  1.00  0.00     0.049 A 
ATOM     43  N   UNL A   1      44.610  26.267  28.973  1.00  0.00    -0.248 NA
ATOM     44  C   UNL A   1      45.255  24.155  28.216  1.00  0.00     0.031 C 
ATOM     45  C   UNL A   1      40.375  25.340  27.895  1.00  0.00     0.029 A 
ATOM     46  N   UNL A   1      41.768  26.901  28.681  1.00  0.00    -0.354 N 
ATOM     47  C   UNL A   1      45.969  26.093  29.199  1.00  0.00     0.074 A 
ATOM     48  C   UNL A   1      46.299  24.751  28.772  1.00  0.00     0.031 C 
ATOM     49  C   UNL A   1      39.641  26.428  28.179  1.00  0.00     0.029 A 
ATOM     50  C   UNL A   1      40.516  27.468  28.712  1.00  0.00     0.049 A 
ATOM     51  H   UNL A   1      42.579  27.372  28.979  1.00  0.00     0.167 HD
ATOM     52  C   UNL A   1      46.867  26.977  29.696  1.00  0.00     0.037 A 
ATOM     53  C   UNL A   1      40.116  28.686  29.124  1.00  0.00     0.037 A 
ATOM     54  C   UNL A   1      46.548  28.328  30.080  1.00  0.00     0.049 A 
ATOM     55  C   UNL A   1      41.135  29.658  29.649  1.00  0.00     0.074 A 
ATOM     56  C   UNL A   1      47.404  29.323  30.521  1.00  0.00     0.029 A 
ATOM     57  N   UNL A   1      45.275  28.874  30.064  1.00  0.00    -0.354 N 
ATOM     58  N   UNL A   1      42.429  29.503  29.792  1.00  0.00    -0.248 NA
ATOM     59  C   UNL A   1      40.640  30.979  30.068  1.00  0.00     0.031 C 
ATOM     60  C   UNL A   1      46.642  30.462  30.802  1.00  0.00     0.029 A 
ATOM     61  C   UNL A   1      45.318  30.187  30.501  1.00  0.00     0.049 A 
ATOM     62  H   UNL A   1      44.459  28.399  29.783  1.00  0.00     0.167 HD
ATOM     63  C   UNL A   1      42.905  30.711  30.285  1.00  0.00     0.074 A 
ATOM     64  C   UNL A   1      41.764  31.593  30.409  1.00  0.00     0.031 C 
ATOM     65  C   UNL A   1      44.175  31.057  30.607  1.00  0.00     0.037 A 
BRANCH  52  66
ATOM     66  C   UNL A   1      48.285  26.512  29.843  1.00  0.00     0.057 A 
ATOM     67  C   UNL A   1      49.241  26.733  28.842  1.00  0.00     0.134 A 
ATOM     68  C   UNL A   1      48.709  25.858  31.007  1.00  0.00     0.134 A 
ATOM     69  F   UNL A   1      48.898  27.344  27.698  1.00  0.00    -0.206 F 
ATOM     70  C   UNL A   1      50.559  26.294  28.981  1.00  0.00     0.040 A 
ATOM     71  C   UNL A   1      50.029  25.438  31.168  1.00  0.00     0.040 A 
ATOM     72  F   UNL A   1      47.846  25.621  32.007  1.00  0.00    -0.206 F 
ATOM     73  C   UNL A   1      50.958  25.649  30.151  1.00  0.00     0.006 A 
ENDBRANCH  52  66
BRANCH  53  74
ATOM     74  C   UNL A   1      38.686  29.076  29.026  1.00  0.00     0.057 A 
ATOM     75  C   UNL A   1      38.150  29.541  27.819  1.00  0.00     0.134 A 
ATOM     76  C   UNL A   1      37.829  29.014  30.131  1.00  0.00     0.134 A 
ATOM     77  F   UNL A   1      38.929  29.643  26.731  1.00  0.00    -0.206 F 
ATOM     78  C   UNL A   1      36.819  29.947  27.716  1.00  0.00     0.040 A 
ATOM     79  C   UNL A   1      36.489  29.396  30.037  1.00  0.00     0.040 A 
ATOM     80  F   UNL A   1      38.280  28.574  31.315  1.00  0.00    -0.206 F 
ATOM     81  C   UNL A   1      35.983  29.871  28.829  1.00  0.00     0.006 A 
ENDBRANCH  53  74
BRANCH  65  82
ATOM     82  C   UNL A   1      44.404  32.459  31.087  1.00  0.00     0.057 A 
ATOM     83  C   UNL A   1      44.387  32.785  32.448  1.00  0.00     0.134 A 
ATOM     84  C   UNL A   1      44.688  33.485  30.177  1.00  0.00     0.134 A 
ATOM     85  F   UNL A   1      44.107  31.849  33.368  1.00  0.00    -0.206 F 
ATOM     86  C   UNL A   1      44.626  34.088  32.888  1.00  0.00     0.040 A 
ATOM     87  C   UNL A   1      44.953  34.787  30.606  1.00  0.00     0.040 A 
ATOM     88  F   UNL A   1      44.728  33.237  28.860  1.00  0.00    -0.206 F 
ATOM     89  C   UNL A   1      44.917  35.092  31.966  1.00  0.00     0.006 A 
ENDBRANCH  65  82
ENDBRANCH  39  40
ENDBRANCH  31  34
ENDBRANCH  29  30
ENDBRANCH  28  29
ENDBRANCH  27  28
ENDBRANCH   1  27
TORSDOF 16
ENDMDL
