MODEL 1
REMARK VINA RESULT:      -9.9      0.000      0.000
REMARK SMILES O=C(NCCCCNC(=O)c1ccc2nc(Cl)sc2c1)c1ccc(-c2c3nc(c(-c4c(F)cccc4F)c4ccc([nH]4)c(-c4c(F)cccc4F)c4nc(c(-c5c(F)cccc5F)c5ccc2[nH]5)C=C4)C=C3)cc1
REMARK SMILES IDX 4 1 3 2 1 3 2 4 21 6 22 7 74 8 23 9 73 10 24 11 25 12 26 13
REMARK SMILES IDX 67 14 27 15 72 16 66 17 68 18 28 19 71 20 65 21 64 22 29 24
REMARK SMILES IDX 55 25 38 26 54 27 39 28 42 29 53 30 69 31 40 32 41 33 52 35
REMARK SMILES IDX 70 36 43 37 30 38 31 39 36 40 32 41 33 42 35 43 37 44 34 45
REMARK SMILES IDX 56 46 57 47 62 48 58 49 59 50 61 51 63 52 60 53 44 54 45 55
REMARK SMILES IDX 50 56 46 57 47 58 49 59 51 60 48 61 5 62 6 63 7 64 8 65 9 66
REMARK SMILES IDX 10 68 11 69 12 70 20 71 13 72 19 73 14 74 18 75 15 76 16 77
REMARK SMILES IDX 17 78
REMARK H PARENT 3 5 68 23 42 34 8 67
REMARK Flexibility Score: inf
ROOT
ATOM      1  C   UNL A   1      41.903  25.019  35.905  1.00  0.00     0.116 C 
ENDROOT
BRANCH   1   2
ATOM      2  N   UNL A   1      43.119  24.350  36.325  1.00  0.00    -0.352 N 
ATOM      3  O   UNL A   1      44.835  22.954  36.137  1.00  0.00    -0.269 OA
ATOM      4  C   UNL A   1      44.166  23.843  35.610  1.00  0.00     0.251 C 
ATOM      5  H   UNL A   1      43.204  24.242  37.299  1.00  0.00     0.163 HD
BRANCH   4   6
ATOM      6  C   UNL A   1      44.580  24.358  34.286  1.00  0.00     0.039 A 
ATOM      7  C   UNL A   1      45.377  25.512  34.282  1.00  0.00     0.014 A 
ATOM      8  C   UNL A   1      44.029  23.896  33.088  1.00  0.00     0.014 A 
ATOM      9  C   UNL A   1      45.587  26.223  33.104  1.00  0.00     0.010 A 
ATOM     10  C   UNL A   1      44.246  24.610  31.901  1.00  0.00     0.010 A 
ATOM     11  C   UNL A   1      45.007  25.788  31.907  1.00  0.00    -0.014 A 
BRANCH  11  12
ATOM     12  C   UNL A   1      45.286  26.586  30.693  1.00  0.00     0.031 A 
ATOM     13  C   UNL A   1      45.268  25.808  29.416  1.00  0.00     0.074 A 
ATOM     14  C   UNL A   1      45.009  27.909  30.650  1.00  0.00     0.049 A 
ATOM     15  N   UNL A   1      44.165  25.463  28.819  1.00  0.00    -0.248 NA
ATOM     16  C   UNL A   1      46.456  25.142  28.882  1.00  0.00     0.031 C 
ATOM     17  C   UNL A   1      43.876  28.525  31.355  1.00  0.00     0.029 A 
ATOM     18  N   UNL A   1      45.494  28.922  29.849  1.00  0.00    -0.354 N 
ATOM     19  C   UNL A   1      44.486  24.521  27.858  1.00  0.00     0.074 A 
ATOM     20  C   UNL A   1      45.922  24.356  27.932  1.00  0.00     0.031 C 
ATOM     21  C   UNL A   1      43.643  29.743  30.823  1.00  0.00     0.029 A 
ATOM     22  C   UNL A   1      44.682  30.057  29.842  1.00  0.00     0.049 A 
ATOM     23  H   UNL A   1      46.330  28.852  29.334  1.00  0.00     0.167 HD
ATOM     24  C   UNL A   1      43.552  23.943  27.059  1.00  0.00     0.037 A 
ATOM     25  C   UNL A   1      44.480  30.861  28.758  1.00  0.00     0.037 A 
ATOM     26  C   UNL A   1      42.207  24.406  27.247  1.00  0.00     0.049 A 
ATOM     27  C   UNL A   1      43.645  29.959  27.884  1.00  0.00     0.074 A 
ATOM     28  C   UNL A   1      41.050  23.995  27.871  1.00  0.00     0.029 A 
ATOM     29  N   UNL A   1      41.873  25.605  26.668  1.00  0.00    -0.354 N 
ATOM     30  N   UNL A   1      42.370  29.713  28.024  1.00  0.00    -0.248 NA
ATOM     31  C   UNL A   1      44.361  29.008  27.033  1.00  0.00     0.031 C 
ATOM     32  C   UNL A   1      40.265  25.185  28.033  1.00  0.00     0.029 A 
ATOM     33  C   UNL A   1      41.018  26.243  27.526  1.00  0.00     0.049 A 
ATOM     34  H   UNL A   1      42.190  25.944  25.800  1.00  0.00     0.167 HD
ATOM     35  C   UNL A   1      42.179  28.430  27.502  1.00  0.00     0.074 A 
ATOM     36  C   UNL A   1      43.441  28.063  26.895  1.00  0.00     0.031 C 
ATOM     37  C   UNL A   1      41.070  27.669  27.750  1.00  0.00     0.037 A 
BRANCH  24  38
ATOM     38  C   UNL A   1      43.826  23.075  25.897  1.00  0.00     0.057 A 
ATOM     39  C   UNL A   1      44.541  23.498  24.777  1.00  0.00     0.134 A 
ATOM     40  C   UNL A   1      43.612  21.698  26.056  1.00  0.00     0.134 A 
ATOM     41  F   UNL A   1      44.790  24.801  24.577  1.00  0.00    -0.206 F 
ATOM     42  C   UNL A   1      45.073  22.572  23.875  1.00  0.00     0.040 A 
ATOM     43  C   UNL A   1      44.152  20.765  25.177  1.00  0.00     0.040 A 
ATOM     44  F   UNL A   1      42.934  21.241  27.123  1.00  0.00    -0.206 F 
ATOM     45  C   UNL A   1      44.902  21.202  24.089  1.00  0.00     0.006 A 
ENDBRANCH  24  38
BRANCH  25  46
ATOM     46  C   UNL A   1      45.662  31.627  28.252  1.00  0.00     0.057 A 
ATOM     47  C   UNL A   1      46.895  31.080  27.869  1.00  0.00     0.134 A 
ATOM     48  C   UNL A   1      45.551  33.023  28.111  1.00  0.00     0.134 A 
ATOM     49  F   UNL A   1      47.084  29.755  27.812  1.00  0.00    -0.206 F 
ATOM     50  C   UNL A   1      47.994  31.880  27.530  1.00  0.00     0.040 A 
ATOM     51  C   UNL A   1      46.631  33.834  27.748  1.00  0.00     0.040 A 
ATOM     52  F   UNL A   1      44.374  33.635  28.321  1.00  0.00    -0.206 F 
ATOM     53  C   UNL A   1      47.870  33.264  27.490  1.00  0.00     0.006 A 
ENDBRANCH  25  46
BRANCH  37  54
ATOM     54  C   UNL A   1      39.979  28.348  28.507  1.00  0.00     0.057 A 
ATOM     55  C   UNL A   1      39.829  28.194  29.891  1.00  0.00     0.134 A 
ATOM     56  C   UNL A   1      39.048  29.155  27.843  1.00  0.00     0.134 A 
ATOM     57  F   UNL A   1      40.692  27.452  30.603  1.00  0.00    -0.206 F 
ATOM     58  C   UNL A   1      38.774  28.791  30.584  1.00  0.00     0.040 A 
ATOM     59  C   UNL A   1      38.006  29.781  28.530  1.00  0.00     0.040 A 
ATOM     60  F   UNL A   1      39.122  29.329  26.514  1.00  0.00    -0.206 F 
ATOM     61  C   UNL A   1      37.861  29.591  29.902  1.00  0.00     0.006 A 
ENDBRANCH  37  54
ENDBRANCH  11  12
ENDBRANCH   4   6
ENDBRANCH   1   2
BRANCH   1  62
ATOM     62  C   UNL A   1      42.158  26.522  35.710  1.00  0.00     0.023 C 
BRANCH  62  63
ATOM     63  C   UNL A   1      41.967  27.056  34.279  1.00  0.00     0.023 C 
BRANCH  63  64
ATOM     64  C   UNL A   1      40.947  28.184  34.122  1.00  0.00     0.116 C 
BRANCH  64  65
ATOM     65  N   UNL A   1      40.857  29.005  35.317  1.00  0.00    -0.352 N 
ATOM     66  C   UNL A   1      40.310  30.253  35.492  1.00  0.00     0.251 C 
ATOM     67  H   UNL A   1      41.249  28.605  36.127  1.00  0.00     0.163 HD
ATOM     68  O   UNL A   1      40.491  30.855  36.542  1.00  0.00    -0.269 OA
BRANCH  66  69
ATOM     69  C   UNL A   1      39.514  30.892  34.418  1.00  0.00     0.041 A 
ATOM     70  C   UNL A   1      38.119  30.864  34.435  1.00  0.00     0.016 A 
ATOM     71  C   UNL A   1      40.208  31.591  33.419  1.00  0.00     0.035 A 
ATOM     72  C   UNL A   1      37.387  31.477  33.411  1.00  0.00     0.031 A 
ATOM     73  C   UNL A   1      39.460  32.207  32.402  1.00  0.00     0.057 A 
ATOM     74  C   UNL A   1      38.061  32.153  32.374  1.00  0.00     0.083 A 
ATOM     75  S   UNL A   1      40.009  33.115  31.040  1.00  0.00    -0.102 S 
ATOM     76  N   UNL A   1      37.462  32.792  31.303  1.00  0.00    -0.225 NA
ATOM     77  C   UNL A   1      38.397  33.321  30.556  1.00  0.00     0.184 A 
ATOM     78  Cl  UNL A   1      38.040  34.198  29.126  1.00  0.00    -0.050 Cl
ENDBRANCH  66  69
ENDBRANCH  64  65
ENDBRANCH  63  64
ENDBRANCH  62  63
ENDBRANCH   1  62
TORSDOF 11
ENDMDL
MODEL 2
REMARK VINA RESULT:      -9.7      4.007     10.324
REMARK SMILES O=C(NCCCCNC(=O)c1ccc2nc(Cl)sc2c1)c1ccc(-c2c3nc(c(-c4c(F)cccc4F)c4ccc([nH]4)c(-c4c(F)cccc4F)c4nc(c(-c5c(F)cccc5F)c5ccc2[nH]5)C=C4)C=C3)cc1
REMARK SMILES IDX 4 1 3 2 1 3 2 4 21 6 22 7 74 8 23 9 73 10 24 11 25 12 26 13
REMARK SMILES IDX 67 14 27 15 72 16 66 17 68 18 28 19 71 20 65 21 64 22 29 24
REMARK SMILES IDX 55 25 38 26 54 27 39 28 42 29 53 30 69 31 40 32 41 33 52 35
REMARK SMILES IDX 70 36 43 37 30 38 31 39 36 40 32 41 33 42 35 43 37 44 34 45
REMARK SMILES IDX 56 46 57 47 62 48 58 49 59 50 61 51 63 52 60 53 44 54 45 55
REMARK SMILES IDX 50 56 46 57 47 58 49 59 51 60 48 61 5 62 6 63 7 64 8 65 9 66
REMARK SMILES IDX 10 68 11 69 12 70 20 71 13 72 19 73 14 74 18 75 15 76 16 77
REMARK SMILES IDX 17 78
REMARK H PARENT 3 5 68 23 42 34 8 67
REMARK Flexibility Score: inf
ROOT
ATOM      1  C   UNL A   1      43.705  34.120  25.239  1.00  0.00     0.116 C 
ENDROOT
BRANCH   1   2
ATOM      2  N   UNL A   1      44.154  35.394  25.767  1.00  0.00    -0.352 N 
ATOM      3  O   UNL A   1      43.967  37.313  26.869  1.00  0.00    -0.269 OA
ATOM      4  C   UNL A   1      43.779  36.096  26.877  1.00  0.00     0.251 C 
ATOM      5  H   UNL A   1      44.853  35.830  25.231  1.00  0.00     0.163 HD
BRANCH   4   6
ATOM      6  C   UNL A   1      43.239  35.466  28.103  1.00  0.00     0.039 A 
ATOM      7  C   UNL A   1      44.156  34.782  28.913  1.00  0.00     0.014 A 
ATOM      8  C   UNL A   1      41.869  35.328  28.343  1.00  0.00     0.014 A 
ATOM      9  C   UNL A   1      43.713  33.934  29.925  1.00  0.00     0.010 A 
ATOM     10  C   UNL A   1      41.424  34.479  29.366  1.00  0.00     0.010 A 
ATOM     11  C   UNL A   1      42.341  33.762  30.147  1.00  0.00    -0.014 A 
BRANCH  11  12
ATOM     12  C   UNL A   1      41.945  32.858  31.249  1.00  0.00     0.031 A 
ATOM     13  C   UNL A   1      40.523  32.996  31.689  1.00  0.00     0.074 A 
ATOM     14  C   UNL A   1      42.571  31.674  31.439  1.00  0.00     0.049 A 
ATOM     15  N   UNL A   1      39.530  32.471  31.030  1.00  0.00    -0.248 NA
ATOM     16  C   UNL A   1      40.105  33.942  32.722  1.00  0.00     0.031 C 
ATOM     17  C   UNL A   1      43.109  30.855  30.343  1.00  0.00     0.029 A 
ATOM     18  N   UNL A   1      42.677  30.859  32.546  1.00  0.00    -0.354 N 
ATOM     19  C   UNL A   1      38.363  33.026  31.523  1.00  0.00     0.074 A 
ATOM     20  C   UNL A   1      38.769  33.932  32.576  1.00  0.00     0.031 C 
ATOM     21  C   UNL A   1      43.315  29.602  30.797  1.00  0.00     0.029 A 
ATOM     22  C   UNL A   1      43.059  29.553  32.237  1.00  0.00     0.049 A 
ATOM     23  H   UNL A   1      42.500  31.168  33.464  1.00  0.00     0.167 HD
ATOM     24  C   UNL A   1      37.136  32.697  31.039  1.00  0.00     0.037 A 
ATOM     25  C   UNL A   1      42.618  28.440  32.889  1.00  0.00     0.037 A 
ATOM     26  C   UNL A   1      37.126  31.702  30.006  1.00  0.00     0.049 A 
ATOM     27  C   UNL A   1      41.182  28.388  32.429  1.00  0.00     0.074 A 
ATOM     28  C   UNL A   1      37.017  31.636  28.635  1.00  0.00     0.029 A 
ATOM     29  N   UNL A   1      37.254  30.393  30.399  1.00  0.00    -0.354 N 
ATOM     30  N   UNL A   1      40.758  27.960  31.270  1.00  0.00    -0.248 NA
ATOM     31  C   UNL A   1      40.215  29.195  33.174  1.00  0.00     0.031 C 
ATOM     32  C   UNL A   1      37.568  30.363  28.273  1.00  0.00     0.029 A 
ATOM     33  C   UNL A   1      38.007  29.757  29.449  1.00  0.00     0.049 A 
ATOM     34  H   UNL A   1      36.876  29.987  31.213  1.00  0.00     0.167 HD
ATOM     35  C   UNL A   1      39.577  28.666  31.022  1.00  0.00     0.074 A 
ATOM     36  C   UNL A   1      39.294  29.395  32.241  1.00  0.00     0.031 C 
ATOM     37  C   UNL A   1      38.997  28.762  29.788  1.00  0.00     0.037 A 
BRANCH  24  38
ATOM     38  C   UNL A   1      35.841  33.099  31.623  1.00  0.00     0.057 A 
ATOM     39  C   UNL A   1      35.455  32.775  32.923  1.00  0.00     0.134 A 
ATOM     40  C   UNL A   1      35.105  34.083  30.946  1.00  0.00     0.134 A 
ATOM     41  F   UNL A   1      36.127  31.852  33.626  1.00  0.00    -0.206 F 
ATOM     42  C   UNL A   1      34.404  33.453  33.547  1.00  0.00     0.040 A 
ATOM     43  C   UNL A   1      34.070  34.778  31.562  1.00  0.00     0.040 A 
ATOM     44  F   UNL A   1      35.444  34.434  29.693  1.00  0.00    -0.206 F 
ATOM     45  C   UNL A   1      33.727  34.474  32.876  1.00  0.00     0.006 A 
ENDBRANCH  24  38
BRANCH  25  46
ATOM     46  C   UNL A   1      43.025  28.285  34.321  1.00  0.00     0.057 A 
ATOM     47  C   UNL A   1      42.828  29.229  35.339  1.00  0.00     0.134 A 
ATOM     48  C   UNL A   1      43.641  27.085  34.722  1.00  0.00     0.134 A 
ATOM     49  F   UNL A   1      42.122  30.348  35.127  1.00  0.00    -0.206 F 
ATOM     50  C   UNL A   1      43.356  29.062  36.626  1.00  0.00     0.040 A 
ATOM     51  C   UNL A   1      44.150  26.891  36.009  1.00  0.00     0.040 A 
ATOM     52  F   UNL A   1      43.758  26.061  33.860  1.00  0.00    -0.206 F 
ATOM     53  C   UNL A   1      44.040  27.899  36.958  1.00  0.00     0.006 A 
ENDBRANCH  25  46
BRANCH  37  54
ATOM     54  C   UNL A   1      39.623  27.935  28.716  1.00  0.00     0.057 A 
ATOM     55  C   UNL A   1      39.375  26.561  28.598  1.00  0.00     0.134 A 
ATOM     56  C   UNL A   1      40.503  28.513  27.795  1.00  0.00     0.134 A 
ATOM     57  F   UNL A   1      38.528  25.936  29.431  1.00  0.00    -0.206 F 
ATOM     58  C   UNL A   1      40.005  25.785  27.623  1.00  0.00     0.040 A 
ATOM     59  C   UNL A   1      41.117  27.752  26.797  1.00  0.00     0.040 A 
ATOM     60  F   UNL A   1      40.800  29.821  27.863  1.00  0.00    -0.206 F 
ATOM     61  C   UNL A   1      40.876  26.383  26.716  1.00  0.00     0.006 A 
ENDBRANCH  37  54
ENDBRANCH  11  12
ENDBRANCH   4   6
ENDBRANCH   1   2
BRANCH   1  62
ATOM     62  C   UNL A   1      44.556  32.974  25.807  1.00  0.00     0.023 C 
BRANCH  62  63
ATOM     63  C   UNL A   1      43.784  31.862  26.539  1.00  0.00     0.023 C 
BRANCH  63  64
ATOM     64  C   UNL A   1      44.626  30.687  27.037  1.00  0.00     0.116 C 
BRANCH  64  65
ATOM     65  N   UNL A   1      45.652  30.310  26.081  1.00  0.00    -0.352 N 
ATOM     66  C   UNL A   1      46.159  29.072  25.772  1.00  0.00     0.251 C 
ATOM     67  H   UNL A   1      46.046  31.059  25.577  1.00  0.00     0.163 HD
ATOM     68  O   UNL A   1      47.152  28.981  25.061  1.00  0.00    -0.269 OA
BRANCH  66  69
ATOM     69  C   UNL A   1      45.531  27.838  26.302  1.00  0.00     0.041 A 
ATOM     70  C   UNL A   1      45.365  27.642  27.673  1.00  0.00     0.016 A 
ATOM     71  C   UNL A   1      45.041  26.906  25.376  1.00  0.00     0.035 A 
ATOM     72  C   UNL A   1      44.768  26.470  28.152  1.00  0.00     0.031 A 
ATOM     73  C   UNL A   1      44.436  25.739  25.871  1.00  0.00     0.057 A 
ATOM     74  C   UNL A   1      44.301  25.498  27.243  1.00  0.00     0.083 A 
ATOM     75  S   UNL A   1      43.758  24.409  25.003  1.00  0.00    -0.102 S 
ATOM     76  N   UNL A   1      43.699  24.298  27.581  1.00  0.00    -0.225 NA
ATOM     77  C   UNL A   1      43.384  23.665  26.480  1.00  0.00     0.184 A 
ATOM     78  Cl  UNL A   1      42.618  22.130  26.494  1.00  0.00    -0.050 Cl
ENDBRANCH  66  69
ENDBRANCH  64  65
ENDBRANCH  63  64
ENDBRANCH  62  63
ENDBRANCH   1  62
TORSDOF 11
ENDMDL
MODEL 3
REMARK VINA RESULT:      -9.7      5.097      7.910
REMARK SMILES O=C(NCCCCNC(=O)c1ccc2nc(Cl)sc2c1)c1ccc(-c2c3nc(c(-c4c(F)cccc4F)c4ccc([nH]4)c(-c4c(F)cccc4F)c4nc(c(-c5c(F)cccc5F)c5ccc2[nH]5)C=C4)C=C3)cc1
REMARK SMILES IDX 4 1 3 2 1 3 2 4 21 6 22 7 74 8 23 9 73 10 24 11 25 12 26 13
REMARK SMILES IDX 67 14 27 15 72 16 66 17 68 18 28 19 71 20 65 21 64 22 29 24
REMARK SMILES IDX 55 25 38 26 54 27 39 28 42 29 53 30 69 31 40 32 41 33 52 35
REMARK SMILES IDX 70 36 43 37 30 38 31 39 36 40 32 41 33 42 35 43 37 44 34 45
REMARK SMILES IDX 56 46 57 47 62 48 58 49 59 50 61 51 63 52 60 53 44 54 45 55
REMARK SMILES IDX 50 56 46 57 47 58 49 59 51 60 48 61 5 62 6 63 7 64 8 65 9 66
REMARK SMILES IDX 10 68 11 69 12 70 20 71 13 72 19 73 14 74 18 75 15 76 16 77
REMARK SMILES IDX 17 78
REMARK H PARENT 3 5 68 23 42 34 8 67
REMARK Flexibility Score: inf
ROOT
ATOM      1  C   UNL A   1      45.658  22.052  35.952  1.00  0.00     0.116 C 
ENDROOT
BRANCH   1   2
ATOM      2  N   UNL A   1      44.515  22.920  36.163  1.00  0.00    -0.352 N 
ATOM      3  O   UNL A   1      43.428  24.853  36.265  1.00  0.00    -0.269 OA
ATOM      4  C   UNL A   1      44.185  24.127  35.619  1.00  0.00     0.251 C 
ATOM      5  H   UNL A   1      43.862  22.577  36.813  1.00  0.00     0.163 HD
BRANCH   4   6
ATOM      6  C   UNL A   1      44.620  24.569  34.275  1.00  0.00     0.039 A 
ATOM      7  C   UNL A   1      45.338  25.772  34.211  1.00  0.00     0.014 A 
ATOM      8  C   UNL A   1      44.152  23.981  33.096  1.00  0.00     0.014 A 
ATOM      9  C   UNL A   1      45.549  26.407  32.990  1.00  0.00     0.010 A 
ATOM     10  C   UNL A   1      44.371  24.618  31.866  1.00  0.00     0.010 A 
ATOM     11  C   UNL A   1      45.050  25.844  31.809  1.00  0.00    -0.014 A 
BRANCH  11  12
ATOM     12  C   UNL A   1      45.327  26.566  30.549  1.00  0.00     0.031 A 
ATOM     13  C   UNL A   1      45.258  25.721  29.317  1.00  0.00     0.074 A 
ATOM     14  C   UNL A   1      45.088  27.893  30.439  1.00  0.00     0.049 A 
ATOM     15  N   UNL A   1      44.132  25.379  28.762  1.00  0.00    -0.248 NA
ATOM     16  C   UNL A   1      46.413  24.992  28.796  1.00  0.00     0.031 C 
ATOM     17  C   UNL A   1      43.990  28.581  31.132  1.00  0.00     0.029 A 
ATOM     18  N   UNL A   1      45.585  28.846  29.575  1.00  0.00    -0.354 N 
ATOM     19  C   UNL A   1      44.404  24.378  27.847  1.00  0.00     0.074 A 
ATOM     20  C   UNL A   1      45.836  24.172  27.901  1.00  0.00     0.031 C 
ATOM     21  C   UNL A   1      43.782  29.775  30.540  1.00  0.00     0.029 A 
ATOM     22  C   UNL A   1      44.808  30.004  29.523  1.00  0.00     0.049 A 
ATOM     23  H   UNL A   1      46.408  28.722  29.048  1.00  0.00     0.167 HD
ATOM     24  C   UNL A   1      43.435  23.787  27.099  1.00  0.00     0.037 A 
ATOM     25  C   UNL A   1      44.607  30.754  28.401  1.00  0.00     0.037 A 
ATOM     26  C   UNL A   1      42.109  24.300  27.289  1.00  0.00     0.049 A 
ATOM     27  C   UNL A   1      43.726  29.832  27.594  1.00  0.00     0.074 A 
ATOM     28  C   UNL A   1      40.954  23.960  27.957  1.00  0.00     0.029 A 
ATOM     29  N   UNL A   1      41.798  25.477  26.653  1.00  0.00    -0.354 N 
ATOM     30  N   UNL A   1      42.447  29.634  27.773  1.00  0.00    -0.248 NA
ATOM     31  C   UNL A   1      44.395  28.815  26.782  1.00  0.00     0.031 C 
ATOM     32  C   UNL A   1      40.209  25.180  28.070  1.00  0.00     0.029 A 
ATOM     33  C   UNL A   1      40.982  26.186  27.491  1.00  0.00     0.049 A 
ATOM     34  H   UNL A   1      42.106  25.758  25.761  1.00  0.00     0.167 HD
ATOM     35  C   UNL A   1      42.207  28.332  27.326  1.00  0.00     0.074 A 
ATOM     36  C   UNL A   1      43.444  27.893  26.714  1.00  0.00     0.031 C 
ATOM     37  C   UNL A   1      41.082  27.620  27.637  1.00  0.00     0.037 A 
BRANCH  24  38
ATOM     38  C   UNL A   1      43.658  22.849  25.981  1.00  0.00     0.057 A 
ATOM     39  C   UNL A   1      44.380  23.182  24.836  1.00  0.00     0.134 A 
ATOM     40  C   UNL A   1      43.383  21.493  26.212  1.00  0.00     0.134 A 
ATOM     41  F   UNL A   1      44.686  24.460  24.567  1.00  0.00    -0.206 F 
ATOM     42  C   UNL A   1      44.861  22.188  23.978  1.00  0.00     0.040 A 
ATOM     43  C   UNL A   1      43.872  20.493  25.377  1.00  0.00     0.040 A 
ATOM     44  F   UNL A   1      42.696  21.123  27.306  1.00  0.00    -0.206 F 
ATOM     45  C   UNL A   1      44.629  20.840  24.262  1.00  0.00     0.006 A 
ENDBRANCH  24  38
BRANCH  25  46
ATOM     46  C   UNL A   1      45.800  31.455  27.830  1.00  0.00     0.057 A 
ATOM     47  C   UNL A   1      47.033  30.863  27.523  1.00  0.00     0.134 A 
ATOM     48  C   UNL A   1      45.699  32.828  27.538  1.00  0.00     0.134 A 
ATOM     49  F   UNL A   1      47.214  29.539  27.611  1.00  0.00    -0.206 F 
ATOM     50  C   UNL A   1      48.142  31.616  27.114  1.00  0.00     0.040 A 
ATOM     51  C   UNL A   1      46.789  33.589  27.104  1.00  0.00     0.040 A 
ATOM     52  F   UNL A   1      44.524  33.465  27.667  1.00  0.00    -0.206 F 
ATOM     53  C   UNL A   1      48.028  32.988  26.924  1.00  0.00     0.006 A 
ENDBRANCH  25  46
BRANCH  37  54
ATOM     54  C   UNL A   1      40.028  28.372  28.377  1.00  0.00     0.057 A 
ATOM     55  C   UNL A   1      39.109  29.203  27.722  1.00  0.00     0.134 A 
ATOM     56  C   UNL A   1      39.937  28.282  29.771  1.00  0.00     0.134 A 
ATOM     57  F   UNL A   1      39.119  29.328  26.385  1.00  0.00    -0.206 F 
ATOM     58  C   UNL A   1      38.159  29.943  28.429  1.00  0.00     0.040 A 
ATOM     59  C   UNL A   1      38.972  28.995  30.485  1.00  0.00     0.040 A 
ATOM     60  F   UNL A   1      40.798  27.519  30.462  1.00  0.00    -0.206 F 
ATOM     61  C   UNL A   1      38.087  29.836  29.815  1.00  0.00     0.006 A 
ENDBRANCH  37  54
ENDBRANCH  11  12
ENDBRANCH   4   6
ENDBRANCH   1   2
BRANCH   1  62
ATOM     62  C   UNL A   1      45.278  20.879  35.034  1.00  0.00     0.023 C 
BRANCH  62  63
ATOM     63  C   UNL A   1      45.933  19.526  35.366  1.00  0.00     0.023 C 
BRANCH  63  64
ATOM     64  C   UNL A   1      45.438  18.845  36.642  1.00  0.00     0.116 C 
BRANCH  64  65
ATOM     65  N   UNL A   1      46.474  18.774  37.658  1.00  0.00    -0.352 N 
ATOM     66  C   UNL A   1      46.446  18.212  38.910  1.00  0.00     0.251 C 
ATOM     67  H   UNL A   1      47.329  19.196  37.409  1.00  0.00     0.163 HD
ATOM     68  O   UNL A   1      47.368  18.412  39.689  1.00  0.00    -0.269 OA
BRANCH  66  69
ATOM     69  C   UNL A   1      45.301  17.375  39.343  1.00  0.00     0.041 A 
ATOM     70  C   UNL A   1      44.477  16.738  38.414  1.00  0.00     0.016 A 
ATOM     71  C   UNL A   1      45.116  17.183  40.719  1.00  0.00     0.035 A 
ATOM     72  C   UNL A   1      43.403  15.950  38.844  1.00  0.00     0.031 A 
ATOM     73  C   UNL A   1      44.039  16.384  41.137  1.00  0.00     0.057 A 
ATOM     74  C   UNL A   1      43.171  15.773  40.223  1.00  0.00     0.083 A 
ATOM     75  S   UNL A   1      43.540  15.975  42.738  1.00  0.00    -0.102 S 
ATOM     76  N   UNL A   1      42.147  15.029  40.782  1.00  0.00    -0.225 NA
ATOM     77  C   UNL A   1      42.258  15.077  42.085  1.00  0.00     0.184 A 
ATOM     78  Cl  UNL A   1      41.160  14.272  43.128  1.00  0.00    -0.050 Cl
ENDBRANCH  66  69
ENDBRANCH  64  65
ENDBRANCH  63  64
ENDBRANCH  62  63
ENDBRANCH   1  62
TORSDOF 11
ENDMDL
