MODEL 1
REMARK VINA RESULT:     -11.2      0.000      0.000
REMARK SMILES C[N@H+]([C@H]1CCC[C@]([NH3+])(C(=O)NCCCCNC(=O)c2ccc(-c3c4nc(c(-c5c(F)cccc5F)c5ccc([nH]5)c(-c5c(F)cccc5F)c5nc(c(-c6c(F)cccc6F)c6ccc3[nH]6)C=C5)C=C4)cc2)C1)[C@H]1CC[C@H](C)CC1
REMARK SMILES IDX 13 1 12 2 11 3 9 4 10 5 7 7 3 8 4 9 73 10 5 11 6 12 2 13
REMARK SMILES IDX 1 14 74 16 78 17 77 18 76 19 79 20 75 21 80 22 8 23 14 27
REMARK SMILES IDX 15 28 16 29 17 30 18 32 19 33 20 34 72 35 21 36 71 37 22 38
REMARK SMILES IDX 23 39 24 40 65 41 25 42 70 43 64 44 66 45 26 46 69 47 63 48
REMARK SMILES IDX 62 49 27 51 53 52 36 53 52 54 37 55 40 56 51 57 67 58 38 59
REMARK SMILES IDX 39 60 50 62 68 63 41 64 28 65 29 66 34 67 30 68 31 69 33 70
REMARK SMILES IDX 35 71 32 72 54 73 55 74 60 75 56 76 57 77 59 78 61 79 58 80
REMARK SMILES IDX 42 81 43 82 48 83 44 84 45 85 47 86 49 87 46 88
REMARK H PARENT 11 6 2 15 8 24 8 25 8 26 16 31 66 50 40 61
REMARK Flexibility Score: inf
ROOT
ATOM      1  C   UNL A   1      38.798  22.811  26.454  1.00  0.00     0.023 C 
ENDROOT
BRANCH   1   2
ATOM      2  C   UNL A   1      37.737  23.690  25.796  1.00  0.00     0.116 C 
BRANCH   2   3
ATOM      3  N   UNL A   1      37.564  23.453  24.367  1.00  0.00    -0.351 N 
ATOM      4  C   UNL A   1      36.422  23.086  23.672  1.00  0.00     0.281 C 
ATOM      5  O   UNL A   1      36.485  22.976  22.447  1.00  0.00    -0.268 OA
ATOM      6  H   UNL A   1      38.373  23.570  23.819  1.00  0.00     0.163 HD
BRANCH   4   7
ATOM      7  C   UNL A   1      35.090  22.898  24.482  1.00  0.00     0.179 C 
ATOM      8  C   UNL A   1      33.561  23.750  26.435  1.00  0.00     0.190 C 
ATOM      9  C   UNL A   1      34.049  22.628  27.363  1.00  0.00     0.065 C 
ATOM     10  C   UNL A   1      34.713  24.070  25.411  1.00  0.00     0.144 C 
ATOM     11  C   UNL A   1      34.496  21.380  26.623  1.00  0.00     0.013 C 
ATOM     12  C   UNL A   1      35.380  21.660  25.408  1.00  0.00     0.079 C 
BRANCH   8  13
ATOM     13  N   UNL A   1      32.170  23.582  25.900  1.00  0.00    -0.332 N 
ATOM     14  C   UNL A   1      31.108  23.337  26.892  1.00  0.00     0.333 C 
ATOM     15  H   UNL A   1      32.316  22.744  25.338  1.00  0.00     0.348 HD
BRANCH  13  16
ATOM     16  C   UNL A   1      31.677  24.730  25.070  1.00  0.00     0.184 C 
ATOM     17  C   UNL A   1      29.636  28.098  23.204  1.00  0.00     0.007 C 
ATOM     18  C   UNL A   1      29.805  26.802  23.996  1.00  0.00    -0.014 C 
ATOM     19  C   UNL A   1      30.688  27.061  25.212  1.00  0.00     0.009 C 
ATOM     20  C   UNL A   1      30.386  25.689  23.114  1.00  0.00     0.009 C 
ATOM     21  C   UNL A   1      30.969  25.778  25.976  1.00  0.00     0.065 C 
ATOM     22  C   UNL A   1      30.725  24.412  23.901  1.00  0.00     0.065 C 
ENDBRANCH  13  16
ENDBRANCH   8  13
BRANCH   7  23
ATOM     23  N   UNL A   1      34.055  22.892  23.426  1.00  0.00    -0.345 N 
ATOM     24  H   UNL A   1      33.370  22.162  23.625  1.00  0.00     0.345 HD
ATOM     25  H   UNL A   1      34.493  22.710  22.523  1.00  0.00     0.345 HD
ATOM     26  H   UNL A   1      33.588  23.799  23.402  1.00  0.00     0.345 HD
ENDBRANCH   7  23
ENDBRANCH   4   7
ENDBRANCH   2   3
ENDBRANCH   1   2
BRANCH   1  27
ATOM     27  C   UNL A   1      39.091  21.516  25.716  1.00  0.00     0.023 C 
BRANCH  27  28
ATOM     28  C   UNL A   1      39.580  20.374  26.596  1.00  0.00     0.116 C 
BRANCH  28  29
ATOM     29  N   UNL A   1      40.626  19.563  25.985  1.00  0.00    -0.352 N 
ATOM     30  C   UNL A   1      41.964  19.850  25.863  1.00  0.00     0.251 C 
ATOM     31  H   UNL A   1      40.336  18.698  25.613  1.00  0.00     0.163 HD
ATOM     32  O   UNL A   1      42.712  19.100  25.242  1.00  0.00    -0.269 OA
BRANCH  30  33
ATOM     33  C   UNL A   1      42.482  21.105  26.444  1.00  0.00     0.039 A 
ATOM     34  C   UNL A   1      42.832  22.146  25.585  1.00  0.00     0.014 A 
ATOM     35  C   UNL A   1      42.536  21.276  27.830  1.00  0.00     0.014 A 
ATOM     36  C   UNL A   1      43.156  23.393  26.120  1.00  0.00     0.010 A 
ATOM     37  C   UNL A   1      42.771  22.542  28.356  1.00  0.00     0.010 A 
ATOM     38  C   UNL A   1      43.078  23.614  27.506  1.00  0.00    -0.014 A 
BRANCH  38  39
ATOM     39  C   UNL A   1      43.284  24.970  28.071  1.00  0.00     0.031 A 
ATOM     40  C   UNL A   1      44.657  25.430  28.470  1.00  0.00     0.074 A 
ATOM     41  C   UNL A   1      42.217  25.769  28.274  1.00  0.00     0.049 A 
ATOM     42  N   UNL A   1      45.028  26.578  28.979  1.00  0.00    -0.248 NA
ATOM     43  C   UNL A   1      45.756  24.466  28.303  1.00  0.00     0.031 C 
ATOM     44  C   UNL A   1      40.825  25.409  27.999  1.00  0.00     0.029 A 
ATOM     45  N   UNL A   1      42.139  27.049  28.760  1.00  0.00    -0.354 N 
ATOM     46  C   UNL A   1      46.394  26.472  29.197  1.00  0.00     0.074 A 
ATOM     47  C   UNL A   1      46.778  25.128  28.824  1.00  0.00     0.031 C 
ATOM     48  C   UNL A   1      40.035  26.457  28.284  1.00  0.00     0.029 A 
ATOM     49  C   UNL A   1      40.859  27.548  28.793  1.00  0.00     0.049 A 
ATOM     50  H   UNL A   1      42.924  27.562  29.058  1.00  0.00     0.167 HD
ATOM     51  C   UNL A   1      47.257  27.416  29.641  1.00  0.00     0.037 A 
ATOM     52  C   UNL A   1      40.401  28.752  29.182  1.00  0.00     0.037 A 
ATOM     53  C   UNL A   1      46.874  28.758  29.995  1.00  0.00     0.049 A 
ATOM     54  C   UNL A   1      41.381  29.788  29.658  1.00  0.00     0.074 A 
ATOM     55  C   UNL A   1      47.682  29.809  30.392  1.00  0.00     0.029 A 
ATOM     56  N   UNL A   1      45.570  29.232  29.999  1.00  0.00    -0.354 N 
ATOM     57  N   UNL A   1      42.684  29.702  29.775  1.00  0.00    -0.248 NA
ATOM     58  C   UNL A   1      40.827  31.092  30.047  1.00  0.00     0.031 C 
ATOM     59  C   UNL A   1      46.863  30.906  30.682  1.00  0.00     0.029 A 
ATOM     60  C   UNL A   1      45.549  30.554  30.417  1.00  0.00     0.049 A 
ATOM     61  H   UNL A   1      44.778  28.708  29.745  1.00  0.00     0.167 HD
ATOM     62  C   UNL A   1      43.107  30.945  30.230  1.00  0.00     0.074 A 
ATOM     63  C   UNL A   1      41.924  31.773  30.342  1.00  0.00     0.031 C 
ATOM     64  C   UNL A   1      44.362  31.362  30.531  1.00  0.00     0.037 A 
BRANCH  51  65
ATOM     65  C   UNL A   1      48.703  27.030  29.760  1.00  0.00     0.057 A 
ATOM     66  C   UNL A   1      49.223  26.469  30.935  1.00  0.00     0.134 A 
ATOM     67  C   UNL A   1      49.580  27.193  28.680  1.00  0.00     0.134 A 
ATOM     68  F   UNL A   1      48.441  26.300  32.011  1.00  0.00    -0.206 F 
ATOM     69  C   UNL A   1      50.568  26.109  31.039  1.00  0.00     0.040 A 
ATOM     70  C   UNL A   1      50.920  26.810  28.764  1.00  0.00     0.040 A 
ATOM     71  F   UNL A   1      49.148  27.720  27.524  1.00  0.00    -0.206 F 
ATOM     72  C   UNL A   1      51.419  26.273  29.948  1.00  0.00     0.006 A 
ENDBRANCH  51  65
BRANCH  52  73
ATOM     73  C   UNL A   1      38.951  29.058  29.108  1.00  0.00     0.057 A 
ATOM     74  C   UNL A   1      38.358  29.460  27.905  1.00  0.00     0.134 A 
ATOM     75  C   UNL A   1      38.125  28.964  30.234  1.00  0.00     0.134 A 
ATOM     76  F   UNL A   1      39.101  29.586  26.796  1.00  0.00    -0.206 F 
ATOM     77  C   UNL A   1      37.001  29.779  27.828  1.00  0.00     0.040 A 
ATOM     78  C   UNL A   1      36.761  29.255  30.166  1.00  0.00     0.040 A 
ATOM     79  F   UNL A   1      38.629  28.576  31.414  1.00  0.00    -0.206 F 
ATOM     80  C   UNL A   1      36.197  29.672  28.962  1.00  0.00     0.006 A 
ENDBRANCH  52  73
BRANCH  64  81
ATOM     81  C   UNL A   1      44.512  32.783  30.991  1.00  0.00     0.057 A 
ATOM     82  C   UNL A   1      44.704  33.837  30.088  1.00  0.00     0.134 A 
ATOM     83  C   UNL A   1      44.456  33.102  32.354  1.00  0.00     0.134 A 
ATOM     84  F   UNL A   1      44.780  33.596  28.770  1.00  0.00    -0.206 F 
ATOM     85  C   UNL A   1      44.871  35.151  30.525  1.00  0.00     0.040 A 
ATOM     86  C   UNL A   1      44.592  34.417  32.802  1.00  0.00     0.040 A 
ATOM     87  F   UNL A   1      44.264  32.143  33.272  1.00  0.00    -0.206 F 
ATOM     88  C   UNL A   1      44.811  35.444  31.887  1.00  0.00     0.006 A 
ENDBRANCH  64  81
ENDBRANCH  38  39
ENDBRANCH  30  33
ENDBRANCH  28  29
ENDBRANCH  27  28
ENDBRANCH   1  27
TORSDOF 14
ENDMDL
MODEL 2
REMARK VINA RESULT:     -11.2      2.005      3.103
REMARK SMILES C[N@H+]([C@H]1CCC[C@]([NH3+])(C(=O)NCCCCNC(=O)c2ccc(-c3c4nc(c(-c5c(F)cccc5F)c5ccc([nH]5)c(-c5c(F)cccc5F)c5nc(c(-c6c(F)cccc6F)c6ccc3[nH]6)C=C5)C=C4)cc2)C1)[C@H]1CC[C@H](C)CC1
REMARK SMILES IDX 13 1 12 2 11 3 9 4 10 5 7 7 3 8 4 9 73 10 5 11 6 12 2 13
REMARK SMILES IDX 1 14 74 16 78 17 77 18 76 19 79 20 75 21 80 22 8 23 14 27
REMARK SMILES IDX 15 28 16 29 17 30 18 32 19 33 20 34 72 35 21 36 71 37 22 38
REMARK SMILES IDX 23 39 24 40 65 41 25 42 70 43 64 44 66 45 26 46 69 47 63 48
REMARK SMILES IDX 62 49 27 51 53 52 36 53 52 54 37 55 40 56 51 57 67 58 38 59
REMARK SMILES IDX 39 60 50 62 68 63 41 64 28 65 29 66 34 67 30 68 31 69 33 70
REMARK SMILES IDX 35 71 32 72 54 73 55 74 60 75 56 76 57 77 59 78 61 79 58 80
REMARK SMILES IDX 42 81 43 82 48 83 44 84 45 85 47 86 49 87 46 88
REMARK H PARENT 11 6 2 15 8 24 8 25 8 26 16 31 66 50 40 61
REMARK Flexibility Score: inf
ROOT
ATOM      1  C   UNL A   1      37.168  21.200  24.799  1.00  0.00     0.023 C 
ENDROOT
BRANCH   1   2
ATOM      2  C   UNL A   1      35.674  20.944  24.978  1.00  0.00     0.116 C 
BRANCH   2   3
ATOM      3  N   UNL A   1      35.189  21.155  26.337  1.00  0.00    -0.351 N 
ATOM      4  C   UNL A   1      34.270  22.082  26.805  1.00  0.00     0.281 C 
ATOM      5  O   UNL A   1      33.967  22.063  27.999  1.00  0.00    -0.268 OA
ATOM      6  H   UNL A   1      35.565  20.552  27.018  1.00  0.00     0.163 HD
BRANCH   4   7
ATOM      7  C   UNL A   1      33.615  23.065  25.771  1.00  0.00     0.179 C 
ATOM      8  C   UNL A   1      31.695  24.781  25.276  1.00  0.00     0.190 C 
ATOM      9  C   UNL A   1      30.906  23.733  24.478  1.00  0.00     0.065 C 
ATOM     10  C   UNL A   1      32.558  24.025  26.354  1.00  0.00     0.144 C 
ATOM     11  C   UNL A   1      31.783  22.670  23.840  1.00  0.00     0.013 C 
ATOM     12  C   UNL A   1      32.863  22.114  24.769  1.00  0.00     0.079 C 
BRANCH   8  13
ATOM     13  N   UNL A   1      32.367  25.843  24.455  1.00  0.00    -0.332 N 
ATOM     14  C   UNL A   1      31.760  26.146  23.147  1.00  0.00     0.333 C 
ATOM     15  H   UNL A   1      33.271  25.391  24.319  1.00  0.00     0.348 HD
BRANCH  13  16
ATOM     16  C   UNL A   1      32.507  27.169  25.142  1.00  0.00     0.184 C 
ATOM     17  C   UNL A   1      33.445  30.631  27.617  1.00  0.00     0.007 C 
ATOM     18  C   UNL A   1      33.233  29.162  27.251  1.00  0.00    -0.014 C 
ATOM     19  C   UNL A   1      34.201  28.771  26.138  1.00  0.00     0.009 C 
ATOM     20  C   UNL A   1      31.779  28.900  26.841  1.00  0.00     0.009 C 
ATOM     21  C   UNL A   1      33.959  27.346  25.670  1.00  0.00     0.065 C 
ATOM     22  C   UNL A   1      31.549  27.475  26.311  1.00  0.00     0.065 C 
ENDBRANCH  13  16
ENDBRANCH   8  13
BRANCH   7  23
ATOM     23  N   UNL A   1      34.745  23.930  25.370  1.00  0.00    -0.345 N 
ATOM     24  H   UNL A   1      34.827  24.708  26.025  1.00  0.00     0.345 HD
ATOM     25  H   UNL A   1      34.579  24.292  24.431  1.00  0.00     0.345 HD
ATOM     26  H   UNL A   1      35.609  23.387  25.377  1.00  0.00     0.345 HD
ENDBRANCH   7  23
ENDBRANCH   4   7
ENDBRANCH   2   3
ENDBRANCH   1   2
BRANCH   1  27
ATOM     27  C   UNL A   1      38.046  19.976  24.996  1.00  0.00     0.023 C 
BRANCH  27  28
ATOM     28  C   UNL A   1      39.336  20.231  25.763  1.00  0.00     0.116 C 
BRANCH  28  29
ATOM     29  N   UNL A   1      40.253  19.097  25.770  1.00  0.00    -0.352 N 
ATOM     30  C   UNL A   1      41.602  19.094  26.028  1.00  0.00     0.251 C 
ATOM     31  H   UNL A   1      39.853  18.221  25.564  1.00  0.00     0.163 HD
ATOM     32  O   UNL A   1      42.261  18.065  25.912  1.00  0.00    -0.269 OA
BRANCH  30  33
ATOM     33  C   UNL A   1      42.262  20.364  26.397  1.00  0.00     0.039 A 
ATOM     34  C   UNL A   1      42.831  21.140  25.388  1.00  0.00     0.014 A 
ATOM     35  C   UNL A   1      42.237  20.819  27.717  1.00  0.00     0.014 A 
ATOM     36  C   UNL A   1      43.302  22.417  25.692  1.00  0.00     0.010 A 
ATOM     37  C   UNL A   1      42.623  22.125  28.000  1.00  0.00     0.010 A 
ATOM     38  C   UNL A   1      43.155  22.939  26.989  1.00  0.00    -0.014 A 
BRANCH  38  39
ATOM     39  C   UNL A   1      43.524  24.344  27.288  1.00  0.00     0.031 A 
ATOM     40  C   UNL A   1      44.954  24.795  27.190  1.00  0.00     0.074 A 
ATOM     41  C   UNL A   1      42.571  25.202  27.701  1.00  0.00     0.049 A 
ATOM     42  N   UNL A   1      45.462  25.980  27.412  1.00  0.00    -0.248 NA
ATOM     43  C   UNL A   1      45.949  23.775  26.820  1.00  0.00     0.031 C 
ATOM     44  C   UNL A   1      41.160  24.866  27.910  1.00  0.00     0.029 A 
ATOM     45  N   UNL A   1      42.645  26.534  28.022  1.00  0.00    -0.354 N 
ATOM     46  C   UNL A   1      46.830  25.848  27.217  1.00  0.00     0.074 A 
ATOM     47  C   UNL A   1      47.081  24.455  26.919  1.00  0.00     0.031 C 
ATOM     48  C   UNL A   1      40.496  25.971  28.286  1.00  0.00     0.029 A 
ATOM     49  C   UNL A   1      41.436  27.083  28.378  1.00  0.00     0.049 A 
ATOM     50  H   UNL A   1      43.484  27.048  28.000  1.00  0.00     0.167 HD
ATOM     51  C   UNL A   1      47.787  26.804  27.255  1.00  0.00     0.037 A 
ATOM     52  C   UNL A   1      41.120  28.342  28.732  1.00  0.00     0.037 A 
ATOM     53  C   UNL A   1      47.531  28.193  27.535  1.00  0.00     0.049 A 
ATOM     54  C   UNL A   1      42.199  29.389  28.753  1.00  0.00     0.074 A 
ATOM     55  C   UNL A   1      48.422  29.252  27.532  1.00  0.00     0.029 A 
ATOM     56  N   UNL A   1      46.292  28.715  27.875  1.00  0.00    -0.354 N 
ATOM     57  N   UNL A   1      43.475  29.266  28.479  1.00  0.00    -0.248 NA
ATOM     58  C   UNL A   1      41.790  30.751  29.122  1.00  0.00     0.031 C 
ATOM     59  C   UNL A   1      47.731  30.407  27.915  1.00  0.00     0.029 A 
ATOM     60  C   UNL A   1      46.399  30.077  28.107  1.00  0.00     0.049 A 
ATOM     61  H   UNL A   1      45.459  28.195  27.941  1.00  0.00     0.167 HD
ATOM     62  C   UNL A   1      44.017  30.537  28.622  1.00  0.00     0.074 A 
ATOM     63  C   UNL A   1      42.925  31.418  28.982  1.00  0.00     0.031 C 
ATOM     64  C   UNL A   1      45.304  30.939  28.473  1.00  0.00     0.037 A 
BRANCH  51  65
ATOM     65  C   UNL A   1      49.200  26.379  26.978  1.00  0.00     0.057 A 
ATOM     66  C   UNL A   1      49.719  26.345  25.676  1.00  0.00     0.134 A 
ATOM     67  C   UNL A   1      50.061  26.028  28.024  1.00  0.00     0.134 A 
ATOM     68  F   UNL A   1      48.943  26.656  24.626  1.00  0.00    -0.206 F 
ATOM     69  C   UNL A   1      51.035  25.952  25.424  1.00  0.00     0.040 A 
ATOM     70  C   UNL A   1      51.387  25.660  27.786  1.00  0.00     0.040 A 
ATOM     71  F   UNL A   1      49.632  26.042  29.295  1.00  0.00    -0.206 F 
ATOM     72  C   UNL A   1      51.875  25.615  26.483  1.00  0.00     0.006 A 
ENDBRANCH  51  65
BRANCH  52  73
ATOM     73  C   UNL A   1      39.716  28.693  29.063  1.00  0.00     0.057 A 
ATOM     74  C   UNL A   1      39.226  28.553  30.367  1.00  0.00     0.134 A 
ATOM     75  C   UNL A   1      38.831  29.167  28.089  1.00  0.00     0.134 A 
ATOM     76  F   UNL A   1      40.021  28.086  31.340  1.00  0.00    -0.206 F 
ATOM     77  C   UNL A   1      37.899  28.850  30.685  1.00  0.00     0.040 A 
ATOM     78  C   UNL A   1      37.510  29.493  28.398  1.00  0.00     0.040 A 
ATOM     79  F   UNL A   1      39.242  29.332  26.823  1.00  0.00    -0.206 F 
ATOM     80  C   UNL A   1      37.038  29.327  29.699  1.00  0.00     0.006 A 
ENDBRANCH  52  73
BRANCH  64  81
ATOM     81  C   UNL A   1      45.588  32.398  28.682  1.00  0.00     0.057 A 
ATOM     82  C   UNL A   1      45.962  32.908  29.932  1.00  0.00     0.134 A 
ATOM     83  C   UNL A   1      45.493  33.303  27.617  1.00  0.00     0.134 A 
ATOM     84  F   UNL A   1      46.058  32.095  30.996  1.00  0.00    -0.206 F 
ATOM     85  C   UNL A   1      46.196  34.270  30.125  1.00  0.00     0.040 A 
ATOM     86  C   UNL A   1      45.754  34.664  27.790  1.00  0.00     0.040 A 
ATOM     87  F   UNL A   1      45.150  32.881  26.391  1.00  0.00    -0.206 F 
ATOM     88  C   UNL A   1      46.096  35.151  29.049  1.00  0.00     0.006 A 
ENDBRANCH  64  81
ENDBRANCH  38  39
ENDBRANCH  30  33
ENDBRANCH  28  29
ENDBRANCH  27  28
ENDBRANCH   1  27
TORSDOF 14
ENDMDL
MODEL 3
REMARK VINA RESULT:     -11.2      1.497      2.375
REMARK SMILES C[N@H+]([C@H]1CCC[C@]([NH3+])(C(=O)NCCCCNC(=O)c2ccc(-c3c4nc(c(-c5c(F)cccc5F)c5ccc([nH]5)c(-c5c(F)cccc5F)c5nc(c(-c6c(F)cccc6F)c6ccc3[nH]6)C=C5)C=C4)cc2)C1)[C@H]1CC[C@H](C)CC1
REMARK SMILES IDX 13 1 12 2 11 3 9 4 10 5 7 7 3 8 4 9 73 10 5 11 6 12 2 13
REMARK SMILES IDX 1 14 74 16 78 17 77 18 76 19 79 20 75 21 80 22 8 23 14 27
REMARK SMILES IDX 15 28 16 29 17 30 18 32 19 33 20 34 72 35 21 36 71 37 22 38
REMARK SMILES IDX 23 39 24 40 65 41 25 42 70 43 64 44 66 45 26 46 69 47 63 48
REMARK SMILES IDX 62 49 27 51 53 52 36 53 52 54 37 55 40 56 51 57 67 58 38 59
REMARK SMILES IDX 39 60 50 62 68 63 41 64 28 65 29 66 34 67 30 68 31 69 33 70
REMARK SMILES IDX 35 71 32 72 54 73 55 74 60 75 56 76 57 77 59 78 61 79 58 80
REMARK SMILES IDX 42 81 43 82 48 83 44 84 45 85 47 86 49 87 46 88
REMARK H PARENT 11 6 2 15 8 24 8 25 8 26 16 31 66 50 40 61
REMARK Flexibility Score: inf
ROOT
ATOM      1  C   UNL A   1      36.686  21.515  25.177  1.00  0.00     0.023 C 
ENDROOT
BRANCH   1   2
ATOM      2  C   UNL A   1      35.266  20.956  25.221  1.00  0.00     0.116 C 
BRANCH   2   3
ATOM      3  N   UNL A   1      34.590  21.140  26.500  1.00  0.00    -0.351 N 
ATOM      4  C   UNL A   1      33.642  22.085  26.861  1.00  0.00     0.281 C 
ATOM      5  O   UNL A   1      33.163  22.038  27.995  1.00  0.00    -0.268 OA
ATOM      6  H   UNL A   1      34.841  20.502  27.206  1.00  0.00     0.163 HD
BRANCH   4   7
ATOM      7  C   UNL A   1      33.181  23.124  25.779  1.00  0.00     0.179 C 
ATOM      8  C   UNL A   1      31.347  24.833  25.008  1.00  0.00     0.190 C 
ATOM      9  C   UNL A   1      30.775  23.828  23.998  1.00  0.00     0.065 C 
ATOM     10  C   UNL A   1      31.994  24.020  26.190  1.00  0.00     0.144 C 
ATOM     11  C   UNL A   1      31.799  22.830  23.488  1.00  0.00     0.013 C 
ATOM     12  C   UNL A   1      32.683  22.232  24.583  1.00  0.00     0.079 C 
BRANCH   8  13
ATOM     13  N   UNL A   1      32.137  25.962  24.415  1.00  0.00    -0.332 N 
ATOM     14  C   UNL A   1      31.635  26.522  23.147  1.00  0.00     0.333 C 
ATOM     15  H   UNL A   1      33.016  25.473  24.251  1.00  0.00     0.348 HD
BRANCH  13  16
ATOM     16  C   UNL A   1      32.318  27.143  25.322  1.00  0.00     0.184 C 
ATOM     17  C   UNL A   1      33.042  30.971  27.274  1.00  0.00     0.007 C 
ATOM     18  C   UNL A   1      33.193  29.850  26.246  1.00  0.00    -0.014 C 
ATOM     19  C   UNL A   1      31.860  29.627  25.539  1.00  0.00     0.009 C 
ATOM     20  C   UNL A   1      33.694  28.560  26.907  1.00  0.00     0.009 C 
ATOM     21  C   UNL A   1      31.934  28.452  24.577  1.00  0.00     0.065 C 
ATOM     22  C   UNL A   1      33.710  27.358  25.948  1.00  0.00     0.065 C 
ENDBRANCH  13  16
ENDBRANCH   8  13
BRANCH   7  23
ATOM     23  N   UNL A   1      34.339  24.038  25.678  1.00  0.00    -0.345 N 
ATOM     24  H   UNL A   1      34.450  24.340  24.710  1.00  0.00     0.345 HD
ATOM     25  H   UNL A   1      35.183  23.551  25.980  1.00  0.00     0.345 HD
ATOM     26  H   UNL A   1      34.184  24.851  26.273  1.00  0.00     0.345 HD
ENDBRANCH   7  23
ENDBRANCH   4   7
ENDBRANCH   2   3
ENDBRANCH   1   2
BRANCH   1  27
ATOM     27  C   UNL A   1      37.772  20.467  24.997  1.00  0.00     0.023 C 
BRANCH  27  28
ATOM     28  C   UNL A   1      39.031  20.703  25.820  1.00  0.00     0.116 C 
BRANCH  28  29
ATOM     29  N   UNL A   1      39.970  19.589  25.794  1.00  0.00    -0.352 N 
ATOM     30  C   UNL A   1      41.305  19.592  26.120  1.00  0.00     0.251 C 
ATOM     31  H   UNL A   1      39.600  18.722  25.506  1.00  0.00     0.163 HD
ATOM     32  O   UNL A   1      41.991  18.587  25.966  1.00  0.00    -0.269 OA
BRANCH  30  33
ATOM     33  C   UNL A   1      41.917  20.844  26.610  1.00  0.00     0.039 A 
ATOM     34  C   UNL A   1      42.323  21.800  25.680  1.00  0.00     0.014 A 
ATOM     35  C   UNL A   1      42.007  21.102  27.981  1.00  0.00     0.014 A 
ATOM     36  C   UNL A   1      42.740  23.054  26.126  1.00  0.00     0.010 A 
ATOM     37  C   UNL A   1      42.337  22.380  28.419  1.00  0.00     0.010 A 
ATOM     38  C   UNL A   1      42.701  23.370  27.496  1.00  0.00    -0.014 A 
BRANCH  38  39
ATOM     39  C   UNL A   1      43.009  24.743  27.966  1.00  0.00     0.031 A 
ATOM     40  C   UNL A   1      44.431  25.167  28.202  1.00  0.00     0.074 A 
ATOM     41  C   UNL A   1      41.996  25.591  28.233  1.00  0.00     0.049 A 
ATOM     42  N   UNL A   1      44.889  26.323  28.612  1.00  0.00    -0.248 NA
ATOM     43  C   UNL A   1      45.474  24.155  27.976  1.00  0.00     0.031 C 
ATOM     44  C   UNL A   1      40.572  25.273  28.116  1.00  0.00     0.029 A 
ATOM     45  N   UNL A   1      42.011  26.895  28.658  1.00  0.00    -0.354 N 
ATOM     46  C   UNL A   1      46.267  26.174  28.698  1.00  0.00     0.074 A 
ATOM     47  C   UNL A   1      46.565  24.800  28.359  1.00  0.00     0.031 C 
ATOM     48  C   UNL A   1      39.851  26.363  28.424  1.00  0.00     0.029 A 
ATOM     49  C   UNL A   1      40.758  27.445  28.792  1.00  0.00     0.049 A 
ATOM     50  H   UNL A   1      42.839  27.391  28.849  1.00  0.00     0.167 HD
ATOM     51  C   UNL A   1      47.201  27.105  29.004  1.00  0.00     0.037 A 
ATOM     52  C   UNL A   1      40.384  28.683  29.162  1.00  0.00     0.037 A 
ATOM     53  C   UNL A   1      46.902  28.476  29.325  1.00  0.00     0.049 A 
ATOM     54  C   UNL A   1      41.441  29.701  29.484  1.00  0.00     0.074 A 
ATOM     55  C   UNL A   1      47.781  29.513  29.585  1.00  0.00     0.029 A 
ATOM     56  N   UNL A   1      45.622  29.000  29.435  1.00  0.00    -0.354 N 
ATOM     57  N   UNL A   1      42.746  29.570  29.475  1.00  0.00    -0.248 NA
ATOM     58  C   UNL A   1      40.974  31.043  29.858  1.00  0.00     0.031 C 
ATOM     59  C   UNL A   1      47.033  30.653  29.897  1.00  0.00     0.029 A 
ATOM     60  C   UNL A   1      45.689  30.341  29.783  1.00  0.00     0.049 A 
ATOM     61  H   UNL A   1      44.791  28.495  29.287  1.00  0.00     0.167 HD
ATOM     62  C   UNL A   1      43.254  30.816  29.820  1.00  0.00     0.074 A 
ATOM     63  C   UNL A   1      42.117  31.694  30.006  1.00  0.00     0.031 C 
ATOM     64  C   UNL A   1      44.547  31.198  29.973  1.00  0.00     0.037 A 
BRANCH  51  65
ATOM     65  C   UNL A   1      48.638  26.669  28.999  1.00  0.00     0.057 A 
ATOM     66  C   UNL A   1      49.256  26.148  30.144  1.00  0.00     0.134 A 
ATOM     67  C   UNL A   1      49.405  26.743  27.830  1.00  0.00     0.134 A 
ATOM     68  F   UNL A   1      48.583  26.064  31.301  1.00  0.00    -0.206 F 
ATOM     69  C   UNL A   1      50.592  25.742  30.133  1.00  0.00     0.040 A 
ATOM     70  C   UNL A   1      50.733  26.313  27.799  1.00  0.00     0.040 A 
ATOM     71  F   UNL A   1      48.876  27.227  26.696  1.00  0.00    -0.206 F 
ATOM     72  C   UNL A   1      51.332  25.817  28.955  1.00  0.00     0.006 A 
ENDBRANCH  51  65
BRANCH  52  73
ATOM     73  C   UNL A   1      38.944  29.041  29.217  1.00  0.00     0.057 A 
ATOM     74  C   UNL A   1      38.212  28.910  30.403  1.00  0.00     0.134 A 
ATOM     75  C   UNL A   1      38.264  29.513  28.089  1.00  0.00     0.134 A 
ATOM     76  F   UNL A   1      38.804  28.444  31.513  1.00  0.00    -0.206 F 
ATOM     77  C   UNL A   1      36.851  29.214  30.461  1.00  0.00     0.040 A 
ATOM     78  C   UNL A   1      36.909  29.846  28.138  1.00  0.00     0.040 A 
ATOM     79  F   UNL A   1      38.910  29.670  26.925  1.00  0.00    -0.206 F 
ATOM     80  C   UNL A   1      36.197  29.689  29.326  1.00  0.00     0.006 A 
ENDBRANCH  52  73
BRANCH  64  81
ATOM     81  C   UNL A   1      44.791  32.633  30.342  1.00  0.00     0.057 A 
ATOM     82  C   UNL A   1      44.892  33.639  29.373  1.00  0.00     0.134 A 
ATOM     83  C   UNL A   1      44.919  33.013  31.684  1.00  0.00     0.134 A 
ATOM     84  F   UNL A   1      44.791  33.339  28.068  1.00  0.00    -0.206 F 
ATOM     85  C   UNL A   1      45.147  34.966  29.722  1.00  0.00     0.040 A 
ATOM     86  C   UNL A   1      45.144  34.342  32.048  1.00  0.00     0.040 A 
ATOM     87  F   UNL A   1      44.823  32.102  32.664  1.00  0.00    -0.206 F 
ATOM     88  C   UNL A   1      45.270  35.320  31.064  1.00  0.00     0.006 A 
ENDBRANCH  64  81
ENDBRANCH  38  39
ENDBRANCH  30  33
ENDBRANCH  28  29
ENDBRANCH  27  28
ENDBRANCH   1  27
TORSDOF 14
ENDMDL
