MODEL 1
REMARK VINA RESULT:     -11.5      0.000      0.000
REMARK SMILES Cc1cc(C)c(C(=O)NCCCCNC(=O)c2ccc(-c3c4nc(c(-c5c(F)cccc5F)c5ccc([nH]5)c(-c5c(F)cccc5F)c5nc(c(-c6c(F)cccc6F)c6ccc3[nH]6)C=C5)C=C4)cc2)c(NC[C@@H]2C[N@@H+](C)CCO2)n1
REMARK SMILES IDX 11 1 10 2 9 3 7 4 8 5 6 7 1 8 2 9 3 10 81 11 4 12 71 13 5 14
REMARK SMILES IDX 72 15 73 17 74 18 75 19 80 20 76 21 79 22 77 23 78 24 12 26
REMARK SMILES IDX 13 27 14 28 15 29 16 31 17 32 18 33 70 34 19 35 69 36 20 37
REMARK SMILES IDX 21 38 22 39 63 40 23 41 68 42 62 43 64 44 24 45 67 46 61 47
REMARK SMILES IDX 60 48 25 50 51 51 34 52 50 53 35 54 38 55 49 56 65 57 36 58
REMARK SMILES IDX 37 59 48 61 66 62 39 63 26 64 27 65 32 66 28 67 29 68 31 69
REMARK SMILES IDX 33 70 30 71 52 72 53 73 58 74 54 75 55 76 57 77 59 78 56 79
REMARK SMILES IDX 40 80 41 81 46 82 42 83 43 84 45 85 47 86 44 87
REMARK H PARENT 9 6 72 16 76 25 14 30 64 49 38 60
REMARK Flexibility Score: inf
ROOT
ATOM      1  C   UNL A   1      31.423  27.556  26.387  1.00  0.00     0.023 C 
ENDROOT
BRANCH   1   2
ATOM      2  C   UNL A   1      31.521  26.062  26.086  1.00  0.00     0.116 C 
BRANCH   2   3
ATOM      3  N   UNL A   1      32.853  25.501  26.165  1.00  0.00    -0.352 N 
ATOM      4  C   UNL A   1      33.798  25.282  25.183  1.00  0.00     0.255 C 
ATOM      5  O   UNL A   1      34.910  24.894  25.546  1.00  0.00    -0.269 OA
ATOM      6  H   UNL A   1      33.132  25.231  27.070  1.00  0.00     0.163 HD
BRANCH   4   7
ATOM      7  C   UNL A   1      33.512  25.433  23.725  1.00  0.00     0.085 A 
ATOM      8  C   UNL A   1      32.409  25.516  19.616  1.00  0.00     0.067 C 
ATOM      9  C   UNL A   1      32.848  25.503  21.048  1.00  0.00     0.040 A 
ATOM     10  C   UNL A   1      33.105  26.694  21.708  1.00  0.00     0.028 A 
ATOM     11  N   UNL A   1      32.989  24.303  21.648  1.00  0.00    -0.236 NA
ATOM     12  C   UNL A   1      33.502  26.670  23.052  1.00  0.00    -0.033 A 
ATOM     13  C   UNL A   1      33.344  24.254  22.956  1.00  0.00     0.139 A 
ATOM     14  C   UNL A   1      33.950  27.971  23.647  1.00  0.00     0.045 C 
BRANCH  13  15
ATOM     15  N   UNL A   1      33.492  22.999  23.528  1.00  0.00    -0.367 N 
ATOM     16  H   UNL A   1      34.399  22.687  23.749  1.00  0.00     0.162 HD
BRANCH  15  17
ATOM     17  C   UNL A   1      32.361  22.120  23.817  1.00  0.00     0.152 C 
BRANCH  17  18
ATOM     18  C   UNL A   1      32.564  21.385  25.168  1.00  0.00     0.192 C 
ATOM     19  C   UNL A   1      34.057  21.279  25.566  1.00  0.00     0.296 C 
ATOM     20  O   UNL A   1      31.961  20.069  25.179  1.00  0.00    -0.365 OA
ATOM     21  N   UNL A   1      34.801  20.356  24.681  1.00  0.00    -0.333 N 
ATOM     22  C   UNL A   1      32.652  19.150  24.325  1.00  0.00     0.222 C 
ATOM     23  C   UNL A   1      36.198  20.231  25.092  1.00  0.00     0.332 C 
ATOM     24  C   UNL A   1      34.136  19.037  24.698  1.00  0.00     0.290 C 
ATOM     25  H   UNL A   1      34.799  20.733  23.733  1.00  0.00     0.348 HD
ENDBRANCH  17  18
ENDBRANCH  15  17
ENDBRANCH  13  15
ENDBRANCH   4   7
ENDBRANCH   2   3
ENDBRANCH   1   2
BRANCH   1  26
ATOM     26  C   UNL A   1      32.288  28.089  27.534  1.00  0.00     0.023 C 
BRANCH  26  27
ATOM     27  C   UNL A   1      33.540  28.880  27.158  1.00  0.00     0.116 C 
BRANCH  27  28
ATOM     28  N   UNL A   1      33.619  30.198  27.771  1.00  0.00    -0.352 N 
ATOM     29  C   UNL A   1      34.655  30.828  28.420  1.00  0.00     0.251 C 
ATOM     30  H   UNL A   1      32.791  30.727  27.710  1.00  0.00     0.163 HD
ATOM     31  O   UNL A   1      34.470  31.935  28.923  1.00  0.00    -0.269 OA
BRANCH  29  32
ATOM     32  C   UNL A   1      35.975  30.174  28.569  1.00  0.00     0.039 A 
ATOM     33  C   UNL A   1      36.862  30.202  27.487  1.00  0.00     0.014 A 
ATOM     34  C   UNL A   1      36.350  29.537  29.753  1.00  0.00     0.014 A 
ATOM     35  C   UNL A   1      38.156  29.692  27.630  1.00  0.00     0.010 A 
ATOM     36  C   UNL A   1      37.666  29.105  29.922  1.00  0.00     0.010 A 
ATOM     37  C   UNL A   1      38.588  29.192  28.868  1.00  0.00    -0.014 A 
BRANCH  37  38
ATOM     38  C   UNL A   1      40.002  28.783  29.090  1.00  0.00     0.031 A 
ATOM     39  C   UNL A   1      40.990  29.746  29.690  1.00  0.00     0.074 A 
ATOM     40  C   UNL A   1      40.419  27.570  28.674  1.00  0.00     0.049 A 
ATOM     41  N   UNL A   1      42.282  29.607  29.862  1.00  0.00    -0.248 NA
ATOM     42  C   UNL A   1      40.465  31.049  30.127  1.00  0.00     0.031 C 
ATOM     43  C   UNL A   1      39.578  26.559  28.028  1.00  0.00     0.029 A 
ATOM     44  N   UNL A   1      41.663  26.987  28.715  1.00  0.00    -0.354 N 
ATOM     45  C   UNL A   1      42.723  30.808  30.402  1.00  0.00     0.074 A 
ATOM     46  C   UNL A   1      41.572  31.681  30.489  1.00  0.00     0.031 C 
ATOM     47  C   UNL A   1      40.324  25.475  27.753  1.00  0.00     0.029 A 
ATOM     48  C   UNL A   1      41.701  25.727  28.165  1.00  0.00     0.049 A 
ATOM     49  H   UNL A   1      42.452  27.429  29.102  1.00  0.00     0.167 HD
ATOM     50  C   UNL A   1      43.970  31.146  30.810  1.00  0.00     0.037 A 
ATOM     51  C   UNL A   1      42.730  24.874  27.999  1.00  0.00     0.037 A 
ATOM     52  C   UNL A   1      45.109  30.268  30.760  1.00  0.00     0.049 A 
ATOM     53  C   UNL A   1      44.101  25.272  28.470  1.00  0.00     0.074 A 
ATOM     54  C   UNL A   1      46.396  30.499  31.214  1.00  0.00     0.029 A 
ATOM     55  N   UNL A   1      45.096  28.988  30.228  1.00  0.00    -0.354 N 
ATOM     56  N   UNL A   1      44.488  26.387  29.042  1.00  0.00    -0.248 NA
ATOM     57  C   UNL A   1      45.179  24.291  28.278  1.00  0.00     0.031 C 
ATOM     58  C   UNL A   1      47.173  29.374  30.923  1.00  0.00     0.029 A 
ATOM     59  C   UNL A   1      46.359  28.424  30.327  1.00  0.00     0.049 A 
ATOM     60  H   UNL A   1      44.309  28.546  29.837  1.00  0.00     0.167 HD
ATOM     61  C   UNL A   1      45.842  26.228  29.304  1.00  0.00     0.074 A 
ATOM     62  C   UNL A   1      46.209  24.907  28.841  1.00  0.00     0.031 C 
ATOM     63  C   UNL A   1      46.705  27.101  29.877  1.00  0.00     0.037 A 
BRANCH  50  64
ATOM     64  C   UNL A   1      44.169  32.528  31.361  1.00  0.00     0.057 A 
ATOM     65  C   UNL A   1      44.445  33.621  30.527  1.00  0.00     0.134 A 
ATOM     66  C   UNL A   1      44.036  32.779  32.732  1.00  0.00     0.134 A 
ATOM     67  F   UNL A   1      44.595  33.446  29.205  1.00  0.00    -0.206 F 
ATOM     68  C   UNL A   1      44.603  34.909  31.041  1.00  0.00     0.040 A 
ATOM     69  C   UNL A   1      44.166  34.068  33.255  1.00  0.00     0.040 A 
ATOM     70  F   UNL A   1      43.765  31.781  33.585  1.00  0.00    -0.206 F 
ATOM     71  C   UNL A   1      44.456  35.136  32.408  1.00  0.00     0.006 A 
ENDBRANCH  50  64
BRANCH  51  72
ATOM     72  C   UNL A   1      42.507  23.545  27.374  1.00  0.00     0.057 A 
ATOM     73  C   UNL A   1      42.206  22.423  28.157  1.00  0.00     0.134 A 
ATOM     74  C   UNL A   1      42.612  23.358  25.991  1.00  0.00     0.134 A 
ATOM     75  F   UNL A   1      42.114  22.536  29.490  1.00  0.00    -0.206 F 
ATOM     76  C   UNL A   1      42.043  21.158  27.590  1.00  0.00     0.040 A 
ATOM     77  C   UNL A   1      42.425  22.103  25.408  1.00  0.00     0.040 A 
ATOM     78  F   UNL A   1      42.890  24.393  25.187  1.00  0.00    -0.206 F 
ATOM     79  C   UNL A   1      42.149  20.998  26.210  1.00  0.00     0.006 A 
ENDBRANCH  51  72
BRANCH  63  80
ATOM     80  C   UNL A   1      48.119  26.641  30.077  1.00  0.00     0.057 A 
ATOM     81  C   UNL A   1      48.511  25.927  31.216  1.00  0.00     0.134 A 
ATOM     82  C   UNL A   1      49.091  26.883  29.097  1.00  0.00     0.134 A 
ATOM     83  F   UNL A   1      47.631  25.676  32.197  1.00  0.00    -0.206 F 
ATOM     84  C   UNL A   1      49.825  25.487  31.382  1.00  0.00     0.040 A 
ATOM     85  C   UNL A   1      50.401  26.425  29.241  1.00  0.00     0.040 A 
ATOM     86  F   UNL A   1      48.778  27.554  27.978  1.00  0.00    -0.206 F 
ATOM     87  C   UNL A   1      50.772  25.730  30.389  1.00  0.00     0.006 A 
ENDBRANCH  63  80
ENDBRANCH  37  38
ENDBRANCH  29  32
ENDBRANCH  27  28
ENDBRANCH  26  27
ENDBRANCH   1  26
TORSDOF 14
ENDMDL
MODEL 2
REMARK VINA RESULT:     -11.4      2.465      7.376
REMARK SMILES Cc1cc(C)c(C(=O)NCCCCNC(=O)c2ccc(-c3c4nc(c(-c5c(F)cccc5F)c5ccc([nH]5)c(-c5c(F)cccc5F)c5nc(c(-c6c(F)cccc6F)c6ccc3[nH]6)C=C5)C=C4)cc2)c(NC[C@@H]2C[N@@H+](C)CCO2)n1
REMARK SMILES IDX 11 1 10 2 9 3 7 4 8 5 6 7 1 8 2 9 3 10 81 11 4 12 71 13 5 14
REMARK SMILES IDX 72 15 73 17 74 18 75 19 80 20 76 21 79 22 77 23 78 24 12 26
REMARK SMILES IDX 13 27 14 28 15 29 16 31 17 32 18 33 70 34 19 35 69 36 20 37
REMARK SMILES IDX 21 38 22 39 63 40 23 41 68 42 62 43 64 44 24 45 67 46 61 47
REMARK SMILES IDX 60 48 25 50 51 51 34 52 50 53 35 54 38 55 49 56 65 57 36 58
REMARK SMILES IDX 37 59 48 61 66 62 39 63 26 64 27 65 32 66 28 67 29 68 31 69
REMARK SMILES IDX 33 70 30 71 52 72 53 73 58 74 54 75 55 76 57 77 59 78 56 79
REMARK SMILES IDX 40 80 41 81 46 82 42 83 43 84 45 85 47 86 44 87
REMARK H PARENT 9 6 72 16 76 25 14 30 64 49 38 60
REMARK Flexibility Score: inf
ROOT
ATOM      1  C   UNL A   1      36.607  20.404  25.021  1.00  0.00     0.023 C 
ENDROOT
BRANCH   1   2
ATOM      2  C   UNL A   1      36.253  21.848  25.369  1.00  0.00     0.116 C 
BRANCH   2   3
ATOM      3  N   UNL A   1      35.618  22.036  26.657  1.00  0.00    -0.352 N 
ATOM      4  C   UNL A   1      34.339  22.445  26.980  1.00  0.00     0.255 C 
ATOM      5  O   UNL A   1      34.019  22.406  28.170  1.00  0.00    -0.269 OA
ATOM      6  H   UNL A   1      36.193  21.839  27.431  1.00  0.00     0.163 HD
BRANCH   4   7
ATOM      7  C   UNL A   1      33.373  22.978  25.975  1.00  0.00     0.085 A 
ATOM      8  C   UNL A   1      30.302  24.241  23.313  1.00  0.00     0.067 C 
ATOM      9  C   UNL A   1      31.420  23.800  24.209  1.00  0.00     0.040 A 
ATOM     10  C   UNL A   1      32.392  24.705  24.605  1.00  0.00     0.028 A 
ATOM     11  N   UNL A   1      31.439  22.508  24.595  1.00  0.00    -0.236 NA
ATOM     12  C   UNL A   1      33.424  24.285  25.454  1.00  0.00    -0.033 A 
ATOM     13  C   UNL A   1      32.412  22.083  25.440  1.00  0.00     0.139 A 
ATOM     14  C   UNL A   1      34.544  25.254  25.686  1.00  0.00     0.045 C 
BRANCH  13  15
ATOM     15  N   UNL A   1      32.403  20.743  25.798  1.00  0.00    -0.367 N 
ATOM     16  H   UNL A   1      31.826  20.460  26.543  1.00  0.00     0.162 HD
BRANCH  15  17
ATOM     17  C   UNL A   1      33.214  19.735  25.119  1.00  0.00     0.152 C 
BRANCH  17  18
ATOM     18  C   UNL A   1      32.477  18.371  25.080  1.00  0.00     0.192 C 
ATOM     19  C   UNL A   1      33.333  17.217  25.659  1.00  0.00     0.296 C 
ATOM     20  O   UNL A   1      32.026  18.022  23.748  1.00  0.00    -0.365 OA
ATOM     21  N   UNL A   1      34.483  16.890  24.787  1.00  0.00    -0.333 N 
ATOM     22  C   UNL A   1      33.115  17.707  22.873  1.00  0.00     0.222 C 
ATOM     23  C   UNL A   1      35.258  15.774  25.322  1.00  0.00     0.332 C 
ATOM     24  C   UNL A   1      33.981  16.572  23.434  1.00  0.00     0.290 C 
ATOM     25  H   UNL A   1      35.106  17.697  24.745  1.00  0.00     0.348 HD
ENDBRANCH  17  18
ENDBRANCH  15  17
ENDBRANCH  13  15
ENDBRANCH   4   7
ENDBRANCH   2   3
ENDBRANCH   1   2
BRANCH   1  26
ATOM     26  C   UNL A   1      38.085  20.100  24.753  1.00  0.00     0.023 C 
BRANCH  26  27
ATOM     27  C   UNL A   1      39.049  20.219  25.932  1.00  0.00     0.116 C 
BRANCH  27  28
ATOM     28  N   UNL A   1      40.148  19.264  25.902  1.00  0.00    -0.352 N 
ATOM     29  C   UNL A   1      41.485  19.422  26.183  1.00  0.00     0.251 C 
ATOM     30  H   UNL A   1      39.890  18.352  25.636  1.00  0.00     0.163 HD
ATOM     31  O   UNL A   1      42.253  18.475  26.024  1.00  0.00    -0.269 OA
BRANCH  29  32
ATOM     32  C   UNL A   1      42.025  20.729  26.624  1.00  0.00     0.039 A 
ATOM     33  C   UNL A   1      42.474  21.630  25.653  1.00  0.00     0.014 A 
ATOM     34  C   UNL A   1      42.094  21.077  27.974  1.00  0.00     0.014 A 
ATOM     35  C   UNL A   1      42.886  22.913  26.026  1.00  0.00     0.010 A 
ATOM     36  C   UNL A   1      42.425  22.383  28.338  1.00  0.00     0.010 A 
ATOM     37  C   UNL A   1      42.809  23.320  27.368  1.00  0.00    -0.014 A 
BRANCH  37  38
ATOM     38  C   UNL A   1      43.096  24.724  27.771  1.00  0.00     0.031 A 
ATOM     39  C   UNL A   1      44.511  25.177  28.006  1.00  0.00     0.074 A 
ATOM     40  C   UNL A   1      42.074  25.572  28.010  1.00  0.00     0.049 A 
ATOM     41  N   UNL A   1      44.948  26.326  28.461  1.00  0.00    -0.248 NA
ATOM     42  C   UNL A   1      45.576  24.203  27.721  1.00  0.00     0.031 C 
ATOM     43  C   UNL A   1      40.652  25.247  27.874  1.00  0.00     0.029 A 
ATOM     44  N   UNL A   1      42.074  26.878  28.435  1.00  0.00    -0.354 N 
ATOM     45  C   UNL A   1      46.329  26.202  28.537  1.00  0.00     0.074 A 
ATOM     46  C   UNL A   1      46.656  24.854  28.126  1.00  0.00     0.031 C 
ATOM     47  C   UNL A   1      39.921  26.328  28.188  1.00  0.00     0.029 A 
ATOM     48  C   UNL A   1      40.815  27.410  28.587  1.00  0.00     0.049 A 
ATOM     49  H   UNL A   1      42.898  27.386  28.614  1.00  0.00     0.167 HD
ATOM     50  C   UNL A   1      47.245  27.134  28.896  1.00  0.00     0.037 A 
ATOM     51  C   UNL A   1      40.423  28.627  29.009  1.00  0.00     0.037 A 
ATOM     52  C   UNL A   1      46.926  28.486  29.270  1.00  0.00     0.049 A 
ATOM     53  C   UNL A   1      41.462  29.645  29.393  1.00  0.00     0.074 A 
ATOM     54  C   UNL A   1      47.792  29.520  29.584  1.00  0.00     0.029 A 
ATOM     55  N   UNL A   1      45.641  28.994  29.377  1.00  0.00    -0.354 N 
ATOM     56  N   UNL A   1      42.768  29.533  29.394  1.00  0.00    -0.248 NA
ATOM     57  C   UNL A   1      40.972  30.960  29.828  1.00  0.00     0.031 C 
ATOM     58  C   UNL A   1      47.030  30.645  29.917  1.00  0.00     0.029 A 
ATOM     59  C   UNL A   1      45.690  30.323  29.768  1.00  0.00     0.049 A 
ATOM     60  H   UNL A   1      44.816  28.487  29.202  1.00  0.00     0.167 HD
ATOM     61  C   UNL A   1      43.254  30.769  29.800  1.00  0.00     0.074 A 
ATOM     62  C   UNL A   1      42.105  31.620  30.024  1.00  0.00     0.031 C 
ATOM     63  C   UNL A   1      44.539  31.163  29.972  1.00  0.00     0.037 A 
BRANCH  50  64
ATOM     64  C   UNL A   1      48.689  26.725  28.893  1.00  0.00     0.057 A 
ATOM     65  C   UNL A   1      49.301  26.170  30.025  1.00  0.00     0.134 A 
ATOM     66  C   UNL A   1      49.464  26.841  27.732  1.00  0.00     0.134 A 
ATOM     67  F   UNL A   1      48.617  26.041  31.173  1.00  0.00    -0.206 F 
ATOM     68  C   UNL A   1      50.637  25.767  30.009  1.00  0.00     0.040 A 
ATOM     69  C   UNL A   1      50.794  26.418  27.696  1.00  0.00     0.040 A 
ATOM     70  F   UNL A   1      48.939  27.357  26.611  1.00  0.00    -0.206 F 
ATOM     71  C   UNL A   1      51.385  25.883  28.839  1.00  0.00     0.006 A 
ENDBRANCH  50  64
BRANCH  51  72
ATOM     72  C   UNL A   1      38.979  28.966  29.077  1.00  0.00     0.057 A 
ATOM     73  C   UNL A   1      38.309  29.486  27.962  1.00  0.00     0.134 A 
ATOM     74  C   UNL A   1      38.242  28.805  30.255  1.00  0.00     0.134 A 
ATOM     75  F   UNL A   1      38.967  29.683  26.811  1.00  0.00    -0.206 F 
ATOM     76  C   UNL A   1      36.964  29.855  28.023  1.00  0.00     0.040 A 
ATOM     77  C   UNL A   1      36.890  29.146  30.324  1.00  0.00     0.040 A 
ATOM     78  F   UNL A   1      38.824  28.306  31.355  1.00  0.00    -0.206 F 
ATOM     79  C   UNL A   1      36.250  29.682  29.208  1.00  0.00     0.006 A 
ENDBRANCH  51  72
BRANCH  63  80
ATOM     80  C   UNL A   1      44.774  32.587  30.380  1.00  0.00     0.057 A 
ATOM     81  C   UNL A   1      44.941  33.610  29.438  1.00  0.00     0.134 A 
ATOM     82  C   UNL A   1      44.794  32.944  31.735  1.00  0.00     0.134 A 
ATOM     83  F   UNL A   1      44.945  33.331  28.126  1.00  0.00    -0.206 F 
ATOM     84  C   UNL A   1      45.139  34.934  29.830  1.00  0.00     0.040 A 
ATOM     85  C   UNL A   1      44.965  34.269  32.137  1.00  0.00     0.040 A 
ATOM     86  F   UNL A   1      44.631  32.013  32.687  1.00  0.00    -0.206 F 
ATOM     87  C   UNL A   1      45.144  35.267  31.183  1.00  0.00     0.006 A 
ENDBRANCH  63  80
ENDBRANCH  37  38
ENDBRANCH  29  32
ENDBRANCH  27  28
ENDBRANCH  26  27
ENDBRANCH   1  26
TORSDOF 14
ENDMDL
MODEL 3
REMARK VINA RESULT:     -11.4      2.393      6.945
REMARK SMILES Cc1cc(C)c(C(=O)NCCCCNC(=O)c2ccc(-c3c4nc(c(-c5c(F)cccc5F)c5ccc([nH]5)c(-c5c(F)cccc5F)c5nc(c(-c6c(F)cccc6F)c6ccc3[nH]6)C=C5)C=C4)cc2)c(NC[C@@H]2C[N@@H+](C)CCO2)n1
REMARK SMILES IDX 11 1 10 2 9 3 7 4 8 5 6 7 1 8 2 9 3 10 81 11 4 12 71 13 5 14
REMARK SMILES IDX 72 15 73 17 74 18 75 19 80 20 76 21 79 22 77 23 78 24 12 26
REMARK SMILES IDX 13 27 14 28 15 29 16 31 17 32 18 33 70 34 19 35 69 36 20 37
REMARK SMILES IDX 21 38 22 39 63 40 23 41 68 42 62 43 64 44 24 45 67 46 61 47
REMARK SMILES IDX 60 48 25 50 51 51 34 52 50 53 35 54 38 55 49 56 65 57 36 58
REMARK SMILES IDX 37 59 48 61 66 62 39 63 26 64 27 65 32 66 28 67 29 68 31 69
REMARK SMILES IDX 33 70 30 71 52 72 53 73 58 74 54 75 55 76 57 77 59 78 56 79
REMARK SMILES IDX 40 80 41 81 46 82 42 83 43 84 45 85 47 86 44 87
REMARK H PARENT 9 6 72 16 76 25 14 30 64 49 38 60
REMARK Flexibility Score: inf
ROOT
ATOM      1  C   UNL A   1      36.567  21.524  24.487  1.00  0.00     0.023 C 
ENDROOT
BRANCH   1   2
ATOM      2  C   UNL A   1      36.575  22.787  25.344  1.00  0.00     0.116 C 
BRANCH   2   3
ATOM      3  N   UNL A   1      35.876  22.682  26.608  1.00  0.00    -0.352 N 
ATOM      4  C   UNL A   1      34.530  22.764  26.903  1.00  0.00     0.255 C 
ATOM      5  O   UNL A   1      34.190  22.519  28.062  1.00  0.00    -0.269 OA
ATOM      6  H   UNL A   1      36.457  22.526  27.387  1.00  0.00     0.163 HD
BRANCH   4   7
ATOM      7  C   UNL A   1      33.499  23.189  25.909  1.00  0.00     0.085 A 
ATOM      8  C   UNL A   1      30.278  24.116  23.288  1.00  0.00     0.067 C 
ATOM      9  C   UNL A   1      31.447  23.796  24.169  1.00  0.00     0.040 A 
ATOM     10  C   UNL A   1      32.334  24.796  24.537  1.00  0.00     0.028 A 
ATOM     11  N   UNL A   1      31.598  22.518  24.568  1.00  0.00    -0.236 NA
ATOM     12  C   UNL A   1      33.416  24.488  25.373  1.00  0.00    -0.033 A 
ATOM     13  C   UNL A   1      32.621  22.199  25.401  1.00  0.00     0.139 A 
ATOM     14  C   UNL A   1      34.441  25.564  25.574  1.00  0.00     0.045 C 
BRANCH  13  15
ATOM     15  N   UNL A   1      32.747  20.869  25.774  1.00  0.00    -0.367 N 
ATOM     16  H   UNL A   1      32.404  20.594  26.654  1.00  0.00     0.162 HD
BRANCH  15  17
ATOM     17  C   UNL A   1      33.368  19.861  24.918  1.00  0.00     0.152 C 
BRANCH  17  18
ATOM     18  C   UNL A   1      32.570  18.531  24.967  1.00  0.00     0.192 C 
ATOM     19  C   UNL A   1      33.377  17.378  25.613  1.00  0.00     0.296 C 
ATOM     20  O   UNL A   1      32.095  18.121  23.661  1.00  0.00    -0.365 OA
ATOM     21  N   UNL A   1      34.506  16.946  24.760  1.00  0.00    -0.333 N 
ATOM     22  C   UNL A   1      33.164  17.704  22.803  1.00  0.00     0.222 C 
ATOM     23  C   UNL A   1      35.233  15.831  25.361  1.00  0.00     0.332 C 
ATOM     24  C   UNL A   1      33.982  16.567  23.431  1.00  0.00     0.290 C 
ATOM     25  H   UNL A   1      35.164  17.720  24.665  1.00  0.00     0.348 HD
ENDBRANCH  17  18
ENDBRANCH  15  17
ENDBRANCH  13  15
ENDBRANCH   4   7
ENDBRANCH   2   3
ENDBRANCH   1   2
BRANCH   1  26
ATOM     26  C   UNL A   1      37.449  20.363  24.956  1.00  0.00     0.023 C 
BRANCH  26  27
ATOM     27  C   UNL A   1      38.741  20.717  25.690  1.00  0.00     0.116 C 
BRANCH  27  28
ATOM     28  N   UNL A   1      39.757  19.675  25.646  1.00  0.00    -0.352 N 
ATOM     29  C   UNL A   1      41.082  19.694  26.016  1.00  0.00     0.251 C 
ATOM     30  H   UNL A   1      39.443  18.813  25.290  1.00  0.00     0.163 HD
ATOM     31  O   UNL A   1      41.778  18.699  25.824  1.00  0.00    -0.269 OA
BRANCH  29  32
ATOM     32  C   UNL A   1      41.697  20.910  26.595  1.00  0.00     0.039 A 
ATOM     33  C   UNL A   1      42.201  21.884  25.726  1.00  0.00     0.014 A 
ATOM     34  C   UNL A   1      41.784  21.103  27.974  1.00  0.00     0.014 A 
ATOM     35  C   UNL A   1      42.687  23.092  26.236  1.00  0.00     0.010 A 
ATOM     36  C   UNL A   1      42.191  22.340  28.478  1.00  0.00     0.010 A 
ATOM     37  C   UNL A   1      42.632  23.354  27.614  1.00  0.00    -0.014 A 
BRANCH  37  38
ATOM     38  C   UNL A   1      43.001  24.685  28.167  1.00  0.00     0.031 A 
ATOM     39  C   UNL A   1      41.945  25.723  28.430  1.00  0.00     0.074 A 
ATOM     40  C   UNL A   1      44.302  24.992  28.355  1.00  0.00     0.049 A 
ATOM     41  N   UNL A   1      42.084  26.969  28.810  1.00  0.00    -0.248 NA
ATOM     42  C   UNL A   1      40.548  25.318  28.209  1.00  0.00     0.031 C 
ATOM     43  C   UNL A   1      45.432  24.099  28.089  1.00  0.00     0.029 A 
ATOM     44  N   UNL A   1      44.894  26.150  28.797  1.00  0.00    -0.354 N 
ATOM     45  C   UNL A   1      40.801  27.499  28.850  1.00  0.00     0.074 A 
ATOM     46  C   UNL A   1      39.899  26.455  28.413  1.00  0.00     0.031 C 
ATOM     47  C   UNL A   1      46.576  24.733  28.393  1.00  0.00     0.029 A 
ATOM     48  C   UNL A   1      46.267  26.089  28.835  1.00  0.00     0.049 A 
ATOM     49  H   UNL A   1      44.383  26.949  29.062  1.00  0.00     0.167 HD
ATOM     50  C   UNL A   1      40.407  28.736  29.236  1.00  0.00     0.037 A 
ATOM     51  C   UNL A   1      47.177  27.022  29.176  1.00  0.00     0.037 A 
ATOM     52  C   UNL A   1      41.297  29.764  29.706  1.00  0.00     0.049 A 
ATOM     53  C   UNL A   1      46.710  28.384  29.610  1.00  0.00     0.074 A 
ATOM     54  C   UNL A   1      40.982  31.025  30.183  1.00  0.00     0.029 A 
ATOM     55  N   UNL A   1      42.677  29.649  29.762  1.00  0.00    -0.354 N 
ATOM     56  N   UNL A   1      45.487  28.846  29.707  1.00  0.00    -0.248 NA
ATOM     57  C   UNL A   1      47.750  29.351  29.988  1.00  0.00     0.031 C 
ATOM     58  C   UNL A   1      42.174  31.687  30.493  1.00  0.00     0.029 A 
ATOM     59  C   UNL A   1      43.229  30.823  30.250  1.00  0.00     0.049 A 
ATOM     60  H   UNL A   1      43.189  28.853  29.494  1.00  0.00     0.167 HD
ATOM     61  C   UNL A   1      45.610  30.145  30.184  1.00  0.00     0.074 A 
ATOM     62  C   UNL A   1      47.024  30.393  30.369  1.00  0.00     0.031 C 
ATOM     63  C   UNL A   1      44.637  31.051  30.445  1.00  0.00     0.037 A 
BRANCH  50  64
ATOM     64  C   UNL A   1      38.939  29.047  29.177  1.00  0.00     0.057 A 
ATOM     65  C   UNL A   1      38.117  28.936  30.306  1.00  0.00     0.134 A 
ATOM     66  C   UNL A   1      38.352  29.507  27.992  1.00  0.00     0.134 A 
ATOM     67  F   UNL A   1      38.616  28.491  31.469  1.00  0.00    -0.206 F 
ATOM     68  C   UNL A   1      36.758  29.251  30.253  1.00  0.00     0.040 A 
ATOM     69  C   UNL A   1      36.999  29.850  27.933  1.00  0.00     0.040 A 
ATOM     70  F   UNL A   1      39.083  29.643  26.876  1.00  0.00    -0.206 F 
ATOM     71  C   UNL A   1      36.198  29.718  29.065  1.00  0.00     0.006 A 
ENDBRANCH  50  64
BRANCH  51  72
ATOM     72  C   UNL A   1      48.627  26.700  29.142  1.00  0.00     0.057 A 
ATOM     73  C   UNL A   1      49.259  26.113  30.246  1.00  0.00     0.134 A 
ATOM     74  C   UNL A   1      49.417  26.991  28.025  1.00  0.00     0.134 A 
ATOM     75  F   UNL A   1      48.559  25.830  31.353  1.00  0.00    -0.206 F 
ATOM     76  C   UNL A   1      50.630  25.850  30.249  1.00  0.00     0.040 A 
ATOM     77  C   UNL A   1      50.784  26.710  28.004  1.00  0.00     0.040 A 
ATOM     78  F   UNL A   1      48.869  27.547  26.935  1.00  0.00    -0.206 F 
ATOM     79  C   UNL A   1      51.396  26.147  29.122  1.00  0.00     0.006 A 
ENDBRANCH  51  72
BRANCH  63  80
ATOM     80  C   UNL A   1      45.063  32.378  30.999  1.00  0.00     0.057 A 
ATOM     81  C   UNL A   1      45.212  32.591  32.375  1.00  0.00     0.134 A 
ATOM     82  C   UNL A   1      45.363  33.444  30.142  1.00  0.00     0.134 A 
ATOM     83  F   UNL A   1      44.927  31.614  33.250  1.00  0.00    -0.206 F 
ATOM     84  C   UNL A   1      45.628  33.825  32.879  1.00  0.00     0.040 A 
ATOM     85  C   UNL A   1      45.804  34.673  30.633  1.00  0.00     0.040 A 
ATOM     86  F   UNL A   1      45.248  33.302  28.813  1.00  0.00    -0.206 F 
ATOM     87  C   UNL A   1      45.932  34.867  32.006  1.00  0.00     0.006 A 
ENDBRANCH  63  80
ENDBRANCH  37  38
ENDBRANCH  29  32
ENDBRANCH  27  28
ENDBRANCH  26  27
ENDBRANCH   1  26
TORSDOF 14
ENDMDL
