MODEL 1
REMARK VINA RESULT:     -10.5      0.000      0.000
REMARK SMILES CC(=O)[C@@H]1CCCC[N@H+]1CC(C)(C)C(=O)NCCCCNC(=O)c1ccc(-c2c3nc(c(-c4c(F)cccc4F)c4ccc([nH]4)c(-c4c(F)cccc4F)c4nc(c(-c5c(F)cccc5F)c5ccc2[nH]5)C=C4)C=C3)cc1
REMARK SMILES IDX 18 1 17 2 16 3 14 4 15 5 11 7 12 8 13 9 10 10 9 11 4 12 5 13
REMARK SMILES IDX 6 14 8 15 7 17 2 18 1 19 3 20 19 21 20 22 21 23 22 24 23 26
REMARK SMILES IDX 24 27 25 28 77 29 26 30 76 31 27 32 28 33 29 34 70 35 30 36
REMARK SMILES IDX 75 37 69 38 71 39 31 40 74 41 68 42 67 43 32 45 58 46 41 47
REMARK SMILES IDX 57 48 42 49 45 50 56 51 72 52 43 53 44 54 55 56 73 57 46 58
REMARK SMILES IDX 33 59 34 60 39 61 35 62 36 63 38 64 40 65 37 66 59 67 60 68
REMARK SMILES IDX 65 69 61 70 62 71 64 72 66 73 63 74 47 75 48 76 53 77 49 78
REMARK SMILES IDX 50 79 52 80 54 81 51 82
REMARK H PARENT 16 6 9 16 21 25 71 44 45 55
REMARK Flexibility Score: inf
ROOT
ATOM      1  C   UNL A   1      38.958  22.607  26.173  1.00  0.00     0.023 C 
ENDROOT
BRANCH   1   2
ATOM      2  C   UNL A   1      37.663  23.385  25.960  1.00  0.00     0.116 C 
BRANCH   2   3
ATOM      3  N   UNL A   1      37.381  23.531  24.548  1.00  0.00    -0.355 N 
ATOM      4  C   UNL A   1      36.307  23.160  23.806  1.00  0.00     0.231 C 
ATOM      5  O   UNL A   1      36.554  22.961  22.612  1.00  0.00    -0.274 OA
ATOM      6  H   UNL A   1      38.093  23.979  24.038  1.00  0.00     0.163 HD
BRANCH   4   7
ATOM      7  C   UNL A   1      34.909  22.918  24.405  1.00  0.00     0.092 C 
ATOM      8  C   UNL A   1      34.751  21.589  25.156  1.00  0.00     0.027 C 
ATOM      9  C   UNL A   1      33.927  22.926  23.211  1.00  0.00     0.027 C 
BRANCH   7  10
ATOM     10  C   UNL A   1      34.512  24.120  25.351  1.00  0.00     0.279 C 
BRANCH  10  11
ATOM     11  N   UNL A   1      33.268  24.918  25.199  1.00  0.00    -0.325 N 
ATOM     12  C   UNL A   1      32.282  24.894  26.299  1.00  0.00     0.251 C 
ATOM     13  C   UNL A   1      30.994  25.658  25.938  1.00  0.00     0.074 C 
ATOM     14  C   UNL A   1      31.287  27.071  25.453  1.00  0.00     0.012 C 
ATOM     15  C   UNL A   1      33.528  26.269  24.688  1.00  0.00     0.262 C 
ATOM     16  H   UNL A   1      32.769  24.390  24.482  1.00  0.00     0.348 HD
ATOM     17  C   UNL A   1      32.256  27.010  24.286  1.00  0.00     0.062 C 
BRANCH  12  18
ATOM     18  C   UNL A   1      31.843  23.463  26.680  1.00  0.00     0.186 C 
ATOM     19  C   UNL A   1      31.035  22.720  25.641  1.00  0.00     0.094 C 
ATOM     20  O   UNL A   1      32.162  22.897  27.728  1.00  0.00    -0.293 OA
ENDBRANCH  12  18
ENDBRANCH  10  11
ENDBRANCH   7  10
ENDBRANCH   4   7
ENDBRANCH   2   3
ENDBRANCH   1   2
BRANCH   1  21
ATOM     21  C   UNL A   1      39.007  21.247  25.476  1.00  0.00     0.023 C 
BRANCH  21  22
ATOM     22  C   UNL A   1      39.325  20.068  26.387  1.00  0.00     0.116 C 
BRANCH  22  23
ATOM     23  N   UNL A   1      40.478  19.302  25.938  1.00  0.00    -0.352 N 
ATOM     24  C   UNL A   1      41.799  19.672  25.891  1.00  0.00     0.251 C 
ATOM     25  H   UNL A   1      40.282  18.389  25.626  1.00  0.00     0.163 HD
ATOM     26  O   UNL A   1      42.628  18.946  25.359  1.00  0.00    -0.269 OA
BRANCH  24  27
ATOM     27  C   UNL A   1      42.204  20.972  26.459  1.00  0.00     0.039 A 
ATOM     28  C   UNL A   1      42.615  21.986  25.592  1.00  0.00     0.014 A 
ATOM     29  C   UNL A   1      42.146  21.195  27.837  1.00  0.00     0.014 A 
ATOM     30  C   UNL A   1      42.907  23.251  26.105  1.00  0.00     0.010 A 
ATOM     31  C   UNL A   1      42.363  22.475  28.336  1.00  0.00     0.010 A 
ATOM     32  C   UNL A   1      42.749  23.513  27.475  1.00  0.00    -0.014 A 
BRANCH  32  33
ATOM     33  C   UNL A   1      42.987  24.869  28.028  1.00  0.00     0.031 A 
ATOM     34  C   UNL A   1      44.368  25.272  28.460  1.00  0.00     0.074 A 
ATOM     35  C   UNL A   1      41.949  25.710  28.200  1.00  0.00     0.049 A 
ATOM     36  N   UNL A   1      44.767  26.385  29.021  1.00  0.00    -0.248 NA
ATOM     37  C   UNL A   1      45.440  24.283  28.262  1.00  0.00     0.031 C 
ATOM     38  C   UNL A   1      40.553  25.412  27.872  1.00  0.00     0.029 A 
ATOM     39  N   UNL A   1      41.906  26.985  28.703  1.00  0.00    -0.354 N 
ATOM     40  C   UNL A   1      46.126  26.223  29.257  1.00  0.00     0.074 A 
ATOM     41  C   UNL A   1      46.473  24.886  28.830  1.00  0.00     0.031 C 
ATOM     42  C   UNL A   1      39.796  26.483  28.160  1.00  0.00     0.029 A 
ATOM     43  C   UNL A   1      40.644  27.528  28.723  1.00  0.00     0.049 A 
ATOM     44  H   UNL A   1      42.705  27.466  29.021  1.00  0.00     0.167 HD
ATOM     45  C   UNL A   1      47.009  27.116  29.759  1.00  0.00     0.037 A 
ATOM     46  C   UNL A   1      40.222  28.733  29.150  1.00  0.00     0.037 A 
ATOM     47  C   UNL A   1      46.665  28.456  30.155  1.00  0.00     0.049 A 
ATOM     48  C   UNL A   1      41.224  29.711  29.694  1.00  0.00     0.074 A 
ATOM     49  C   UNL A   1      47.498  29.461  30.616  1.00  0.00     0.029 A 
ATOM     50  N   UNL A   1      45.381  28.980  30.134  1.00  0.00    -0.354 N 
ATOM     51  N   UNL A   1      42.519  29.570  29.846  1.00  0.00    -0.248 NA
ATOM     52  C   UNL A   1      40.709  31.020  30.119  1.00  0.00     0.031 C 
ATOM     53  C   UNL A   1      46.712  30.579  30.913  1.00  0.00     0.029 A 
ATOM     54  C   UNL A   1      45.397  30.286  30.592  1.00  0.00     0.049 A 
ATOM     55  H   UNL A   1      44.577  28.495  29.838  1.00  0.00     0.167 HD
ATOM     56  C   UNL A   1      42.976  30.778  30.356  1.00  0.00     0.074 A 
ATOM     57  C   UNL A   1      41.822  31.646  30.474  1.00  0.00     0.031 C 
ATOM     58  C   UNL A   1      44.239  31.138  30.696  1.00  0.00     0.037 A 
BRANCH  45  59
ATOM     59  C   UNL A   1      48.436  26.673  29.901  1.00  0.00     0.057 A 
ATOM     60  C   UNL A   1      49.389  26.924  28.905  1.00  0.00     0.134 A 
ATOM     61  C   UNL A   1      48.869  26.013  31.057  1.00  0.00     0.134 A 
ATOM     62  F   UNL A   1      49.037  27.539  27.766  1.00  0.00    -0.206 F 
ATOM     63  C   UNL A   1      50.715  26.511  29.042  1.00  0.00     0.040 A 
ATOM     64  C   UNL A   1      50.199  25.619  31.218  1.00  0.00     0.040 A 
ATOM     65  F   UNL A   1      48.009  25.744  32.052  1.00  0.00    -0.206 F 
ATOM     66  C   UNL A   1      51.125  25.862  30.205  1.00  0.00     0.006 A 
ENDBRANCH  45  59
BRANCH  46  67
ATOM     67  C   UNL A   1      38.785  29.094  29.054  1.00  0.00     0.057 A 
ATOM     68  C   UNL A   1      38.233  29.543  27.848  1.00  0.00     0.134 A 
ATOM     69  C   UNL A   1      37.931  29.004  30.160  1.00  0.00     0.134 A 
ATOM     70  F   UNL A   1      39.005  29.666  26.759  1.00  0.00    -0.206 F 
ATOM     71  C   UNL A   1      36.891  29.910  27.751  1.00  0.00     0.040 A 
ATOM     72  C   UNL A   1      36.581  29.346  30.071  1.00  0.00     0.040 A 
ATOM     73  F   UNL A   1      38.397  28.572  31.341  1.00  0.00    -0.206 F 
ATOM     74  C   UNL A   1      36.060  29.807  28.864  1.00  0.00     0.006 A 
ENDBRANCH  46  67
BRANCH  58  75
ATOM     75  C   UNL A   1      44.441  32.538  31.194  1.00  0.00     0.057 A 
ATOM     76  C   UNL A   1      44.692  33.605  30.323  1.00  0.00     0.134 A 
ATOM     77  C   UNL A   1      44.349  32.826  32.562  1.00  0.00     0.134 A 
ATOM     78  F   UNL A   1      44.806  33.393  29.004  1.00  0.00    -0.206 F 
ATOM     79  C   UNL A   1      44.866  34.906  30.797  1.00  0.00     0.040 A 
ATOM     80  C   UNL A   1      44.495  34.126  33.046  1.00  0.00     0.040 A 
ATOM     81  F   UNL A   1      44.102  31.849  33.449  1.00  0.00    -0.206 F 
ATOM     82  C   UNL A   1      44.760  35.170  32.162  1.00  0.00     0.006 A 
ENDBRANCH  58  75
ENDBRANCH  32  33
ENDBRANCH  24  27
ENDBRANCH  22  23
ENDBRANCH  21  22
ENDBRANCH   1  21
TORSDOF 14
ENDMDL
MODEL 2
REMARK VINA RESULT:     -10.3      4.228      9.361
REMARK SMILES CC(=O)[C@@H]1CCCC[N@H+]1CC(C)(C)C(=O)NCCCCNC(=O)c1ccc(-c2c3nc(c(-c4c(F)cccc4F)c4ccc([nH]4)c(-c4c(F)cccc4F)c4nc(c(-c5c(F)cccc5F)c5ccc2[nH]5)C=C4)C=C3)cc1
REMARK SMILES IDX 18 1 17 2 16 3 14 4 15 5 11 7 12 8 13 9 10 10 9 11 4 12 5 13
REMARK SMILES IDX 6 14 8 15 7 17 2 18 1 19 3 20 19 21 20 22 21 23 22 24 23 26
REMARK SMILES IDX 24 27 25 28 77 29 26 30 76 31 27 32 28 33 29 34 70 35 30 36
REMARK SMILES IDX 75 37 69 38 71 39 31 40 74 41 68 42 67 43 32 45 58 46 41 47
REMARK SMILES IDX 57 48 42 49 45 50 56 51 72 52 43 53 44 54 55 56 73 57 46 58
REMARK SMILES IDX 33 59 34 60 39 61 35 62 36 63 38 64 40 65 37 66 59 67 60 68
REMARK SMILES IDX 65 69 61 70 62 71 64 72 66 73 63 74 47 75 48 76 53 77 49 78
REMARK SMILES IDX 50 79 52 80 54 81 51 82
REMARK H PARENT 16 6 9 16 21 25 71 44 45 55
REMARK Flexibility Score: inf
ROOT
ATOM      1  C   UNL A   1      31.521  30.700  26.168  1.00  0.00     0.023 C 
ENDROOT
BRANCH   1   2
ATOM      2  C   UNL A   1      32.982  30.307  25.969  1.00  0.00     0.116 C 
BRANCH   2   3
ATOM      3  N   UNL A   1      33.178  29.704  24.669  1.00  0.00    -0.355 N 
ATOM      4  C   UNL A   1      33.513  28.440  24.309  1.00  0.00     0.231 C 
ATOM      5  O   UNL A   1      34.080  28.352  23.215  1.00  0.00    -0.274 OA
ATOM      6  H   UNL A   1      33.043  30.319  23.913  1.00  0.00     0.163 HD
BRANCH   4   7
ATOM      7  C   UNL A   1      33.291  27.216  25.218  1.00  0.00     0.092 C 
ATOM      8  C   UNL A   1      31.820  26.882  25.500  1.00  0.00     0.027 C 
ATOM      9  C   UNL A   1      33.984  27.550  26.559  1.00  0.00     0.027 C 
BRANCH   7  10
ATOM     10  C   UNL A   1      34.022  25.954  24.610  1.00  0.00     0.279 C 
BRANCH  10  11
ATOM     11  N   UNL A   1      33.336  24.680  24.276  1.00  0.00    -0.325 N 
ATOM     12  C   UNL A   1      33.349  24.225  22.870  1.00  0.00     0.251 C 
ATOM     13  C   UNL A   1      32.487  22.965  22.661  1.00  0.00     0.074 C 
ATOM     14  C   UNL A   1      32.860  21.854  23.632  1.00  0.00     0.012 C 
ATOM     15  C   UNL A   1      33.649  23.609  25.230  1.00  0.00     0.262 C 
ATOM     16  H   UNL A   1      32.355  24.936  24.386  1.00  0.00     0.348 HD
ATOM     17  C   UNL A   1      32.764  22.377  25.055  1.00  0.00     0.062 C 
BRANCH  12  18
ATOM     18  C   UNL A   1      32.803  25.289  21.892  1.00  0.00     0.186 C 
ATOM     19  C   UNL A   1      31.388  25.757  22.145  1.00  0.00     0.094 C 
ATOM     20  O   UNL A   1      33.463  25.799  20.985  1.00  0.00    -0.293 OA
ENDBRANCH  12  18
ENDBRANCH  10  11
ENDBRANCH   7  10
ENDBRANCH   4   7
ENDBRANCH   2   3
ENDBRANCH   1   2
BRANCH   1  21
ATOM     21  C   UNL A   1      31.307  32.122  26.684  1.00  0.00     0.023 C 
BRANCH  21  22
ATOM     22  C   UNL A   1      32.558  32.805  27.225  1.00  0.00     0.116 C 
BRANCH  22  23
ATOM     23  N   UNL A   1      32.321  34.185  27.621  1.00  0.00    -0.352 N 
ATOM     24  C   UNL A   1      32.986  34.946  28.551  1.00  0.00     0.251 C 
ATOM     25  H   UNL A   1      31.581  34.638  27.155  1.00  0.00     0.163 HD
ATOM     26  O   UNL A   1      32.571  36.056  28.856  1.00  0.00    -0.269 OA
BRANCH  24  27
ATOM     27  C   UNL A   1      34.189  34.395  29.204  1.00  0.00     0.039 A 
ATOM     28  C   UNL A   1      34.039  33.669  30.387  1.00  0.00     0.014 A 
ATOM     29  C   UNL A   1      35.452  34.570  28.632  1.00  0.00     0.014 A 
ATOM     30  C   UNL A   1      35.154  33.060  30.964  1.00  0.00     0.010 A 
ATOM     31  C   UNL A   1      36.547  33.899  29.166  1.00  0.00     0.010 A 
ATOM     32  C   UNL A   1      36.408  33.142  30.339  1.00  0.00    -0.014 A 
BRANCH  32  33
ATOM     33  C   UNL A   1      37.591  32.443  30.899  1.00  0.00     0.031 A 
ATOM     34  C   UNL A   1      38.240  32.953  32.154  1.00  0.00     0.074 A 
ATOM     35  C   UNL A   1      38.116  31.390  30.243  1.00  0.00     0.049 A 
ATOM     36  N   UNL A   1      39.313  32.519  32.765  1.00  0.00    -0.248 NA
ATOM     37  C   UNL A   1      37.618  34.124  32.793  1.00  0.00     0.031 C 
ATOM     38  C   UNL A   1      37.609  30.837  28.984  1.00  0.00     0.029 A 
ATOM     39  N   UNL A   1      39.199  30.603  30.538  1.00  0.00    -0.354 N 
ATOM     40  C   UNL A   1      39.503  33.371  33.845  1.00  0.00     0.074 A 
ATOM     41  C   UNL A   1      38.469  34.380  33.775  1.00  0.00     0.031 C 
ATOM     42  C   UNL A   1      38.366  29.786  28.630  1.00  0.00     0.029 A 
ATOM     43  C   UNL A   1      39.429  29.612  29.614  1.00  0.00     0.049 A 
ATOM     44  H   UNL A   1      39.760  30.736  31.336  1.00  0.00     0.167 HD
ATOM     45  C   UNL A   1      40.438  33.304  34.820  1.00  0.00     0.037 A 
ATOM     46  C   UNL A   1      40.392  28.672  29.568  1.00  0.00     0.037 A 
ATOM     47  C   UNL A   1      41.448  32.282  34.902  1.00  0.00     0.049 A 
ATOM     48  C   UNL A   1      41.413  28.612  30.669  1.00  0.00     0.074 A 
ATOM     49  C   UNL A   1      42.402  32.088  35.886  1.00  0.00     0.029 A 
ATOM     50  N   UNL A   1      41.631  31.278  33.963  1.00  0.00    -0.354 N 
ATOM     51  N   UNL A   1      41.538  29.382  31.723  1.00  0.00    -0.248 NA
ATOM     52  C   UNL A   1      42.422  27.548  30.580  1.00  0.00     0.031 C 
ATOM     53  C   UNL A   1      43.189  30.991  35.521  1.00  0.00     0.029 A 
ATOM     54  C   UNL A   1      42.695  30.474  34.334  1.00  0.00     0.049 A 
ATOM     55  H   UNL A   1      41.086  31.156  33.152  1.00  0.00     0.167 HD
ATOM     56  C   UNL A   1      42.619  28.879  32.435  1.00  0.00     0.074 A 
ATOM     57  C   UNL A   1      43.105  27.729  31.700  1.00  0.00     0.031 C 
ATOM     58  C   UNL A   1      43.161  29.328  33.594  1.00  0.00     0.037 A 
BRANCH  45  59
ATOM     59  C   UNL A   1      40.406  34.364  35.882  1.00  0.00     0.057 A 
ATOM     60  C   UNL A   1      39.665  34.206  37.061  1.00  0.00     0.134 A 
ATOM     61  C   UNL A   1      41.147  35.545  35.739  1.00  0.00     0.134 A 
ATOM     62  F   UNL A   1      38.922  33.106  37.255  1.00  0.00    -0.206 F 
ATOM     63  C   UNL A   1      39.640  35.194  38.047  1.00  0.00     0.040 A 
ATOM     64  C   UNL A   1      41.151  36.528  36.729  1.00  0.00     0.040 A 
ATOM     65  F   UNL A   1      41.882  35.759  34.637  1.00  0.00    -0.206 F 
ATOM     66  C   UNL A   1      40.391  36.357  37.885  1.00  0.00     0.006 A 
ENDBRANCH  45  59
BRANCH  46  67
ATOM     67  C   UNL A   1      40.419  27.691  28.453  1.00  0.00     0.057 A 
ATOM     68  C   UNL A   1      41.111  27.964  27.268  1.00  0.00     0.134 A 
ATOM     69  C   UNL A   1      39.752  26.463  28.543  1.00  0.00     0.134 A 
ATOM     70  F   UNL A   1      41.755  29.131  27.117  1.00  0.00    -0.206 F 
ATOM     71  C   UNL A   1      41.123  27.062  26.204  1.00  0.00     0.040 A 
ATOM     72  C   UNL A   1      39.775  25.542  27.495  1.00  0.00     0.040 A 
ATOM     73  F   UNL A   1      39.079  26.138  29.656  1.00  0.00    -0.206 F 
ATOM     74  C   UNL A   1      40.456  25.844  26.318  1.00  0.00     0.006 A 
ENDBRANCH  46  67
BRANCH  58  75
ATOM     75  C   UNL A   1      44.317  28.555  34.155  1.00  0.00     0.057 A 
ATOM     76  C   UNL A   1      44.132  27.455  35.001  1.00  0.00     0.134 A 
ATOM     77  C   UNL A   1      45.632  28.897  33.814  1.00  0.00     0.134 A 
ATOM     78  F   UNL A   1      42.898  27.086  35.375  1.00  0.00    -0.206 F 
ATOM     79  C   UNL A   1      45.215  26.735  35.505  1.00  0.00     0.040 A 
ATOM     80  C   UNL A   1      46.722  28.168  34.291  1.00  0.00     0.040 A 
ATOM     81  F   UNL A   1      45.878  29.935  33.000  1.00  0.00    -0.206 F 
ATOM     82  C   UNL A   1      46.514  27.087  35.145  1.00  0.00     0.006 A 
ENDBRANCH  58  75
ENDBRANCH  32  33
ENDBRANCH  24  27
ENDBRANCH  22  23
ENDBRANCH  21  22
ENDBRANCH   1  21
TORSDOF 14
ENDMDL
MODEL 3
REMARK VINA RESULT:     -10.2      4.630      9.253
REMARK SMILES CC(=O)[C@@H]1CCCC[N@H+]1CC(C)(C)C(=O)NCCCCNC(=O)c1ccc(-c2c3nc(c(-c4c(F)cccc4F)c4ccc([nH]4)c(-c4c(F)cccc4F)c4nc(c(-c5c(F)cccc5F)c5ccc2[nH]5)C=C4)C=C3)cc1
REMARK SMILES IDX 18 1 17 2 16 3 14 4 15 5 11 7 12 8 13 9 10 10 9 11 4 12 5 13
REMARK SMILES IDX 6 14 8 15 7 17 2 18 1 19 3 20 19 21 20 22 21 23 22 24 23 26
REMARK SMILES IDX 24 27 25 28 77 29 26 30 76 31 27 32 28 33 29 34 70 35 30 36
REMARK SMILES IDX 75 37 69 38 71 39 31 40 74 41 68 42 67 43 32 45 58 46 41 47
REMARK SMILES IDX 57 48 42 49 45 50 56 51 72 52 43 53 44 54 55 56 73 57 46 58
REMARK SMILES IDX 33 59 34 60 39 61 35 62 36 63 38 64 40 65 37 66 59 67 60 68
REMARK SMILES IDX 65 69 61 70 62 71 64 72 66 73 63 74 47 75 48 76 53 77 49 78
REMARK SMILES IDX 50 79 52 80 54 81 51 82
REMARK H PARENT 16 6 9 16 21 25 71 44 45 55
REMARK Flexibility Score: inf
ROOT
ATOM      1  C   UNL A   1      31.669  30.582  26.673  1.00  0.00     0.023 C 
ENDROOT
BRANCH   1   2
ATOM      2  C   UNL A   1      32.465  29.982  25.518  1.00  0.00     0.116 C 
BRANCH   2   3
ATOM      3  N   UNL A   1      31.578  29.410  24.528  1.00  0.00    -0.355 N 
ATOM      4  C   UNL A   1      31.348  28.123  24.169  1.00  0.00     0.231 C 
ATOM      5  O   UNL A   1      30.945  27.978  23.010  1.00  0.00    -0.274 OA
ATOM      6  H   UNL A   1      31.048  30.072  24.029  1.00  0.00     0.163 HD
BRANCH   4   7
ATOM      7  C   UNL A   1      31.643  26.923  25.089  1.00  0.00     0.092 C 
ATOM      8  C   UNL A   1      31.256  27.129  26.560  1.00  0.00     0.027 C 
ATOM      9  C   UNL A   1      33.170  26.693  25.012  1.00  0.00     0.027 C 
BRANCH   7  10
ATOM     10  C   UNL A   1      30.941  25.625  24.525  1.00  0.00     0.279 C 
BRANCH  10  11
ATOM     11  N   UNL A   1      31.649  24.345  24.267  1.00  0.00    -0.325 N 
ATOM     12  C   UNL A   1      31.201  23.138  24.994  1.00  0.00     0.251 C 
ATOM     13  C   UNL A   1      32.114  21.928  24.722  1.00  0.00     0.074 C 
ATOM     14  C   UNL A   1      32.293  21.674  23.232  1.00  0.00     0.012 C 
ATOM     15  C   UNL A   1      31.871  24.106  22.836  1.00  0.00     0.262 C 
ATOM     16  H   UNL A   1      32.551  24.513  24.712  1.00  0.00     0.348 HD
ATOM     17  C   UNL A   1      32.812  22.935  22.566  1.00  0.00     0.062 C 
BRANCH  12  18
ATOM     18  C   UNL A   1      31.185  23.333  26.526  1.00  0.00     0.186 C 
ATOM     19  C   UNL A   1      32.538  23.404  27.198  1.00  0.00     0.094 C 
ATOM     20  O   UNL A   1      30.161  23.489  27.194  1.00  0.00    -0.293 OA
ENDBRANCH  12  18
ENDBRANCH  10  11
ENDBRANCH   7  10
ENDBRANCH   4   7
ENDBRANCH   2   3
ENDBRANCH   1   2
BRANCH   1  21
ATOM     21  C   UNL A   1      31.558  32.107  26.648  1.00  0.00     0.023 C 
BRANCH  21  22
ATOM     22  C   UNL A   1      32.725  32.847  27.289  1.00  0.00     0.116 C 
BRANCH  22  23
ATOM     23  N   UNL A   1      32.402  34.224  27.629  1.00  0.00    -0.352 N 
ATOM     24  C   UNL A   1      32.968  35.039  28.579  1.00  0.00     0.251 C 
ATOM     25  H   UNL A   1      31.676  34.630  27.102  1.00  0.00     0.163 HD
ATOM     26  O   UNL A   1      32.485  36.136  28.823  1.00  0.00    -0.269 OA
BRANCH  24  27
ATOM     27  C   UNL A   1      34.148  34.561  29.326  1.00  0.00     0.039 A 
ATOM     28  C   UNL A   1      33.960  34.004  30.593  1.00  0.00     0.014 A 
ATOM     29  C   UNL A   1      35.424  34.635  28.763  1.00  0.00     0.014 A 
ATOM     30  C   UNL A   1      35.052  33.460  31.270  1.00  0.00     0.010 A 
ATOM     31  C   UNL A   1      36.495  34.025  29.406  1.00  0.00     0.010 A 
ATOM     32  C   UNL A   1      36.319  33.435  30.667  1.00  0.00    -0.014 A 
BRANCH  32  33
ATOM     33  C   UNL A   1      37.477  32.798  31.341  1.00  0.00     0.031 A 
ATOM     34  C   UNL A   1      38.137  31.596  30.726  1.00  0.00     0.074 A 
ATOM     35  C   UNL A   1      37.891  33.262  32.536  1.00  0.00     0.049 A 
ATOM     36  N   UNL A   1      39.118  30.864  31.189  1.00  0.00    -0.248 NA
ATOM     37  C   UNL A   1      37.605  31.137  29.433  1.00  0.00     0.031 C 
ATOM     38  C   UNL A   1      37.295  34.387  33.261  1.00  0.00     0.029 A 
ATOM     39  N   UNL A   1      38.905  32.839  33.356  1.00  0.00    -0.354 N 
ATOM     40  C   UNL A   1      39.307  29.854  30.256  1.00  0.00     0.074 A 
ATOM     41  C   UNL A   1      38.305  30.033  29.229  1.00  0.00     0.031 C 
ATOM     42  C   UNL A   1      37.970  34.578  34.406  1.00  0.00     0.029 A 
ATOM     43  C   UNL A   1      39.021  33.573  34.512  1.00  0.00     0.049 A 
ATOM     44  H   UNL A   1      39.494  32.081  33.138  1.00  0.00     0.167 HD
ATOM     45  C   UNL A   1      40.248  28.881  30.242  1.00  0.00     0.037 A 
ATOM     46  C   UNL A   1      39.880  33.445  35.541  1.00  0.00     0.037 A 
ATOM     47  C   UNL A   1      41.262  28.724  31.251  1.00  0.00     0.049 A 
ATOM     48  C   UNL A   1      40.922  32.363  35.498  1.00  0.00     0.074 A 
ATOM     49  C   UNL A   1      42.300  27.810  31.297  1.00  0.00     0.029 A 
ATOM     50  N   UNL A   1      41.366  29.505  32.394  1.00  0.00    -0.354 N 
ATOM     51  N   UNL A   1      41.135  31.458  34.574  1.00  0.00    -0.248 NA
ATOM     52  C   UNL A   1      41.849  32.290  36.635  1.00  0.00     0.031 C 
ATOM     53  C   UNL A   1      43.007  28.011  32.487  1.00  0.00     0.029 A 
ATOM     54  C   UNL A   1      42.438  29.081  33.159  1.00  0.00     0.049 A 
ATOM     55  H   UNL A   1      40.765  30.249  32.626  1.00  0.00     0.167 HD
ATOM     56  C   UNL A   1      42.235  30.727  35.004  1.00  0.00     0.074 A 
ATOM     57  C   UNL A   1      42.653  31.304  36.265  1.00  0.00     0.031 C 
ATOM     58  C   UNL A   1      42.844  29.672  34.409  1.00  0.00     0.037 A 
BRANCH  45  59
ATOM     59  C   UNL A   1      40.227  27.915  29.094  1.00  0.00     0.057 A 
ATOM     60  C   UNL A   1      40.951  28.151  27.917  1.00  0.00     0.134 A 
ATOM     61  C   UNL A   1      39.498  26.722  29.175  1.00  0.00     0.134 A 
ATOM     62  F   UNL A   1      41.658  29.281  27.769  1.00  0.00    -0.206 F 
ATOM     63  C   UNL A   1      40.929  27.248  26.853  1.00  0.00     0.040 A 
ATOM     64  C   UNL A   1      39.490  25.799  28.128  1.00  0.00     0.040 A 
ATOM     65  F   UNL A   1      38.785  26.431  30.275  1.00  0.00    -0.206 F 
ATOM     66  C   UNL A   1      40.202  26.064  26.960  1.00  0.00     0.006 A 
ENDBRANCH  45  59
BRANCH  46  67
ATOM     67  C   UNL A   1      39.810  34.386  36.689  1.00  0.00     0.057 A 
ATOM     68  C   UNL A   1      40.481  35.613  36.657  1.00  0.00     0.134 A 
ATOM     69  C   UNL A   1      39.079  34.079  37.843  1.00  0.00     0.134 A 
ATOM     70  F   UNL A   1      41.211  35.955  35.586  1.00  0.00    -0.206 F 
ATOM     71  C   UNL A   1      40.445  36.494  37.738  1.00  0.00     0.040 A 
ATOM     72  C   UNL A   1      39.015  34.961  38.922  1.00  0.00     0.040 A 
ATOM     73  F   UNL A   1      38.406  32.923  37.931  1.00  0.00    -0.206 F 
ATOM     74  C   UNL A   1      39.706  36.170  38.874  1.00  0.00     0.006 A 
ENDBRANCH  46  67
BRANCH  58  75
ATOM     75  C   UNL A   1      44.047  29.098  35.097  1.00  0.00     0.057 A 
ATOM     76  C   UNL A   1      45.343  29.555  34.828  1.00  0.00     0.134 A 
ATOM     77  C   UNL A   1      43.901  28.099  36.067  1.00  0.00     0.134 A 
ATOM     78  F   UNL A   1      45.551  30.501  33.899  1.00  0.00    -0.206 F 
ATOM     79  C   UNL A   1      46.453  29.023  35.484  1.00  0.00     0.040 A 
ATOM     80  C   UNL A   1      45.001  27.577  36.749  1.00  0.00     0.040 A 
ATOM     81  F   UNL A   1      42.685  27.623  36.378  1.00  0.00    -0.206 F 
ATOM     82  C   UNL A   1      46.282  28.036  36.453  1.00  0.00     0.006 A 
ENDBRANCH  58  75
ENDBRANCH  32  33
ENDBRANCH  24  27
ENDBRANCH  22  23
ENDBRANCH  21  22
ENDBRANCH   1  21
TORSDOF 14
ENDMDL
