MODEL 1
REMARK VINA RESULT:     -11.6      0.000      0.000
REMARK SMILES CC(C)NS(=O)(=O)c1cc(C(=O)NCCCCNC(=O)c2ccc(-c3c4nc(c(-c5c(F)cccc5F)c5ccc([nH]5)c(-c5c(F)cccc5F)c5nc(c(-c6c(F)cccc6F)c6ccc3[nH]6)C=C5)C=C4)cc2)cc(-c2ccc(CO)cc2)c1
REMARK SMILES IDX 15 1 14 2 13 3 11 4 12 5 10 7 8 8 9 9 85 10 76 11 75 12 5 13
REMARK SMILES IDX 6 14 7 15 4 16 2 18 1 19 3 20 77 21 78 22 84 23 79 24 83 25
REMARK SMILES IDX 80 26 81 27 82 28 16 30 17 31 18 32 19 33 20 35 21 36 22 37
REMARK SMILES IDX 74 38 23 39 73 40 24 41 25 42 26 43 67 44 27 45 72 46 66 47
REMARK SMILES IDX 68 48 28 49 71 50 65 51 64 52 29 54 55 55 38 56 54 57 39 58
REMARK SMILES IDX 42 59 53 60 69 61 40 62 41 63 52 65 70 66 43 67 30 68 31 69
REMARK SMILES IDX 36 70 32 71 33 72 35 73 37 74 34 75 56 76 57 77 62 78 58 79
REMARK SMILES IDX 59 80 61 81 63 82 60 83 44 84 45 85 50 86 46 87 47 88 49 89
REMARK SMILES IDX 51 90 48 91
REMARK H PARENT 13 6 4 17 82 29 18 34 68 53 42 64
REMARK Flexibility Score: inf
ROOT
ATOM      1  C   UNL A   1      39.161  22.691  26.486  1.00  0.00     0.023 C 
ENDROOT
BRANCH   1   2
ATOM      2  C   UNL A   1      38.031  23.607  26.046  1.00  0.00     0.116 C 
BRANCH   2   3
ATOM      3  N   UNL A   1      37.686  23.553  24.631  1.00  0.00    -0.352 N 
ATOM      4  C   UNL A   1      36.504  23.230  23.991  1.00  0.00     0.251 C 
ATOM      5  O   UNL A   1      36.469  23.276  22.763  1.00  0.00    -0.269 OA
ATOM      6  H   UNL A   1      38.426  23.788  24.024  1.00  0.00     0.163 HD
BRANCH   4   7
ATOM      7  C   UNL A   1      35.304  22.745  24.734  1.00  0.00     0.041 A 
ATOM      8  C   UNL A   1      33.062  23.147  25.529  1.00  0.00     0.083 A 
ATOM      9  C   UNL A   1      34.272  23.640  25.026  1.00  0.00     0.035 A 
ATOM     10  C   UNL A   1      32.840  21.770  25.640  1.00  0.00     0.030 A 
ATOM     11  C   UNL A   1      33.878  20.874  25.367  1.00  0.00    -0.016 A 
ATOM     12  C   UNL A   1      35.142  21.405  25.078  1.00  0.00     0.022 A 
BRANCH   8  13
ATOM     13  S   UNL A   1      31.794  24.269  26.050  1.00  0.00     0.240 S 
ATOM     14  O   UNL A   1      31.308  23.855  27.346  1.00  0.00    -0.207 OA
ATOM     15  O   UNL A   1      30.890  24.443  24.936  1.00  0.00    -0.207 OA
BRANCH  13  16
ATOM     16  N   UNL A   1      32.604  25.720  26.209  1.00  0.00    -0.209 NA
ATOM     17  H   UNL A   1      32.475  26.006  27.179  1.00  0.00     0.141 HD
BRANCH  16  18
ATOM     18  C   UNL A   1      32.313  26.907  25.401  1.00  0.00     0.063 C 
ATOM     19  C   UNL A   1      31.694  27.955  26.327  1.00  0.00     0.025 C 
ATOM     20  C   UNL A   1      33.557  27.473  24.731  1.00  0.00     0.025 C 
ENDBRANCH  16  18
ENDBRANCH  13  16
ENDBRANCH   8  13
BRANCH  11  21
ATOM     21  C   UNL A   1      33.660  19.428  25.196  1.00  0.00    -0.018 A 
ATOM     22  C   UNL A   1      32.556  18.770  25.759  1.00  0.00     0.009 A 
ATOM     23  C   UNL A   1      34.651  18.638  24.586  1.00  0.00     0.009 A 
ATOM     24  C   UNL A   1      32.441  17.376  25.700  1.00  0.00     0.007 A 
ATOM     25  C   UNL A   1      34.538  17.246  24.522  1.00  0.00     0.007 A 
ATOM     26  C   UNL A   1      33.425  16.603  25.072  1.00  0.00    -0.023 A 
BRANCH  26  27
ATOM     27  C   UNL A   1      33.270  15.108  24.973  1.00  0.00     0.191 C 
BRANCH  27  28
ATOM     28  O   UNL A   1      31.974  14.705  25.390  1.00  0.00    -0.392 OA
ATOM     29  H   UNL A   1      32.052  14.037  26.088  1.00  0.00     0.211 HD
ENDBRANCH  27  28
ENDBRANCH  26  27
ENDBRANCH  11  21
ENDBRANCH   4   7
ENDBRANCH   2   3
ENDBRANCH   1   2
BRANCH   1  30
ATOM     30  C   UNL A   1      39.310  21.383  25.727  1.00  0.00     0.023 C 
BRANCH  30  31
ATOM     31  C   UNL A   1      39.668  20.167  26.571  1.00  0.00     0.116 C 
BRANCH  31  32
ATOM     32  N   UNL A   1      40.772  19.383  26.034  1.00  0.00    -0.352 N 
ATOM     33  C   UNL A   1      42.106  19.705  25.918  1.00  0.00     0.251 C 
ATOM     34  H   UNL A   1      40.528  18.488  25.705  1.00  0.00     0.163 HD
ATOM     35  O   UNL A   1      42.875  18.945  25.337  1.00  0.00    -0.269 OA
BRANCH  33  36
ATOM     36  C   UNL A   1      42.602  20.990  26.454  1.00  0.00     0.039 A 
ATOM     37  C   UNL A   1      43.081  21.956  25.564  1.00  0.00     0.014 A 
ATOM     38  C   UNL A   1      42.554  21.261  27.823  1.00  0.00     0.014 A 
ATOM     39  C   UNL A   1      43.414  23.226  26.038  1.00  0.00     0.010 A 
ATOM     40  C   UNL A   1      42.793  22.554  28.278  1.00  0.00     0.010 A 
ATOM     41  C   UNL A   1      43.220  23.554  27.390  1.00  0.00    -0.014 A 
BRANCH  41  42
ATOM     42  C   UNL A   1      43.436  24.935  27.893  1.00  0.00     0.031 A 
ATOM     43  C   UNL A   1      44.817  25.394  28.273  1.00  0.00     0.074 A 
ATOM     44  C   UNL A   1      42.380  25.752  28.078  1.00  0.00     0.049 A 
ATOM     45  N   UNL A   1      45.194  26.531  28.802  1.00  0.00    -0.248 NA
ATOM     46  C   UNL A   1      45.915  24.440  28.059  1.00  0.00     0.031 C 
ATOM     47  C   UNL A   1      40.983  25.411  27.795  1.00  0.00     0.029 A 
ATOM     48  N   UNL A   1      42.314  27.036  28.559  1.00  0.00    -0.354 N 
ATOM     49  C   UNL A   1      46.566  26.423  28.992  1.00  0.00     0.074 A 
ATOM     50  C   UNL A   1      46.945  25.089  28.581  1.00  0.00     0.031 C 
ATOM     51  C   UNL A   1      40.205  26.467  28.083  1.00  0.00     0.029 A 
ATOM     52  C   UNL A   1      41.037  27.542  28.613  1.00  0.00     0.049 A 
ATOM     53  H   UNL A   1      43.107  27.548  28.838  1.00  0.00     0.167 HD
ATOM     54  C   UNL A   1      47.435  27.358  29.444  1.00  0.00     0.037 A 
ATOM     55  C   UNL A   1      40.584  28.731  29.052  1.00  0.00     0.037 A 
ATOM     56  C   UNL A   1      47.056  28.689  29.838  1.00  0.00     0.049 A 
ATOM     57  C   UNL A   1      41.566  29.743  29.576  1.00  0.00     0.074 A 
ATOM     58  C   UNL A   1      47.871  29.727  30.255  1.00  0.00     0.029 A 
ATOM     59  N   UNL A   1      45.754  29.164  29.871  1.00  0.00    -0.354 N 
ATOM     60  N   UNL A   1      42.871  29.653  29.679  1.00  0.00    -0.248 NA
ATOM     61  C   UNL A   1      41.016  31.025  30.040  1.00  0.00     0.031 C 
ATOM     62  C   UNL A   1      47.056  30.811  30.597  1.00  0.00     0.029 A 
ATOM     63  C   UNL A   1      45.739  30.471  30.331  1.00  0.00     0.049 A 
ATOM     64  H   UNL A   1      44.957  28.649  29.607  1.00  0.00     0.167 HD
ATOM     65  C   UNL A   1      43.298  30.872  30.189  1.00  0.00     0.074 A 
ATOM     66  C   UNL A   1      42.116  31.691  30.359  1.00  0.00     0.031 C 
ATOM     67  C   UNL A   1      44.556  31.278  30.489  1.00  0.00     0.037 A 
BRANCH  54  68
ATOM     68  C   UNL A   1      48.883  26.969  29.538  1.00  0.00     0.057 A 
ATOM     69  C   UNL A   1      49.404  26.323  30.668  1.00  0.00     0.134 A 
ATOM     70  C   UNL A   1      49.759  27.209  28.472  1.00  0.00     0.134 A 
ATOM     71  F   UNL A   1      48.622  26.072  31.729  1.00  0.00    -0.206 F 
ATOM     72  C   UNL A   1      50.750  25.958  30.745  1.00  0.00     0.040 A 
ATOM     73  C   UNL A   1      51.099  26.820  28.525  1.00  0.00     0.040 A 
ATOM     74  F   UNL A   1      49.327  27.817  27.357  1.00  0.00    -0.206 F 
ATOM     75  C   UNL A   1      51.599  26.199  29.668  1.00  0.00     0.006 A 
ENDBRANCH  54  68
BRANCH  55  76
ATOM     76  C   UNL A   1      39.130  29.041  29.008  1.00  0.00     0.057 A 
ATOM     77  C   UNL A   1      38.331  28.919  30.151  1.00  0.00     0.134 A 
ATOM     78  C   UNL A   1      38.503  29.449  27.824  1.00  0.00     0.134 A 
ATOM     79  F   UNL A   1      38.869  28.516  31.311  1.00  0.00    -0.206 F 
ATOM     80  C   UNL A   1      36.957  29.167  30.113  1.00  0.00     0.040 A 
ATOM     81  C   UNL A   1      37.136  29.727  27.779  1.00  0.00     0.040 A 
ATOM     82  F   UNL A   1      39.213  29.592  26.696  1.00  0.00    -0.206 F 
ATOM     83  C   UNL A   1      36.358  29.577  28.924  1.00  0.00     0.006 A 
ENDBRANCH  55  76
BRANCH  67  84
ATOM     84  C   UNL A   1      44.728  32.682  30.995  1.00  0.00     0.057 A 
ATOM     85  C   UNL A   1      44.751  32.982  32.363  1.00  0.00     0.134 A 
ATOM     86  C   UNL A   1      44.917  33.742  30.098  1.00  0.00     0.134 A 
ATOM     87  F   UNL A   1      44.564  32.016  33.275  1.00  0.00    -0.206 F 
ATOM     88  C   UNL A   1      44.931  34.288  32.820  1.00  0.00     0.040 A 
ATOM     89  C   UNL A   1      45.129  35.047  30.544  1.00  0.00     0.040 A 
ATOM     90  F   UNL A   1      44.915  33.524  28.774  1.00  0.00    -0.206 F 
ATOM     91  C   UNL A   1      45.130  35.324  31.909  1.00  0.00     0.006 A 
ENDBRANCH  67  84
ENDBRANCH  41  42
ENDBRANCH  33  36
ENDBRANCH  31  32
ENDBRANCH  30  31
ENDBRANCH   1  30
TORSDOF 17
ENDMDL
MODEL 2
REMARK VINA RESULT:     -11.4      4.328      9.969
REMARK SMILES CC(C)NS(=O)(=O)c1cc(C(=O)NCCCCNC(=O)c2ccc(-c3c4nc(c(-c5c(F)cccc5F)c5ccc([nH]5)c(-c5c(F)cccc5F)c5nc(c(-c6c(F)cccc6F)c6ccc3[nH]6)C=C5)C=C4)cc2)cc(-c2ccc(CO)cc2)c1
REMARK SMILES IDX 15 1 14 2 13 3 11 4 12 5 10 7 8 8 9 9 85 10 76 11 75 12 5 13
REMARK SMILES IDX 6 14 7 15 4 16 2 18 1 19 3 20 77 21 78 22 84 23 79 24 83 25
REMARK SMILES IDX 80 26 81 27 82 28 16 30 17 31 18 32 19 33 20 35 21 36 22 37
REMARK SMILES IDX 74 38 23 39 73 40 24 41 25 42 26 43 67 44 27 45 72 46 66 47
REMARK SMILES IDX 68 48 28 49 71 50 65 51 64 52 29 54 55 55 38 56 54 57 39 58
REMARK SMILES IDX 42 59 53 60 69 61 40 62 41 63 52 65 70 66 43 67 30 68 31 69
REMARK SMILES IDX 36 70 32 71 33 72 35 73 37 74 34 75 56 76 57 77 62 78 58 79
REMARK SMILES IDX 59 80 61 81 63 82 60 83 44 84 45 85 50 86 46 87 47 88 49 89
REMARK SMILES IDX 51 90 48 91
REMARK H PARENT 13 6 4 17 82 29 18 34 68 53 42 64
REMARK Flexibility Score: inf
ROOT
ATOM      1  C   UNL A   1      34.584  30.790  27.582  1.00  0.00     0.023 C 
ENDROOT
BRANCH   1   2
ATOM      2  C   UNL A   1      34.219  29.363  27.205  1.00  0.00     0.116 C 
BRANCH   2   3
ATOM      3  N   UNL A   1      33.013  28.832  27.826  1.00  0.00    -0.352 N 
ATOM      4  C   UNL A   1      31.922  28.173  27.288  1.00  0.00     0.251 C 
ATOM      5  O   UNL A   1      31.025  27.809  28.044  1.00  0.00    -0.269 OA
ATOM      6  H   UNL A   1      32.966  28.967  28.801  1.00  0.00     0.163 HD
BRANCH   4   7
ATOM      7  C   UNL A   1      31.761  27.971  25.819  1.00  0.00     0.041 A 
ATOM      8  C   UNL A   1      31.572  26.461  23.947  1.00  0.00     0.083 A 
ATOM      9  C   UNL A   1      31.930  26.693  25.280  1.00  0.00     0.035 A 
ATOM     10  C   UNL A   1      30.952  27.459  23.186  1.00  0.00     0.030 A 
ATOM     11  C   UNL A   1      30.801  28.744  23.717  1.00  0.00    -0.016 A 
ATOM     12  C   UNL A   1      31.366  29.005  24.972  1.00  0.00     0.022 A 
BRANCH   8  13
ATOM     13  S   UNL A   1      31.917  24.895  23.196  1.00  0.00     0.240 S 
ATOM     14  O   UNL A   1      32.545  25.119  21.914  1.00  0.00    -0.207 OA
ATOM     15  O   UNL A   1      30.720  24.092  23.308  1.00  0.00    -0.207 OA
BRANCH  13  16
ATOM     16  N   UNL A   1      33.026  24.204  24.235  1.00  0.00    -0.209 NA
ATOM     17  H   UNL A   1      32.873  24.647  25.140  1.00  0.00     0.141 HD
BRANCH  16  18
ATOM     18  C   UNL A   1      34.474  24.233  24.015  1.00  0.00     0.063 C 
ATOM     19  C   UNL A   1      35.143  24.438  25.375  1.00  0.00     0.025 C 
ATOM     20  C   UNL A   1      34.990  22.956  23.369  1.00  0.00     0.025 C 
ENDBRANCH  16  18
ENDBRANCH  13  16
ENDBRANCH   8  13
BRANCH  11  21
ATOM     21  C   UNL A   1      29.932  29.763  23.104  1.00  0.00    -0.018 A 
ATOM     22  C   UNL A   1      29.650  29.771  21.730  1.00  0.00     0.009 A 
ATOM     23  C   UNL A   1      29.486  30.855  23.870  1.00  0.00     0.009 A 
ATOM     24  C   UNL A   1      28.936  30.825  21.147  1.00  0.00     0.007 A 
ATOM     25  C   UNL A   1      28.770  31.907  23.292  1.00  0.00     0.007 A 
ATOM     26  C   UNL A   1      28.480  31.896  21.925  1.00  0.00    -0.023 A 
BRANCH  26  27
ATOM     27  C   UNL A   1      27.673  33.002  21.297  1.00  0.00     0.191 C 
BRANCH  27  28
ATOM     28  O   UNL A   1      27.274  32.653  19.980  1.00  0.00    -0.392 OA
ATOM     29  H   UNL A   1      26.401  33.032  19.795  1.00  0.00     0.211 HD
ENDBRANCH  27  28
ENDBRANCH  26  27
ENDBRANCH  11  21
ENDBRANCH   4   7
ENDBRANCH   2   3
ENDBRANCH   1   2
BRANCH   1  30
ATOM     30  C   UNL A   1      33.439  31.697  27.998  1.00  0.00     0.023 C 
BRANCH  30  31
ATOM     31  C   UNL A   1      33.158  32.873  27.072  1.00  0.00     0.116 C 
BRANCH  31  32
ATOM     32  N   UNL A   1      32.672  34.061  27.761  1.00  0.00    -0.352 N 
ATOM     33  C   UNL A   1      33.180  34.707  28.867  1.00  0.00     0.251 C 
ATOM     34  H   UNL A   1      31.860  34.463  27.379  1.00  0.00     0.163 HD
ATOM     35  O   UNL A   1      32.565  35.643  29.369  1.00  0.00    -0.269 OA
BRANCH  33  36
ATOM     36  C   UNL A   1      34.444  34.241  29.475  1.00  0.00     0.039 A 
ATOM     37  C   UNL A   1      34.406  33.642  30.738  1.00  0.00     0.014 A 
ATOM     38  C   UNL A   1      35.653  34.352  28.787  1.00  0.00     0.014 A 
ATOM     39  C   UNL A   1      35.566  33.066  31.262  1.00  0.00     0.010 A 
ATOM     40  C   UNL A   1      36.781  33.692  29.265  1.00  0.00     0.010 A 
ATOM     41  C   UNL A   1      36.749  33.036  30.506  1.00  0.00    -0.014 A 
BRANCH  41  42
ATOM     42  C   UNL A   1      37.955  32.311  30.981  1.00  0.00     0.031 A 
ATOM     43  C   UNL A   1      38.774  32.864  32.115  1.00  0.00     0.074 A 
ATOM     44  C   UNL A   1      38.357  31.193  30.344  1.00  0.00     0.049 A 
ATOM     45  N   UNL A   1      39.897  32.419  32.619  1.00  0.00    -0.248 NA
ATOM     46  C   UNL A   1      38.280  34.097  32.748  1.00  0.00     0.031 C 
ATOM     47  C   UNL A   1      37.680  30.579  29.199  1.00  0.00     0.029 A 
ATOM     48  N   UNL A   1      39.441  30.378  30.562  1.00  0.00    -0.354 N 
ATOM     49  C   UNL A   1      40.248  33.321  33.615  1.00  0.00     0.074 A 
ATOM     50  C   UNL A   1      39.253  34.371  33.605  1.00  0.00     0.031 C 
ATOM     51  C   UNL A   1      38.348  29.473  28.833  1.00  0.00     0.029 A 
ATOM     52  C   UNL A   1      39.524  29.323  29.684  1.00  0.00     0.049 A 
ATOM     53  H   UNL A   1      40.096  30.533  31.280  1.00  0.00     0.167 HD
ATOM     54  C   UNL A   1      41.290  33.267  34.479  1.00  0.00     0.037 A 
ATOM     55  C   UNL A   1      40.449  28.351  29.569  1.00  0.00     0.037 A 
ATOM     56  C   UNL A   1      42.270  32.212  34.497  1.00  0.00     0.049 A 
ATOM     57  C   UNL A   1      41.613  28.328  30.522  1.00  0.00     0.074 A 
ATOM     58  C   UNL A   1      43.330  32.038  35.369  1.00  0.00     0.029 A 
ATOM     59  N   UNL A   1      42.315  31.159  33.596  1.00  0.00    -0.354 N 
ATOM     60  N   UNL A   1      41.890  29.147  31.508  1.00  0.00    -0.248 NA
ATOM     61  C   UNL A   1      42.590  27.244  30.350  1.00  0.00     0.031 C 
ATOM     62  C   UNL A   1      44.050  30.911  34.961  1.00  0.00     0.029 A 
ATOM     63  C   UNL A   1      43.403  30.347  33.873  1.00  0.00     0.049 A 
ATOM     64  H   UNL A   1      41.669  31.009  32.868  1.00  0.00     0.167 HD
ATOM     65  C   UNL A   1      43.053  28.660  32.092  1.00  0.00     0.074 A 
ATOM     66  C   UNL A   1      43.420  27.466  31.359  1.00  0.00     0.031 C 
ATOM     67  C   UNL A   1      43.754  29.157  33.140  1.00  0.00     0.037 A 
BRANCH  54  68
ATOM     68  C   UNL A   1      41.424  34.383  35.475  1.00  0.00     0.057 A 
ATOM     69  C   UNL A   1      40.784  34.344  36.722  1.00  0.00     0.134 A 
ATOM     70  C   UNL A   1      42.232  35.493  35.201  1.00  0.00     0.134 A 
ATOM     71  F   UNL A   1      39.986  33.314  37.045  1.00  0.00    -0.206 F 
ATOM     72  C   UNL A   1      40.918  35.382  37.645  1.00  0.00     0.040 A 
ATOM     73  C   UNL A   1      42.400  36.522  36.130  1.00  0.00     0.040 A 
ATOM     74  F   UNL A   1      42.880  35.594  34.031  1.00  0.00    -0.206 F 
ATOM     75  C   UNL A   1      41.736  36.471  37.354  1.00  0.00     0.006 A 
ENDBRANCH  54  68
BRANCH  55  76
ATOM     76  C   UNL A   1      40.312  27.309  28.517  1.00  0.00     0.057 A 
ATOM     77  C   UNL A   1      40.948  27.447  27.277  1.00  0.00     0.134 A 
ATOM     78  C   UNL A   1      39.532  26.164  28.716  1.00  0.00     0.134 A 
ATOM     79  F   UNL A   1      41.696  28.530  27.018  1.00  0.00    -0.206 F 
ATOM     80  C   UNL A   1      40.795  26.496  26.266  1.00  0.00     0.040 A 
ATOM     81  C   UNL A   1      39.393  25.191  27.725  1.00  0.00     0.040 A 
ATOM     82  F   UNL A   1      38.902  25.968  29.883  1.00  0.00    -0.206 F 
ATOM     83  C   UNL A   1      40.018  25.362  26.491  1.00  0.00     0.006 A 
ENDBRANCH  55  76
BRANCH  67  84
ATOM     84  C   UNL A   1      44.966  28.391  33.587  1.00  0.00     0.057 A 
ATOM     85  C   UNL A   1      44.880  27.319  34.483  1.00  0.00     0.134 A 
ATOM     86  C   UNL A   1      46.232  28.705  33.076  1.00  0.00     0.134 A 
ATOM     87  F   UNL A   1      43.699  26.974  35.020  1.00  0.00    -0.206 F 
ATOM     88  C   UNL A   1      46.012  26.603  34.875  1.00  0.00     0.040 A 
ATOM     89  C   UNL A   1      47.367  27.976  33.435  1.00  0.00     0.040 A 
ATOM     90  F   UNL A   1      46.386  29.714  32.205  1.00  0.00    -0.206 F 
ATOM     91  C   UNL A   1      47.259  26.925  34.343  1.00  0.00     0.006 A 
ENDBRANCH  67  84
ENDBRANCH  41  42
ENDBRANCH  33  36
ENDBRANCH  31  32
ENDBRANCH  30  31
ENDBRANCH   1  30
TORSDOF 17
ENDMDL
MODEL 3
REMARK VINA RESULT:     -11.3      2.868      7.965
REMARK SMILES CC(C)NS(=O)(=O)c1cc(C(=O)NCCCCNC(=O)c2ccc(-c3c4nc(c(-c5c(F)cccc5F)c5ccc([nH]5)c(-c5c(F)cccc5F)c5nc(c(-c6c(F)cccc6F)c6ccc3[nH]6)C=C5)C=C4)cc2)cc(-c2ccc(CO)cc2)c1
REMARK SMILES IDX 15 1 14 2 13 3 11 4 12 5 10 7 8 8 9 9 85 10 76 11 75 12 5 13
REMARK SMILES IDX 6 14 7 15 4 16 2 18 1 19 3 20 77 21 78 22 84 23 79 24 83 25
REMARK SMILES IDX 80 26 81 27 82 28 16 30 17 31 18 32 19 33 20 35 21 36 22 37
REMARK SMILES IDX 74 38 23 39 73 40 24 41 25 42 26 43 67 44 27 45 72 46 66 47
REMARK SMILES IDX 68 48 28 49 71 50 65 51 64 52 29 54 55 55 38 56 54 57 39 58
REMARK SMILES IDX 42 59 53 60 69 61 40 62 41 63 52 65 70 66 43 67 30 68 31 69
REMARK SMILES IDX 36 70 32 71 33 72 35 73 37 74 34 75 56 76 57 77 62 78 58 79
REMARK SMILES IDX 59 80 61 81 63 82 60 83 44 84 45 85 50 86 46 87 47 88 49 89
REMARK SMILES IDX 51 90 48 91
REMARK H PARENT 13 6 4 17 82 29 18 34 68 53 42 64
REMARK Flexibility Score: inf
ROOT
ATOM      1  C   UNL A   1      34.218  22.247  24.278  1.00  0.00     0.023 C 
ENDROOT
BRANCH   1   2
ATOM      2  C   UNL A   1      33.910  23.631  24.827  1.00  0.00     0.116 C 
BRANCH   2   3
ATOM      3  N   UNL A   1      32.990  23.674  25.957  1.00  0.00    -0.352 N 
ATOM      4  C   UNL A   1      32.107  24.651  26.378  1.00  0.00     0.251 C 
ATOM      5  O   UNL A   1      31.420  24.432  27.374  1.00  0.00    -0.269 OA
ATOM      6  H   UNL A   1      33.000  22.865  26.519  1.00  0.00     0.163 HD
BRANCH   4   7
ATOM      7  C   UNL A   1      32.026  25.988  25.720  1.00  0.00     0.041 A 
ATOM      8  C   UNL A   1      30.782  27.561  24.380  1.00  0.00     0.083 A 
ATOM      9  C   UNL A   1      30.982  26.251  24.830  1.00  0.00     0.035 A 
ATOM     10  C   UNL A   1      31.544  28.619  24.890  1.00  0.00     0.030 A 
ATOM     11  C   UNL A   1      32.602  28.354  25.765  1.00  0.00    -0.016 A 
ATOM     12  C   UNL A   1      32.917  27.015  26.026  1.00  0.00     0.022 A 
BRANCH   8  13
ATOM     13  S   UNL A   1      29.566  27.897  23.137  1.00  0.00     0.240 S 
ATOM     14  O   UNL A   1      28.385  27.110  23.414  1.00  0.00    -0.207 OA
ATOM     15  O   UNL A   1      30.229  27.819  21.856  1.00  0.00    -0.207 OA
BRANCH  13  16
ATOM     16  N   UNL A   1      29.212  29.512  23.369  1.00  0.00    -0.209 NA
ATOM     17  H   UNL A   1      29.185  29.648  24.379  1.00  0.00     0.141 HD
BRANCH  16  18
ATOM     18  C   UNL A   1      28.008  30.164  22.847  1.00  0.00     0.063 C 
ATOM     19  C   UNL A   1      27.775  31.431  23.671  1.00  0.00     0.025 C 
ATOM     20  C   UNL A   1      28.134  30.518  21.372  1.00  0.00     0.025 C 
ENDBRANCH  16  18
ENDBRANCH  13  16
ENDBRANCH   8  13
BRANCH  11  21
ATOM     21  C   UNL A   1      33.269  29.407  26.551  1.00  0.00    -0.018 A 
ATOM     22  C   UNL A   1      32.638  30.622  26.854  1.00  0.00     0.009 A 
ATOM     23  C   UNL A   1      34.630  29.275  26.883  1.00  0.00     0.009 A 
ATOM     24  C   UNL A   1      33.338  31.660  27.481  1.00  0.00     0.007 A 
ATOM     25  C   UNL A   1      35.330  30.308  27.512  1.00  0.00     0.007 A 
ATOM     26  C   UNL A   1      34.686  31.508  27.826  1.00  0.00    -0.023 A 
BRANCH  26  27
ATOM     27  C   UNL A   1      35.417  32.613  28.542  1.00  0.00     0.191 C 
BRANCH  27  28
ATOM     28  O   UNL A   1      35.886  33.588  27.623  1.00  0.00    -0.392 OA
ATOM     29  H   UNL A   1      35.849  34.465  28.035  1.00  0.00     0.211 HD
ENDBRANCH  27  28
ENDBRANCH  26  27
ENDBRANCH  11  21
ENDBRANCH   4   7
ENDBRANCH   2   3
ENDBRANCH   1   2
BRANCH   1  30
ATOM     30  C   UNL A   1      35.087  21.351  25.145  1.00  0.00     0.023 C 
BRANCH  30  31
ATOM     31  C   UNL A   1      36.511  21.837  25.377  1.00  0.00     0.116 C 
BRANCH  31  32
ATOM     32  N   UNL A   1      37.507  20.773  25.360  1.00  0.00    -0.352 N 
ATOM     33  C   UNL A   1      38.825  20.795  25.759  1.00  0.00     0.251 C 
ATOM     34  H   UNL A   1      37.190  19.910  25.012  1.00  0.00     0.163 HD
ATOM     35  O   UNL A   1      39.542  19.817  25.568  1.00  0.00    -0.269 OA
BRANCH  33  36
ATOM     36  C   UNL A   1      39.388  22.014  26.376  1.00  0.00     0.039 A 
ATOM     37  C   UNL A   1      40.427  21.886  27.302  1.00  0.00     0.014 A 
ATOM     38  C   UNL A   1      38.926  23.280  26.010  1.00  0.00     0.014 A 
ATOM     39  C   UNL A   1      41.067  23.031  27.782  1.00  0.00     0.010 A 
ATOM     40  C   UNL A   1      39.628  24.412  26.412  1.00  0.00     0.010 A 
ATOM     41  C   UNL A   1      40.711  24.300  27.298  1.00  0.00    -0.014 A 
BRANCH  41  42
ATOM     42  C   UNL A   1      41.466  25.519  27.688  1.00  0.00     0.031 A 
ATOM     43  C   UNL A   1      40.820  26.565  28.554  1.00  0.00     0.074 A 
ATOM     44  C   UNL A   1      42.707  25.720  27.201  1.00  0.00     0.049 A 
ATOM     45  N   UNL A   1      41.287  27.727  28.935  1.00  0.00    -0.248 NA
ATOM     46  C   UNL A   1      39.458  26.281  29.032  1.00  0.00     0.031 C 
ATOM     47  C   UNL A   1      43.428  24.807  26.311  1.00  0.00     0.029 A 
ATOM     48  N   UNL A   1      43.580  26.766  27.378  1.00  0.00    -0.354 N 
ATOM     49  C   UNL A   1      40.275  28.314  29.684  1.00  0.00     0.074 A 
ATOM     50  C   UNL A   1      39.147  27.409  29.653  1.00  0.00     0.031 C 
ATOM     51  C   UNL A   1      44.640  25.319  26.042  1.00  0.00     0.029 A 
ATOM     52  C   UNL A   1      44.766  26.616  26.699  1.00  0.00     0.049 A 
ATOM     53  H   UNL A   1      43.376  27.549  27.938  1.00  0.00     0.167 HD
ATOM     54  C   UNL A   1      40.292  29.488  30.359  1.00  0.00     0.037 A 
ATOM     55  C   UNL A   1      45.831  27.435  26.606  1.00  0.00     0.037 A 
ATOM     56  C   UNL A   1      41.422  30.379  30.400  1.00  0.00     0.049 A 
ATOM     57  C   UNL A   1      45.815  28.747  27.342  1.00  0.00     0.074 A 
ATOM     58  C   UNL A   1      41.557  31.565  31.102  1.00  0.00     0.029 A 
ATOM     59  N   UNL A   1      42.606  30.188  29.706  1.00  0.00    -0.354 N 
ATOM     60  N   UNL A   1      44.878  29.254  28.108  1.00  0.00    -0.248 NA
ATOM     61  C   UNL A   1      47.004  29.600  27.205  1.00  0.00     0.031 C 
ATOM     62  C   UNL A   1      42.801  32.119  30.786  1.00  0.00     0.029 A 
ATOM     63  C   UNL A   1      43.467  31.249  29.939  1.00  0.00     0.049 A 
ATOM     64  H   UNL A   1      42.808  29.413  29.133  1.00  0.00     0.167 HD
ATOM     65  C   UNL A   1      45.377  30.466  28.567  1.00  0.00     0.074 A 
ATOM     66  C   UNL A   1      46.705  30.611  28.007  1.00  0.00     0.031 C 
ATOM     67  C   UNL A   1      44.789  31.378  29.380  1.00  0.00     0.037 A 
BRANCH  54  68
ATOM     68  C   UNL A   1      39.048  29.877  31.105  1.00  0.00     0.057 A 
ATOM     69  C   UNL A   1      38.050  30.668  30.519  1.00  0.00     0.134 A 
ATOM     70  C   UNL A   1      38.826  29.423  32.411  1.00  0.00     0.134 A 
ATOM     71  F   UNL A   1      38.203  31.145  29.274  1.00  0.00    -0.206 F 
ATOM     72  C   UNL A   1      36.892  31.019  31.216  1.00  0.00     0.040 A 
ATOM     73  C   UNL A   1      37.657  29.741  33.107  1.00  0.00     0.040 A 
ATOM     74  F   UNL A   1      39.735  28.656  33.031  1.00  0.00    -0.206 F 
ATOM     75  C   UNL A   1      36.690  30.547  32.512  1.00  0.00     0.006 A 
ENDBRANCH  54  68
BRANCH  55  76
ATOM     76  C   UNL A   1      47.011  27.038  25.793  1.00  0.00     0.057 A 
ATOM     77  C   UNL A   1      48.072  26.324  26.361  1.00  0.00     0.134 A 
ATOM     78  C   UNL A   1      47.115  27.376  24.438  1.00  0.00     0.134 A 
ATOM     79  F   UNL A   1      48.041  25.985  27.658  1.00  0.00    -0.206 F 
ATOM     80  C   UNL A   1      49.204  25.981  25.619  1.00  0.00     0.040 A 
ATOM     81  C   UNL A   1      48.228  27.016  23.677  1.00  0.00     0.040 A 
ATOM     82  F   UNL A   1      46.130  28.053  23.831  1.00  0.00    -0.206 F 
ATOM     83  C   UNL A   1      49.282  26.324  24.271  1.00  0.00     0.006 A 
ENDBRANCH  55  76
BRANCH  67  84
ATOM     84  C   UNL A   1      45.589  32.595  29.748  1.00  0.00     0.057 A 
ATOM     85  C   UNL A   1      45.517  33.782  29.009  1.00  0.00     0.134 A 
ATOM     86  C   UNL A   1      46.410  32.589  30.883  1.00  0.00     0.134 A 
ATOM     87  F   UNL A   1      44.760  33.852  27.904  1.00  0.00    -0.206 F 
ATOM     88  C   UNL A   1      46.251  34.913  29.373  1.00  0.00     0.040 A 
ATOM     89  C   UNL A   1      47.124  33.723  31.275  1.00  0.00     0.040 A 
ATOM     90  F   UNL A   1      46.518  31.487  31.641  1.00  0.00    -0.206 F 
ATOM     91  C   UNL A   1      47.050  34.887  30.514  1.00  0.00     0.006 A 
ENDBRANCH  67  84
ENDBRANCH  41  42
ENDBRANCH  33  36
ENDBRANCH  31  32
ENDBRANCH  30  31
ENDBRANCH   1  30
TORSDOF 17
ENDMDL
