MODEL 1
REMARK VINA RESULT:     -11.8      0.000      0.000
REMARK SMILES O=C(/C=C/c1ccc(NC(=O)CCc2nc(-c3cc(Br)cs3)no2)cc1)NCCCCNC(=O)c1ccc(-c2c3nc(c(-c4c(F)cccc4F)c4ccc([nH]4)c(-c4c(F)cccc4F)c4nc(c(-c5c(F)cccc5F)c5ccc2[nH]5)C=C4)C=C3)cc1
REMARK SMILES IDX 1 1 2 2 27 3 3 5 4 6 5 7 6 8 26 9 7 10 25 11 8 12 9 13 10 14
REMARK SMILES IDX 11 16 12 17 13 18 14 19 15 20 24 21 16 22 23 23 17 24 18 25
REMARK SMILES IDX 22 26 19 27 21 28 20 29 28 30 29 31 30 32 31 33 32 34 33 35
REMARK SMILES IDX 34 37 35 38 36 39 88 40 37 41 87 42 38 43 39 44 40 45 81 46
REMARK SMILES IDX 41 47 86 48 80 49 82 50 42 51 85 52 79 53 78 54 43 56 69 57
REMARK SMILES IDX 52 58 68 59 53 60 56 61 67 62 83 63 54 64 55 65 66 67 84 68
REMARK SMILES IDX 57 69 44 70 45 71 50 72 46 73 47 74 49 75 51 76 48 77 70 78
REMARK SMILES IDX 71 79 76 80 72 81 73 82 75 83 77 84 74 85 58 86 59 87 64 88
REMARK SMILES IDX 60 89 61 90 63 91 65 92 62 93
REMARK H PARENT 27 4 9 15 32 36 82 55 56 66
REMARK Flexibility Score: inf
ROOT
ATOM      1  O   UNL A   1      31.019  27.137  26.325  1.00  0.00    -0.270 OA
ATOM      2  C   UNL A   1      32.234  27.052  26.207  1.00  0.00     0.243 C 
ATOM      3  N   UNL A   1      33.060  28.112  25.915  1.00  0.00    -0.353 N 
ATOM      4  H   UNL A   1      34.033  27.962  25.884  1.00  0.00     0.163 HD
ENDROOT
BRANCH   2   5
ATOM      5  C   UNL A   1      32.885  25.715  26.282  1.00  0.00     0.072 C 
ATOM      6  C   UNL A   1      33.995  25.378  25.611  1.00  0.00     0.014 C 
BRANCH   6   7
ATOM      7  C   UNL A   1      34.644  24.059  25.611  1.00  0.00    -0.025 A 
ATOM      8  C   UNL A   1      35.308  23.672  24.445  1.00  0.00     0.010 A 
ATOM      9  C   UNL A   1      34.503  23.119  26.636  1.00  0.00     0.010 A 
ATOM     10  C   UNL A   1      35.730  22.354  24.260  1.00  0.00     0.027 A 
ATOM     11  C   UNL A   1      34.915  21.791  26.441  1.00  0.00     0.027 A 
ATOM     12  C   UNL A   1      35.447  21.382  25.211  1.00  0.00     0.041 A 
BRANCH  12  13
ATOM     13  N   UNL A   1      35.592  20.000  25.000  1.00  0.00    -0.326 N 
ATOM     14  C   UNL A   1      34.688  18.997  24.780  1.00  0.00     0.224 C 
ATOM     15  H   UNL A   1      36.528  19.693  25.012  1.00  0.00     0.169 HD
ATOM     16  O   UNL A   1      35.127  17.845  24.677  1.00  0.00    -0.275 OA
BRANCH  14  17
ATOM     17  C   UNL A   1      33.186  19.216  24.749  1.00  0.00     0.110 C 
BRANCH  17  18
ATOM     18  C   UNL A   1      32.609  19.869  23.492  1.00  0.00     0.110 C 
BRANCH  18  19
ATOM     19  C   UNL A   1      32.152  21.272  23.624  1.00  0.00     0.227 A 
ATOM     20  N   UNL A   1      32.152  22.259  22.751  1.00  0.00    -0.190 NA
ATOM     21  O   UNL A   1      31.603  21.617  24.823  1.00  0.00    -0.339 OA
ATOM     22  C   UNL A   1      31.670  23.309  23.505  1.00  0.00     0.212 A 
ATOM     23  N   UNL A   1      31.330  22.977  24.759  1.00  0.00    -0.056 NA
BRANCH  22  24
ATOM     24  C   UNL A   1      31.579  24.720  23.015  1.00  0.00     0.076 A 
ATOM     25  C   UNL A   1      30.525  25.560  23.317  1.00  0.00     0.039 A 
ATOM     26  S   UNL A   1      32.766  25.499  22.063  1.00  0.00    -0.139 S 
ATOM     27  C   UNL A   1      30.721  26.852  22.776  1.00  0.00     0.029 A 
ATOM     28  C   UNL A   1      31.846  26.946  21.998  1.00  0.00     0.081 A 
ATOM     29  Br  UNL A   1      29.533  28.271  23.128  1.00  0.00    -0.050 Br
ENDBRANCH  22  24
ENDBRANCH  18  19
ENDBRANCH  17  18
ENDBRANCH  14  17
ENDBRANCH  12  13
ENDBRANCH   6   7
ENDBRANCH   2   5
BRANCH   3  30
ATOM     30  C   UNL A   1      32.548  29.444  25.652  1.00  0.00     0.116 C 
BRANCH  30  31
ATOM     31  C   UNL A   1      31.898  30.086  26.877  1.00  0.00     0.023 C 
BRANCH  31  32
ATOM     32  C   UNL A   1      31.625  31.589  26.759  1.00  0.00     0.023 C 
BRANCH  32  33
ATOM     33  C   UNL A   1      32.847  32.497  26.891  1.00  0.00     0.116 C 
BRANCH  33  34
ATOM     34  N   UNL A   1      32.519  33.831  27.372  1.00  0.00    -0.352 N 
ATOM     35  C   UNL A   1      33.051  34.556  28.415  1.00  0.00     0.251 C 
ATOM     36  H   UNL A   1      31.803  34.286  26.874  1.00  0.00     0.163 HD
ATOM     37  O   UNL A   1      32.526  35.612  28.750  1.00  0.00    -0.269 OA
BRANCH  35  38
ATOM     38  C   UNL A   1      34.233  34.062  29.158  1.00  0.00     0.039 A 
ATOM     39  C   UNL A   1      34.033  33.248  30.278  1.00  0.00     0.014 A 
ATOM     40  C   UNL A   1      35.532  34.410  28.778  1.00  0.00     0.014 A 
ATOM     41  C   UNL A   1      35.131  32.723  30.966  1.00  0.00     0.010 A 
ATOM     42  C   UNL A   1      36.624  33.827  29.418  1.00  0.00     0.010 A 
ATOM     43  C   UNL A   1      36.438  32.974  30.516  1.00  0.00    -0.014 A 
BRANCH  43  44
ATOM     44  C   UNL A   1      37.613  32.338  31.171  1.00  0.00     0.031 A 
ATOM     45  C   UNL A   1      38.298  31.160  30.535  1.00  0.00     0.074 A 
ATOM     46  C   UNL A   1      38.028  32.783  32.374  1.00  0.00     0.049 A 
ATOM     47  N   UNL A   1      39.287  30.432  30.990  1.00  0.00    -0.248 NA
ATOM     48  C   UNL A   1      37.789  30.725  29.225  1.00  0.00     0.031 C 
ATOM     49  C   UNL A   1      37.426  33.890  33.121  1.00  0.00     0.029 A 
ATOM     50  N   UNL A   1      39.047  32.351  33.188  1.00  0.00    -0.354 N 
ATOM     51  C   UNL A   1      39.513  29.453  30.030  1.00  0.00     0.074 A 
ATOM     52  C   UNL A   1      38.519  29.644  28.995  1.00  0.00     0.031 C 
ATOM     53  C   UNL A   1      38.097  34.060  34.271  1.00  0.00     0.029 A 
ATOM     54  C   UNL A   1      39.147  33.052  34.366  1.00  0.00     0.049 A 
ATOM     55  H   UNL A   1      39.648  31.609  32.949  1.00  0.00     0.167 HD
ATOM     56  C   UNL A   1      40.473  28.498  29.999  1.00  0.00     0.037 A 
ATOM     57  C   UNL A   1      39.982  32.893  35.412  1.00  0.00     0.037 A 
ATOM     58  C   UNL A   1      41.469  28.315  31.024  1.00  0.00     0.049 A 
ATOM     59  C   UNL A   1      41.023  31.809  35.366  1.00  0.00     0.074 A 
ATOM     60  C   UNL A   1      42.510  27.405  31.061  1.00  0.00     0.029 A 
ATOM     61  N   UNL A   1      41.543  29.054  32.196  1.00  0.00    -0.354 N 
ATOM     62  N   UNL A   1      41.263  30.931  34.422  1.00  0.00    -0.248 NA
ATOM     63  C   UNL A   1      41.915  31.697  36.529  1.00  0.00     0.031 C 
ATOM     64  C   UNL A   1      43.184  27.557  32.277  1.00  0.00     0.029 A 
ATOM     65  C   UNL A   1      42.599  28.602  32.973  1.00  0.00     0.049 A 
ATOM     66  H   UNL A   1      40.936  29.789  32.439  1.00  0.00     0.167 HD
ATOM     67  C   UNL A   1      42.349  30.185  34.862  1.00  0.00     0.074 A 
ATOM     68  C   UNL A   1      42.731  30.723  36.151  1.00  0.00     0.031 C 
ATOM     69  C   UNL A   1      42.973  29.148  34.252  1.00  0.00     0.037 A 
BRANCH  56  70
ATOM     70  C   UNL A   1      40.495  27.573  28.815  1.00  0.00     0.057 A 
ATOM     71  C   UNL A   1      39.688  26.428  28.758  1.00  0.00     0.134 A 
ATOM     72  C   UNL A   1      41.300  27.849  27.704  1.00  0.00     0.134 A 
ATOM     73  F   UNL A   1      38.900  26.099  29.793  1.00  0.00    -0.206 F 
ATOM     74  C   UNL A   1      39.704  25.577  27.652  1.00  0.00     0.040 A 
ATOM     75  C   UNL A   1      41.302  27.021  26.579  1.00  0.00     0.040 A 
ATOM     76  F   UNL A   1      42.091  28.933  27.686  1.00  0.00    -0.206 F 
ATOM     77  C   UNL A   1      40.508  25.878  26.554  1.00  0.00     0.006 A 
ENDBRANCH  56  70
BRANCH  57  78
ATOM     78  C   UNL A   1      39.875  33.791  36.591  1.00  0.00     0.057 A 
ATOM     79  C   UNL A   1      39.041  33.473  37.668  1.00  0.00     0.134 A 
ATOM     80  C   UNL A   1      40.590  34.993  36.662  1.00  0.00     0.134 A 
ATOM     81  F   UNL A   1      38.315  32.346  37.652  1.00  0.00    -0.206 F 
ATOM     82  C   UNL A   1      38.903  34.328  38.765  1.00  0.00     0.040 A 
ATOM     83  C   UNL A   1      40.484  35.842  37.765  1.00  0.00     0.040 A 
ATOM     84  F   UNL A   1      41.412  35.353  35.666  1.00  0.00    -0.206 F 
ATOM     85  C   UNL A   1      39.630  35.515  38.816  1.00  0.00     0.006 A 
ENDBRANCH  57  78
BRANCH  69  86
ATOM     86  C   UNL A   1      44.161  28.550  34.952  1.00  0.00     0.057 A 
ATOM     87  C   UNL A   1      45.458  29.044  34.769  1.00  0.00     0.134 A 
ATOM     88  C   UNL A   1      43.996  27.488  35.851  1.00  0.00     0.134 A 
ATOM     89  F   UNL A   1      45.688  30.052  33.913  1.00  0.00    -0.206 F 
ATOM     90  C   UNL A   1      46.552  28.487  35.435  1.00  0.00     0.040 A 
ATOM     91  C   UNL A   1      45.077  26.942  36.544  1.00  0.00     0.040 A 
ATOM     92  F   UNL A   1      42.779  26.971  36.080  1.00  0.00    -0.206 F 
ATOM     93  C   UNL A   1      46.362  27.439  36.332  1.00  0.00     0.006 A 
ENDBRANCH  69  86
ENDBRANCH  43  44
ENDBRANCH  35  38
ENDBRANCH  33  34
ENDBRANCH  32  33
ENDBRANCH  31  32
ENDBRANCH  30  31
ENDBRANCH   3  30
TORSDOF 17
ENDMDL
MODEL 2
REMARK VINA RESULT:     -11.3      5.847     10.796
REMARK SMILES O=C(/C=C/c1ccc(NC(=O)CCc2nc(-c3cc(Br)cs3)no2)cc1)NCCCCNC(=O)c1ccc(-c2c3nc(c(-c4c(F)cccc4F)c4ccc([nH]4)c(-c4c(F)cccc4F)c4nc(c(-c5c(F)cccc5F)c5ccc2[nH]5)C=C4)C=C3)cc1
REMARK SMILES IDX 1 1 2 2 27 3 3 5 4 6 5 7 6 8 26 9 7 10 25 11 8 12 9 13 10 14
REMARK SMILES IDX 11 16 12 17 13 18 14 19 15 20 24 21 16 22 23 23 17 24 18 25
REMARK SMILES IDX 22 26 19 27 21 28 20 29 28 30 29 31 30 32 31 33 32 34 33 35
REMARK SMILES IDX 34 37 35 38 36 39 88 40 37 41 87 42 38 43 39 44 40 45 81 46
REMARK SMILES IDX 41 47 86 48 80 49 82 50 42 51 85 52 79 53 78 54 43 56 69 57
REMARK SMILES IDX 52 58 68 59 53 60 56 61 67 62 83 63 54 64 55 65 66 67 84 68
REMARK SMILES IDX 57 69 44 70 45 71 50 72 46 73 47 74 49 75 51 76 48 77 70 78
REMARK SMILES IDX 71 79 76 80 72 81 73 82 75 83 77 84 74 85 58 86 59 87 64 88
REMARK SMILES IDX 60 89 61 90 63 91 65 92 62 93
REMARK H PARENT 27 4 9 15 32 36 82 55 56 66
REMARK Flexibility Score: inf
ROOT
ATOM      1  O   UNL A   1      37.760  21.113  25.412  1.00  0.00    -0.270 OA
ATOM      2  C   UNL A   1      38.076  22.293  25.496  1.00  0.00     0.243 C 
ATOM      3  N   UNL A   1      39.170  22.754  26.190  1.00  0.00    -0.353 N 
ATOM      4  H   UNL A   1      39.376  23.717  26.166  1.00  0.00     0.163 HD
ENDROOT
BRANCH   2   5
ATOM      5  C   UNL A   1      37.189  23.332  24.903  1.00  0.00     0.072 C 
ATOM      6  C   UNL A   1      35.869  23.413  25.126  1.00  0.00     0.014 C 
BRANCH   6   7
ATOM      7  C   UNL A   1      34.945  24.384  24.524  1.00  0.00    -0.025 A 
ATOM      8  C   UNL A   1      34.606  25.503  25.288  1.00  0.00     0.010 A 
ATOM      9  C   UNL A   1      34.272  24.178  23.316  1.00  0.00     0.010 A 
ATOM     10  C   UNL A   1      33.552  26.339  24.911  1.00  0.00     0.027 A 
ATOM     11  C   UNL A   1      33.205  25.012  22.948  1.00  0.00     0.027 A 
ATOM     12  C   UNL A   1      32.779  26.043  23.796  1.00  0.00     0.041 A 
BRANCH  12  13
ATOM     13  N   UNL A   1      31.555  26.663  23.493  1.00  0.00    -0.326 N 
ATOM     14  C   UNL A   1      30.453  26.955  24.248  1.00  0.00     0.224 C 
ATOM     15  H   UNL A   1      31.475  26.943  22.552  1.00  0.00     0.169 HD
ATOM     16  O   UNL A   1      29.487  27.472  23.673  1.00  0.00    -0.275 OA
BRANCH  14  17
ATOM     17  C   UNL A   1      30.326  26.594  25.717  1.00  0.00     0.110 C 
BRANCH  17  18
ATOM     18  C   UNL A   1      29.805  25.193  26.041  1.00  0.00     0.110 C 
BRANCH  18  19
ATOM     19  C   UNL A   1      30.810  24.104  26.079  1.00  0.00     0.227 A 
ATOM     20  N   UNL A   1      31.092  23.168  25.197  1.00  0.00    -0.190 NA
ATOM     21  O   UNL A   1      31.611  24.062  27.182  1.00  0.00    -0.339 OA
ATOM     22  C   UNL A   1      32.060  22.438  25.853  1.00  0.00     0.212 A 
ATOM     23  N   UNL A   1      32.405  22.930  27.052  1.00  0.00    -0.056 NA
BRANCH  22  24
ATOM     24  C   UNL A   1      32.651  21.167  25.328  1.00  0.00     0.076 A 
ATOM     25  C   UNL A   1      32.082  20.433  24.305  1.00  0.00     0.039 A 
ATOM     26  S   UNL A   1      34.113  20.473  25.876  1.00  0.00    -0.139 S 
ATOM     27  C   UNL A   1      32.876  19.313  23.967  1.00  0.00     0.029 A 
ATOM     28  C   UNL A   1      33.962  19.153  24.789  1.00  0.00     0.081 A 
ATOM     29  Br  UNL A   1      32.450  18.189  22.516  1.00  0.00    -0.050 Br
ENDBRANCH  22  24
ENDBRANCH  18  19
ENDBRANCH  17  18
ENDBRANCH  14  17
ENDBRANCH  12  13
ENDBRANCH   6   7
ENDBRANCH   2   5
BRANCH   3  30
ATOM     30  C   UNL A   1      40.032  21.872  26.953  1.00  0.00     0.116 C 
BRANCH  30  31
ATOM     31  C   UNL A   1      41.282  21.446  26.185  1.00  0.00     0.023 C 
BRANCH  31  32
ATOM     32  C   UNL A   1      41.387  19.947  25.888  1.00  0.00     0.023 C 
BRANCH  32  33
ATOM     33  C   UNL A   1      42.740  19.304  26.188  1.00  0.00     0.116 C 
BRANCH  33  34
ATOM     34  N   UNL A   1      43.502  18.990  24.988  1.00  0.00    -0.352 N 
ATOM     35  C   UNL A   1      44.363  19.772  24.252  1.00  0.00     0.251 C 
ATOM     36  H   UNL A   1      43.383  18.073  24.650  1.00  0.00     0.163 HD
ATOM     37  O   UNL A   1      44.792  19.359  23.179  1.00  0.00    -0.269 OA
BRANCH  35  38
ATOM     38  C   UNL A   1      44.755  21.121  24.723  1.00  0.00     0.039 A 
ATOM     39  C   UNL A   1      44.487  22.224  23.905  1.00  0.00     0.014 A 
ATOM     40  C   UNL A   1      45.403  21.306  25.946  1.00  0.00     0.014 A 
ATOM     41  C   UNL A   1      44.797  23.513  24.348  1.00  0.00     0.010 A 
ATOM     42  C   UNL A   1      45.644  22.596  26.418  1.00  0.00     0.010 A 
ATOM     43  C   UNL A   1      45.340  23.715  25.627  1.00  0.00    -0.014 A 
BRANCH  43  44
ATOM     44  C   UNL A   1      45.577  25.085  26.157  1.00  0.00     0.031 A 
ATOM     45  C   UNL A   1      44.445  25.887  26.738  1.00  0.00     0.074 A 
ATOM     46  C   UNL A   1      46.804  25.636  26.057  1.00  0.00     0.049 A 
ATOM     47  N   UNL A   1      44.445  27.120  27.180  1.00  0.00    -0.248 NA
ATOM     48  C   UNL A   1      43.133  25.225  26.809  1.00  0.00     0.031 C 
ATOM     49  C   UNL A   1      47.979  24.983  25.477  1.00  0.00     0.029 A 
ATOM     50  N   UNL A   1      47.264  26.874  26.431  1.00  0.00    -0.354 N 
ATOM     51  C   UNL A   1      43.139  27.383  27.573  1.00  0.00     0.074 A 
ATOM     52  C   UNL A   1      42.361  26.202  27.264  1.00  0.00     0.031 C 
ATOM     53  C   UNL A   1      49.027  25.819  25.550  1.00  0.00     0.029 A 
ATOM     54  C   UNL A   1      48.592  27.080  26.141  1.00  0.00     0.049 A 
ATOM     55  H   UNL A   1      46.696  27.551  26.865  1.00  0.00     0.167 HD
ATOM     56  C   UNL A   1      42.635  28.495  28.160  1.00  0.00     0.037 A 
ATOM     57  C   UNL A   1      49.370  28.166  26.319  1.00  0.00     0.037 A 
ATOM     58  C   UNL A   1      43.411  29.667  28.478  1.00  0.00     0.049 A 
ATOM     59  C   UNL A   1      48.782  29.398  26.949  1.00  0.00     0.074 A 
ATOM     60  C   UNL A   1      43.001  30.825  29.115  1.00  0.00     0.029 A 
ATOM     61  N   UNL A   1      44.756  29.830  28.179  1.00  0.00    -0.354 N 
ATOM     62  N   UNL A   1      47.559  29.608  27.373  1.00  0.00    -0.248 NA
ATOM     63  C   UNL A   1      49.685  30.544  27.133  1.00  0.00     0.031 C 
ATOM     64  C   UNL A   1      44.083  31.711  29.154  1.00  0.00     0.029 A 
ATOM     65  C   UNL A   1      45.184  31.082  28.596  1.00  0.00     0.049 A 
ATOM     66  H   UNL A   1      45.322  29.158  27.736  1.00  0.00     0.167 HD
ATOM     67  C   UNL A   1      47.554  30.893  27.899  1.00  0.00     0.074 A 
ATOM     68  C   UNL A   1      48.899  31.410  27.755  1.00  0.00     0.031 C 
ATOM     69  C   UNL A   1      46.527  31.584  28.452  1.00  0.00     0.037 A 
BRANCH  56  70
ATOM     70  C   UNL A   1      41.172  28.499  28.500  1.00  0.00     0.057 A 
ATOM     71  C   UNL A   1      40.202  28.921  27.580  1.00  0.00     0.134 A 
ATOM     72  C   UNL A   1      40.722  28.042  29.744  1.00  0.00     0.134 A 
ATOM     73  F   UNL A   1      40.564  29.381  26.372  1.00  0.00    -0.206 F 
ATOM     74  C   UNL A   1      38.842  28.914  27.895  1.00  0.00     0.040 A 
ATOM     75  C   UNL A   1      39.362  28.002  30.061  1.00  0.00     0.040 A 
ATOM     76  F   UNL A   1      41.595  27.616  30.670  1.00  0.00    -0.206 F 
ATOM     77  C   UNL A   1      38.419  28.446  29.138  1.00  0.00     0.006 A 
ENDBRANCH  56  70
BRANCH  57  78
ATOM     78  C   UNL A   1      50.796  28.135  25.903  1.00  0.00     0.057 A 
ATOM     79  C   UNL A   1      51.159  28.254  24.557  1.00  0.00     0.134 A 
ATOM     80  C   UNL A   1      51.827  27.969  26.836  1.00  0.00     0.134 A 
ATOM     81  F   UNL A   1      50.218  28.395  23.612  1.00  0.00    -0.206 F 
ATOM     82  C   UNL A   1      52.494  28.188  24.150  1.00  0.00     0.040 A 
ATOM     83  C   UNL A   1      53.167  27.931  26.446  1.00  0.00     0.040 A 
ATOM     84  F   UNL A   1      51.547  27.856  28.143  1.00  0.00    -0.206 F 
ATOM     85  C   UNL A   1      53.503  28.030  25.098  1.00  0.00     0.006 A 
ENDBRANCH  57  78
BRANCH  69  86
ATOM     86  C   UNL A   1      46.824  32.959  28.981  1.00  0.00     0.057 A 
ATOM     87  C   UNL A   1      46.670  34.107  28.193  1.00  0.00     0.134 A 
ATOM     88  C   UNL A   1      47.234  33.137  30.308  1.00  0.00     0.134 A 
ATOM     89  F   UNL A   1      46.292  34.006  26.910  1.00  0.00    -0.206 F 
ATOM     90  C   UNL A   1      46.937  35.380  28.700  1.00  0.00     0.040 A 
ATOM     91  C   UNL A   1      47.475  34.407  30.835  1.00  0.00     0.040 A 
ATOM     92  F   UNL A   1      47.393  32.081  31.121  1.00  0.00    -0.206 F 
ATOM     93  C   UNL A   1      47.333  35.533  30.027  1.00  0.00     0.006 A 
ENDBRANCH  69  86
ENDBRANCH  43  44
ENDBRANCH  35  38
ENDBRANCH  33  34
ENDBRANCH  32  33
ENDBRANCH  31  32
ENDBRANCH  30  31
ENDBRANCH   3  30
TORSDOF 17
ENDMDL
MODEL 3
REMARK VINA RESULT:     -11.3      6.794     13.052
REMARK SMILES O=C(/C=C/c1ccc(NC(=O)CCc2nc(-c3cc(Br)cs3)no2)cc1)NCCCCNC(=O)c1ccc(-c2c3nc(c(-c4c(F)cccc4F)c4ccc([nH]4)c(-c4c(F)cccc4F)c4nc(c(-c5c(F)cccc5F)c5ccc2[nH]5)C=C4)C=C3)cc1
REMARK SMILES IDX 1 1 2 2 27 3 3 5 4 6 5 7 6 8 26 9 7 10 25 11 8 12 9 13 10 14
REMARK SMILES IDX 11 16 12 17 13 18 14 19 15 20 24 21 16 22 23 23 17 24 18 25
REMARK SMILES IDX 22 26 19 27 21 28 20 29 28 30 29 31 30 32 31 33 32 34 33 35
REMARK SMILES IDX 34 37 35 38 36 39 88 40 37 41 87 42 38 43 39 44 40 45 81 46
REMARK SMILES IDX 41 47 86 48 80 49 82 50 42 51 85 52 79 53 78 54 43 56 69 57
REMARK SMILES IDX 52 58 68 59 53 60 56 61 67 62 83 63 54 64 55 65 66 67 84 68
REMARK SMILES IDX 57 69 44 70 45 71 50 72 46 73 47 74 49 75 51 76 48 77 70 78
REMARK SMILES IDX 71 79 76 80 72 81 73 82 75 83 77 84 74 85 58 86 59 87 64 88
REMARK SMILES IDX 60 89 61 90 63 91 65 92 62 93
REMARK H PARENT 27 4 9 15 32 36 82 55 56 66
REMARK Flexibility Score: inf
ROOT
ATOM      1  O   UNL A   1      47.213  25.197  24.231  1.00  0.00    -0.270 OA
ATOM      2  C   UNL A   1      46.203  25.022  24.901  1.00  0.00     0.243 C 
ATOM      3  N   UNL A   1      45.534  23.824  24.994  1.00  0.00    -0.353 N 
ATOM      4  H   UNL A   1      44.756  23.760  25.593  1.00  0.00     0.163 HD
ENDROOT
BRANCH   2   5
ATOM      5  C   UNL A   1      45.577  26.179  25.597  1.00  0.00     0.072 C 
ATOM      6  C   UNL A   1      46.188  27.354  25.805  1.00  0.00     0.014 C 
BRANCH   6   7
ATOM      7  C   UNL A   1      45.633  28.505  26.530  1.00  0.00    -0.025 A 
ATOM      8  C   UNL A   1      44.242  28.624  26.575  1.00  0.00     0.010 A 
ATOM      9  C   UNL A   1      46.404  29.557  27.035  1.00  0.00     0.010 A 
ATOM     10  C   UNL A   1      43.634  29.802  27.014  1.00  0.00     0.027 A 
ATOM     11  C   UNL A   1      45.790  30.745  27.461  1.00  0.00     0.027 A 
ATOM     12  C   UNL A   1      44.401  30.906  27.363  1.00  0.00     0.041 A 
BRANCH  12  13
ATOM     13  N   UNL A   1      43.887  32.199  27.558  1.00  0.00    -0.326 N 
ATOM     14  C   UNL A   1      43.987  33.354  26.834  1.00  0.00     0.224 C 
ATOM     15  H   UNL A   1      43.348  32.292  28.378  1.00  0.00     0.169 HD
ATOM     16  O   UNL A   1      43.453  34.369  27.299  1.00  0.00    -0.275 OA
BRANCH  14  17
ATOM     17  C   UNL A   1      44.791  33.471  25.551  1.00  0.00     0.110 C 
BRANCH  17  18
ATOM     18  C   UNL A   1      46.016  34.385  25.584  1.00  0.00     0.110 C 
BRANCH  18  19
ATOM     19  C   UNL A   1      47.157  33.935  26.416  1.00  0.00     0.227 A 
ATOM     20  N   UNL A   1      48.073  33.016  26.189  1.00  0.00    -0.190 NA
ATOM     21  O   UNL A   1      47.331  34.584  27.602  1.00  0.00    -0.339 OA
ATOM     22  C   UNL A   1      48.793  33.032  27.364  1.00  0.00     0.212 A 
ATOM     23  N   UNL A   1      48.385  33.953  28.250  1.00  0.00    -0.056 NA
BRANCH  22  24
ATOM     24  C   UNL A   1      49.900  32.076  27.682  1.00  0.00     0.076 A 
ATOM     25  C   UNL A   1      50.185  30.964  26.912  1.00  0.00     0.039 A 
ATOM     26  S   UNL A   1      50.982  32.240  28.994  1.00  0.00    -0.139 S 
ATOM     27  C   UNL A   1      51.315  30.270  27.403  1.00  0.00     0.029 A 
ATOM     28  C   UNL A   1      51.801  30.790  28.575  1.00  0.00     0.081 A 
ATOM     29  Br  UNL A   1      52.049  28.791  26.496  1.00  0.00    -0.050 Br
ENDBRANCH  22  24
ENDBRANCH  18  19
ENDBRANCH  17  18
ENDBRANCH  14  17
ENDBRANCH  12  13
ENDBRANCH   6   7
ENDBRANCH   2   5
BRANCH   3  30
ATOM     30  C   UNL A   1      45.935  22.651  24.240  1.00  0.00     0.116 C 
BRANCH  30  31
ATOM     31  C   UNL A   1      45.880  21.364  25.062  1.00  0.00     0.023 C 
BRANCH  31  32
ATOM     32  C   UNL A   1      44.989  20.259  24.486  1.00  0.00     0.023 C 
BRANCH  32  33
ATOM     33  C   UNL A   1      44.442  19.254  25.498  1.00  0.00     0.116 C 
BRANCH  33  34
ATOM     34  N   UNL A   1      43.021  18.988  25.328  1.00  0.00    -0.352 N 
ATOM     35  C   UNL A   1      41.925  19.701  25.758  1.00  0.00     0.251 C 
ATOM     36  H   UNL A   1      42.810  18.167  24.826  1.00  0.00     0.163 HD
ATOM     37  O   UNL A   1      40.802  19.222  25.637  1.00  0.00    -0.269 OA
BRANCH  35  38
ATOM     38  C   UNL A   1      42.085  21.030  26.394  1.00  0.00     0.039 A 
ATOM     39  C   UNL A   1      42.050  21.117  27.789  1.00  0.00     0.014 A 
ATOM     40  C   UNL A   1      42.245  22.188  25.630  1.00  0.00     0.014 A 
ATOM     41  C   UNL A   1      42.253  22.349  28.417  1.00  0.00     0.010 A 
ATOM     42  C   UNL A   1      42.521  23.402  26.258  1.00  0.00     0.010 A 
ATOM     43  C   UNL A   1      42.533  23.497  27.658  1.00  0.00    -0.014 A 
BRANCH  43  44
ATOM     44  C   UNL A   1      42.856  24.794  28.312  1.00  0.00     0.031 A 
ATOM     45  C   UNL A   1      41.790  25.837  28.509  1.00  0.00     0.074 A 
ATOM     46  C   UNL A   1      44.128  25.061  28.673  1.00  0.00     0.049 A 
ATOM     47  N   UNL A   1      41.898  27.051  28.990  1.00  0.00    -0.248 NA
ATOM     48  C   UNL A   1      40.427  25.481  28.086  1.00  0.00     0.031 C 
ATOM     49  C   UNL A   1      45.264  24.154  28.499  1.00  0.00     0.029 A 
ATOM     50  N   UNL A   1      44.680  26.177  29.250  1.00  0.00    -0.354 N 
ATOM     51  C   UNL A   1      40.625  27.602  28.922  1.00  0.00     0.074 A 
ATOM     52  C   UNL A   1      39.772  26.612  28.299  1.00  0.00     0.031 C 
ATOM     53  C   UNL A   1      46.372  24.742  28.976  1.00  0.00     0.029 A 
ATOM     54  C   UNL A   1      46.037  26.081  29.448  1.00  0.00     0.049 A 
ATOM     55  H   UNL A   1      44.155  26.972  29.497  1.00  0.00     0.167 HD
ATOM     56  C   UNL A   1      40.197  28.810  29.359  1.00  0.00     0.037 A 
ATOM     57  C   UNL A   1      46.916  26.975  29.944  1.00  0.00     0.037 A 
ATOM     58  C   UNL A   1      41.043  29.791  29.990  1.00  0.00     0.049 A 
ATOM     59  C   UNL A   1      46.422  28.321  30.399  1.00  0.00     0.074 A 
ATOM     60  C   UNL A   1      40.693  31.026  30.508  1.00  0.00     0.029 A 
ATOM     61  N   UNL A   1      42.410  29.650  30.183  1.00  0.00    -0.354 N 
ATOM     62  N   UNL A   1      45.202  28.802  30.385  1.00  0.00    -0.248 NA
ATOM     63  C   UNL A   1      47.425  29.245  30.946  1.00  0.00     0.031 C 
ATOM     64  C   UNL A   1      41.856  31.655  30.967  1.00  0.00     0.029 A 
ATOM     65  C   UNL A   1      42.921  30.787  30.791  1.00  0.00     0.049 A 
ATOM     66  H   UNL A   1      42.938  28.861  29.927  1.00  0.00     0.167 HD
ATOM     67  C   UNL A   1      45.287  30.070  30.947  1.00  0.00     0.074 A 
ATOM     68  C   UNL A   1      46.675  30.277  31.305  1.00  0.00     0.031 C 
ATOM     69  C   UNL A   1      44.303  30.980  31.148  1.00  0.00     0.037 A 
BRANCH  56  70
ATOM     70  C   UNL A   1      38.744  29.142  29.172  1.00  0.00     0.057 A 
ATOM     71  C   UNL A   1      37.823  29.047  30.224  1.00  0.00     0.134 A 
ATOM     72  C   UNL A   1      38.265  29.599  27.937  1.00  0.00     0.134 A 
ATOM     73  F   UNL A   1      38.212  28.607  31.430  1.00  0.00    -0.206 F 
ATOM     74  C   UNL A   1      36.475  29.367  30.048  1.00  0.00     0.040 A 
ATOM     75  C   UNL A   1      36.926  29.950  27.757  1.00  0.00     0.040 A 
ATOM     76  F   UNL A   1      39.093  29.723  26.889  1.00  0.00    -0.206 F 
ATOM     77  C   UNL A   1      36.026  29.827  28.812  1.00  0.00     0.006 A 
ENDBRANCH  56  70
BRANCH  57  78
ATOM     78  C   UNL A   1      48.357  26.623  30.045  1.00  0.00     0.057 A 
ATOM     79  C   UNL A   1      49.252  26.941  29.018  1.00  0.00     0.134 A 
ATOM     80  C   UNL A   1      48.867  25.948  31.160  1.00  0.00     0.134 A 
ATOM     81  F   UNL A   1      48.820  27.570  27.915  1.00  0.00    -0.206 F 
ATOM     82  C   UNL A   1      50.600  26.582  29.085  1.00  0.00     0.040 A 
ATOM     83  C   UNL A   1      50.218  25.609  31.254  1.00  0.00     0.040 A 
ATOM     84  F   UNL A   1      48.064  25.620  32.183  1.00  0.00    -0.206 F 
ATOM     85  C   UNL A   1      51.087  25.917  30.209  1.00  0.00     0.006 A 
ENDBRANCH  57  78
BRANCH  69  86
ATOM     86  C   UNL A   1      44.682  32.269  31.821  1.00  0.00     0.057 A 
ATOM     87  C   UNL A   1      45.220  33.349  31.109  1.00  0.00     0.134 A 
ATOM     88  C   UNL A   1      44.470  32.443  33.195  1.00  0.00     0.134 A 
ATOM     89  F   UNL A   1      45.461  33.245  29.794  1.00  0.00    -0.206 F 
ATOM     90  C   UNL A   1      45.557  34.546  31.745  1.00  0.00     0.040 A 
ATOM     91  C   UNL A   1      44.775  33.645  33.835  1.00  0.00     0.040 A 
ATOM     92  F   UNL A   1      43.950  31.452  33.935  1.00  0.00    -0.206 F 
ATOM     93  C   UNL A   1      45.327  34.699  33.110  1.00  0.00     0.006 A 
ENDBRANCH  69  86
ENDBRANCH  43  44
ENDBRANCH  35  38
ENDBRANCH  33  34
ENDBRANCH  32  33
ENDBRANCH  31  32
ENDBRANCH  30  31
ENDBRANCH   3  30
TORSDOF 17
ENDMDL
