MODEL 1
REMARK VINA RESULT:     -13.0      0.000      0.000
REMARK SMILES Cc1ccc(-c2cc(Cl)cc3c2O[C@H](C(F)(F)F)C(C(=O)NCCCCNC(=O)c2ccc(-c4c5nc(c(-c6c(F)cccc6F)c6ccc([nH]6)c(-c6c(F)cccc6F)c6nc(c(-c7c(F)cccc7F)c7ccc4[nH]7)C=C6)C=C5)cc2)=C3)cc1F
REMARK SMILES IDX 25 1 24 2 23 3 22 4 20 5 21 6 19 8 6 9 7 10 12 11 8 12 11 13
REMARK SMILES IDX 13 14 9 15 10 16 84 17 14 18 5 19 1 20 2 21 3 22 86 23 4 24
REMARK SMILES IDX 85 25 87 26 15 27 16 28 17 29 18 30 26 31 27 32 28 33 29 35
REMARK SMILES IDX 30 36 31 37 83 38 32 39 82 40 33 41 34 42 35 43 76 44 36 45
REMARK SMILES IDX 81 46 75 47 77 48 37 49 80 50 74 51 73 52 38 54 64 55 47 56
REMARK SMILES IDX 63 57 48 58 51 59 62 60 78 61 49 62 50 63 61 65 79 66 52 67
REMARK SMILES IDX 39 68 40 69 45 70 41 71 42 72 44 73 46 74 43 75 65 76 66 77
REMARK SMILES IDX 71 78 67 79 68 80 70 81 72 82 69 83 53 84 54 85 59 86 55 87
REMARK SMILES IDX 56 88 58 89 60 90 57 91
REMARK H PARENT 22 7 27 34 77 53 51 64
REMARK Flexibility Score: inf
ROOT
ATOM      1  C   UNL A   1      38.026  21.719  25.274  1.00  0.00     0.023 C 
ENDROOT
BRANCH   1   2
ATOM      2  C   UNL A   1      36.758  21.047  25.775  1.00  0.00     0.023 C 
BRANCH   2   3
ATOM      3  C   UNL A   1      35.852  20.719  24.608  1.00  0.00     0.116 C 
BRANCH   3   4
ATOM      4  N   UNL A   1      34.504  20.472  25.080  1.00  0.00    -0.352 N 
ATOM      5  C   UNL A   1      33.344  21.156  25.156  1.00  0.00     0.251 C 
ATOM      6  O   UNL A   1      32.417  20.572  25.726  1.00  0.00    -0.270 OA
ATOM      7  H   UNL A   1      34.409  19.561  25.440  1.00  0.00     0.163 HD
BRANCH   5   8
ATOM      8  C   UNL A   1      33.135  22.514  24.590  1.00  0.00     0.067 C 
ATOM      9  C   UNL A   1      32.567  26.321  22.926  1.00  0.00     0.026 A 
ATOM     10  C   UNL A   1      32.572  26.454  21.533  1.00  0.00     0.033 A 
ATOM     11  C   UNL A   1      32.659  25.022  23.458  1.00  0.00     0.135 A 
ATOM     12  C   UNL A   1      32.672  25.323  20.715  1.00  0.00     0.042 A 
ATOM     13  C   UNL A   1      32.779  23.890  22.647  1.00  0.00     0.019 A 
ATOM     14  O   UNL A   1      32.561  24.910  24.817  1.00  0.00    -0.475 OA
ATOM     15  Cl  UNL A   1      32.670  25.508  19.005  1.00  0.00    -0.084 Cl
ATOM     16  C   UNL A   1      32.778  24.043  21.263  1.00  0.00     0.032 A 
ATOM     17  C   UNL A   1      32.901  22.576  23.266  1.00  0.00     0.025 C 
ATOM     18  C   UNL A   1      33.213  23.768  25.405  1.00  0.00     0.314 C 
BRANCH   9  19
ATOM     19  C   UNL A   1      32.482  27.487  23.821  1.00  0.00    -0.012 A 
ATOM     20  C   UNL A   1      32.179  30.665  26.744  1.00  0.00     0.047 C 
ATOM     21  C   UNL A   1      32.271  29.580  25.716  1.00  0.00    -0.015 A 
ATOM     22  C   UNL A   1      31.167  29.206  24.945  1.00  0.00     0.007 A 
ATOM     23  C   UNL A   1      33.477  28.907  25.523  1.00  0.00     0.126 A 
ATOM     24  C   UNL A   1      31.272  28.171  24.007  1.00  0.00     0.009 A 
ATOM     25  C   UNL A   1      33.592  27.884  24.587  1.00  0.00     0.048 A 
ATOM     26  F   UNL A   1      34.548  29.231  26.263  1.00  0.00    -0.207 F 
ENDBRANCH   9  19
BRANCH  18  27
ATOM     27  C   UNL A   1      34.650  24.150  25.815  1.00  0.00     0.429 C 
ATOM     28  F   UNL A   1      34.704  25.454  26.185  1.00  0.00    -0.167 F 
ATOM     29  F   UNL A   1      35.107  23.437  26.871  1.00  0.00    -0.167 F 
ATOM     30  F   UNL A   1      35.541  23.976  24.813  1.00  0.00    -0.167 F 
ENDBRANCH  18  27
ENDBRANCH   5   8
ENDBRANCH   3   4
ENDBRANCH   2   3
ENDBRANCH   1   2
BRANCH   1  31
ATOM     31  C   UNL A   1      38.424  22.982  26.043  1.00  0.00     0.116 C 
BRANCH  31  32
ATOM     32  N   UNL A   1      39.847  23.187  26.301  1.00  0.00    -0.352 N 
ATOM     33  C   UNL A   1      40.580  24.096  27.029  1.00  0.00     0.251 C 
ATOM     34  H   UNL A   1      40.412  22.519  25.850  1.00  0.00     0.163 HD
ATOM     35  O   UNL A   1      41.753  23.842  27.257  1.00  0.00    -0.269 OA
BRANCH  33  36
ATOM     36  C   UNL A   1      40.055  25.441  27.344  1.00  0.00     0.039 A 
ATOM     37  C   UNL A   1      40.418  26.593  26.656  1.00  0.00     0.014 A 
ATOM     38  C   UNL A   1      39.333  25.538  28.540  1.00  0.00     0.014 A 
ATOM     39  C   UNL A   1      40.399  27.809  27.323  1.00  0.00     0.010 A 
ATOM     40  C   UNL A   1      39.216  26.765  29.163  1.00  0.00     0.010 A 
ATOM     41  C   UNL A   1      39.858  27.874  28.610  1.00  0.00    -0.014 A 
BRANCH  41  42
ATOM     42  C   UNL A   1      39.879  29.104  29.389  1.00  0.00     0.031 A 
ATOM     43  C   UNL A   1      38.838  30.121  29.138  1.00  0.00     0.074 A 
ATOM     44  C   UNL A   1      40.903  29.371  30.233  1.00  0.00     0.049 A 
ATOM     45  N   UNL A   1      39.016  31.394  29.237  1.00  0.00    -0.248 NA
ATOM     46  C   UNL A   1      37.522  29.765  28.614  1.00  0.00     0.031 C 
ATOM     47  C   UNL A   1      40.998  30.454  31.198  1.00  0.00     0.029 A 
ATOM     48  N   UNL A   1      42.178  28.808  30.239  1.00  0.00    -0.354 N 
ATOM     49  C   UNL A   1      37.776  31.987  29.130  1.00  0.00     0.074 A 
ATOM     50  C   UNL A   1      36.938  30.966  28.555  1.00  0.00     0.031 C 
ATOM     51  C   UNL A   1      42.287  30.638  31.533  1.00  0.00     0.029 A 
ATOM     52  C   UNL A   1      43.091  29.784  30.677  1.00  0.00     0.049 A 
ATOM     53  H   UNL A   1      42.403  27.884  29.979  1.00  0.00     0.167 HD
ATOM     54  C   UNL A   1      37.575  33.196  29.731  1.00  0.00     0.037 A 
ATOM     55  C   UNL A   1      44.132  30.221  29.900  1.00  0.00     0.037 A 
ATOM     56  C   UNL A   1      38.842  33.719  30.247  1.00  0.00     0.049 A 
ATOM     57  C   UNL A   1      44.077  31.689  29.593  1.00  0.00     0.074 A 
ATOM     58  C   UNL A   1      39.413  33.676  31.508  1.00  0.00     0.029 A 
ATOM     59  N   UNL A   1      39.848  34.103  29.367  1.00  0.00    -0.354 N 
ATOM     60  N   UNL A   1      42.972  32.379  29.625  1.00  0.00    -0.248 NA
ATOM     61  C   UNL A   1      45.237  32.495  29.230  1.00  0.00     0.031 C 
ATOM     62  C   UNL A   1      40.790  33.975  31.374  1.00  0.00     0.029 A 
ATOM     63  C   UNL A   1      41.048  34.235  30.038  1.00  0.00     0.049 A 
ATOM     64  H   UNL A   1      39.722  34.259  28.403  1.00  0.00     0.167 HD
ATOM     65  C   UNL A   1      43.247  33.689  29.337  1.00  0.00     0.074 A 
ATOM     66  C   UNL A   1      44.678  33.711  29.094  1.00  0.00     0.031 C 
ATOM     67  C   UNL A   1      42.264  34.635  29.343  1.00  0.00     0.037 A 
BRANCH  54  68
ATOM     68  C   UNL A   1      36.226  33.749  30.172  1.00  0.00     0.057 A 
ATOM     69  C   UNL A   1      35.292  34.185  29.206  1.00  0.00     0.134 A 
ATOM     70  C   UNL A   1      35.805  33.970  31.496  1.00  0.00     0.134 A 
ATOM     71  F   UNL A   1      35.481  33.975  27.896  1.00  0.00    -0.206 F 
ATOM     72  C   UNL A   1      34.108  34.867  29.526  1.00  0.00     0.040 A 
ATOM     73  C   UNL A   1      34.633  34.666  31.832  1.00  0.00     0.040 A 
ATOM     74  F   UNL A   1      36.470  33.497  32.550  1.00  0.00    -0.206 F 
ATOM     75  C   UNL A   1      33.785  35.133  30.846  1.00  0.00     0.006 A 
ENDBRANCH  54  68
BRANCH  55  76
ATOM     76  C   UNL A   1      44.657  29.192  28.958  1.00  0.00     0.057 A 
ATOM     77  C   UNL A   1      44.324  29.351  27.603  1.00  0.00     0.134 A 
ATOM     78  C   UNL A   1      45.913  28.664  29.257  1.00  0.00     0.134 A 
ATOM     79  F   UNL A   1      43.095  29.762  27.257  1.00  0.00    -0.206 F 
ATOM     80  C   UNL A   1      45.295  29.265  26.605  1.00  0.00     0.040 A 
ATOM     81  C   UNL A   1      46.907  28.702  28.285  1.00  0.00     0.040 A 
ATOM     82  F   UNL A   1      46.267  28.397  30.523  1.00  0.00    -0.206 F 
ATOM     83  C   UNL A   1      46.614  29.033  26.965  1.00  0.00     0.006 A 
ENDBRANCH  55  76
BRANCH  67  84
ATOM     84  C   UNL A   1      42.377  36.045  28.823  1.00  0.00     0.057 A 
ATOM     85  C   UNL A   1      43.029  37.087  29.496  1.00  0.00     0.134 A 
ATOM     86  C   UNL A   1      41.933  36.363  27.518  1.00  0.00     0.134 A 
ATOM     87  F   UNL A   1      43.613  36.902  30.687  1.00  0.00    -0.206 F 
ATOM     88  C   UNL A   1      43.167  38.368  28.943  1.00  0.00     0.040 A 
ATOM     89  C   UNL A   1      42.119  37.618  26.934  1.00  0.00     0.040 A 
ATOM     90  F   UNL A   1      41.321  35.461  26.737  1.00  0.00    -0.206 F 
ATOM     91  C   UNL A   1      42.722  38.635  27.655  1.00  0.00     0.006 A 
ENDBRANCH  67  84
ENDBRANCH  41  42
ENDBRANCH  33  36
ENDBRANCH  31  32
ENDBRANCH   1  31
TORSDOF 13
ENDMDL
MODEL 2
REMARK VINA RESULT:     -12.9      3.735      8.993
REMARK SMILES Cc1ccc(-c2cc(Cl)cc3c2O[C@H](C(F)(F)F)C(C(=O)NCCCCNC(=O)c2ccc(-c4c5nc(c(-c6c(F)cccc6F)c6ccc([nH]6)c(-c6c(F)cccc6F)c6nc(c(-c7c(F)cccc7F)c7ccc4[nH]7)C=C6)C=C5)cc2)=C3)cc1F
REMARK SMILES IDX 25 1 24 2 23 3 22 4 20 5 21 6 19 8 6 9 7 10 12 11 8 12 11 13
REMARK SMILES IDX 13 14 9 15 10 16 84 17 14 18 5 19 1 20 2 21 3 22 86 23 4 24
REMARK SMILES IDX 85 25 87 26 15 27 16 28 17 29 18 30 26 31 27 32 28 33 29 35
REMARK SMILES IDX 30 36 31 37 83 38 32 39 82 40 33 41 34 42 35 43 76 44 36 45
REMARK SMILES IDX 81 46 75 47 77 48 37 49 80 50 74 51 73 52 38 54 64 55 47 56
REMARK SMILES IDX 63 57 48 58 51 59 62 60 78 61 49 62 50 63 61 65 79 66 52 67
REMARK SMILES IDX 39 68 40 69 45 70 41 71 42 72 44 73 46 74 43 75 65 76 66 77
REMARK SMILES IDX 71 78 67 79 68 80 70 81 72 82 69 83 53 84 54 85 59 86 55 87
REMARK SMILES IDX 56 88 58 89 60 90 57 91
REMARK H PARENT 22 7 27 34 77 53 51 64
REMARK Flexibility Score: inf
ROOT
ATOM      1  C   UNL A   1      33.309  28.750  27.188  1.00  0.00     0.023 C 
ENDROOT
BRANCH   1   2
ATOM      2  C   UNL A   1      31.898  28.189  27.263  1.00  0.00     0.023 C 
BRANCH   2   3
ATOM      3  C   UNL A   1      31.822  26.879  26.511  1.00  0.00     0.116 C 
BRANCH   3   4
ATOM      4  N   UNL A   1      32.312  27.055  25.157  1.00  0.00    -0.352 N 
ATOM      5  C   UNL A   1      33.131  26.399  24.310  1.00  0.00     0.251 C 
ATOM      6  O   UNL A   1      33.346  26.962  23.233  1.00  0.00    -0.270 OA
ATOM      7  H   UNL A   1      31.949  27.873  24.746  1.00  0.00     0.163 HD
BRANCH   5   8
ATOM      8  C   UNL A   1      33.741  25.075  24.596  1.00  0.00     0.067 C 
ATOM      9  C   UNL A   1      35.528  21.366  25.394  1.00  0.00     0.026 A 
ATOM     10  C   UNL A   1      36.901  21.323  25.653  1.00  0.00     0.033 A 
ATOM     11  C   UNL A   1      34.934  22.630  25.228  1.00  0.00     0.135 A 
ATOM     12  C   UNL A   1      37.643  22.507  25.736  1.00  0.00     0.042 A 
ATOM     13  C   UNL A   1      35.672  23.816  25.290  1.00  0.00     0.019 A 
ATOM     14  O   UNL A   1      33.576  22.650  25.066  1.00  0.00    -0.475 OA
ATOM     15  Cl  UNL A   1      39.330  22.433  26.063  1.00  0.00    -0.084 Cl
ATOM     16  C   UNL A   1      37.038  23.752  25.553  1.00  0.00     0.032 A 
ATOM     17  C   UNL A   1      34.997  25.090  25.079  1.00  0.00     0.025 C 
ATOM     18  C   UNL A   1      33.045  23.774  24.336  1.00  0.00     0.314 C 
BRANCH   9  19
ATOM     19  C   UNL A   1      34.717  20.142  25.281  1.00  0.00    -0.012 A 
ATOM     20  C   UNL A   1      32.235  16.663  24.590  1.00  0.00     0.047 C 
ATOM     21  C   UNL A   1      33.086  17.867  24.853  1.00  0.00    -0.015 A 
ATOM     22  C   UNL A   1      32.594  18.972  25.556  1.00  0.00     0.007 A 
ATOM     23  C   UNL A   1      34.396  17.908  24.380  1.00  0.00     0.126 A 
ATOM     24  C   UNL A   1      33.401  20.096  25.767  1.00  0.00     0.009 A 
ATOM     25  C   UNL A   1      35.208  19.019  24.594  1.00  0.00     0.048 A 
ATOM     26  F   UNL A   1      34.888  16.871  23.685  1.00  0.00    -0.207 F 
ENDBRANCH   9  19
BRANCH  18  27
ATOM     27  C   UNL A   1      32.944  23.415  22.840  1.00  0.00     0.429 C 
ATOM     28  F   UNL A   1      32.125  24.286  22.200  1.00  0.00    -0.167 F 
ATOM     29  F   UNL A   1      34.135  23.474  22.200  1.00  0.00    -0.167 F 
ATOM     30  F   UNL A   1      32.454  22.172  22.634  1.00  0.00    -0.167 F 
ENDBRANCH  18  27
ENDBRANCH   5   8
ENDBRANCH   3   4
ENDBRANCH   2   3
ENDBRANCH   1   2
BRANCH   1  31
ATOM     31  C   UNL A   1      33.382  30.268  26.997  1.00  0.00     0.116 C 
BRANCH  31  32
ATOM     32  N   UNL A   1      33.851  31.061  28.130  1.00  0.00    -0.352 N 
ATOM     33  C   UNL A   1      35.064  31.236  28.757  1.00  0.00     0.251 C 
ATOM     34  H   UNL A   1      33.134  31.597  28.539  1.00  0.00     0.163 HD
ATOM     35  O   UNL A   1      35.187  32.177  29.526  1.00  0.00    -0.269 OA
BRANCH  33  36
ATOM     36  C   UNL A   1      36.124  30.208  28.694  1.00  0.00     0.039 A 
ATOM     37  C   UNL A   1      36.512  29.429  29.778  1.00  0.00     0.014 A 
ATOM     38  C   UNL A   1      36.895  30.212  27.525  1.00  0.00     0.014 A 
ATOM     39  C   UNL A   1      37.817  28.967  29.842  1.00  0.00     0.010 A 
ATOM     40  C   UNL A   1      38.160  29.660  27.546  1.00  0.00     0.010 A 
ATOM     41  C   UNL A   1      38.662  29.149  28.743  1.00  0.00    -0.014 A 
BRANCH  41  42
ATOM     42  C   UNL A   1      40.063  28.754  28.779  1.00  0.00     0.031 A 
ATOM     43  C   UNL A   1      40.417  27.362  28.434  1.00  0.00     0.074 A 
ATOM     44  C   UNL A   1      41.009  29.603  29.244  1.00  0.00     0.049 A 
ATOM     45  N   UNL A   1      41.393  26.702  28.957  1.00  0.00    -0.248 NA
ATOM     46  C   UNL A   1      39.588  26.553  27.545  1.00  0.00     0.031 C 
ATOM     47  C   UNL A   1      42.452  29.437  29.192  1.00  0.00     0.029 A 
ATOM     48  N   UNL A   1      40.832  30.724  30.053  1.00  0.00    -0.354 N 
ATOM     49  C   UNL A   1      41.524  25.534  28.236  1.00  0.00     0.074 A 
ATOM     50  C   UNL A   1      40.279  25.409  27.524  1.00  0.00     0.031 C 
ATOM     51  C   UNL A   1      43.024  30.248  30.098  1.00  0.00     0.029 A 
ATOM     52  C   UNL A   1      41.962  30.855  30.880  1.00  0.00     0.049 A 
ATOM     53  H   UNL A   1      40.049  31.322  30.049  1.00  0.00     0.167 HD
ATOM     54  C   UNL A   1      42.749  24.933  28.182  1.00  0.00     0.037 A 
ATOM     55  C   UNL A   1      41.883  30.815  32.248  1.00  0.00     0.037 A 
ATOM     56  C   UNL A   1      43.680  25.603  29.093  1.00  0.00     0.049 A 
ATOM     57  C   UNL A   1      42.669  29.693  32.862  1.00  0.00     0.074 A 
ATOM     58  C   UNL A   1      44.634  26.585  28.882  1.00  0.00     0.029 A 
ATOM     59  N   UNL A   1      43.486  25.526  30.467  1.00  0.00    -0.354 N 
ATOM     60  N   UNL A   1      42.988  28.611  32.210  1.00  0.00    -0.248 NA
ATOM     61  C   UNL A   1      43.156  29.689  34.237  1.00  0.00     0.031 C 
ATOM     62  C   UNL A   1      44.968  27.147  30.137  1.00  0.00     0.029 A 
ATOM     63  C   UNL A   1      44.246  26.482  31.114  1.00  0.00     0.049 A 
ATOM     64  H   UNL A   1      42.892  24.882  30.916  1.00  0.00     0.167 HD
ATOM     65  C   UNL A   1      43.731  27.796  33.020  1.00  0.00     0.074 A 
ATOM     66  C   UNL A   1      43.807  28.513  34.280  1.00  0.00     0.031 C 
ATOM     67  C   UNL A   1      44.227  26.610  32.564  1.00  0.00     0.037 A 
BRANCH  54  68
ATOM     68  C   UNL A   1      43.223  23.994  27.081  1.00  0.00     0.057 A 
ATOM     69  C   UNL A   1      43.749  24.521  25.880  1.00  0.00     0.134 A 
ATOM     70  C   UNL A   1      43.118  22.591  27.076  1.00  0.00     0.134 A 
ATOM     71  F   UNL A   1      44.005  25.829  25.736  1.00  0.00    -0.206 F 
ATOM     72  C   UNL A   1      44.041  23.738  24.753  1.00  0.00     0.040 A 
ATOM     73  C   UNL A   1      43.389  21.796  25.951  1.00  0.00     0.040 A 
ATOM     74  F   UNL A   1      42.789  21.891  28.162  1.00  0.00    -0.206 F 
ATOM     75  C   UNL A   1      43.837  22.369  24.776  1.00  0.00     0.006 A 
ENDBRANCH  54  68
BRANCH  55  76
ATOM     76  C   UNL A   1      40.594  31.326  32.794  1.00  0.00     0.057 A 
ATOM     77  C   UNL A   1      39.689  30.365  33.273  1.00  0.00     0.134 A 
ATOM     78  C   UNL A   1      40.647  32.552  33.458  1.00  0.00     0.134 A 
ATOM     79  F   UNL A   1      39.527  29.208  32.615  1.00  0.00    -0.206 F 
ATOM     80  C   UNL A   1      39.079  30.504  34.520  1.00  0.00     0.040 A 
ATOM     81  C   UNL A   1      40.145  32.637  34.753  1.00  0.00     0.040 A 
ATOM     82  F   UNL A   1      41.418  33.551  33.005  1.00  0.00    -0.206 F 
ATOM     83  C   UNL A   1      39.389  31.606  35.304  1.00  0.00     0.006 A 
ENDBRANCH  55  76
BRANCH  67  84
ATOM     84  C   UNL A   1      44.850  25.521  33.401  1.00  0.00     0.057 A 
ATOM     85  C   UNL A   1      46.216  25.209  33.406  1.00  0.00     0.134 A 
ATOM     86  C   UNL A   1      44.076  24.826  34.360  1.00  0.00     0.134 A 
ATOM     87  F   UNL A   1      47.095  25.873  32.643  1.00  0.00    -0.206 F 
ATOM     88  C   UNL A   1      46.761  24.231  34.250  1.00  0.00     0.040 A 
ATOM     89  C   UNL A   1      44.619  23.894  35.248  1.00  0.00     0.040 A 
ATOM     90  F   UNL A   1      42.759  25.039  34.499  1.00  0.00    -0.206 F 
ATOM     91  C   UNL A   1      45.965  23.578  35.183  1.00  0.00     0.006 A 
ENDBRANCH  67  84
ENDBRANCH  41  42
ENDBRANCH  33  36
ENDBRANCH  31  32
ENDBRANCH   1  31
TORSDOF 13
ENDMDL
MODEL 3
REMARK VINA RESULT:     -12.8      3.750      8.982
REMARK SMILES Cc1ccc(-c2cc(Cl)cc3c2O[C@H](C(F)(F)F)C(C(=O)NCCCCNC(=O)c2ccc(-c4c5nc(c(-c6c(F)cccc6F)c6ccc([nH]6)c(-c6c(F)cccc6F)c6nc(c(-c7c(F)cccc7F)c7ccc4[nH]7)C=C6)C=C5)cc2)=C3)cc1F
REMARK SMILES IDX 25 1 24 2 23 3 22 4 20 5 21 6 19 8 6 9 7 10 12 11 8 12 11 13
REMARK SMILES IDX 13 14 9 15 10 16 84 17 14 18 5 19 1 20 2 21 3 22 86 23 4 24
REMARK SMILES IDX 85 25 87 26 15 27 16 28 17 29 18 30 26 31 27 32 28 33 29 35
REMARK SMILES IDX 30 36 31 37 83 38 32 39 82 40 33 41 34 42 35 43 76 44 36 45
REMARK SMILES IDX 81 46 75 47 77 48 37 49 80 50 74 51 73 52 38 54 64 55 47 56
REMARK SMILES IDX 63 57 48 58 51 59 62 60 78 61 49 62 50 63 61 65 79 66 52 67
REMARK SMILES IDX 39 68 40 69 45 70 41 71 42 72 44 73 46 74 43 75 65 76 66 77
REMARK SMILES IDX 71 78 67 79 68 80 70 81 72 82 69 83 53 84 54 85 59 86 55 87
REMARK SMILES IDX 56 88 58 89 60 90 57 91
REMARK H PARENT 22 7 27 34 77 53 51 64
REMARK Flexibility Score: inf
ROOT
ATOM      1  C   UNL A   1      33.475  29.527  26.928  1.00  0.00     0.023 C 
ENDROOT
BRANCH   1   2
ATOM      2  C   UNL A   1      33.243  29.130  25.480  1.00  0.00     0.023 C 
BRANCH   2   3
ATOM      3  C   UNL A   1      34.041  27.887  25.152  1.00  0.00     0.116 C 
BRANCH   3   4
ATOM      4  N   UNL A   1      33.989  27.625  23.726  1.00  0.00    -0.352 N 
ATOM      5  C   UNL A   1      33.730  26.572  22.924  1.00  0.00     0.251 C 
ATOM      6  O   UNL A   1      33.881  26.773  21.715  1.00  0.00    -0.270 OA
ATOM      7  H   UNL A   1      34.199  28.433  23.204  1.00  0.00     0.163 HD
BRANCH   5   8
ATOM      8  C   UNL A   1      33.270  25.246  23.409  1.00  0.00     0.067 C 
ATOM      9  C   UNL A   1      31.937  21.534  24.834  1.00  0.00     0.026 A 
ATOM     10  C   UNL A   1      30.959  21.510  25.835  1.00  0.00     0.033 A 
ATOM     11  C   UNL A   1      32.295  22.786  24.303  1.00  0.00     0.135 A 
ATOM     12  C   UNL A   1      30.374  22.700  26.281  1.00  0.00     0.042 A 
ATOM     13  C   UNL A   1      31.729  23.980  24.758  1.00  0.00     0.019 A 
ATOM     14  O   UNL A   1      33.185  22.777  23.265  1.00  0.00    -0.475 OA
ATOM     15  Cl  UNL A   1      29.168  22.647  27.508  1.00  0.00    -0.084 Cl
ATOM     16  C   UNL A   1      30.754  23.934  25.752  1.00  0.00     0.032 A 
ATOM     17  C   UNL A   1      32.169  25.245  24.183  1.00  0.00     0.025 C 
ATOM     18  C   UNL A   1      33.986  23.964  23.110  1.00  0.00     0.314 C 
BRANCH   9  19
ATOM     19  C   UNL A   1      32.589  20.306  24.351  1.00  0.00    -0.012 A 
ATOM     20  C   UNL A   1      34.238  16.494  23.130  1.00  0.00     0.047 C 
ATOM     21  C   UNL A   1      33.692  17.822  23.554  1.00  0.00    -0.015 A 
ATOM     22  C   UNL A   1      34.236  18.528  24.632  1.00  0.00     0.007 A 
ATOM     23  C   UNL A   1      32.604  18.374  22.878  1.00  0.00     0.126 A 
ATOM     24  C   UNL A   1      33.690  19.756  25.025  1.00  0.00     0.009 A 
ATOM     25  C   UNL A   1      32.062  19.598  23.257  1.00  0.00     0.048 A 
ATOM     26  F   UNL A   1      32.050  17.710  21.853  1.00  0.00    -0.207 F 
ENDBRANCH   9  19
BRANCH  18  27
ATOM     27  C   UNL A   1      35.308  23.799  23.886  1.00  0.00     0.429 C 
ATOM     28  F   UNL A   1      35.403  24.738  24.861  1.00  0.00    -0.167 F 
ATOM     29  F   UNL A   1      35.413  22.600  24.504  1.00  0.00    -0.167 F 
ATOM     30  F   UNL A   1      36.397  23.925  23.095  1.00  0.00    -0.167 F 
ENDBRANCH  18  27
ENDBRANCH   5   8
ENDBRANCH   3   4
ENDBRANCH   2   3
ENDBRANCH   1   2
BRANCH   1  31
ATOM     31  C   UNL A   1      33.818  31.005  27.136  1.00  0.00     0.116 C 
BRANCH  31  32
ATOM     32  N   UNL A   1      34.136  31.432  28.496  1.00  0.00    -0.352 N 
ATOM     33  C   UNL A   1      35.252  31.365  29.299  1.00  0.00     0.251 C 
ATOM     34  H   UNL A   1      33.375  31.871  28.942  1.00  0.00     0.163 HD
ATOM     35  O   UNL A   1      35.279  32.051  30.310  1.00  0.00    -0.269 OA
BRANCH  33  36
ATOM     36  C   UNL A   1      36.296  30.341  29.090  1.00  0.00     0.039 A 
ATOM     37  C   UNL A   1      36.646  29.387  30.039  1.00  0.00     0.014 A 
ATOM     38  C   UNL A   1      37.094  30.522  27.954  1.00  0.00     0.014 A 
ATOM     39  C   UNL A   1      37.942  28.896  30.053  1.00  0.00     0.010 A 
ATOM     40  C   UNL A   1      38.350  29.949  27.909  1.00  0.00     0.010 A 
ATOM     41  C   UNL A   1      38.815  29.239  29.017  1.00  0.00    -0.014 A 
BRANCH  41  42
ATOM     42  C   UNL A   1      40.208  28.817  29.016  1.00  0.00     0.031 A 
ATOM     43  C   UNL A   1      40.530  27.432  28.617  1.00  0.00     0.074 A 
ATOM     44  C   UNL A   1      41.178  29.631  29.495  1.00  0.00     0.049 A 
ATOM     45  N   UNL A   1      41.501  26.735  29.100  1.00  0.00    -0.248 NA
ATOM     46  C   UNL A   1      39.672  26.670  27.713  1.00  0.00     0.031 C 
ATOM     47  C   UNL A   1      42.617  29.440  29.414  1.00  0.00     0.029 A 
ATOM     48  N   UNL A   1      41.036  30.726  30.346  1.00  0.00    -0.354 N 
ATOM     49  C   UNL A   1      41.599  25.591  28.337  1.00  0.00     0.074 A 
ATOM     50  C   UNL A   1      40.340  25.515  27.641  1.00  0.00     0.031 C 
ATOM     51  C   UNL A   1      43.219  30.207  30.339  1.00  0.00     0.029 A 
ATOM     52  C   UNL A   1      42.181  30.806  31.158  1.00  0.00     0.049 A 
ATOM     53  H   UNL A   1      40.264  31.338  30.375  1.00  0.00     0.167 HD
ATOM     54  C   UNL A   1      42.810  24.970  28.242  1.00  0.00     0.037 A 
ATOM     55  C   UNL A   1      42.123  30.719  32.525  1.00  0.00     0.037 A 
ATOM     56  C   UNL A   1      43.768  25.589  29.161  1.00  0.00     0.049 A 
ATOM     57  C   UNL A   1      42.896  29.561  33.087  1.00  0.00     0.074 A 
ATOM     58  C   UNL A   1      44.738  26.559  28.969  1.00  0.00     0.029 A 
ATOM     59  N   UNL A   1      43.594  25.467  30.535  1.00  0.00    -0.354 N 
ATOM     60  N   UNL A   1      43.183  28.498  32.392  1.00  0.00    -0.248 NA
ATOM     61  C   UNL A   1      43.404  29.500  34.452  1.00  0.00     0.031 C 
ATOM     62  C   UNL A   1      45.102  27.070  30.237  1.00  0.00     0.029 A 
ATOM     63  C   UNL A   1      44.382  26.384  31.202  1.00  0.00     0.049 A 
ATOM     64  H   UNL A   1      42.994  24.819  30.970  1.00  0.00     0.167 HD
ATOM     65  C   UNL A   1      43.923  27.640  33.161  1.00  0.00     0.074 A 
ATOM     66  C   UNL A   1      44.033  28.311  34.444  1.00  0.00     0.031 C 
ATOM     67  C   UNL A   1      44.389  26.461  32.656  1.00  0.00     0.037 A 
BRANCH  54  68
ATOM     68  C   UNL A   1      43.248  24.060  27.101  1.00  0.00     0.057 A 
ATOM     69  C   UNL A   1      43.765  24.620  25.911  1.00  0.00     0.134 A 
ATOM     70  C   UNL A   1      43.117  22.660  27.050  1.00  0.00     0.134 A 
ATOM     71  F   UNL A   1      44.044  25.927  25.808  1.00  0.00    -0.206 F 
ATOM     72  C   UNL A   1      44.024  23.872  24.753  1.00  0.00     0.040 A 
ATOM     73  C   UNL A   1      43.354  21.901  25.893  1.00  0.00     0.040 A 
ATOM     74  F   UNL A   1      42.792  21.929  28.116  1.00  0.00    -0.206 F 
ATOM     75  C   UNL A   1      43.795  22.507  24.732  1.00  0.00     0.006 A 
ENDBRANCH  54  68
BRANCH  55  76
ATOM     76  C   UNL A   1      40.852  31.235  33.110  1.00  0.00     0.057 A 
ATOM     77  C   UNL A   1      39.940  30.275  33.576  1.00  0.00     0.134 A 
ATOM     78  C   UNL A   1      40.938  32.439  33.809  1.00  0.00     0.134 A 
ATOM     79  F   UNL A   1      39.746  29.142  32.887  1.00  0.00    -0.206 F 
ATOM     80  C   UNL A   1      39.354  30.387  34.838  1.00  0.00     0.040 A 
ATOM     81  C   UNL A   1      40.461  32.494  35.114  1.00  0.00     0.040 A 
ATOM     82  F   UNL A   1      41.718  33.438  33.371  1.00  0.00    -0.206 F 
ATOM     83  C   UNL A   1      39.697  31.460  35.648  1.00  0.00     0.006 A 
ENDBRANCH  55  76
BRANCH  67  84
ATOM     84  C   UNL A   1      45.003  25.332  33.444  1.00  0.00     0.057 A 
ATOM     85  C   UNL A   1      46.376  25.059  33.497  1.00  0.00     0.134 A 
ATOM     86  C   UNL A   1      44.204  24.549  34.310  1.00  0.00     0.134 A 
ATOM     87  F   UNL A   1      47.270  25.800  32.830  1.00  0.00    -0.206 F 
ATOM     88  C   UNL A   1      46.909  24.037  34.296  1.00  0.00     0.040 A 
ATOM     89  C   UNL A   1      44.731  23.570  35.156  1.00  0.00     0.040 A 
ATOM     90  F   UNL A   1      42.877  24.715  34.396  1.00  0.00    -0.206 F 
ATOM     91  C   UNL A   1      46.088  23.296  35.137  1.00  0.00     0.006 A 
ENDBRANCH  67  84
ENDBRANCH  41  42
ENDBRANCH  33  36
ENDBRANCH  31  32
ENDBRANCH   1  31
TORSDOF 13
ENDMDL
