MODEL 1
REMARK VINA RESULT:     -14.4      0.000      0.000
REMARK SMILES Cc1cccc(N2C(=O)/C(=C/c3ccc(C(=O)NCCCCNC(=O)c4ccc(-c5c6nc(c(-c7c(F)cccc7F)c7ccc([nH]7)c(-c7c(F)cccc7F)c7nc(c(-c8c(F)cccc8F)c8ccc5[nH]8)C=C7)C=C6)cc4)cc3)c3ccccc3C2=O)c1
REMARK SMILES IDX 20 1 19 2 18 3 16 4 17 5 15 7 12 8 13 9 81 10 14 11 80 12
REMARK SMILES IDX 11 13 7 14 8 15 88 16 9 17 10 18 87 19 89 20 82 21 86 22
REMARK SMILES IDX 83 23 85 24 84 25 6 26 1 27 2 28 3 29 90 30 4 31 5 32 21 33
REMARK SMILES IDX 22 34 23 35 24 36 25 38 26 39 27 40 79 41 28 42 78 43 29 44
REMARK SMILES IDX 30 45 31 46 72 47 32 48 77 49 71 50 73 51 33 52 76 53 70 54
REMARK SMILES IDX 69 55 34 57 60 58 43 59 59 60 44 61 47 62 58 63 74 64 45 65
REMARK SMILES IDX 46 66 57 68 75 69 48 70 35 71 36 72 41 73 37 74 38 75 40 76
REMARK SMILES IDX 42 77 39 78 61 79 62 80 67 81 63 82 64 83 66 84 68 85 65 86
REMARK SMILES IDX 49 87 50 88 55 89 51 90 52 91 54 92 56 93 53 94
REMARK H PARENT 18 6 23 37 73 56 47 67
REMARK Flexibility Score: inf
ROOT
ATOM      1  C   UNL A   1      36.722  21.916  24.231  1.00  0.00     0.023 C 
ENDROOT
BRANCH   1   2
ATOM      2  C   UNL A   1      35.382  22.151  24.940  1.00  0.00     0.116 C 
BRANCH   2   3
ATOM      3  N   UNL A   1      34.638  20.928  25.215  1.00  0.00    -0.352 N 
ATOM      4  C   UNL A   1      33.289  20.661  25.163  1.00  0.00     0.251 C 
ATOM      5  O   UNL A   1      32.869  19.567  25.532  1.00  0.00    -0.269 OA
ATOM      6  H   UNL A   1      35.195  20.162  25.484  1.00  0.00     0.163 HD
BRANCH   4   7
ATOM      7  C   UNL A   1      32.331  21.697  24.726  1.00  0.00     0.039 A 
ATOM      8  C   UNL A   1      30.727  23.884  24.061  1.00  0.00    -0.025 A 
ATOM      9  C   UNL A   1      30.651  23.324  25.342  1.00  0.00     0.009 A 
ATOM     10  C   UNL A   1      31.493  23.247  23.074  1.00  0.00     0.009 A 
ATOM     11  C   UNL A   1      31.453  22.231  25.674  1.00  0.00     0.014 A 
ATOM     12  C   UNL A   1      32.292  22.150  23.405  1.00  0.00     0.014 A 
BRANCH   8  13
ATOM     13  C   UNL A   1      30.039  25.153  23.795  1.00  0.00     0.022 C 
ATOM     14  N   UNL A   1      30.315  28.685  23.153  1.00  0.00    -0.242 N 
ATOM     15  C   UNL A   1      29.630  27.524  23.566  1.00  0.00     0.265 C 
ATOM     16  C   UNL A   1      31.725  28.749  23.163  1.00  0.00     0.265 C 
ATOM     17  O   UNL A   1      28.418  27.319  23.499  1.00  0.00    -0.268 OA
ATOM     18  C   UNL A   1      30.507  26.398  24.049  1.00  0.00     0.049 C 
ATOM     19  C   UNL A   1      32.436  27.872  24.124  1.00  0.00     0.048 A 
ATOM     20  O   UNL A   1      32.448  29.475  22.485  1.00  0.00    -0.268 OA
ATOM     21  C   UNL A   1      31.806  26.743  24.633  1.00  0.00    -0.000 A 
ATOM     22  C   UNL A   1      33.734  28.212  24.540  1.00  0.00     0.014 A 
ATOM     23  C   UNL A   1      32.444  26.020  25.654  1.00  0.00     0.010 A 
ATOM     24  C   UNL A   1      34.385  27.446  25.505  1.00  0.00     0.001 A 
ATOM     25  C   UNL A   1      33.731  26.361  26.077  1.00  0.00     0.001 A 
BRANCH  14  26
ATOM     26  C   UNL A   1      29.542  29.804  22.606  1.00  0.00     0.053 A 
ATOM     27  C   UNL A   1      28.964  33.538  23.317  1.00  0.00     0.044 C 
ATOM     28  C   UNL A   1      28.879  32.186  22.669  1.00  0.00    -0.049 A 
ATOM     29  C   UNL A   1      28.069  32.005  21.551  1.00  0.00     0.003 A 
ATOM     30  C   UNL A   1      29.618  31.096  23.168  1.00  0.00     0.030 A 
ATOM     31  C   UNL A   1      27.991  30.754  20.955  1.00  0.00     0.002 A 
ATOM     32  C   UNL A   1      28.713  29.673  21.480  1.00  0.00     0.027 A 
ENDBRANCH  14  26
ENDBRANCH   8  13
ENDBRANCH   4   7
ENDBRANCH   2   3
ENDBRANCH   1   2
BRANCH   1  33
ATOM     33  C   UNL A   1      37.898  21.529  25.129  1.00  0.00     0.023 C 
BRANCH  33  34
ATOM     34  C   UNL A   1      38.400  22.625  26.059  1.00  0.00     0.116 C 
BRANCH  34  35
ATOM     35  N   UNL A   1      39.841  22.625  26.299  1.00  0.00    -0.352 N 
ATOM     36  C   UNL A   1      40.679  23.668  26.666  1.00  0.00     0.251 C 
ATOM     37  H   UNL A   1      40.284  21.753  26.183  1.00  0.00     0.163 HD
ATOM     38  O   UNL A   1      41.868  23.482  26.787  1.00  0.00    -0.269 OA
BRANCH  36  39
ATOM     39  C   UNL A   1      40.089  24.984  27.053  1.00  0.00     0.039 A 
ATOM     40  C   UNL A   1      40.432  26.102  26.279  1.00  0.00     0.014 A 
ATOM     41  C   UNL A   1      39.406  25.155  28.252  1.00  0.00     0.014 A 
ATOM     42  C   UNL A   1      40.353  27.371  26.844  1.00  0.00     0.010 A 
ATOM     43  C   UNL A   1      39.420  26.397  28.854  1.00  0.00     0.010 A 
ATOM     44  C   UNL A   1      39.977  27.487  28.180  1.00  0.00    -0.014 A 
BRANCH  44  45
ATOM     45  C   UNL A   1      40.290  28.653  28.997  1.00  0.00     0.031 A 
ATOM     46  C   UNL A   1      39.280  29.700  29.245  1.00  0.00     0.074 A 
ATOM     47  C   UNL A   1      41.497  28.711  29.604  1.00  0.00     0.049 A 
ATOM     48  N   UNL A   1      39.558  30.886  29.668  1.00  0.00    -0.248 NA
ATOM     49  C   UNL A   1      37.866  29.516  28.944  1.00  0.00     0.031 C 
ATOM     50  C   UNL A   1      41.912  29.597  30.685  1.00  0.00     0.029 A 
ATOM     51  N   UNL A   1      42.684  28.088  29.189  1.00  0.00    -0.354 N 
ATOM     52  C   UNL A   1      38.372  31.515  29.970  1.00  0.00     0.074 A 
ATOM     53  C   UNL A   1      37.363  30.679  29.368  1.00  0.00     0.031 C 
ATOM     54  C   UNL A   1      43.250  29.693  30.677  1.00  0.00     0.029 A 
ATOM     55  C   UNL A   1      43.722  28.995  29.495  1.00  0.00     0.049 A 
ATOM     56  H   UNL A   1      42.775  27.201  28.770  1.00  0.00     0.167 HD
ATOM     57  C   UNL A   1      38.397  32.588  30.811  1.00  0.00     0.037 A 
ATOM     58  C   UNL A   1      44.486  29.556  28.512  1.00  0.00     0.037 A 
ATOM     59  C   UNL A   1      39.775  33.058  31.000  1.00  0.00     0.049 A 
ATOM     60  C   UNL A   1      44.420  31.066  28.468  1.00  0.00     0.074 A 
ATOM     61  C   UNL A   1      40.688  32.934  32.035  1.00  0.00     0.029 A 
ATOM     62  N   UNL A   1      40.486  33.542  29.904  1.00  0.00    -0.354 N 
ATOM     63  N   UNL A   1      43.484  31.769  29.042  1.00  0.00    -0.248 NA
ATOM     64  C   UNL A   1      45.379  31.899  27.747  1.00  0.00     0.031 C 
ATOM     65  C   UNL A   1      41.973  33.259  31.524  1.00  0.00     0.029 A 
ATOM     66  C   UNL A   1      41.835  33.619  30.193  1.00  0.00     0.049 A 
ATOM     67  H   UNL A   1      40.083  33.797  29.043  1.00  0.00     0.167 HD
ATOM     68  C   UNL A   1      43.668  33.097  28.758  1.00  0.00     0.074 A 
ATOM     69  C   UNL A   1      44.884  33.130  27.966  1.00  0.00     0.031 C 
ATOM     70  C   UNL A   1      42.790  34.053  29.181  1.00  0.00     0.037 A 
BRANCH  57  71
ATOM     71  C   UNL A   1      37.234  33.078  31.667  1.00  0.00     0.057 A 
ATOM     72  C   UNL A   1      37.143  32.694  33.024  1.00  0.00     0.134 A 
ATOM     73  C   UNL A   1      36.116  33.812  31.220  1.00  0.00     0.134 A 
ATOM     74  F   UNL A   1      38.133  32.029  33.635  1.00  0.00    -0.206 F 
ATOM     75  C   UNL A   1      36.022  32.958  33.830  1.00  0.00     0.040 A 
ATOM     76  C   UNL A   1      34.997  34.096  32.021  1.00  0.00     0.040 A 
ATOM     77  F   UNL A   1      36.009  34.294  29.983  1.00  0.00    -0.206 F 
ATOM     78  C   UNL A   1      34.936  33.653  33.327  1.00  0.00     0.006 A 
ENDBRANCH  57  71
BRANCH  58  79
ATOM     79  C   UNL A   1      44.665  28.677  27.327  1.00  0.00     0.057 A 
ATOM     80  C   UNL A   1      45.595  27.624  27.404  1.00  0.00     0.134 A 
ATOM     81  C   UNL A   1      43.717  28.614  26.304  1.00  0.00     0.134 A 
ATOM     82  F   UNL A   1      46.531  27.621  28.368  1.00  0.00    -0.206 F 
ATOM     83  C   UNL A   1      45.514  26.504  26.574  1.00  0.00     0.040 A 
ATOM     84  C   UNL A   1      43.634  27.501  25.457  1.00  0.00     0.040 A 
ATOM     85  F   UNL A   1      42.782  29.567  26.179  1.00  0.00    -0.206 F 
ATOM     86  C   UNL A   1      44.509  26.427  25.617  1.00  0.00     0.006 A 
ENDBRANCH  58  79
BRANCH  70  87
ATOM     87  C   UNL A   1      42.783  35.496  28.740  1.00  0.00     0.057 A 
ATOM     88  C   UNL A   1      43.181  36.570  29.550  1.00  0.00     0.134 A 
ATOM     89  C   UNL A   1      42.506  35.829  27.397  1.00  0.00     0.134 A 
ATOM     90  F   UNL A   1      43.578  36.385  30.816  1.00  0.00    -0.206 F 
ATOM     91  C   UNL A   1      43.244  37.887  29.074  1.00  0.00     0.040 A 
ATOM     92  C   UNL A   1      42.616  37.130  26.898  1.00  0.00     0.040 A 
ATOM     93  F   UNL A   1      42.136  34.898  26.504  1.00  0.00    -0.206 F 
ATOM     94  C   UNL A   1      42.974  38.170  27.741  1.00  0.00     0.006 A 
ENDBRANCH  70  87
ENDBRANCH  44  45
ENDBRANCH  36  39
ENDBRANCH  34  35
ENDBRANCH  33  34
ENDBRANCH   1  33
TORSDOF 13
ENDMDL
MODEL 2
REMARK VINA RESULT:     -14.3      3.624      9.656
REMARK SMILES Cc1cccc(N2C(=O)/C(=C/c3ccc(C(=O)NCCCCNC(=O)c4ccc(-c5c6nc(c(-c7c(F)cccc7F)c7ccc([nH]7)c(-c7c(F)cccc7F)c7nc(c(-c8c(F)cccc8F)c8ccc5[nH]8)C=C7)C=C6)cc4)cc3)c3ccccc3C2=O)c1
REMARK SMILES IDX 20 1 19 2 18 3 16 4 17 5 15 7 12 8 13 9 81 10 14 11 80 12
REMARK SMILES IDX 11 13 7 14 8 15 88 16 9 17 10 18 87 19 89 20 82 21 86 22
REMARK SMILES IDX 83 23 85 24 84 25 6 26 1 27 2 28 3 29 90 30 4 31 5 32 21 33
REMARK SMILES IDX 22 34 23 35 24 36 25 38 26 39 27 40 79 41 28 42 78 43 29 44
REMARK SMILES IDX 30 45 31 46 72 47 32 48 77 49 71 50 73 51 33 52 76 53 70 54
REMARK SMILES IDX 69 55 34 57 60 58 43 59 59 60 44 61 47 62 58 63 74 64 45 65
REMARK SMILES IDX 46 66 57 68 75 69 48 70 35 71 36 72 41 73 37 74 38 75 40 76
REMARK SMILES IDX 42 77 39 78 61 79 62 80 67 81 63 82 64 83 66 84 68 85 65 86
REMARK SMILES IDX 49 87 50 88 55 89 51 90 52 91 54 92 56 93 53 94
REMARK H PARENT 18 6 23 37 73 56 47 67
REMARK Flexibility Score: inf
ROOT
ATOM      1  C   UNL A   1      33.530  28.800  25.355  1.00  0.00     0.023 C 
ENDROOT
BRANCH   1   2
ATOM      2  C   UNL A   1      32.047  28.935  25.724  1.00  0.00     0.116 C 
BRANCH   2   3
ATOM      3  N   UNL A   1      31.231  29.536  24.677  1.00  0.00    -0.352 N 
ATOM      4  C   UNL A   1      30.566  28.968  23.614  1.00  0.00     0.251 C 
ATOM      5  O   UNL A   1      30.007  29.688  22.791  1.00  0.00    -0.269 OA
ATOM      6  H   UNL A   1      31.140  30.513  24.740  1.00  0.00     0.163 HD
BRANCH   4   7
ATOM      7  C   UNL A   1      30.567  27.504  23.419  1.00  0.00     0.039 A 
ATOM      8  C   UNL A   1      30.895  24.743  23.166  1.00  0.00    -0.025 A 
ATOM      9  C   UNL A   1      31.425  25.601  22.196  1.00  0.00     0.009 A 
ATOM     10  C   UNL A   1      30.072  25.264  24.174  1.00  0.00     0.009 A 
ATOM     11  C   UNL A   1      31.261  26.983  22.322  1.00  0.00     0.014 A 
ATOM     12  C   UNL A   1      29.903  26.645  24.297  1.00  0.00     0.014 A 
BRANCH   8  13
ATOM     13  C   UNL A   1      31.255  23.320  23.132  1.00  0.00     0.022 C 
ATOM     14  N   UNL A   1      33.018  20.591  24.684  1.00  0.00    -0.242 N 
ATOM     15  C   UNL A   1      32.399  21.243  23.598  1.00  0.00     0.265 C 
ATOM     16  C   UNL A   1      33.508  21.315  25.792  1.00  0.00     0.265 C 
ATOM     17  O   UNL A   1      31.843  20.709  22.637  1.00  0.00    -0.268 OA
ATOM     18  C   UNL A   1      32.344  22.745  23.695  1.00  0.00     0.049 C 
ATOM     19  C   UNL A   1      33.902  22.726  25.559  1.00  0.00     0.048 A 
ATOM     20  O   UNL A   1      33.683  20.907  26.938  1.00  0.00    -0.268 OA
ATOM     21  C   UNL A   1      33.388  23.420  24.470  1.00  0.00    -0.000 A 
ATOM     22  C   UNL A   1      34.821  23.339  26.427  1.00  0.00     0.014 A 
ATOM     23  C   UNL A   1      33.896  24.699  24.189  1.00  0.00     0.010 A 
ATOM     24  C   UNL A   1      35.265  24.636  26.176  1.00  0.00     0.001 A 
ATOM     25  C   UNL A   1      34.817  25.309  25.044  1.00  0.00     0.001 A 
BRANCH  14  26
ATOM     26  C   UNL A   1      33.055  19.126  24.701  1.00  0.00     0.053 A 
ATOM     27  C   UNL A   1      34.658  16.251  22.716  1.00  0.00     0.044 C 
ATOM     28  C   UNL A   1      33.861  16.989  23.752  1.00  0.00    -0.049 A 
ATOM     29  C   UNL A   1      33.164  16.277  24.725  1.00  0.00     0.003 A 
ATOM     30  C   UNL A   1      33.816  18.397  23.764  1.00  0.00     0.030 A 
ATOM     31  C   UNL A   1      32.426  16.962  25.680  1.00  0.00     0.002 A 
ATOM     32  C   UNL A   1      32.371  18.363  25.662  1.00  0.00     0.027 A 
ENDBRANCH  14  26
ENDBRANCH   8  13
ENDBRANCH   4   7
ENDBRANCH   2   3
ENDBRANCH   1   2
BRANCH   1  33
ATOM     33  C   UNL A   1      34.532  29.140  26.460  1.00  0.00     0.023 C 
BRANCH  33  34
ATOM     34  C   UNL A   1      33.937  29.772  27.711  1.00  0.00     0.116 C 
BRANCH  34  35
ATOM     35  N   UNL A   1      34.646  30.949  28.208  1.00  0.00    -0.352 N 
ATOM     36  C   UNL A   1      35.953  31.073  28.656  1.00  0.00     0.251 C 
ATOM     37  H   UNL A   1      34.116  31.779  28.228  1.00  0.00     0.163 HD
ATOM     38  O   UNL A   1      36.359  32.135  29.068  1.00  0.00    -0.269 OA
BRANCH  36  39
ATOM     39  C   UNL A   1      36.899  29.929  28.491  1.00  0.00     0.039 A 
ATOM     40  C   UNL A   1      36.993  29.009  29.545  1.00  0.00     0.014 A 
ATOM     41  C   UNL A   1      37.813  29.881  27.446  1.00  0.00     0.014 A 
ATOM     42  C   UNL A   1      38.155  28.256  29.689  1.00  0.00     0.010 A 
ATOM     43  C   UNL A   1      39.007  29.215  27.637  1.00  0.00     0.010 A 
ATOM     44  C   UNL A   1      39.208  28.474  28.804  1.00  0.00    -0.014 A 
BRANCH  44  45
ATOM     45  C   UNL A   1      40.588  28.116  29.105  1.00  0.00     0.031 A 
ATOM     46  C   UNL A   1      41.186  26.879  28.568  1.00  0.00     0.074 A 
ATOM     47  C   UNL A   1      41.343  28.988  29.811  1.00  0.00     0.049 A 
ATOM     48  N   UNL A   1      42.258  26.333  29.033  1.00  0.00    -0.248 NA
ATOM     49  C   UNL A   1      40.561  26.100  27.506  1.00  0.00     0.031 C 
ATOM     50  C   UNL A   1      42.793  28.993  29.967  1.00  0.00     0.029 A 
ATOM     51  N   UNL A   1      40.891  29.951  30.727  1.00  0.00    -0.354 N 
ATOM     52  C   UNL A   1      42.624  25.322  28.173  1.00  0.00     0.074 A 
ATOM     53  C   UNL A   1      41.466  25.131  27.336  1.00  0.00     0.031 C 
ATOM     54  C   UNL A   1      43.106  29.674  31.080  1.00  0.00     0.029 A 
ATOM     55  C   UNL A   1      41.860  29.992  31.752  1.00  0.00     0.049 A 
ATOM     56  H   UNL A   1      40.067  30.488  30.666  1.00  0.00     0.167 HD
ATOM     57  C   UNL A   1      43.913  24.878  28.198  1.00  0.00     0.037 A 
ATOM     58  C   UNL A   1      41.552  29.633  33.033  1.00  0.00     0.037 A 
ATOM     59  C   UNL A   1      44.607  25.385  29.389  1.00  0.00     0.049 A 
ATOM     60  C   UNL A   1      42.371  28.476  33.560  1.00  0.00     0.074 A 
ATOM     61  C   UNL A   1      45.538  26.390  29.591  1.00  0.00     0.029 A 
ATOM     62  N   UNL A   1      44.154  25.008  30.652  1.00  0.00    -0.354 N 
ATOM     63  N   UNL A   1      43.046  27.658  32.802  1.00  0.00    -0.248 NA
ATOM     64  C   UNL A   1      42.466  28.130  34.977  1.00  0.00     0.031 C 
ATOM     65  C   UNL A   1      45.573  26.679  30.982  1.00  0.00     0.029 A 
ATOM     66  C   UNL A   1      44.695  25.824  31.627  1.00  0.00     0.049 A 
ATOM     67  H   UNL A   1      43.536  24.262  30.826  1.00  0.00     0.167 HD
ATOM     68  C   UNL A   1      43.618  26.682  33.575  1.00  0.00     0.074 A 
ATOM     69  C   UNL A   1      43.249  27.037  34.933  1.00  0.00     0.031 C 
ATOM     70  C   UNL A   1      44.329  25.654  33.028  1.00  0.00     0.037 A 
BRANCH  57  71
ATOM     71  C   UNL A   1      44.644  24.196  27.046  1.00  0.00     0.057 A 
ATOM     72  C   UNL A   1      44.387  22.839  26.749  1.00  0.00     0.134 A 
ATOM     73  C   UNL A   1      45.686  24.747  26.272  1.00  0.00     0.134 A 
ATOM     74  F   UNL A   1      43.401  22.161  27.354  1.00  0.00    -0.206 F 
ATOM     75  C   UNL A   1      45.136  22.092  25.824  1.00  0.00     0.040 A 
ATOM     76  C   UNL A   1      46.431  24.016  25.331  1.00  0.00     0.040 A 
ATOM     77  F   UNL A   1      46.072  26.018  26.371  1.00  0.00    -0.206 F 
ATOM     78  C   UNL A   1      46.172  22.678  25.116  1.00  0.00     0.006 A 
ENDBRANCH  57  71
BRANCH  58  79
ATOM     79  C   UNL A   1      40.142  29.918  33.405  1.00  0.00     0.057 A 
ATOM     80  C   UNL A   1      39.786  31.237  33.738  1.00  0.00     0.134 A 
ATOM     81  C   UNL A   1      39.103  29.039  33.089  1.00  0.00     0.134 A 
ATOM     82  F   UNL A   1      40.737  32.133  34.048  1.00  0.00    -0.206 F 
ATOM     83  C   UNL A   1      38.469  31.692  33.648  1.00  0.00     0.040 A 
ATOM     84  C   UNL A   1      37.776  29.482  33.007  1.00  0.00     0.040 A 
ATOM     85  F   UNL A   1      39.362  27.771  32.736  1.00  0.00    -0.206 F 
ATOM     86  C   UNL A   1      37.463  30.820  33.249  1.00  0.00     0.006 A 
ENDBRANCH  58  79
BRANCH  70  87
ATOM     87  C   UNL A   1      44.806  24.426  33.764  1.00  0.00     0.057 A 
ATOM     88  C   UNL A   1      43.963  23.399  34.215  1.00  0.00     0.134 A 
ATOM     89  C   UNL A   1      46.187  24.174  33.910  1.00  0.00     0.134 A 
ATOM     90  F   UNL A   1      42.635  23.454  34.041  1.00  0.00    -0.206 F 
ATOM     91  C   UNL A   1      44.455  22.233  34.817  1.00  0.00     0.040 A 
ATOM     92  C   UNL A   1      46.691  22.993  34.461  1.00  0.00     0.040 A 
ATOM     93  F   UNL A   1      47.110  25.060  33.503  1.00  0.00    -0.206 F 
ATOM     94  C   UNL A   1      45.823  22.020  34.931  1.00  0.00     0.006 A 
ENDBRANCH  70  87
ENDBRANCH  44  45
ENDBRANCH  36  39
ENDBRANCH  34  35
ENDBRANCH  33  34
ENDBRANCH   1  33
TORSDOF 13
ENDMDL
MODEL 3
REMARK VINA RESULT:     -14.3      3.176      9.269
REMARK SMILES Cc1cccc(N2C(=O)/C(=C/c3ccc(C(=O)NCCCCNC(=O)c4ccc(-c5c6nc(c(-c7c(F)cccc7F)c7ccc([nH]7)c(-c7c(F)cccc7F)c7nc(c(-c8c(F)cccc8F)c8ccc5[nH]8)C=C7)C=C6)cc4)cc3)c3ccccc3C2=O)c1
REMARK SMILES IDX 20 1 19 2 18 3 16 4 17 5 15 7 12 8 13 9 81 10 14 11 80 12
REMARK SMILES IDX 11 13 7 14 8 15 88 16 9 17 10 18 87 19 89 20 82 21 86 22
REMARK SMILES IDX 83 23 85 24 84 25 6 26 1 27 2 28 3 29 90 30 4 31 5 32 21 33
REMARK SMILES IDX 22 34 23 35 24 36 25 38 26 39 27 40 79 41 28 42 78 43 29 44
REMARK SMILES IDX 30 45 31 46 72 47 32 48 77 49 71 50 73 51 33 52 76 53 70 54
REMARK SMILES IDX 69 55 34 57 60 58 43 59 59 60 44 61 47 62 58 63 74 64 45 65
REMARK SMILES IDX 46 66 57 68 75 69 48 70 35 71 36 72 41 73 37 74 38 75 40 76
REMARK SMILES IDX 42 77 39 78 61 79 62 80 67 81 63 82 64 83 66 84 68 85 65 86
REMARK SMILES IDX 49 87 50 88 55 89 51 90 52 91 54 92 56 93 53 94
REMARK H PARENT 18 6 23 37 73 56 47 67
REMARK Flexibility Score: inf
ROOT
ATOM      1  C   UNL A   1      32.898  29.017  26.270  1.00  0.00     0.023 C 
ENDROOT
BRANCH   1   2
ATOM      2  C   UNL A   1      32.841  29.173  24.745  1.00  0.00     0.116 C 
BRANCH   2   3
ATOM      3  N   UNL A   1      31.570  29.689  24.253  1.00  0.00    -0.352 N 
ATOM      4  C   UNL A   1      30.493  29.044  23.688  1.00  0.00     0.251 C 
ATOM      5  O   UNL A   1      29.550  29.700  23.254  1.00  0.00    -0.269 OA
ATOM      6  H   UNL A   1      31.463  30.663  24.338  1.00  0.00     0.163 HD
BRANCH   4   7
ATOM      7  C   UNL A   1      30.485  27.574  23.542  1.00  0.00     0.039 A 
ATOM      8  C   UNL A   1      30.811  24.810  23.327  1.00  0.00    -0.025 A 
ATOM      9  C   UNL A   1      31.161  25.640  22.256  1.00  0.00     0.009 A 
ATOM     10  C   UNL A   1      30.156  25.357  24.439  1.00  0.00     0.009 A 
ATOM     11  C   UNL A   1      30.998  27.023  22.363  1.00  0.00     0.014 A 
ATOM     12  C   UNL A   1      29.988  26.739  24.544  1.00  0.00     0.014 A 
BRANCH   8  13
ATOM     13  C   UNL A   1      31.183  23.390  23.280  1.00  0.00     0.022 C 
ATOM     14  N   UNL A   1      33.041  20.682  24.756  1.00  0.00    -0.242 N 
ATOM     15  C   UNL A   1      32.367  21.325  23.697  1.00  0.00     0.265 C 
ATOM     16  C   UNL A   1      33.573  21.414  25.840  1.00  0.00     0.265 C 
ATOM     17  O   UNL A   1      31.775  20.784  22.764  1.00  0.00    -0.268 OA
ATOM     18  C   UNL A   1      32.302  22.827  23.794  1.00  0.00     0.049 C 
ATOM     19  C   UNL A   1      33.942  22.828  25.586  1.00  0.00     0.048 A 
ATOM     20  O   UNL A   1      33.802  21.010  26.977  1.00  0.00    -0.268 OA
ATOM     21  C   UNL A   1      33.373  23.514  24.520  1.00  0.00    -0.000 A 
ATOM     22  C   UNL A   1      34.892  23.452  26.411  1.00  0.00     0.014 A 
ATOM     23  C   UNL A   1      33.855  24.797  24.214  1.00  0.00     0.010 A 
ATOM     24  C   UNL A   1      35.312  24.753  26.138  1.00  0.00     0.001 A 
ATOM     25  C   UNL A   1      34.807  25.418  25.026  1.00  0.00     0.001 A 
BRANCH  14  26
ATOM     26  C   UNL A   1      33.093  19.218  24.775  1.00  0.00     0.053 A 
ATOM     27  C   UNL A   1      34.677  16.356  22.756  1.00  0.00     0.044 C 
ATOM     28  C   UNL A   1      33.898  17.088  23.809  1.00  0.00    -0.049 A 
ATOM     29  C   UNL A   1      33.231  16.370  24.800  1.00  0.00     0.003 A 
ATOM     30  C   UNL A   1      33.840  18.495  23.821  1.00  0.00     0.030 A 
ATOM     31  C   UNL A   1      32.509  17.049  25.771  1.00  0.00     0.002 A 
ATOM     32  C   UNL A   1      32.440  18.449  25.753  1.00  0.00     0.027 A 
ENDBRANCH  14  26
ENDBRANCH   8  13
ENDBRANCH   4   7
ENDBRANCH   2   3
ENDBRANCH   1   2
BRANCH   1  33
ATOM     33  C   UNL A   1      34.270  28.692  26.862  1.00  0.00     0.023 C 
BRANCH  33  34
ATOM     34  C   UNL A   1      34.928  29.818  27.647  1.00  0.00     0.116 C 
BRANCH  34  35
ATOM     35  N   UNL A   1      34.155  31.056  27.723  1.00  0.00    -0.352 N 
ATOM     36  C   UNL A   1      34.373  32.193  28.487  1.00  0.00     0.251 C 
ATOM     37  H   UNL A   1      33.359  31.088  27.143  1.00  0.00     0.163 HD
ATOM     38  O   UNL A   1      33.595  33.118  28.442  1.00  0.00    -0.269 OA
BRANCH  36  39
ATOM     39  C   UNL A   1      35.647  32.330  29.255  1.00  0.00     0.039 A 
ATOM     40  C   UNL A   1      36.701  33.023  28.643  1.00  0.00     0.014 A 
ATOM     41  C   UNL A   1      35.873  31.621  30.429  1.00  0.00     0.014 A 
ATOM     42  C   UNL A   1      38.009  32.762  29.042  1.00  0.00     0.010 A 
ATOM     43  C   UNL A   1      37.169  31.281  30.762  1.00  0.00     0.010 A 
ATOM     44  C   UNL A   1      38.232  31.784  30.009  1.00  0.00    -0.014 A 
BRANCH  44  45
ATOM     45  C   UNL A   1      39.512  31.107  30.175  1.00  0.00     0.031 A 
ATOM     46  C   UNL A   1      39.757  29.785  29.568  1.00  0.00     0.074 A 
ATOM     47  C   UNL A   1      40.507  31.758  30.820  1.00  0.00     0.049 A 
ATOM     48  N   UNL A   1      40.709  28.992  29.923  1.00  0.00    -0.248 NA
ATOM     49  C   UNL A   1      38.877  29.208  28.559  1.00  0.00     0.031 C 
ATOM     50  C   UNL A   1      41.927  31.424  30.839  1.00  0.00     0.029 A 
ATOM     51  N   UNL A   1      40.373  32.767  31.786  1.00  0.00    -0.354 N 
ATOM     52  C   UNL A   1      40.753  27.955  29.020  1.00  0.00     0.074 A 
ATOM     53  C   UNL A   1      39.514  28.064  28.292  1.00  0.00     0.031 C 
ATOM     54  C   UNL A   1      42.486  31.975  31.928  1.00  0.00     0.029 A 
ATOM     55  C   UNL A   1      41.411  32.548  32.718  1.00  0.00     0.049 A 
ATOM     56  H   UNL A   1      39.695  33.480  31.810  1.00  0.00     0.167 HD
ATOM     57  C   UNL A   1      41.901  27.225  28.919  1.00  0.00     0.037 A 
ATOM     58  C   UNL A   1      41.142  32.224  34.016  1.00  0.00     0.037 A 
ATOM     59  C   UNL A   1      42.795  27.517  30.047  1.00  0.00     0.049 A 
ATOM     60  C   UNL A   1      41.713  30.893  34.449  1.00  0.00     0.074 A 
ATOM     61  C   UNL A   1      43.948  28.273  30.175  1.00  0.00     0.029 A 
ATOM     62  N   UNL A   1      42.379  27.211  31.341  1.00  0.00    -0.354 N 
ATOM     63  N   UNL A   1      42.110  29.968  33.621  1.00  0.00    -0.248 NA
ATOM     64  C   UNL A   1      41.848  30.485  35.846  1.00  0.00     0.031 C 
ATOM     65  C   UNL A   1      44.171  28.497  31.560  1.00  0.00     0.029 A 
ATOM     66  C   UNL A   1      43.178  27.846  32.272  1.00  0.00     0.049 A 
ATOM     67  H   UNL A   1      41.622  26.621  31.561  1.00  0.00     0.167 HD
ATOM     68  C   UNL A   1      42.505  28.860  34.324  1.00  0.00     0.074 A 
ATOM     69  C   UNL A   1      42.348  29.243  35.715  1.00  0.00     0.031 C 
ATOM     70  C   UNL A   1      42.907  27.716  33.698  1.00  0.00     0.037 A 
BRANCH  57  71
ATOM     71  C   UNL A   1      42.350  26.434  27.695  1.00  0.00     0.057 A 
ATOM     72  C   UNL A   1      42.686  27.109  26.499  1.00  0.00     0.134 A 
ATOM     73  C   UNL A   1      42.362  25.030  27.563  1.00  0.00     0.134 A 
ATOM     74  F   UNL A   1      42.770  28.446  26.446  1.00  0.00    -0.206 F 
ATOM     75  C   UNL A   1      42.940  26.452  25.283  1.00  0.00     0.040 A 
ATOM     76  C   UNL A   1      42.632  24.361  26.357  1.00  0.00     0.040 A 
ATOM     77  F   UNL A   1      42.102  24.202  28.574  1.00  0.00    -0.206 F 
ATOM     78  C   UNL A   1      42.904  25.070  25.205  1.00  0.00     0.006 A 
ENDBRANCH  57  71
BRANCH  58  79
ATOM     79  C   UNL A   1      39.875  32.813  34.522  1.00  0.00     0.057 A 
ATOM     80  C   UNL A   1      38.709  32.027  34.497  1.00  0.00     0.134 A 
ATOM     81  C   UNL A   1      39.862  33.944  35.342  1.00  0.00     0.134 A 
ATOM     82  F   UNL A   1      38.657  30.924  33.732  1.00  0.00    -0.206 F 
ATOM     83  C   UNL A   1      37.623  32.288  35.335  1.00  0.00     0.040 A 
ATOM     84  C   UNL A   1      38.774  34.222  36.179  1.00  0.00     0.040 A 
ATOM     85  F   UNL A   1      40.944  34.730  35.440  1.00  0.00    -0.206 F 
ATOM     86  C   UNL A   1      37.668  33.372  36.205  1.00  0.00     0.006 A 
ENDBRANCH  58  79
BRANCH  70  87
ATOM     87  C   UNL A   1      43.148  26.386  34.371  1.00  0.00     0.057 A 
ATOM     88  C   UNL A   1      42.142  25.607  34.961  1.00  0.00     0.134 A 
ATOM     89  C   UNL A   1      44.418  25.775  34.305  1.00  0.00     0.134 A 
ATOM     90  F   UNL A   1      40.866  26.015  34.994  1.00  0.00    -0.206 F 
ATOM     91  C   UNL A   1      42.393  24.336  35.498  1.00  0.00     0.040 A 
ATOM     92  C   UNL A   1      44.669  24.488  34.790  1.00  0.00     0.040 A 
ATOM     93  F   UNL A   1      45.469  26.395  33.747  1.00  0.00    -0.206 F 
ATOM     94  C   UNL A   1      43.656  23.767  35.402  1.00  0.00     0.006 A 
ENDBRANCH  70  87
ENDBRANCH  44  45
ENDBRANCH  36  39
ENDBRANCH  34  35
ENDBRANCH  33  34
ENDBRANCH   1  33
TORSDOF 13
ENDMDL
