MODEL 1
REMARK VINA RESULT:     -11.7      0.000      0.000
REMARK SMILES O=C(NCCCCNC(=O)c1cnc(Nc2ccccc2)nc1)c1ccc(-c2c3nc(c(-c4c(F)cccc4F)c4ccc([nH]4)c(-c4c(F)cccc4F)c4nc(c(-c5c(F)cccc5F)c5ccc2[nH]5)C=C4)C=C3)cc1
REMARK SMILES IDX 5 1 4 2 3 3 1 4 2 5 24 7 25 8 77 9 26 10 76 11 27 12 28 13
REMARK SMILES IDX 29 14 70 15 30 16 75 17 69 18 71 19 31 20 74 21 68 22 67 23
REMARK SMILES IDX 32 25 58 26 41 27 57 28 42 29 45 30 56 31 72 32 43 33 44 34
REMARK SMILES IDX 55 36 73 37 46 38 33 39 34 40 39 41 35 42 36 43 38 44 40 45
REMARK SMILES IDX 37 46 59 47 60 48 65 49 61 50 62 51 64 52 66 53 63 54 47 55
REMARK SMILES IDX 48 56 53 57 49 58 50 59 52 60 54 61 51 62 6 63 7 64 8 65
REMARK SMILES IDX 9 66 10 68 11 69 12 70 23 71 13 72 22 73 14 74 15 75 16 77
REMARK SMILES IDX 17 78 21 79 18 80 20 81 19 82
REMARK H PARENT 3 6 71 24 45 35 8 67 15 76
REMARK Flexibility Score: inf
ROOT
ATOM      1  C   UNL A   1      37.594  19.923  24.939  1.00  0.00     0.023 C 
ENDROOT
BRANCH   1   2
ATOM      2  C   UNL A   1      38.797  20.348  25.771  1.00  0.00     0.116 C 
BRANCH   2   3
ATOM      3  N   UNL A   1      39.898  19.398  25.712  1.00  0.00    -0.352 N 
ATOM      4  O   UNL A   1      42.042  18.699  25.781  1.00  0.00    -0.269 OA
ATOM      5  C   UNL A   1      41.226  19.585  26.013  1.00  0.00     0.251 C 
ATOM      6  H   UNL A   1      39.657  18.491  25.413  1.00  0.00     0.163 HD
BRANCH   5   7
ATOM      7  C   UNL A   1      41.676  20.871  26.587  1.00  0.00     0.039 A 
ATOM      8  C   UNL A   1      41.651  21.087  27.965  1.00  0.00     0.014 A 
ATOM      9  C   UNL A   1      42.119  21.880  25.726  1.00  0.00     0.014 A 
ATOM     10  C   UNL A   1      41.911  22.355  28.470  1.00  0.00     0.010 A 
ATOM     11  C   UNL A   1      42.466  23.131  26.245  1.00  0.00     0.010 A 
ATOM     12  C   UNL A   1      42.326  23.391  27.616  1.00  0.00    -0.014 A 
BRANCH  12  13
ATOM     13  C   UNL A   1      42.644  24.723  28.189  1.00  0.00     0.031 A 
ATOM     14  C   UNL A   1      44.055  25.103  28.541  1.00  0.00     0.074 A 
ATOM     15  C   UNL A   1      41.645  25.610  28.360  1.00  0.00     0.049 A 
ATOM     16  N   UNL A   1      44.509  26.234  29.023  1.00  0.00    -0.248 NA
ATOM     17  C   UNL A   1      45.092  24.082  28.336  1.00  0.00     0.031 C 
ATOM     18  C   UNL A   1      40.234  25.355  28.063  1.00  0.00     0.029 A 
ATOM     19  N   UNL A   1      41.662  26.906  28.806  1.00  0.00    -0.354 N 
ATOM     20  C   UNL A   1      45.875  26.055  29.198  1.00  0.00     0.074 A 
ATOM     21  C   UNL A   1      46.174  24.697  28.795  1.00  0.00     0.031 C 
ATOM     22  C   UNL A   1      39.530  26.474  28.283  1.00  0.00     0.029 A 
ATOM     23  C   UNL A   1      40.427  27.504  28.793  1.00  0.00     0.049 A 
ATOM     24  H   UNL A   1      42.481  27.363  29.106  1.00  0.00     0.167 HD
ATOM     25  C   UNL A   1      46.795  26.943  29.647  1.00  0.00     0.037 A 
ATOM     26  C   UNL A   1      40.052  28.743  29.160  1.00  0.00     0.037 A 
ATOM     27  C   UNL A   1      46.496  28.299  30.031  1.00  0.00     0.049 A 
ATOM     28  C   UNL A   1      41.087  29.700  29.674  1.00  0.00     0.074 A 
ATOM     29  C   UNL A   1      47.366  29.287  30.458  1.00  0.00     0.029 A 
ATOM     30  N   UNL A   1      45.225  28.857  30.040  1.00  0.00    -0.354 N 
ATOM     31  N   UNL A   1      42.379  29.525  29.803  1.00  0.00    -0.248 NA
ATOM     32  C   UNL A   1      40.609  31.022  30.098  1.00  0.00     0.031 C 
ATOM     33  C   UNL A   1      46.617  30.429  30.766  1.00  0.00     0.029 A 
ATOM     34  C   UNL A   1      45.285  30.167  30.488  1.00  0.00     0.049 A 
ATOM     35  H   UNL A   1      44.402  28.390  29.768  1.00  0.00     0.167 HD
ATOM     36  C   UNL A   1      42.875  30.721  30.306  1.00  0.00     0.074 A 
ATOM     37  C   UNL A   1      41.743  31.616  30.443  1.00  0.00     0.031 C 
ATOM     38  C   UNL A   1      44.151  31.045  30.623  1.00  0.00     0.037 A 
BRANCH  25  39
ATOM     39  C   UNL A   1      48.214  26.465  29.771  1.00  0.00     0.057 A 
ATOM     40  C   UNL A   1      49.143  26.618  28.733  1.00  0.00     0.134 A 
ATOM     41  C   UNL A   1      48.663  25.867  30.956  1.00  0.00     0.134 A 
ATOM     42  F   UNL A   1      48.775  27.172  27.568  1.00  0.00    -0.206 F 
ATOM     43  C   UNL A   1      50.459  26.169  28.860  1.00  0.00     0.040 A 
ATOM     44  C   UNL A   1      49.983  25.437  31.102  1.00  0.00     0.040 A 
ATOM     45  F   UNL A   1      47.828  25.697  31.992  1.00  0.00    -0.206 F 
ATOM     46  C   UNL A   1      50.884  25.581  30.050  1.00  0.00     0.006 A 
ENDBRANCH  25  39
BRANCH  26  47
ATOM     47  C   UNL A   1      38.630  29.143  29.037  1.00  0.00     0.057 A 
ATOM     48  C   UNL A   1      37.773  29.103  30.142  1.00  0.00     0.134 A 
ATOM     49  C   UNL A   1      38.104  29.609  27.826  1.00  0.00     0.134 A 
ATOM     50  F   UNL A   1      38.217  28.653  31.325  1.00  0.00    -0.206 F 
ATOM     51  C   UNL A   1      36.441  29.506  30.046  1.00  0.00     0.040 A 
ATOM     52  C   UNL A   1      36.782  30.039  27.722  1.00  0.00     0.040 A 
ATOM     53  F   UNL A   1      38.880  29.679  26.735  1.00  0.00    -0.206 F 
ATOM     54  C   UNL A   1      35.945  29.984  28.835  1.00  0.00     0.006 A 
ENDBRANCH  26  47
BRANCH  38  55
ATOM     55  C   UNL A   1      44.392  32.438  31.125  1.00  0.00     0.057 A 
ATOM     56  C   UNL A   1      44.384  32.742  32.492  1.00  0.00     0.134 A 
ATOM     57  C   UNL A   1      44.655  33.482  30.231  1.00  0.00     0.134 A 
ATOM     58  F   UNL A   1      44.123  31.787  33.399  1.00  0.00    -0.206 F 
ATOM     59  C   UNL A   1      44.607  34.041  32.950  1.00  0.00     0.040 A 
ATOM     60  C   UNL A   1      44.902  34.781  30.677  1.00  0.00     0.040 A 
ATOM     61  F   UNL A   1      44.681  33.256  28.909  1.00  0.00    -0.206 F 
ATOM     62  C   UNL A   1      44.873  35.064  32.042  1.00  0.00     0.006 A 
ENDBRANCH  38  55
ENDBRANCH  12  13
ENDBRANCH   5   7
ENDBRANCH   2   3
ENDBRANCH   1   2
BRANCH   1  63
ATOM     63  C   UNL A   1      36.593  21.034  24.625  1.00  0.00     0.023 C 
BRANCH  63  64
ATOM     64  C   UNL A   1      35.479  21.211  25.654  1.00  0.00     0.116 C 
BRANCH  64  65
ATOM     65  N   UNL A   1      34.317  20.379  25.362  1.00  0.00    -0.352 N 
ATOM     66  C   UNL A   1      32.985  20.690  25.478  1.00  0.00     0.254 C 
ATOM     67  H   UNL A   1      34.514  19.471  25.036  1.00  0.00     0.163 HD
ATOM     68  O   UNL A   1      32.119  19.832  25.355  1.00  0.00    -0.269 OA
BRANCH  66  69
ATOM     69  C   UNL A   1      32.601  22.066  25.772  1.00  0.00     0.076 A 
ATOM     70  C   UNL A   1      32.350  22.496  27.049  1.00  0.00     0.130 A 
ATOM     71  C   UNL A   1      32.417  22.993  24.778  1.00  0.00     0.130 A 
ATOM     72  N   UNL A   1      31.852  23.715  27.323  1.00  0.00    -0.221 NA
ATOM     73  N   UNL A   1      31.908  24.225  25.009  1.00  0.00    -0.221 NA
ATOM     74  C   UNL A   1      31.609  24.538  26.284  1.00  0.00     0.227 A 
BRANCH  74  75
ATOM     75  N   UNL A   1      30.897  25.717  26.474  1.00  0.00    -0.324 N 
ATOM     76  H   UNL A   1      29.965  25.596  26.769  1.00  0.00     0.170 HD
BRANCH  75  77
ATOM     77  C   UNL A   1      31.297  27.046  26.311  1.00  0.00     0.041 A 
ATOM     78  C   UNL A   1      31.134  27.663  25.063  1.00  0.00     0.026 A 
ATOM     79  C   UNL A   1      31.750  27.830  27.378  1.00  0.00     0.026 A 
ATOM     80  C   UNL A   1      31.416  29.022  24.890  1.00  0.00     0.002 A 
ATOM     81  C   UNL A   1      32.051  29.184  27.207  1.00  0.00     0.002 A 
ATOM     82  C   UNL A   1      31.877  29.781  25.961  1.00  0.00     0.000 A 
ENDBRANCH  75  77
ENDBRANCH  74  75
ENDBRANCH  66  69
ENDBRANCH  64  65
ENDBRANCH  63  64
ENDBRANCH   1  63
TORSDOF 13
ENDMDL
MODEL 2
REMARK VINA RESULT:     -11.5      0.645      1.865
REMARK SMILES O=C(NCCCCNC(=O)c1cnc(Nc2ccccc2)nc1)c1ccc(-c2c3nc(c(-c4c(F)cccc4F)c4ccc([nH]4)c(-c4c(F)cccc4F)c4nc(c(-c5c(F)cccc5F)c5ccc2[nH]5)C=C4)C=C3)cc1
REMARK SMILES IDX 5 1 4 2 3 3 1 4 2 5 24 7 25 8 77 9 26 10 76 11 27 12 28 13
REMARK SMILES IDX 29 14 70 15 30 16 75 17 69 18 71 19 31 20 74 21 68 22 67 23
REMARK SMILES IDX 32 25 58 26 41 27 57 28 42 29 45 30 56 31 72 32 43 33 44 34
REMARK SMILES IDX 55 36 73 37 46 38 33 39 34 40 39 41 35 42 36 43 38 44 40 45
REMARK SMILES IDX 37 46 59 47 60 48 65 49 61 50 62 51 64 52 66 53 63 54 47 55
REMARK SMILES IDX 48 56 53 57 49 58 50 59 52 60 54 61 51 62 6 63 7 64 8 65
REMARK SMILES IDX 9 66 10 68 11 69 12 70 23 71 13 72 22 73 14 74 15 75 16 77
REMARK SMILES IDX 17 78 21 79 18 80 20 81 19 82
REMARK H PARENT 3 6 71 24 45 35 8 67 15 76
REMARK Flexibility Score: inf
ROOT
ATOM      1  C   UNL A   1      37.610  19.881  24.989  1.00  0.00     0.023 C 
ENDROOT
BRANCH   1   2
ATOM      2  C   UNL A   1      38.844  20.356  25.744  1.00  0.00     0.116 C 
BRANCH   2   3
ATOM      3  N   UNL A   1      39.917  19.373  25.764  1.00  0.00    -0.352 N 
ATOM      4  O   UNL A   1      42.035  18.615  25.942  1.00  0.00    -0.269 OA
ATOM      5  C   UNL A   1      41.239  19.533  26.108  1.00  0.00     0.251 C 
ATOM      6  H   UNL A   1      39.660  18.463  25.491  1.00  0.00     0.163 HD
BRANCH   5   7
ATOM      7  C   UNL A   1      41.706  20.828  26.650  1.00  0.00     0.039 A 
ATOM      8  C   UNL A   1      41.675  21.082  28.022  1.00  0.00     0.014 A 
ATOM      9  C   UNL A   1      42.172  21.805  25.765  1.00  0.00     0.014 A 
ATOM     10  C   UNL A   1      41.953  22.359  28.493  1.00  0.00     0.010 A 
ATOM     11  C   UNL A   1      42.536  23.063  26.251  1.00  0.00     0.010 A 
ATOM     12  C   UNL A   1      42.391  23.364  27.614  1.00  0.00    -0.014 A 
BRANCH  12  13
ATOM     13  C   UNL A   1      42.727  24.706  28.152  1.00  0.00     0.031 A 
ATOM     14  C   UNL A   1      44.149  25.095  28.442  1.00  0.00     0.074 A 
ATOM     15  C   UNL A   1      41.733  25.593  28.347  1.00  0.00     0.049 A 
ATOM     16  N   UNL A   1      44.618  26.235  28.887  1.00  0.00    -0.248 NA
ATOM     17  C   UNL A   1      45.180  24.073  28.213  1.00  0.00     0.031 C 
ATOM     18  C   UNL A   1      40.312  25.330  28.109  1.00  0.00     0.029 A 
ATOM     19  N   UNL A   1      41.763  26.896  28.771  1.00  0.00    -0.354 N 
ATOM     20  C   UNL A   1      45.991  26.062  29.012  1.00  0.00     0.074 A 
ATOM     21  C   UNL A   1      46.278  24.697  28.620  1.00  0.00     0.031 C 
ATOM     22  C   UNL A   1      39.613  26.451  28.338  1.00  0.00     0.029 A 
ATOM     23  C   UNL A   1      40.527  27.492  28.796  1.00  0.00     0.049 A 
ATOM     24  H   UNL A   1      42.592  27.361  29.031  1.00  0.00     0.167 HD
ATOM     25  C   UNL A   1      46.925  26.959  29.410  1.00  0.00     0.037 A 
ATOM     26  C   UNL A   1      40.163  28.735  29.157  1.00  0.00     0.037 A 
ATOM     27  C   UNL A   1      46.638  28.321  29.782  1.00  0.00     0.049 A 
ATOM     28  C   UNL A   1      41.214  29.703  29.614  1.00  0.00     0.074 A 
ATOM     29  C   UNL A   1      47.520  29.318  30.159  1.00  0.00     0.029 A 
ATOM     30  N   UNL A   1      45.366  28.876  29.832  1.00  0.00    -0.354 N 
ATOM     31  N   UNL A   1      42.511  29.534  29.695  1.00  0.00    -0.248 NA
ATOM     32  C   UNL A   1      40.750  31.031  30.034  1.00  0.00     0.031 C 
ATOM     33  C   UNL A   1      46.780  30.463  30.478  1.00  0.00     0.029 A 
ATOM     34  C   UNL A   1      45.440  30.193  30.256  1.00  0.00     0.049 A 
ATOM     35  H   UNL A   1      44.535  28.403  29.600  1.00  0.00     0.167 HD
ATOM     36  C   UNL A   1      43.022  30.738  30.159  1.00  0.00     0.074 A 
ATOM     37  C   UNL A   1      41.894  31.633  30.326  1.00  0.00     0.031 C 
ATOM     38  C   UNL A   1      44.309  31.071  30.421  1.00  0.00     0.037 A 
BRANCH  25  39
ATOM     39  C   UNL A   1      48.349  26.487  29.486  1.00  0.00     0.057 A 
ATOM     40  C   UNL A   1      48.861  25.851  30.624  1.00  0.00     0.134 A 
ATOM     41  C   UNL A   1      49.212  26.651  28.395  1.00  0.00     0.134 A 
ATOM     42  F   UNL A   1      48.091  25.673  31.708  1.00  0.00    -0.206 F 
ATOM     43  C   UNL A   1      50.188  25.417  30.684  1.00  0.00     0.040 A 
ATOM     44  C   UNL A   1      50.533  26.200  28.435  1.00  0.00     0.040 A 
ATOM     45  F   UNL A   1      48.785  27.245  27.271  1.00  0.00    -0.206 F 
ATOM     46  C   UNL A   1      51.027  25.587  29.584  1.00  0.00     0.006 A 
ENDBRANCH  25  39
BRANCH  26  47
ATOM     47  C   UNL A   1      38.736  29.130  29.083  1.00  0.00     0.057 A 
ATOM     48  C   UNL A   1      38.175  29.582  27.884  1.00  0.00     0.134 A 
ATOM     49  C   UNL A   1      37.893  29.031  30.196  1.00  0.00     0.134 A 
ATOM     50  F   UNL A   1      38.938  29.711  26.788  1.00  0.00    -0.206 F 
ATOM     51  C   UNL A   1      36.826  29.927  27.794  1.00  0.00     0.040 A 
ATOM     52  C   UNL A   1      36.537  29.349  30.115  1.00  0.00     0.040 A 
ATOM     53  F   UNL A   1      38.371  28.595  31.370  1.00  0.00    -0.206 F 
ATOM     54  C   UNL A   1      36.002  29.802  28.911  1.00  0.00     0.006 A 
ENDBRANCH  26  47
BRANCH  38  55
ATOM     55  C   UNL A   1      44.566  32.472  30.890  1.00  0.00     0.057 A 
ATOM     56  C   UNL A   1      44.778  33.524  29.990  1.00  0.00     0.134 A 
ATOM     57  C   UNL A   1      44.581  32.775  32.256  1.00  0.00     0.134 A 
ATOM     58  F   UNL A   1      44.792  33.296  28.668  1.00  0.00    -0.206 F 
ATOM     59  C   UNL A   1      45.019  34.825  30.435  1.00  0.00     0.040 A 
ATOM     60  C   UNL A   1      44.797  34.076  32.713  1.00  0.00     0.040 A 
ATOM     61  F   UNL A   1      44.380  31.813  33.169  1.00  0.00    -0.206 F 
ATOM     62  C   UNL A   1      45.023  35.104  31.800  1.00  0.00     0.006 A 
ENDBRANCH  38  55
ENDBRANCH  12  13
ENDBRANCH   5   7
ENDBRANCH   2   3
ENDBRANCH   1   2
BRANCH   1  63
ATOM     63  C   UNL A   1      36.588  20.968  24.660  1.00  0.00     0.023 C 
BRANCH  63  64
ATOM     64  C   UNL A   1      35.402  21.053  25.618  1.00  0.00     0.116 C 
BRANCH  64  65
ATOM     65  N   UNL A   1      34.398  20.030  25.350  1.00  0.00    -0.352 N 
ATOM     66  C   UNL A   1      33.052  20.183  25.128  1.00  0.00     0.254 C 
ATOM     67  H   UNL A   1      34.731  19.104  25.324  1.00  0.00     0.163 HD
ATOM     68  O   UNL A   1      32.302  19.215  25.082  1.00  0.00    -0.269 OA
BRANCH  66  69
ATOM     69  C   UNL A   1      32.509  21.525  24.962  1.00  0.00     0.076 A 
ATOM     70  C   UNL A   1      32.616  22.216  23.783  1.00  0.00     0.130 A 
ATOM     71  C   UNL A   1      31.907  22.195  25.996  1.00  0.00     0.130 A 
ATOM     72  N   UNL A   1      32.256  23.505  23.656  1.00  0.00    -0.221 NA
ATOM     73  N   UNL A   1      31.540  23.494  25.915  1.00  0.00    -0.221 NA
ATOM     74  C   UNL A   1      31.758  24.123  24.745  1.00  0.00     0.227 A 
BRANCH  74  75
ATOM     75  N   UNL A   1      31.573  25.501  24.747  1.00  0.00    -0.324 N 
ATOM     76  H   UNL A   1      31.037  25.848  23.997  1.00  0.00     0.170 HD
BRANCH  75  77
ATOM     77  C   UNL A   1      32.027  26.469  25.647  1.00  0.00     0.041 A 
ATOM     78  C   UNL A   1      33.366  26.883  25.589  1.00  0.00     0.026 A 
ATOM     79  C   UNL A   1      31.172  27.132  26.533  1.00  0.00     0.026 A 
ATOM     80  C   UNL A   1      33.831  27.928  26.394  1.00  0.00     0.002 A 
ATOM     81  C   UNL A   1      31.634  28.164  27.353  1.00  0.00     0.002 A 
ATOM     82  C   UNL A   1      32.965  28.566  27.278  1.00  0.00     0.000 A 
ENDBRANCH  75  77
ENDBRANCH  74  75
ENDBRANCH  66  69
ENDBRANCH  64  65
ENDBRANCH  63  64
ENDBRANCH   1  63
TORSDOF 13
ENDMDL
MODEL 3
REMARK VINA RESULT:     -11.4      0.275      6.418
REMARK SMILES O=C(NCCCCNC(=O)c1cnc(Nc2ccccc2)nc1)c1ccc(-c2c3nc(c(-c4c(F)cccc4F)c4ccc([nH]4)c(-c4c(F)cccc4F)c4nc(c(-c5c(F)cccc5F)c5ccc2[nH]5)C=C4)C=C3)cc1
REMARK SMILES IDX 5 1 4 2 3 3 1 4 2 5 24 7 25 8 77 9 26 10 76 11 27 12 28 13
REMARK SMILES IDX 29 14 70 15 30 16 75 17 69 18 71 19 31 20 74 21 68 22 67 23
REMARK SMILES IDX 32 25 58 26 41 27 57 28 42 29 45 30 56 31 72 32 43 33 44 34
REMARK SMILES IDX 55 36 73 37 46 38 33 39 34 40 39 41 35 42 36 43 38 44 40 45
REMARK SMILES IDX 37 46 59 47 60 48 65 49 61 50 62 51 64 52 66 53 63 54 47 55
REMARK SMILES IDX 48 56 53 57 49 58 50 59 52 60 54 61 51 62 6 63 7 64 8 65
REMARK SMILES IDX 9 66 10 68 11 69 12 70 23 71 13 72 22 73 14 74 15 75 16 77
REMARK SMILES IDX 17 78 21 79 18 80 20 81 19 82
REMARK H PARENT 3 6 71 24 45 35 8 67 15 76
REMARK Flexibility Score: inf
ROOT
ATOM      1  C   UNL A   1      37.591  20.009  24.961  1.00  0.00     0.023 C 
ENDROOT
BRANCH   1   2
ATOM      2  C   UNL A   1      38.816  20.462  25.744  1.00  0.00     0.116 C 
BRANCH   2   3
ATOM      3  N   UNL A   1      39.879  19.468  25.771  1.00  0.00    -0.352 N 
ATOM      4  O   UNL A   1      41.989  18.689  25.949  1.00  0.00    -0.269 OA
ATOM      5  C   UNL A   1      41.203  19.618  26.107  1.00  0.00     0.251 C 
ATOM      6  H   UNL A   1      39.610  18.557  25.511  1.00  0.00     0.163 HD
BRANCH   5   7
ATOM      7  C   UNL A   1      41.687  20.914  26.630  1.00  0.00     0.039 A 
ATOM      8  C   UNL A   1      41.640  21.197  27.996  1.00  0.00     0.014 A 
ATOM      9  C   UNL A   1      42.186  21.864  25.733  1.00  0.00     0.014 A 
ATOM     10  C   UNL A   1      41.935  22.478  28.446  1.00  0.00     0.010 A 
ATOM     11  C   UNL A   1      42.566  23.125  26.200  1.00  0.00     0.010 A 
ATOM     12  C   UNL A   1      42.406  23.456  27.554  1.00  0.00    -0.014 A 
BRANCH  12  13
ATOM     13  C   UNL A   1      42.759  24.802  28.070  1.00  0.00     0.031 A 
ATOM     14  C   UNL A   1      41.704  25.846  28.311  1.00  0.00     0.074 A 
ATOM     15  C   UNL A   1      44.048  25.069  28.356  1.00  0.00     0.049 A 
ATOM     16  N   UNL A   1      41.839  27.060  28.785  1.00  0.00    -0.248 NA
ATOM     17  C   UNL A   1      40.321  25.488  27.967  1.00  0.00     0.031 C 
ATOM     18  C   UNL A   1      45.163  24.139  28.158  1.00  0.00     0.029 A 
ATOM     19  N   UNL A   1      44.636  26.185  28.889  1.00  0.00    -0.354 N 
ATOM     20  C   UNL A   1      40.567  27.617  28.778  1.00  0.00     0.074 A 
ATOM     21  C   UNL A   1      39.675  26.616  28.227  1.00  0.00     0.031 C 
ATOM     22  C   UNL A   1      46.290  24.704  28.613  1.00  0.00     0.029 A 
ATOM     23  C   UNL A   1      45.989  26.053  29.078  1.00  0.00     0.049 A 
ATOM     24  H   UNL A   1      44.137  27.004  29.115  1.00  0.00     0.167 HD
ATOM     25  C   UNL A   1      40.177  28.845  29.196  1.00  0.00     0.037 A 
ATOM     26  C   UNL A   1      46.893  26.923  29.562  1.00  0.00     0.037 A 
ATOM     27  C   UNL A   1      41.064  29.831  29.760  1.00  0.00     0.049 A 
ATOM     28  C   UNL A   1      46.440  28.284  29.999  1.00  0.00     0.074 A 
ATOM     29  C   UNL A   1      40.758  31.087  30.252  1.00  0.00     0.029 A 
ATOM     30  N   UNL A   1      42.436  29.673  29.899  1.00  0.00    -0.354 N 
ATOM     31  N   UNL A   1      45.229  28.783  30.016  1.00  0.00    -0.248 NA
ATOM     32  C   UNL A   1      47.480  29.203  30.479  1.00  0.00     0.031 C 
ATOM     33  C   UNL A   1      41.948  31.706  30.650  1.00  0.00     0.029 A 
ATOM     34  C   UNL A   1      42.992  30.818  30.448  1.00  0.00     0.049 A 
ATOM     35  H   UNL A   1      42.940  28.866  29.646  1.00  0.00     0.167 HD
ATOM     36  C   UNL A   1      45.355  30.069  30.525  1.00  0.00     0.074 A 
ATOM     37  C   UNL A   1      46.761  30.265  30.817  1.00  0.00     0.031 C 
ATOM     38  C   UNL A   1      44.393  31.001  30.730  1.00  0.00     0.037 A 
BRANCH  25  39
ATOM     39  C   UNL A   1      38.726  29.202  29.039  1.00  0.00     0.057 A 
ATOM     40  C   UNL A   1      38.190  29.609  27.810  1.00  0.00     0.134 A 
ATOM     41  C   UNL A   1      37.849  29.113  30.128  1.00  0.00     0.134 A 
ATOM     42  F   UNL A   1      38.978  29.727  26.731  1.00  0.00    -0.206 F 
ATOM     43  C   UNL A   1      36.840  29.940  27.676  1.00  0.00     0.040 A 
ATOM     44  C   UNL A   1      36.493  29.418  29.999  1.00  0.00     0.040 A 
ATOM     45  F   UNL A   1      38.294  28.722  31.331  1.00  0.00    -0.206 F 
ATOM     46  C   UNL A   1      35.985  29.840  28.773  1.00  0.00     0.006 A 
ENDBRANCH  25  39
BRANCH  26  47
ATOM     47  C   UNL A   1      48.316  26.517  29.668  1.00  0.00     0.057 A 
ATOM     48  C   UNL A   1      49.230  26.829  28.656  1.00  0.00     0.134 A 
ATOM     49  C   UNL A   1      48.801  25.843  30.794  1.00  0.00     0.134 A 
ATOM     50  F   UNL A   1      48.820  27.462  27.547  1.00  0.00    -0.206 F 
ATOM     51  C   UNL A   1      50.577  26.480  28.758  1.00  0.00     0.040 A 
ATOM     52  C   UNL A   1      50.149  25.509  30.920  1.00  0.00     0.040 A 
ATOM     53  F   UNL A   1      47.974  25.525  31.800  1.00  0.00    -0.206 F 
ATOM     54  C   UNL A   1      51.041  25.825  29.897  1.00  0.00     0.006 A 
ENDBRANCH  26  47
BRANCH  38  55
ATOM     55  C   UNL A   1      44.829  32.306  31.325  1.00  0.00     0.057 A 
ATOM     56  C   UNL A   1      45.218  33.388  30.526  1.00  0.00     0.134 A 
ATOM     57  C   UNL A   1      44.840  32.488  32.713  1.00  0.00     0.134 A 
ATOM     58  F   UNL A   1      45.245  33.272  29.189  1.00  0.00    -0.206 F 
ATOM     59  C   UNL A   1      45.626  34.599  31.088  1.00  0.00     0.040 A 
ATOM     60  C   UNL A   1      45.223  33.702  33.287  1.00  0.00     0.040 A 
ATOM     61  F   UNL A   1      44.474  31.492  33.534  1.00  0.00    -0.206 F 
ATOM     62  C   UNL A   1      45.623  34.760  32.473  1.00  0.00     0.006 A 
ENDBRANCH  38  55
ENDBRANCH  12  13
ENDBRANCH   5   7
ENDBRANCH   2   3
ENDBRANCH   1   2
BRANCH   1  63
ATOM     63  C   UNL A   1      36.562  21.100  24.671  1.00  0.00     0.023 C 
BRANCH  63  64
ATOM     64  C   UNL A   1      35.452  21.235  25.711  1.00  0.00     0.116 C 
BRANCH  64  65
ATOM     65  N   UNL A   1      34.303  20.389  25.408  1.00  0.00    -0.352 N 
ATOM     66  C   UNL A   1      32.966  20.689  25.500  1.00  0.00     0.254 C 
ATOM     67  H   UNL A   1      34.514  19.481  25.093  1.00  0.00     0.163 HD
ATOM     68  O   UNL A   1      32.110  19.822  25.372  1.00  0.00    -0.269 OA
BRANCH  66  69
ATOM     69  C   UNL A   1      32.565  22.063  25.775  1.00  0.00     0.076 A 
ATOM     70  C   UNL A   1      32.367  22.524  27.051  1.00  0.00     0.130 A 
ATOM     71  C   UNL A   1      32.309  22.957  24.768  1.00  0.00     0.130 A 
ATOM     72  N   UNL A   1      31.855  23.739  27.317  1.00  0.00    -0.221 NA
ATOM     73  N   UNL A   1      31.782  24.184  24.990  1.00  0.00    -0.221 NA
ATOM     74  C   UNL A   1      31.540  24.526  26.270  1.00  0.00     0.227 A 
BRANCH  74  75
ATOM     75  N   UNL A   1      30.810  25.693  26.463  1.00  0.00    -0.324 N 
ATOM     76  H   UNL A   1      29.882  25.558  26.761  1.00  0.00     0.170 HD
BRANCH  75  77
ATOM     77  C   UNL A   1      31.190  27.029  26.301  1.00  0.00     0.041 A 
ATOM     78  C   UNL A   1      31.752  27.718  27.385  1.00  0.00     0.026 A 
ATOM     79  C   UNL A   1      31.140  27.680  25.063  1.00  0.00     0.026 A 
ATOM     80  C   UNL A   1      32.247  29.017  27.233  1.00  0.00     0.002 A 
ATOM     81  C   UNL A   1      31.617  28.983  24.909  1.00  0.00     0.002 A 
ATOM     82  C   UNL A   1      32.178  29.650  25.996  1.00  0.00     0.000 A 
ENDBRANCH  75  77
ENDBRANCH  74  75
ENDBRANCH  66  69
ENDBRANCH  64  65
ENDBRANCH  63  64
ENDBRANCH   1  63
TORSDOF 13
ENDMDL
