MODEL 1
REMARK VINA RESULT:     -11.8      0.000      0.000
REMARK SMILES CN(CCS(C)(=O)=O)S(=O)(=O)c1cc(C(=O)NCCCCNC(=O)c2ccc(-c3c4nc(c(-c5c(F)cccc5F)c5ccc([nH]5)c(-c5c(F)cccc5F)c5nc(c(-c6c(F)cccc6F)c6ccc3[nH]6)C=C5)C=C4)cc2)ccc1F
REMARK SMILES IDX 18 1 17 2 15 3 16 4 14 6 12 7 13 8 81 9 80 10 82 11 79 12
REMARK SMILES IDX 9 13 10 14 11 15 2 16 1 17 3 18 4 19 5 20 6 21 7 22 8 23
REMARK SMILES IDX 19 24 20 25 21 26 22 27 23 28 24 30 25 31 26 32 78 33 27 34
REMARK SMILES IDX 77 35 28 36 29 37 30 38 71 39 31 40 76 41 70 42 72 43 32 44
REMARK SMILES IDX 75 45 69 46 68 47 33 49 59 50 42 51 58 52 43 53 46 54 57 55
REMARK SMILES IDX 73 56 44 57 45 58 56 60 74 61 47 62 34 63 35 64 40 65 36 66
REMARK SMILES IDX 37 67 39 68 41 69 38 70 60 71 61 72 66 73 62 74 63 75 65 76
REMARK SMILES IDX 67 77 64 78 48 79 49 80 54 81 50 82 51 83 53 84 55 85 52 86
REMARK H PARENT 17 5 22 29 72 48 46 59
REMARK Flexibility Score: inf
ROOT
ATOM      1  C   UNL A   1      35.936  21.103  25.294  1.00  0.00     0.116 C 
ENDROOT
BRANCH   1   2
ATOM      2  N   UNL A   1      35.150  19.913  25.029  1.00  0.00    -0.352 N 
ATOM      3  C   UNL A   1      33.851  19.744  24.613  1.00  0.00     0.251 C 
ATOM      4  O   UNL A   1      33.466  18.596  24.397  1.00  0.00    -0.269 OA
ATOM      5  H   UNL A   1      35.638  19.071  25.172  1.00  0.00     0.163 HD
BRANCH   3   6
ATOM      6  C   UNL A   1      32.902  20.877  24.400  1.00  0.00     0.041 A 
ATOM      7  C   UNL A   1      31.516  22.636  25.413  1.00  0.00     0.119 A 
ATOM      8  C   UNL A   1      32.352  21.505  25.537  1.00  0.00     0.038 A 
ATOM      9  C   UNL A   1      31.183  23.064  24.142  1.00  0.00     0.143 A 
ATOM     10  C   UNL A   1      31.724  22.469  23.014  1.00  0.00     0.041 A 
ATOM     11  F   UNL A   1      30.397  24.102  23.895  1.00  0.00    -0.206 F 
ATOM     12  C   UNL A   1      32.615  21.417  23.149  1.00  0.00     0.017 A 
BRANCH   7  13
ATOM     13  S   UNL A   1      31.250  23.615  26.872  1.00  0.00     0.245 S 
ATOM     14  O   UNL A   1      32.096  23.047  27.897  1.00  0.00    -0.207 OA
ATOM     15  O   UNL A   1      29.813  23.641  27.052  1.00  0.00    -0.207 OA
BRANCH  13  16
ATOM     16  N   UNL A   1      31.723  25.244  26.681  1.00  0.00    -0.200 NA
ATOM     17  C   UNL A   1      33.078  25.355  26.052  1.00  0.00     0.124 C 
BRANCH  16  18
ATOM     18  C   UNL A   1      30.805  26.311  26.172  1.00  0.00     0.118 C 
BRANCH  18  19
ATOM     19  C   UNL A   1      31.136  27.056  24.893  1.00  0.00     0.153 C 
BRANCH  19  20
ATOM     20  S   UNL A   1      31.609  28.775  24.905  1.00  0.00     0.148 S 
ATOM     21  C   UNL A   1      33.028  29.041  23.872  1.00  0.00     0.158 C 
ATOM     22  O   UNL A   1      30.525  29.491  24.249  1.00  0.00    -0.229 OA
ATOM     23  O   UNL A   1      31.962  29.134  26.264  1.00  0.00    -0.229 OA
ENDBRANCH  19  20
ENDBRANCH  18  19
ENDBRANCH  16  18
ENDBRANCH  13  16
ENDBRANCH   7  13
ENDBRANCH   3   6
ENDBRANCH   1   2
BRANCH   1  24
ATOM     24  C   UNL A   1      37.318  21.011  24.635  1.00  0.00     0.023 C 
BRANCH  24  25
ATOM     25  C   UNL A   1      38.135  19.781  25.029  1.00  0.00     0.023 C 
BRANCH  25  26
ATOM     26  C   UNL A   1      39.399  20.096  25.815  1.00  0.00     0.116 C 
BRANCH  26  27
ATOM     27  N   UNL A   1      40.349  18.996  25.852  1.00  0.00    -0.352 N 
ATOM     28  C   UNL A   1      41.692  19.060  26.135  1.00  0.00     0.251 C 
ATOM     29  H   UNL A   1      39.988  18.102  25.651  1.00  0.00     0.163 HD
ATOM     30  O   UNL A   1      42.406  18.068  26.040  1.00  0.00    -0.269 OA
BRANCH  28  31
ATOM     31  C   UNL A   1      42.271  20.368  26.495  1.00  0.00     0.039 A 
ATOM     32  C   UNL A   1      42.787  21.173  25.476  1.00  0.00     0.014 A 
ATOM     33  C   UNL A   1      42.232  20.821  27.816  1.00  0.00     0.014 A 
ATOM     34  C   UNL A   1      43.201  22.470  25.775  1.00  0.00     0.010 A 
ATOM     35  C   UNL A   1      42.589  22.134  28.100  1.00  0.00     0.010 A 
ATOM     36  C   UNL A   1      43.070  22.970  27.080  1.00  0.00    -0.014 A 
BRANCH  36  37
ATOM     37  C   UNL A   1      43.418  24.373  27.398  1.00  0.00     0.031 A 
ATOM     38  C   UNL A   1      44.847  24.823  27.337  1.00  0.00     0.074 A 
ATOM     39  C   UNL A   1      42.454  25.220  27.804  1.00  0.00     0.049 A 
ATOM     40  N   UNL A   1      45.358  25.987  27.643  1.00  0.00    -0.248 NA
ATOM     41  C   UNL A   1      45.836  23.825  26.897  1.00  0.00     0.031 C 
ATOM     42  C   UNL A   1      41.035  24.882  27.948  1.00  0.00     0.029 A 
ATOM     43  N   UNL A   1      42.522  26.537  28.177  1.00  0.00    -0.354 N 
ATOM     44  C   UNL A   1      46.726  25.858  27.451  1.00  0.00     0.074 A 
ATOM     45  C   UNL A   1      46.972  24.493  27.037  1.00  0.00     0.031 C 
ATOM     46  C   UNL A   1      40.365  25.973  28.354  1.00  0.00     0.029 A 
ATOM     47  C   UNL A   1      41.308  27.075  28.523  1.00  0.00     0.049 A 
ATOM     48  H   UNL A   1      43.363  27.050  28.195  1.00  0.00     0.167 HD
ATOM     49  C   UNL A   1      47.688  26.799  27.590  1.00  0.00     0.037 A 
ATOM     50  C   UNL A   1      40.991  28.318  28.930  1.00  0.00     0.037 A 
ATOM     51  C   UNL A   1      47.438  28.164  27.965  1.00  0.00     0.049 A 
ATOM     52  C   UNL A   1      42.072  29.351  29.053  1.00  0.00     0.074 A 
ATOM     53  C   UNL A   1      48.340  29.208  28.072  1.00  0.00     0.029 A 
ATOM     54  N   UNL A   1      46.191  28.675  28.291  1.00  0.00    -0.354 N 
ATOM     55  N   UNL A   1      43.357  29.228  28.825  1.00  0.00    -0.248 NA
ATOM     56  C   UNL A   1      41.662  30.694  29.489  1.00  0.00     0.031 C 
ATOM     57  C   UNL A   1      47.641  30.348  28.484  1.00  0.00     0.029 A 
ATOM     58  C   UNL A   1      46.301  30.019  28.608  1.00  0.00     0.049 A 
ATOM     59  H   UNL A   1      45.353  28.159  28.295  1.00  0.00     0.167 HD
ATOM     60  C   UNL A   1      43.908  30.477  29.075  1.00  0.00     0.074 A 
ATOM     61  C   UNL A   1      42.816  31.348  29.463  1.00  0.00     0.031 C 
ATOM     62  C   UNL A   1      45.203  30.866  28.991  1.00  0.00     0.037 A 
BRANCH  49  63
ATOM     63  C   UNL A   1      49.100  26.382  27.319  1.00  0.00     0.057 A 
ATOM     64  C   UNL A   1      49.628  26.436  26.025  1.00  0.00     0.134 A 
ATOM     65  C   UNL A   1      49.929  25.896  28.339  1.00  0.00     0.134 A 
ATOM     66  F   UNL A   1      48.884  26.892  25.005  1.00  0.00    -0.206 F 
ATOM     67  C   UNL A   1      50.932  26.020  25.752  1.00  0.00     0.040 A 
ATOM     68  C   UNL A   1      51.240  25.496  28.084  1.00  0.00     0.040 A 
ATOM     69  F   UNL A   1      49.485  25.835  29.604  1.00  0.00    -0.206 F 
ATOM     70  C   UNL A   1      51.743  25.552  26.784  1.00  0.00     0.006 A 
ENDBRANCH  49  63
BRANCH  50  71
ATOM     71  C   UNL A   1      39.577  28.657  29.210  1.00  0.00     0.057 A 
ATOM     72  C   UNL A   1      38.743  29.195  28.225  1.00  0.00     0.134 A 
ATOM     73  C   UNL A   1      39.038  28.476  30.489  1.00  0.00     0.134 A 
ATOM     74  F   UNL A   1      39.205  29.399  26.983  1.00  0.00    -0.206 F 
ATOM     75  C   UNL A   1      37.422  29.552  28.503  1.00  0.00     0.040 A 
ATOM     76  C   UNL A   1      37.716  28.813  30.778  1.00  0.00     0.040 A 
ATOM     77  F   UNL A   1      39.789  27.951  31.468  1.00  0.00    -0.206 F 
ATOM     78  C   UNL A   1      36.906  29.359  29.784  1.00  0.00     0.006 A 
ENDBRANCH  50  71
BRANCH  62  79
ATOM     79  C   UNL A   1      45.512  32.295  29.312  1.00  0.00     0.057 A 
ATOM     80  C   UNL A   1      45.825  32.682  30.620  1.00  0.00     0.134 A 
ATOM     81  C   UNL A   1      45.433  33.295  28.336  1.00  0.00     0.134 A 
ATOM     82  F   UNL A   1      45.908  31.767  31.598  1.00  0.00    -0.206 F 
ATOM     83  C   UNL A   1      46.039  34.020  30.950  1.00  0.00     0.040 A 
ATOM     84  C   UNL A   1      45.661  34.635  28.651  1.00  0.00     0.040 A 
ATOM     85  F   UNL A   1      45.147  32.983  27.064  1.00  0.00    -0.206 F 
ATOM     86  C   UNL A   1      45.957  35.001  29.964  1.00  0.00     0.006 A 
ENDBRANCH  62  79
ENDBRANCH  36  37
ENDBRANCH  28  31
ENDBRANCH  26  27
ENDBRANCH  25  26
ENDBRANCH  24  25
ENDBRANCH   1  24
TORSDOF 16
ENDMDL
MODEL 2
REMARK VINA RESULT:     -11.8      2.259      2.844
REMARK SMILES CN(CCS(C)(=O)=O)S(=O)(=O)c1cc(C(=O)NCCCCNC(=O)c2ccc(-c3c4nc(c(-c5c(F)cccc5F)c5ccc([nH]5)c(-c5c(F)cccc5F)c5nc(c(-c6c(F)cccc6F)c6ccc3[nH]6)C=C5)C=C4)cc2)ccc1F
REMARK SMILES IDX 18 1 17 2 15 3 16 4 14 6 12 7 13 8 81 9 80 10 82 11 79 12
REMARK SMILES IDX 9 13 10 14 11 15 2 16 1 17 3 18 4 19 5 20 6 21 7 22 8 23
REMARK SMILES IDX 19 24 20 25 21 26 22 27 23 28 24 30 25 31 26 32 78 33 27 34
REMARK SMILES IDX 77 35 28 36 29 37 30 38 71 39 31 40 76 41 70 42 72 43 32 44
REMARK SMILES IDX 75 45 69 46 68 47 33 49 59 50 42 51 58 52 43 53 46 54 57 55
REMARK SMILES IDX 73 56 44 57 45 58 56 60 74 61 47 62 34 63 35 64 40 65 36 66
REMARK SMILES IDX 37 67 39 68 41 69 38 70 60 71 61 72 66 73 62 74 63 75 65 76
REMARK SMILES IDX 67 77 64 78 48 79 49 80 54 81 50 82 51 83 53 84 55 85 52 86
REMARK H PARENT 17 5 22 29 72 48 46 59
REMARK Flexibility Score: inf
ROOT
ATOM      1  C   UNL A   1      36.590  22.662  24.472  1.00  0.00     0.116 C 
ENDROOT
BRANCH   1   2
ATOM      2  N   UNL A   1      35.689  22.744  23.339  1.00  0.00    -0.352 N 
ATOM      3  C   UNL A   1      34.527  23.448  23.138  1.00  0.00     0.251 C 
ATOM      4  O   UNL A   1      34.003  23.380  22.027  1.00  0.00    -0.269 OA
ATOM      5  H   UNL A   1      35.963  22.194  22.569  1.00  0.00     0.163 HD
BRANCH   3   6
ATOM      6  C   UNL A   1      33.885  24.293  24.189  1.00  0.00     0.041 A 
ATOM      7  C   UNL A   1      33.387  26.556  25.008  1.00  0.00     0.119 A 
ATOM      8  C   UNL A   1      34.037  25.692  24.101  1.00  0.00     0.038 A 
ATOM      9  C   UNL A   1      32.661  25.990  26.040  1.00  0.00     0.143 A 
ATOM     10  C   UNL A   1      32.488  24.619  26.135  1.00  0.00     0.041 A 
ATOM     11  F   UNL A   1      32.019  26.692  26.962  1.00  0.00    -0.206 F 
ATOM     12  C   UNL A   1      33.056  23.784  25.186  1.00  0.00     0.017 A 
BRANCH   7  13
ATOM     13  S   UNL A   1      33.264  28.269  24.555  1.00  0.00     0.245 S 
ATOM     14  O   UNL A   1      33.830  28.377  23.230  1.00  0.00    -0.207 OA
ATOM     15  O   UNL A   1      33.860  28.995  25.658  1.00  0.00    -0.207 OA
BRANCH  13  16
ATOM     16  N   UNL A   1      31.653  28.822  24.456  1.00  0.00    -0.200 NA
ATOM     17  C   UNL A   1      31.423  30.015  25.333  1.00  0.00     0.124 C 
BRANCH  16  18
ATOM     18  C   UNL A   1      30.908  28.955  23.164  1.00  0.00     0.118 C 
BRANCH  18  19
ATOM     19  C   UNL A   1      29.449  28.550  23.078  1.00  0.00     0.153 C 
BRANCH  19  20
ATOM     20  S   UNL A   1      28.172  29.728  22.677  1.00  0.00     0.148 S 
ATOM     21  C   UNL A   1      28.548  31.319  23.371  1.00  0.00     0.158 C 
ATOM     22  O   UNL A   1      28.243  29.918  21.236  1.00  0.00    -0.229 OA
ATOM     23  O   UNL A   1      26.931  29.260  23.260  1.00  0.00    -0.229 OA
ENDBRANCH  19  20
ENDBRANCH  18  19
ENDBRANCH  16  18
ENDBRANCH  13  16
ENDBRANCH   7  13
ENDBRANCH   3   6
ENDBRANCH   1   2
BRANCH   1  24
ATOM     24  C   UNL A   1      36.497  21.290  25.155  1.00  0.00     0.023 C 
BRANCH  24  25
ATOM     25  C   UNL A   1      37.677  20.359  24.881  1.00  0.00     0.023 C 
BRANCH  25  26
ATOM     26  C   UNL A   1      38.887  20.606  25.769  1.00  0.00     0.116 C 
BRANCH  26  27
ATOM     27  N   UNL A   1      39.868  19.533  25.726  1.00  0.00    -0.352 N 
ATOM     28  C   UNL A   1      41.192  19.596  26.086  1.00  0.00     0.251 C 
ATOM     29  H   UNL A   1      39.546  18.661  25.401  1.00  0.00     0.163 HD
ATOM     30  O   UNL A   1      41.941  18.641  25.912  1.00  0.00    -0.269 OA
BRANCH  28  31
ATOM     31  C   UNL A   1      41.712  20.865  26.630  1.00  0.00     0.039 A 
ATOM     32  C   UNL A   1      42.220  21.815  25.740  1.00  0.00     0.014 A 
ATOM     33  C   UNL A   1      41.624  21.139  27.997  1.00  0.00     0.014 A 
ATOM     34  C   UNL A   1      42.575  23.075  26.216  1.00  0.00     0.010 A 
ATOM     35  C   UNL A   1      41.924  22.415  28.460  1.00  0.00     0.010 A 
ATOM     36  C   UNL A   1      42.395  23.394  27.572  1.00  0.00    -0.014 A 
BRANCH  36  37
ATOM     37  C   UNL A   1      42.681  24.754  28.079  1.00  0.00     0.031 A 
ATOM     38  C   UNL A   1      44.079  25.132  28.469  1.00  0.00     0.074 A 
ATOM     39  C   UNL A   1      41.668  25.625  28.249  1.00  0.00     0.049 A 
ATOM     40  N   UNL A   1      44.516  26.245  28.996  1.00  0.00    -0.248 NA
ATOM     41  C   UNL A   1      45.120  24.111  28.263  1.00  0.00     0.031 C 
ATOM     42  C   UNL A   1      40.259  25.356  27.950  1.00  0.00     0.029 A 
ATOM     43  N   UNL A   1      41.668  26.912  28.722  1.00  0.00    -0.354 N 
ATOM     44  C   UNL A   1      45.875  26.055  29.200  1.00  0.00     0.074 A 
ATOM     45  C   UNL A   1      46.186  24.707  28.776  1.00  0.00     0.031 C 
ATOM     46  C   UNL A   1      39.537  26.454  28.223  1.00  0.00     0.029 A 
ATOM     47  C   UNL A   1      40.424  27.491  28.739  1.00  0.00     0.049 A 
ATOM     48  H   UNL A   1      42.483  27.377  29.021  1.00  0.00     0.167 HD
ATOM     49  C   UNL A   1      46.785  26.935  29.681  1.00  0.00     0.037 A 
ATOM     50  C   UNL A   1      40.043  28.722  29.127  1.00  0.00     0.037 A 
ATOM     51  C   UNL A   1      46.480  28.285  30.067  1.00  0.00     0.049 A 
ATOM     52  C   UNL A   1      41.074  29.687  29.635  1.00  0.00     0.074 A 
ATOM     53  C   UNL A   1      47.346  29.271  30.508  1.00  0.00     0.029 A 
ATOM     54  N   UNL A   1      45.211  28.841  30.054  1.00  0.00    -0.354 N 
ATOM     55  N   UNL A   1      42.364  29.510  29.782  1.00  0.00    -0.248 NA
ATOM     56  C   UNL A   1      40.599  31.021  30.030  1.00  0.00     0.031 C 
ATOM     57  C   UNL A   1      46.595  30.419  30.782  1.00  0.00     0.029 A 
ATOM     58  C   UNL A   1      45.267  30.155  30.487  1.00  0.00     0.049 A 
ATOM     59  H   UNL A   1      44.391  28.371  29.777  1.00  0.00     0.167 HD
ATOM     60  C   UNL A   1      42.859  30.710  30.271  1.00  0.00     0.074 A 
ATOM     61  C   UNL A   1      41.731  31.613  30.389  1.00  0.00     0.031 C 
ATOM     62  C   UNL A   1      44.133  31.035  30.596  1.00  0.00     0.037 A 
BRANCH  49  63
ATOM     63  C   UNL A   1      48.199  26.460  29.802  1.00  0.00     0.057 A 
ATOM     64  C   UNL A   1      49.101  26.616  28.744  1.00  0.00     0.134 A 
ATOM     65  C   UNL A   1      48.660  25.819  30.959  1.00  0.00     0.134 A 
ATOM     66  F   UNL A   1      48.719  27.222  27.609  1.00  0.00    -0.206 F 
ATOM     67  C   UNL A   1      50.413  26.150  28.830  1.00  0.00     0.040 A 
ATOM     68  C   UNL A   1      49.975  25.366  31.066  1.00  0.00     0.040 A 
ATOM     69  F   UNL A   1      47.848  25.654  32.014  1.00  0.00    -0.206 F 
ATOM     70  C   UNL A   1      50.855  25.526  29.996  1.00  0.00     0.006 A 
ENDBRANCH  49  63
BRANCH  50  71
ATOM     71  C   UNL A   1      38.620  29.119  29.009  1.00  0.00     0.057 A 
ATOM     72  C   UNL A   1      38.096  29.618  27.813  1.00  0.00     0.134 A 
ATOM     73  C   UNL A   1      37.761  29.033  30.110  1.00  0.00     0.134 A 
ATOM     74  F   UNL A   1      38.873  29.730  26.727  1.00  0.00    -0.206 F 
ATOM     75  C   UNL A   1      36.765  30.029  27.716  1.00  0.00     0.040 A 
ATOM     76  C   UNL A   1      36.425  29.426  30.025  1.00  0.00     0.040 A 
ATOM     77  F   UNL A   1      38.208  28.549  31.278  1.00  0.00    -0.206 F 
ATOM     78  C   UNL A   1      35.926  29.931  28.825  1.00  0.00     0.006 A 
ENDBRANCH  50  71
BRANCH  62  79
ATOM     79  C   UNL A   1      44.382  32.424  31.097  1.00  0.00     0.057 A 
ATOM     80  C   UNL A   1      44.311  32.712  32.465  1.00  0.00     0.134 A 
ATOM     81  C   UNL A   1      44.625  33.484  30.218  1.00  0.00     0.134 A 
ATOM     82  F   UNL A   1      44.074  31.736  33.355  1.00  0.00    -0.206 F 
ATOM     83  C   UNL A   1      44.463  34.014  32.941  1.00  0.00     0.040 A 
ATOM     84  C   UNL A   1      44.794  34.788  30.683  1.00  0.00     0.040 A 
ATOM     85  F   UNL A   1      44.713  33.265  28.897  1.00  0.00    -0.206 F 
ATOM     86  C   UNL A   1      44.705  35.057  32.048  1.00  0.00     0.006 A 
ENDBRANCH  62  79
ENDBRANCH  36  37
ENDBRANCH  28  31
ENDBRANCH  26  27
ENDBRANCH  25  26
ENDBRANCH  24  25
ENDBRANCH   1  24
TORSDOF 16
ENDMDL
MODEL 3
REMARK VINA RESULT:     -11.6      4.968     10.439
REMARK SMILES CN(CCS(C)(=O)=O)S(=O)(=O)c1cc(C(=O)NCCCCNC(=O)c2ccc(-c3c4nc(c(-c5c(F)cccc5F)c5ccc([nH]5)c(-c5c(F)cccc5F)c5nc(c(-c6c(F)cccc6F)c6ccc3[nH]6)C=C5)C=C4)cc2)ccc1F
REMARK SMILES IDX 18 1 17 2 15 3 16 4 14 6 12 7 13 8 81 9 80 10 82 11 79 12
REMARK SMILES IDX 9 13 10 14 11 15 2 16 1 17 3 18 4 19 5 20 6 21 7 22 8 23
REMARK SMILES IDX 19 24 20 25 21 26 22 27 23 28 24 30 25 31 26 32 78 33 27 34
REMARK SMILES IDX 77 35 28 36 29 37 30 38 71 39 31 40 76 41 70 42 72 43 32 44
REMARK SMILES IDX 75 45 69 46 68 47 33 49 59 50 42 51 58 52 43 53 46 54 57 55
REMARK SMILES IDX 73 56 44 57 45 58 56 60 74 61 47 62 34 63 35 64 40 65 36 66
REMARK SMILES IDX 37 67 39 68 41 69 38 70 60 71 61 72 66 73 62 74 63 75 65 76
REMARK SMILES IDX 67 77 64 78 48 79 49 80 54 81 50 82 51 83 53 84 55 85 52 86
REMARK H PARENT 17 5 22 29 72 48 46 59
REMARK Flexibility Score: inf
ROOT
ATOM      1  C   UNL A   1      31.969  29.645  27.252  1.00  0.00     0.116 C 
ENDROOT
BRANCH   1   2
ATOM      2  N   UNL A   1      33.388  29.421  27.452  1.00  0.00    -0.352 N 
ATOM      3  C   UNL A   1      34.281  28.579  26.835  1.00  0.00     0.251 C 
ATOM      4  O   UNL A   1      35.462  28.655  27.168  1.00  0.00    -0.269 OA
ATOM      5  H   UNL A   1      33.785  29.976  28.161  1.00  0.00     0.163 HD
BRANCH   3   6
ATOM      6  C   UNL A   1      33.891  27.597  25.779  1.00  0.00     0.041 A 
ATOM      7  C   UNL A   1      32.860  25.431  25.244  1.00  0.00     0.119 A 
ATOM      8  C   UNL A   1      33.331  26.369  26.188  1.00  0.00     0.038 A 
ATOM      9  C   UNL A   1      33.037  25.712  23.902  1.00  0.00     0.143 A 
ATOM     10  C   UNL A   1      33.570  26.919  23.481  1.00  0.00     0.041 A 
ATOM     11  F   UNL A   1      32.651  24.907  22.923  1.00  0.00    -0.206 F 
ATOM     12  C   UNL A   1      33.946  27.871  24.414  1.00  0.00     0.017 A 
BRANCH   7  13
ATOM     13  S   UNL A   1      31.780  24.151  25.838  1.00  0.00     0.245 S 
ATOM     14  O   UNL A   1      30.731  24.021  24.852  1.00  0.00    -0.207 OA
ATOM     15  O   UNL A   1      31.454  24.533  27.196  1.00  0.00    -0.207 OA
BRANCH  13  16
ATOM     16  N   UNL A   1      32.545  22.630  25.956  1.00  0.00    -0.200 NA
ATOM     17  C   UNL A   1      32.944  22.321  27.367  1.00  0.00     0.124 C 
BRANCH  16  18
ATOM     18  C   UNL A   1      32.045  21.403  25.259  1.00  0.00     0.118 C 
BRANCH  18  19
ATOM     19  C   UNL A   1      32.962  20.620  24.340  1.00  0.00     0.153 C 
BRANCH  19  20
ATOM     20  S   UNL A   1      33.061  18.840  24.410  1.00  0.00     0.148 S 
ATOM     21  C   UNL A   1      32.434  18.121  22.913  1.00  0.00     0.158 C 
ATOM     22  O   UNL A   1      34.481  18.521  24.416  1.00  0.00    -0.229 OA
ATOM     23  O   UNL A   1      32.238  18.387  25.512  1.00  0.00    -0.229 OA
ENDBRANCH  19  20
ENDBRANCH  18  19
ENDBRANCH  16  18
ENDBRANCH  13  16
ENDBRANCH   7  13
ENDBRANCH   3   6
ENDBRANCH   1   2
BRANCH   1  24
ATOM     24  C   UNL A   1      31.724  30.766  26.233  1.00  0.00     0.023 C 
BRANCH  24  25
ATOM     25  C   UNL A   1      31.363  32.119  26.843  1.00  0.00     0.023 C 
BRANCH  25  26
ATOM     26  C   UNL A   1      32.555  32.906  27.366  1.00  0.00     0.116 C 
BRANCH  26  27
ATOM     27  N   UNL A   1      32.252  34.301  27.646  1.00  0.00    -0.352 N 
ATOM     28  C   UNL A   1      32.911  35.142  28.510  1.00  0.00     0.251 C 
ATOM     29  H   UNL A   1      31.486  34.686  27.163  1.00  0.00     0.163 HD
ATOM     30  O   UNL A   1      32.496  36.275  28.728  1.00  0.00    -0.269 OA
BRANCH  28  31
ATOM     31  C   UNL A   1      34.098  34.629  29.219  1.00  0.00     0.039 A 
ATOM     32  C   UNL A   1      33.926  34.058  30.483  1.00  0.00     0.014 A 
ATOM     33  C   UNL A   1      35.353  34.647  28.606  1.00  0.00     0.014 A 
ATOM     34  C   UNL A   1      35.007  33.435  31.103  1.00  0.00     0.010 A 
ATOM     35  C   UNL A   1      36.415  33.974  29.200  1.00  0.00     0.010 A 
ATOM     36  C   UNL A   1      36.247  33.357  30.449  1.00  0.00    -0.014 A 
BRANCH  36  37
ATOM     37  C   UNL A   1      37.382  32.622  31.051  1.00  0.00     0.031 A 
ATOM     38  C   UNL A   1      37.951  33.065  32.366  1.00  0.00     0.074 A 
ATOM     39  C   UNL A   1      37.938  31.596  30.380  1.00  0.00     0.049 A 
ATOM     40  N   UNL A   1      38.981  32.595  33.019  1.00  0.00    -0.248 NA
ATOM     41  C   UNL A   1      37.288  34.205  33.021  1.00  0.00     0.031 C 
ATOM     42  C   UNL A   1      37.501  31.103  29.071  1.00  0.00     0.029 A 
ATOM     43  N   UNL A   1      38.996  30.787  30.703  1.00  0.00    -0.354 N 
ATOM     44  C   UNL A   1      39.103  33.390  34.149  1.00  0.00     0.074 A 
ATOM     45  C   UNL A   1      38.065  34.395  34.078  1.00  0.00     0.031 C 
ATOM     46  C   UNL A   1      38.269  30.061  28.717  1.00  0.00     0.029 A 
ATOM     47  C   UNL A   1      39.266  29.830  29.758  1.00  0.00     0.049 A 
ATOM     48  H   UNL A   1      39.514  30.883  31.536  1.00  0.00     0.167 HD
ATOM     49  C   UNL A   1      39.990  33.278  35.166  1.00  0.00     0.037 A 
ATOM     50  C   UNL A   1      40.212  28.872  29.734  1.00  0.00     0.037 A 
ATOM     51  C   UNL A   1      40.996  32.255  35.253  1.00  0.00     0.049 A 
ATOM     52  C   UNL A   1      41.169  28.753  30.884  1.00  0.00     0.074 A 
ATOM     53  C   UNL A   1      41.901  32.022  36.274  1.00  0.00     0.029 A 
ATOM     54  N   UNL A   1      41.227  31.293  34.283  1.00  0.00    -0.354 N 
ATOM     55  N   UNL A   1      41.245  29.483  31.970  1.00  0.00    -0.248 NA
ATOM     56  C   UNL A   1      42.169  27.679  30.808  1.00  0.00     0.031 C 
ATOM     57  C   UNL A   1      42.695  30.929  35.911  1.00  0.00     0.029 A 
ATOM     58  C   UNL A   1      42.267  30.467  34.677  1.00  0.00     0.049 A 
ATOM     59  H   UNL A   1      40.726  31.208  33.440  1.00  0.00     0.167 HD
ATOM     60  C   UNL A   1      42.289  28.952  32.713  1.00  0.00     0.074 A 
ATOM     61  C   UNL A   1      42.812  27.830  31.959  1.00  0.00     0.031 C 
ATOM     62  C   UNL A   1      42.771  29.357  33.912  1.00  0.00     0.037 A 
BRANCH  49  63
ATOM     63  C   UNL A   1      39.897  34.283  36.271  1.00  0.00     0.057 A 
ATOM     64  C   UNL A   1      40.569  35.508  36.184  1.00  0.00     0.134 A 
ATOM     65  C   UNL A   1      39.164  34.026  37.437  1.00  0.00     0.134 A 
ATOM     66  F   UNL A   1      41.287  35.813  35.092  1.00  0.00    -0.206 F 
ATOM     67  C   UNL A   1      40.517  36.442  37.218  1.00  0.00     0.040 A 
ATOM     68  C   UNL A   1      39.088  34.959  38.470  1.00  0.00     0.040 A 
ATOM     69  F   UNL A   1      38.486  32.877  37.572  1.00  0.00    -0.206 F 
ATOM     70  C   UNL A   1      39.772  36.170  38.365  1.00  0.00     0.006 A 
ENDBRANCH  49  63
BRANCH  50  71
ATOM     71  C   UNL A   1      40.267  27.927  28.595  1.00  0.00     0.057 A 
ATOM     72  C   UNL A   1      39.622  26.686  28.640  1.00  0.00     0.134 A 
ATOM     73  C   UNL A   1      40.998  28.238  27.444  1.00  0.00     0.134 A 
ATOM     74  F   UNL A   1      38.913  26.330  29.721  1.00  0.00    -0.206 F 
ATOM     75  C   UNL A   1      39.710  25.781  27.581  1.00  0.00     0.040 A 
ATOM     76  C   UNL A   1      41.083  27.350  26.371  1.00  0.00     0.040 A 
ATOM     77  F   UNL A   1      41.625  29.419  27.342  1.00  0.00    -0.206 F 
ATOM     78  C   UNL A   1      40.441  26.114  26.442  1.00  0.00     0.006 A 
ENDBRANCH  50  71
BRANCH  62  79
ATOM     79  C   UNL A   1      43.913  28.581  34.490  1.00  0.00     0.057 A 
ATOM     80  C   UNL A   1      43.679  27.467  35.306  1.00  0.00     0.134 A 
ATOM     81  C   UNL A   1      45.240  28.979  34.293  1.00  0.00     0.134 A 
ATOM     82  F   UNL A   1      42.427  27.044  35.536  1.00  0.00    -0.206 F 
ATOM     83  C   UNL A   1      44.729  26.781  35.915  1.00  0.00     0.040 A 
ATOM     84  C   UNL A   1      46.299  28.290  34.884  1.00  0.00     0.040 A 
ATOM     85  F   UNL A   1      45.525  30.032  33.513  1.00  0.00    -0.206 F 
ATOM     86  C   UNL A   1      46.044  27.192  35.705  1.00  0.00     0.006 A 
ENDBRANCH  62  79
ENDBRANCH  36  37
ENDBRANCH  28  31
ENDBRANCH  26  27
ENDBRANCH  25  26
ENDBRANCH  24  25
ENDBRANCH   1  24
TORSDOF 16
ENDMDL
