MODEL 1
REMARK VINA RESULT:     -10.5      0.000      0.000
REMARK SMILES C#CC[N@H+](CC(=O)NCCCCNC(=O)c1ccc(-c2c3nc(c(-c4c(F)cccc4F)c4ccc([nH]4)c(-c4c(F)cccc4F)c4nc(c(-c5c(F)cccc5F)c5ccc2[nH]5)C=C4)C=C3)cc1)[C@H](C)c1cc(C)ccc1C
REMARK SMILES IDX 10 1 9 2 8 3 6 4 7 5 5 7 4 8 3 10 2 11 1 12 70 13 71 14
REMARK SMILES IDX 72 15 73 16 78 17 74 18 77 19 79 20 75 21 76 22 11 23 12 24
REMARK SMILES IDX 13 25 14 26 15 28 16 29 17 30 69 31 18 32 68 33 19 34 20 35
REMARK SMILES IDX 21 36 62 37 22 38 67 39 61 40 63 41 23 42 66 43 60 44 59 45
REMARK SMILES IDX 24 47 50 48 33 49 49 50 34 51 37 52 48 53 64 54 35 55 36 56
REMARK SMILES IDX 47 58 65 59 38 60 25 61 26 62 31 63 27 64 28 65 30 66 32 67
REMARK SMILES IDX 29 68 51 69 52 70 57 71 53 72 54 73 56 74 58 75 55 76 39 77
REMARK SMILES IDX 40 78 45 79 41 80 42 81 44 82 46 83 43 84
REMARK H PARENT 8 6 4 9 13 27 63 46 37 57
REMARK Flexibility Score: inf
ROOT
ATOM      1  C   UNL A   1      36.939  21.808  24.562  1.00  0.00     0.023 C 
ENDROOT
BRANCH   1   2
ATOM      2  C   UNL A   1      36.577  22.979  25.492  1.00  0.00     0.116 C 
BRANCH   2   3
ATOM      3  N   UNL A   1      35.752  22.563  26.617  1.00  0.00    -0.351 N 
ATOM      4  C   UNL A   1      34.411  22.761  26.865  1.00  0.00     0.275 C 
ATOM      5  O   UNL A   1      33.959  22.346  27.933  1.00  0.00    -0.269 OA
ATOM      6  H   UNL A   1      36.230  22.058  27.314  1.00  0.00     0.163 HD
BRANCH   4   7
ATOM      7  C   UNL A   1      33.517  23.443  25.808  1.00  0.00     0.364 C 
BRANCH   7   8
ATOM      8  N   UNL A   1      33.541  24.946  25.768  1.00  0.00    -0.311 N 
ATOM      9  H   UNL A   1      34.180  25.302  26.478  1.00  0.00     0.349 HD
BRANCH   8  10
ATOM     10  C   UNL A   1      34.105  25.424  24.515  1.00  0.00     0.354 C 
BRANCH  10  11
ATOM     11  C   UNL A   1      33.777  24.822  23.217  1.00  0.00    -0.047 C 
ATOM     12  C   UNL A   1      33.263  24.441  22.203  1.00  0.00     0.010 C 
ENDBRANCH  10  11
ENDBRANCH   8  10
BRANCH   8  13
ATOM     13  C   UNL A   1      32.213  25.520  26.164  1.00  0.00     0.213 C 
ATOM     14  C   UNL A   1      30.969  24.601  26.179  1.00  0.00     0.081 C 
BRANCH  13  15
ATOM     15  C   UNL A   1      31.868  26.906  25.596  1.00  0.00     0.012 A 
ATOM     16  C   UNL A   1      30.909  26.925  24.554  1.00  0.00     0.013 A 
ATOM     17  C   UNL A   1      32.382  28.147  26.051  1.00  0.00    -0.042 A 
ATOM     18  C   UNL A   1      30.452  28.117  23.979  1.00  0.00    -0.051 A 
ATOM     19  C   UNL A   1      31.889  29.340  25.481  1.00  0.00     0.004 A 
ATOM     20  C   UNL A   1      33.351  28.342  27.186  1.00  0.00     0.045 C 
ATOM     21  C   UNL A   1      29.458  28.071  22.859  1.00  0.00     0.044 C 
ATOM     22  C   UNL A   1      30.937  29.327  24.463  1.00  0.00     0.004 A 
ENDBRANCH  13  15
ENDBRANCH   8  13
ENDBRANCH   7   8
ENDBRANCH   4   7
ENDBRANCH   2   3
ENDBRANCH   1   2
BRANCH   1  23
ATOM     23  C   UNL A   1      37.638  20.635  25.217  1.00  0.00     0.023 C 
BRANCH  23  24
ATOM     24  C   UNL A   1      39.032  20.964  25.694  1.00  0.00     0.116 C 
BRANCH  24  25
ATOM     25  N   UNL A   1      39.914  19.802  25.696  1.00  0.00    -0.352 N 
ATOM     26  C   UNL A   1      41.250  19.743  26.011  1.00  0.00     0.251 C 
ATOM     27  H   UNL A   1      39.497  18.948  25.439  1.00  0.00     0.163 HD
ATOM     28  O   UNL A   1      41.904  18.727  25.810  1.00  0.00    -0.269 OA
BRANCH  26  29
ATOM     29  C   UNL A   1      41.885  20.955  26.559  1.00  0.00     0.039 A 
ATOM     30  C   UNL A   1      42.440  21.888  25.685  1.00  0.00     0.014 A 
ATOM     31  C   UNL A   1      41.798  21.215  27.929  1.00  0.00     0.014 A 
ATOM     32  C   UNL A   1      42.819  23.135  26.179  1.00  0.00     0.010 A 
ATOM     33  C   UNL A   1      42.056  22.494  28.391  1.00  0.00     0.010 A 
ATOM     34  C   UNL A   1      42.571  23.466  27.521  1.00  0.00    -0.014 A 
BRANCH  34  35
ATOM     35  C   UNL A   1      42.835  24.826  28.049  1.00  0.00     0.031 A 
ATOM     36  C   UNL A   1      44.223  25.199  28.480  1.00  0.00     0.074 A 
ATOM     37  C   UNL A   1      41.813  25.689  28.214  1.00  0.00     0.049 A 
ATOM     38  N   UNL A   1      44.644  26.296  29.053  1.00  0.00    -0.248 NA
ATOM     39  C   UNL A   1      45.274  24.189  28.269  1.00  0.00     0.031 C 
ATOM     40  C   UNL A   1      40.414  25.426  27.872  1.00  0.00     0.029 A 
ATOM     41  N   UNL A   1      41.795  26.963  28.725  1.00  0.00    -0.354 N 
ATOM     42  C   UNL A   1      46.001  26.105  29.274  1.00  0.00     0.074 A 
ATOM     43  C   UNL A   1      46.318  24.761  28.848  1.00  0.00     0.031 C 
ATOM     44  C   UNL A   1      39.681  26.517  28.146  1.00  0.00     0.029 A 
ATOM     45  C   UNL A   1      40.544  27.533  28.737  1.00  0.00     0.049 A 
ATOM     46  H   UNL A   1      42.601  27.424  29.050  1.00  0.00     0.167 HD
ATOM     47  C   UNL A   1      46.910  26.983  29.761  1.00  0.00     0.037 A 
ATOM     48  C   UNL A   1      40.141  28.736  29.188  1.00  0.00     0.037 A 
ATOM     49  C   UNL A   1      46.586  28.319  30.183  1.00  0.00     0.049 A 
ATOM     50  C   UNL A   1      41.158  29.670  29.787  1.00  0.00     0.074 A 
ATOM     51  C   UNL A   1      47.436  29.302  30.656  1.00  0.00     0.029 A 
ATOM     52  N   UNL A   1      45.307  28.855  30.196  1.00  0.00    -0.354 N 
ATOM     53  N   UNL A   1      42.451  29.505  29.927  1.00  0.00    -0.248 NA
ATOM     54  C   UNL A   1      40.659  30.956  30.292  1.00  0.00     0.031 C 
ATOM     55  C   UNL A   1      46.663  30.408  31.019  1.00  0.00     0.029 A 
ATOM     56  C   UNL A   1      45.340  30.143  30.704  1.00  0.00     0.049 A 
ATOM     57  H   UNL A   1      44.496  28.389  29.889  1.00  0.00     0.167 HD
ATOM     58  C   UNL A   1      42.925  30.676  30.504  1.00  0.00     0.074 A 
ATOM     59  C   UNL A   1      41.780  31.549  30.675  1.00  0.00     0.031 C 
ATOM     60  C   UNL A   1      44.192  31.001  30.861  1.00  0.00     0.037 A 
BRANCH  47  61
ATOM     61  C   UNL A   1      48.333  26.513  29.867  1.00  0.00     0.057 A 
ATOM     62  C   UNL A   1      48.811  25.842  31.001  1.00  0.00     0.134 A 
ATOM     63  C   UNL A   1      49.235  26.723  28.815  1.00  0.00     0.134 A 
ATOM     64  F   UNL A   1      48.004  25.619  32.050  1.00  0.00    -0.206 F 
ATOM     65  C   UNL A   1      50.142  25.434  31.104  1.00  0.00     0.040 A 
ATOM     66  C   UNL A   1      50.558  26.285  28.892  1.00  0.00     0.040 A 
ATOM     67  F   UNL A   1      48.845  27.352  27.697  1.00  0.00    -0.206 F 
ATOM     68  C   UNL A   1      51.018  25.649  30.043  1.00  0.00     0.006 A 
ENDBRANCH  47  61
BRANCH  48  69
ATOM     69  C   UNL A   1      38.714  29.135  29.079  1.00  0.00     0.057 A 
ATOM     70  C   UNL A   1      38.176  29.562  27.859  1.00  0.00     0.134 A 
ATOM     71  C   UNL A   1      37.856  29.112  30.186  1.00  0.00     0.134 A 
ATOM     72  F   UNL A   1      38.950  29.622  26.766  1.00  0.00    -0.206 F 
ATOM     73  C   UNL A   1      36.847  29.973  27.747  1.00  0.00     0.040 A 
ATOM     74  C   UNL A   1      36.516  29.491  30.082  1.00  0.00     0.040 A 
ATOM     75  F   UNL A   1      38.304  28.705  31.383  1.00  0.00    -0.206 F 
ATOM     76  C   UNL A   1      36.011  29.932  28.861  1.00  0.00     0.006 A 
ENDBRANCH  48  69
BRANCH  60  77
ATOM     77  C   UNL A   1      44.421  32.369  31.436  1.00  0.00     0.057 A 
ATOM     78  C   UNL A   1      44.693  33.480  30.627  1.00  0.00     0.134 A 
ATOM     79  C   UNL A   1      44.308  32.588  32.816  1.00  0.00     0.134 A 
ATOM     80  F   UNL A   1      44.826  33.339  29.299  1.00  0.00    -0.206 F 
ATOM     81  C   UNL A   1      44.862  34.755  31.171  1.00  0.00     0.040 A 
ATOM     82  C   UNL A   1      44.442  33.862  33.368  1.00  0.00     0.040 A 
ATOM     83  F   UNL A   1      44.039  31.570  33.648  1.00  0.00    -0.206 F 
ATOM     84  C   UNL A   1      44.726  34.950  32.545  1.00  0.00     0.006 A 
ENDBRANCH  60  77
ENDBRANCH  34  35
ENDBRANCH  26  29
ENDBRANCH  24  25
ENDBRANCH  23  24
ENDBRANCH   1  23
TORSDOF 16
ENDMDL
MODEL 2
REMARK VINA RESULT:     -10.5      4.260      8.810
REMARK SMILES C#CC[N@H+](CC(=O)NCCCCNC(=O)c1ccc(-c2c3nc(c(-c4c(F)cccc4F)c4ccc([nH]4)c(-c4c(F)cccc4F)c4nc(c(-c5c(F)cccc5F)c5ccc2[nH]5)C=C4)C=C3)cc1)[C@H](C)c1cc(C)ccc1C
REMARK SMILES IDX 10 1 9 2 8 3 6 4 7 5 5 7 4 8 3 10 2 11 1 12 70 13 71 14
REMARK SMILES IDX 72 15 73 16 78 17 74 18 77 19 79 20 75 21 76 22 11 23 12 24
REMARK SMILES IDX 13 25 14 26 15 28 16 29 17 30 69 31 18 32 68 33 19 34 20 35
REMARK SMILES IDX 21 36 62 37 22 38 67 39 61 40 63 41 23 42 66 43 60 44 59 45
REMARK SMILES IDX 24 47 50 48 33 49 49 50 34 51 37 52 48 53 64 54 35 55 36 56
REMARK SMILES IDX 47 58 65 59 38 60 25 61 26 62 31 63 27 64 28 65 30 66 32 67
REMARK SMILES IDX 29 68 51 69 52 70 57 71 53 72 54 73 56 74 58 75 55 76 39 77
REMARK SMILES IDX 40 78 45 79 41 80 42 81 44 82 46 83 43 84
REMARK H PARENT 8 6 4 9 13 27 63 46 37 57
REMARK Flexibility Score: inf
ROOT
ATOM      1  C   UNL A   1      31.620  30.641  26.672  1.00  0.00     0.023 C 
ENDROOT
BRANCH   1   2
ATOM      2  C   UNL A   1      31.693  30.129  25.223  1.00  0.00     0.116 C 
BRANCH   2   3
ATOM      3  N   UNL A   1      31.026  28.847  25.049  1.00  0.00    -0.351 N 
ATOM      4  C   UNL A   1      31.442  27.702  24.406  1.00  0.00     0.275 C 
ATOM      5  O   UNL A   1      30.656  26.754  24.358  1.00  0.00    -0.269 OA
ATOM      6  H   UNL A   1      30.133  28.788  25.459  1.00  0.00     0.163 HD
BRANCH   4   7
ATOM      7  C   UNL A   1      32.864  27.615  23.812  1.00  0.00     0.364 C 
BRANCH   7   8
ATOM      8  N   UNL A   1      33.904  26.913  24.642  1.00  0.00    -0.311 N 
ATOM      9  H   UNL A   1      34.829  27.282  24.424  1.00  0.00     0.349 HD
BRANCH   8  10
ATOM     10  C   UNL A   1      33.730  27.210  26.055  1.00  0.00     0.354 C 
BRANCH  10  11
ATOM     11  C   UNL A   1      34.447  28.297  26.732  1.00  0.00    -0.047 C 
ATOM     12  C   UNL A   1      34.781  29.272  27.345  1.00  0.00     0.010 C 
ENDBRANCH  10  11
ENDBRANCH   8  10
BRANCH   8  13
ATOM     13  C   UNL A   1      34.004  25.463  24.272  1.00  0.00     0.213 C 
ATOM     14  C   UNL A   1      33.409  24.986  22.926  1.00  0.00     0.081 C 
BRANCH  13  15
ATOM     15  C   UNL A   1      33.719  24.448  25.391  1.00  0.00     0.012 A 
ATOM     16  C   UNL A   1      32.353  24.195  25.662  1.00  0.00     0.013 A 
ATOM     17  C   UNL A   1      34.690  23.722  26.127  1.00  0.00    -0.042 A 
ATOM     18  C   UNL A   1      31.940  23.253  26.613  1.00  0.00    -0.051 A 
ATOM     19  C   UNL A   1      34.258  22.757  27.060  1.00  0.00     0.004 A 
ATOM     20  C   UNL A   1      36.182  23.798  25.940  1.00  0.00     0.045 C 
ATOM     21  C   UNL A   1      30.479  23.051  26.876  1.00  0.00     0.044 C 
ATOM     22  C   UNL A   1      32.904  22.522  27.298  1.00  0.00     0.004 A 
ENDBRANCH  13  15
ENDBRANCH   8  13
ENDBRANCH   7   8
ENDBRANCH   4   7
ENDBRANCH   2   3
ENDBRANCH   1   2
BRANCH   1  23
ATOM     23  C   UNL A   1      31.281  32.107  26.839  1.00  0.00     0.023 C 
BRANCH  23  24
ATOM     24  C   UNL A   1      32.492  33.007  26.790  1.00  0.00     0.116 C 
BRANCH  24  25
ATOM     25  N   UNL A   1      32.343  34.194  27.625  1.00  0.00    -0.352 N 
ATOM     26  C   UNL A   1      33.097  34.576  28.710  1.00  0.00     0.251 C 
ATOM     27  H   UNL A   1      31.609  34.801  27.380  1.00  0.00     0.163 HD
ATOM     28  O   UNL A   1      32.756  35.516  29.418  1.00  0.00    -0.269 OA
BRANCH  26  29
ATOM     29  C   UNL A   1      34.306  33.794  29.021  1.00  0.00     0.039 A 
ATOM     30  C   UNL A   1      35.559  34.386  28.864  1.00  0.00     0.014 A 
ATOM     31  C   UNL A   1      34.176  32.528  29.596  1.00  0.00     0.014 A 
ATOM     32  C   UNL A   1      36.680  33.741  29.383  1.00  0.00     0.010 A 
ATOM     33  C   UNL A   1      35.270  31.953  30.219  1.00  0.00     0.010 A 
ATOM     34  C   UNL A   1      36.534  32.553  30.117  1.00  0.00    -0.014 A 
BRANCH  34  35
ATOM     35  C   UNL A   1      37.683  31.911  30.798  1.00  0.00     0.031 A 
ATOM     36  C   UNL A   1      38.459  30.837  30.092  1.00  0.00     0.074 A 
ATOM     37  C   UNL A   1      37.972  32.236  32.074  1.00  0.00     0.049 A 
ATOM     38  N   UNL A   1      39.432  30.089  30.542  1.00  0.00    -0.248 NA
ATOM     39  C   UNL A   1      38.066  30.543  28.704  1.00  0.00     0.031 C 
ATOM     40  C   UNL A   1      37.263  33.234  32.878  1.00  0.00     0.029 A 
ATOM     41  N   UNL A   1      38.936  31.752  32.922  1.00  0.00    -0.354 N 
ATOM     42  C   UNL A   1      39.761  29.236  29.498  1.00  0.00     0.074 A 
ATOM     43  C   UNL A   1      38.835  29.503  28.421  1.00  0.00     0.031 C 
ATOM     44  C   UNL A   1      37.840  33.313  34.088  1.00  0.00     0.029 A 
ATOM     45  C   UNL A   1      38.918  32.335  34.166  1.00  0.00     0.049 A 
ATOM     46  H   UNL A   1      39.579  31.053  32.662  1.00  0.00     0.167 HD
ATOM     47  C   UNL A   1      40.766  28.330  29.430  1.00  0.00     0.037 A 
ATOM     48  C   UNL A   1      39.679  32.094  35.251  1.00  0.00     0.037 A 
ATOM     49  C   UNL A   1      41.682  28.071  30.507  1.00  0.00     0.049 A 
ATOM     50  C   UNL A   1      40.747  31.036  35.174  1.00  0.00     0.074 A 
ATOM     51  C   UNL A   1      42.758  27.202  30.531  1.00  0.00     0.029 A 
ATOM     52  N   UNL A   1      41.623  28.669  31.758  1.00  0.00    -0.354 N 
ATOM     53  N   UNL A   1      41.094  30.283  34.157  1.00  0.00    -0.248 NA
ATOM     54  C   UNL A   1      41.526  30.792  36.395  1.00  0.00     0.031 C 
ATOM     55  C   UNL A   1      43.308  27.224  31.815  1.00  0.00     0.029 A 
ATOM     56  C   UNL A   1      42.621  28.160  32.572  1.00  0.00     0.049 A 
ATOM     57  H   UNL A   1      40.968  29.353  32.025  1.00  0.00     0.167 HD
ATOM     58  C   UNL A   1      42.152  29.502  34.605  1.00  0.00     0.074 A 
ATOM     59  C   UNL A   1      42.397  29.883  35.982  1.00  0.00     0.031 C 
ATOM     60  C   UNL A   1      42.856  28.555  33.938  1.00  0.00     0.037 A 
BRANCH  47  61
ATOM     61  C   UNL A   1      40.909  27.556  28.151  1.00  0.00     0.057 A 
ATOM     62  C   UNL A   1      41.704  28.013  27.091  1.00  0.00     0.134 A 
ATOM     63  C   UNL A   1      40.253  26.330  27.980  1.00  0.00     0.134 A 
ATOM     64  F   UNL A   1      42.351  29.187  27.183  1.00  0.00    -0.206 F 
ATOM     65  C   UNL A   1      41.809  27.303  25.895  1.00  0.00     0.040 A 
ATOM     66  C   UNL A   1      40.380  25.592  26.802  1.00  0.00     0.040 A 
ATOM     67  F   UNL A   1      39.480  25.827  28.954  1.00  0.00    -0.206 F 
ATOM     68  C   UNL A   1      41.151  26.084  25.751  1.00  0.00     0.006 A 
ENDBRANCH  47  61
BRANCH  48  69
ATOM     69  C   UNL A   1      39.472  32.876  36.497  1.00  0.00     0.057 A 
ATOM     70  C   UNL A   1      38.524  32.478  37.448  1.00  0.00     0.134 A 
ATOM     71  C   UNL A   1      40.202  34.041  36.765  1.00  0.00     0.134 A 
ATOM     72  F   UNL A   1      37.781  31.381  37.241  1.00  0.00    -0.206 F 
ATOM     73  C   UNL A   1      38.292  33.221  38.607  1.00  0.00     0.040 A 
ATOM     74  C   UNL A   1      40.002  34.776  37.935  1.00  0.00     0.040 A 
ATOM     75  F   UNL A   1      41.131  34.473  35.900  1.00  0.00    -0.206 F 
ATOM     76  C   UNL A   1      39.038  34.372  38.855  1.00  0.00     0.006 A 
ENDBRANCH  48  69
BRANCH  60  77
ATOM     77  C   UNL A   1      43.986  27.889  34.669  1.00  0.00     0.057 A 
ATOM     78  C   UNL A   1      43.820  26.674  35.347  1.00  0.00     0.134 A 
ATOM     79  C   UNL A   1      45.273  28.443  34.644  1.00  0.00     0.134 A 
ATOM     80  F   UNL A   1      42.611  26.096  35.421  1.00  0.00    -0.206 F 
ATOM     81  C   UNL A   1      44.888  26.045  35.988  1.00  0.00     0.040 A 
ATOM     82  C   UNL A   1      46.356  27.806  35.252  1.00  0.00     0.040 A 
ATOM     83  F   UNL A   1      45.506  29.599  34.004  1.00  0.00    -0.206 F 
ATOM     84  C   UNL A   1      46.163  26.606  35.933  1.00  0.00     0.006 A 
ENDBRANCH  60  77
ENDBRANCH  34  35
ENDBRANCH  26  29
ENDBRANCH  24  25
ENDBRANCH  23  24
ENDBRANCH   1  23
TORSDOF 16
ENDMDL
MODEL 3
REMARK VINA RESULT:     -10.4      4.472      9.397
REMARK SMILES C#CC[N@H+](CC(=O)NCCCCNC(=O)c1ccc(-c2c3nc(c(-c4c(F)cccc4F)c4ccc([nH]4)c(-c4c(F)cccc4F)c4nc(c(-c5c(F)cccc5F)c5ccc2[nH]5)C=C4)C=C3)cc1)[C@H](C)c1cc(C)ccc1C
REMARK SMILES IDX 10 1 9 2 8 3 6 4 7 5 5 7 4 8 3 10 2 11 1 12 70 13 71 14
REMARK SMILES IDX 72 15 73 16 78 17 74 18 77 19 79 20 75 21 76 22 11 23 12 24
REMARK SMILES IDX 13 25 14 26 15 28 16 29 17 30 69 31 18 32 68 33 19 34 20 35
REMARK SMILES IDX 21 36 62 37 22 38 67 39 61 40 63 41 23 42 66 43 60 44 59 45
REMARK SMILES IDX 24 47 50 48 33 49 49 50 34 51 37 52 48 53 64 54 35 55 36 56
REMARK SMILES IDX 47 58 65 59 38 60 25 61 26 62 31 63 27 64 28 65 30 66 32 67
REMARK SMILES IDX 29 68 51 69 52 70 57 71 53 72 54 73 56 74 58 75 55 76 39 77
REMARK SMILES IDX 40 78 45 79 41 80 42 81 44 82 46 83 43 84
REMARK H PARENT 8 6 4 9 13 27 63 46 37 57
REMARK Flexibility Score: inf
ROOT
ATOM      1  C   UNL A   1      32.056  30.471  26.787  1.00  0.00     0.023 C 
ENDROOT
BRANCH   1   2
ATOM      2  C   UNL A   1      32.491  29.928  25.415  1.00  0.00     0.116 C 
BRANCH   2   3
ATOM      3  N   UNL A   1      31.359  29.603  24.559  1.00  0.00    -0.351 N 
ATOM      4  C   UNL A   1      31.280  28.790  23.450  1.00  0.00     0.275 C 
ATOM      5  O   UNL A   1      30.197  28.723  22.864  1.00  0.00    -0.269 OA
ATOM      6  H   UNL A   1      30.512  30.034  24.815  1.00  0.00     0.163 HD
BRANCH   4   7
ATOM      7  C   UNL A   1      32.505  27.966  22.999  1.00  0.00     0.364 C 
BRANCH   7   8
ATOM      8  N   UNL A   1      32.544  26.523  23.419  1.00  0.00    -0.311 N 
ATOM      9  H   UNL A   1      31.625  26.099  23.291  1.00  0.00     0.349 HD
BRANCH   8  10
ATOM     10  C   UNL A   1      33.413  25.749  22.547  1.00  0.00     0.354 C 
BRANCH  10  11
ATOM     11  C   UNL A   1      33.328  24.288  22.436  1.00  0.00    -0.047 C 
ATOM     12  C   UNL A   1      33.112  23.117  22.577  1.00  0.00     0.010 C 
ENDBRANCH  10  11
ENDBRANCH   8  10
BRANCH   8  13
ATOM     13  C   UNL A   1      32.792  26.394  24.893  1.00  0.00     0.213 C 
ATOM     14  C   UNL A   1      34.211  26.667  25.444  1.00  0.00     0.081 C 
BRANCH  13  15
ATOM     15  C   UNL A   1      32.151  25.186  25.595  1.00  0.00     0.012 A 
ATOM     16  C   UNL A   1      33.050  24.263  26.180  1.00  0.00     0.013 A 
ATOM     17  C   UNL A   1      30.761  24.948  25.743  1.00  0.00    -0.042 A 
ATOM     18  C   UNL A   1      32.612  23.146  26.902  1.00  0.00    -0.051 A 
ATOM     19  C   UNL A   1      30.336  23.835  26.498  1.00  0.00     0.004 A 
ATOM     20  C   UNL A   1      29.652  25.842  25.256  1.00  0.00     0.045 C 
ATOM     21  C   UNL A   1      33.613  22.189  27.474  1.00  0.00     0.044 C 
ATOM     22  C   UNL A   1      31.246  22.948  27.072  1.00  0.00     0.004 A 
ENDBRANCH  13  15
ENDBRANCH   8  13
ENDBRANCH   7   8
ENDBRANCH   4   7
ENDBRANCH   2   3
ENDBRANCH   1   2
BRANCH   1  23
ATOM     23  C   UNL A   1      31.731  31.948  26.840  1.00  0.00     0.023 C 
BRANCH  23  24
ATOM     24  C   UNL A   1      32.859  32.786  27.394  1.00  0.00     0.116 C 
BRANCH  24  25
ATOM     25  N   UNL A   1      32.468  34.173  27.623  1.00  0.00    -0.352 N 
ATOM     26  C   UNL A   1      32.970  35.062  28.544  1.00  0.00     0.251 C 
ATOM     27  H   UNL A   1      31.753  34.518  27.041  1.00  0.00     0.163 HD
ATOM     28  O   UNL A   1      32.433  36.146  28.734  1.00  0.00    -0.269 OA
BRANCH  26  29
ATOM     29  C   UNL A   1      34.149  34.653  29.327  1.00  0.00     0.039 A 
ATOM     30  C   UNL A   1      33.968  34.127  30.606  1.00  0.00     0.014 A 
ATOM     31  C   UNL A   1      35.410  34.670  28.729  1.00  0.00     0.014 A 
ATOM     32  C   UNL A   1      35.047  33.521  31.246  1.00  0.00     0.010 A 
ATOM     33  C   UNL A   1      36.444  33.958  29.311  1.00  0.00     0.010 A 
ATOM     34  C   UNL A   1      36.274  33.378  30.577  1.00  0.00    -0.014 A 
BRANCH  34  35
ATOM     35  C   UNL A   1      37.402  32.621  31.170  1.00  0.00     0.031 A 
ATOM     36  C   UNL A   1      37.993  33.071  32.474  1.00  0.00     0.074 A 
ATOM     37  C   UNL A   1      37.940  31.585  30.497  1.00  0.00     0.049 A 
ATOM     38  N   UNL A   1      39.037  32.609  33.112  1.00  0.00    -0.248 NA
ATOM     39  C   UNL A   1      37.344  34.218  33.133  1.00  0.00     0.031 C 
ATOM     40  C   UNL A   1      37.479  31.080  29.203  1.00  0.00     0.029 A 
ATOM     41  N   UNL A   1      39.004  30.775  30.808  1.00  0.00    -0.354 N 
ATOM     42  C   UNL A   1      39.170  33.409  34.239  1.00  0.00     0.074 A 
ATOM     43  C   UNL A   1      38.153  34.433  34.158  1.00  0.00     0.031 C 
ATOM     44  C   UNL A   1      38.230  30.025  28.849  1.00  0.00     0.029 A 
ATOM     45  C   UNL A   1      39.261  29.815  29.859  1.00  0.00     0.049 A 
ATOM     46  H   UNL A   1      39.532  30.873  31.633  1.00  0.00     0.167 HD
ATOM     47  C   UNL A   1      40.044  33.284  35.265  1.00  0.00     0.037 A 
ATOM     48  C   UNL A   1      40.229  28.881  29.806  1.00  0.00     0.037 A 
ATOM     49  C   UNL A   1      41.053  32.262  35.337  1.00  0.00     0.049 A 
ATOM     50  C   UNL A   1      41.230  28.803  30.927  1.00  0.00     0.074 A 
ATOM     51  C   UNL A   1      41.965  32.022  36.349  1.00  0.00     0.029 A 
ATOM     52  N   UNL A   1      41.294  31.317  34.350  1.00  0.00    -0.354 N 
ATOM     53  N   UNL A   1      41.304  29.521  32.022  1.00  0.00    -0.248 NA
ATOM     54  C   UNL A   1      42.284  27.787  30.803  1.00  0.00     0.031 C 
ATOM     55  C   UNL A   1      42.800  30.977  35.945  1.00  0.00     0.029 A 
ATOM     56  C   UNL A   1      42.364  30.517  34.712  1.00  0.00     0.049 A 
ATOM     57  H   UNL A   1      40.779  31.230  33.515  1.00  0.00     0.167 HD
ATOM     58  C   UNL A   1      42.389  29.022  32.732  1.00  0.00     0.074 A 
ATOM     59  C   UNL A   1      42.933  27.931  31.949  1.00  0.00     0.031 C 
ATOM     60  C   UNL A   1      42.889  29.430  33.925  1.00  0.00     0.037 A 
BRANCH  47  61
ATOM     61  C   UNL A   1      39.943  34.285  36.381  1.00  0.00     0.057 A 
ATOM     62  C   UNL A   1      40.608  35.517  36.336  1.00  0.00     0.134 A 
ATOM     63  C   UNL A   1      39.160  34.017  37.512  1.00  0.00     0.134 A 
ATOM     64  F   UNL A   1      41.386  35.833  35.287  1.00  0.00    -0.206 F 
ATOM     65  C   UNL A   1      40.533  36.430  37.389  1.00  0.00     0.040 A 
ATOM     66  C   UNL A   1      39.048  34.938  38.555  1.00  0.00     0.040 A 
ATOM     67  F   UNL A   1      38.491  32.860  37.621  1.00  0.00    -0.206 F 
ATOM     68  C   UNL A   1      39.744  36.144  38.500  1.00  0.00     0.006 A 
ENDBRANCH  47  61
BRANCH  48  69
ATOM     69  C   UNL A   1      40.292  27.935  28.662  1.00  0.00     0.057 A 
ATOM     70  C   UNL A   1      39.653  26.691  28.721  1.00  0.00     0.134 A 
ATOM     71  C   UNL A   1      40.998  28.241  27.492  1.00  0.00     0.134 A 
ATOM     72  F   UNL A   1      38.976  26.332  29.821  1.00  0.00    -0.206 F 
ATOM     73  C   UNL A   1      39.733  25.776  27.669  1.00  0.00     0.040 A 
ATOM     74  C   UNL A   1      41.059  27.348  26.420  1.00  0.00     0.040 A 
ATOM     75  F   UNL A   1      41.626  29.419  27.366  1.00  0.00    -0.206 F 
ATOM     76  C   UNL A   1      40.433  26.107  26.511  1.00  0.00     0.006 A 
ENDBRANCH  48  69
BRANCH  60  77
ATOM     77  C   UNL A   1      44.061  28.673  34.479  1.00  0.00     0.057 A 
ATOM     78  C   UNL A   1      45.382  29.090  34.271  1.00  0.00     0.134 A 
ATOM     79  C   UNL A   1      43.861  27.542  35.283  1.00  0.00     0.134 A 
ATOM     80  F   UNL A   1      45.646  30.157  33.501  1.00  0.00    -0.206 F 
ATOM     81  C   UNL A   1      46.461  28.400  34.827  1.00  0.00     0.040 A 
ATOM     82  C   UNL A   1      44.929  26.865  35.872  1.00  0.00     0.040 A 
ATOM     83  F   UNL A   1      42.621  27.094  35.532  1.00  0.00    -0.206 F 
ATOM     84  C   UNL A   1      46.235  27.290  35.639  1.00  0.00     0.006 A 
ENDBRANCH  60  77
ENDBRANCH  34  35
ENDBRANCH  26  29
ENDBRANCH  24  25
ENDBRANCH  23  24
ENDBRANCH   1  23
TORSDOF 16
ENDMDL
