MODEL 1
REMARK VINA RESULT:     -10.7      0.000      0.000
REMARK SMILES CCOc1cc(/C=C2/SC(=S)N([C@H](CC)C(=O)NCCCCNC(=O)c3ccc(-c4c5nc(c(-c6c(F)cccc6F)c6ccc([nH]6)c(-c6c(F)cccc6F)c6nc(c(-c7c(F)cccc7F)c7ccc4[nH]7)C=C6)C=C5)cc3)C2=O)ccc1O
REMARK SMILES IDX 19 1 18 2 16 3 17 4 13 6 12 7 7 8 8 9 9 10 80 11 10 12 81 13
REMARK SMILES IDX 11 14 6 15 4 16 5 17 84 18 83 19 82 20 3 21 2 22 1 23 85 24
REMARK SMILES IDX 14 26 15 27 20 28 21 29 22 30 23 31 24 32 25 34 26 35 27 36
REMARK SMILES IDX 79 37 28 38 78 39 29 40 30 41 31 42 72 43 32 44 77 45 71 46
REMARK SMILES IDX 73 47 33 48 76 49 70 50 69 51 34 53 60 54 43 55 59 56 44 57
REMARK SMILES IDX 47 58 58 59 74 60 45 61 46 62 57 64 75 65 48 66 35 67 36 68
REMARK SMILES IDX 41 69 37 70 38 71 40 72 42 73 39 74 61 75 62 76 67 77 63 78
REMARK SMILES IDX 64 79 66 80 68 81 65 82 49 83 50 84 55 85 51 86 52 87 54 88
REMARK SMILES IDX 56 89 53 90
REMARK H PARENT 18 5 85 25 23 33 73 52 47 63
REMARK Flexibility Score: inf
ROOT
ATOM      1  C   UNL A   1      34.512  29.263  27.141  1.00  0.00     0.116 C 
ENDROOT
BRANCH   1   2
ATOM      2  N   UNL A   1      34.282  29.613  25.757  1.00  0.00    -0.354 N 
ATOM      3  C   UNL A   1      33.563  28.995  24.781  1.00  0.00     0.243 C 
ATOM      4  O   UNL A   1      33.735  29.412  23.628  1.00  0.00    -0.273 OA
ATOM      5  H   UNL A   1      34.724  30.445  25.471  1.00  0.00     0.163 HD
BRANCH   3   6
ATOM      6  C   UNL A   1      32.706  27.715  25.024  1.00  0.00     0.181 C 
BRANCH   6   7
ATOM      7  N   UNL A   1      32.529  26.822  23.842  1.00  0.00    -0.280 N 
ATOM      8  C   UNL A   1      33.163  23.443  22.524  1.00  0.00     0.029 C 
ATOM      9  C   UNL A   1      32.725  24.687  22.785  1.00  0.00     0.081 C 
ATOM     10  S   UNL A   1      31.808  25.612  21.668  1.00  0.00    -0.054 SA
ATOM     11  C   UNL A   1      32.936  25.502  24.017  1.00  0.00     0.266 C 
ATOM     12  C   UNL A   1      31.642  26.965  22.793  1.00  0.00     0.149 C 
ATOM     13  O   UNL A   1      33.341  25.038  25.072  1.00  0.00    -0.268 OA
ATOM     14  S   UNL A   1      30.481  28.126  22.502  1.00  0.00    -0.052 S 
BRANCH   8  15
ATOM     15  C   UNL A   1      33.997  22.645  23.431  1.00  0.00    -0.020 A 
ATOM     16  C   UNL A   1      34.230  20.698  24.883  1.00  0.00     0.161 A 
ATOM     17  C   UNL A   1      33.427  21.588  24.156  1.00  0.00     0.058 A 
ATOM     18  C   UNL A   1      35.616  20.856  24.820  1.00  0.00     0.157 A 
ATOM     19  C   UNL A   1      36.183  21.969  24.207  1.00  0.00     0.051 A 
ATOM     20  C   UNL A   1      35.370  22.879  23.536  1.00  0.00     0.012 A 
BRANCH  16  21
ATOM     21  O   UNL A   1      33.534  19.733  25.553  1.00  0.00    -0.490 OA
BRANCH  21  22
ATOM     22  C   UNL A   1      32.868  18.693  24.832  1.00  0.00     0.226 C 
ATOM     23  C   UNL A   1      33.783  17.724  24.094  1.00  0.00     0.049 C 
ENDBRANCH  21  22
ENDBRANCH  16  21
BRANCH  18  24
ATOM     24  O   UNL A   1      36.495  19.915  25.270  1.00  0.00    -0.504 OA
ATOM     25  H   UNL A   1      37.262  20.176  25.741  1.00  0.00     0.293 HD
ENDBRANCH  18  24
ENDBRANCH   8  15
ENDBRANCH   6   7
BRANCH   6  26
ATOM     26  C   UNL A   1      31.455  28.176  25.814  1.00  0.00     0.032 C 
ATOM     27  C   UNL A   1      31.374  27.789  27.285  1.00  0.00     0.006 C 
ENDBRANCH   6  26
ENDBRANCH   3   6
ENDBRANCH   1   2
BRANCH   1  28
ATOM     28  C   UNL A   1      34.352  30.491  28.036  1.00  0.00     0.023 C 
BRANCH  28  29
ATOM     29  C   UNL A   1      33.118  31.338  27.737  1.00  0.00     0.023 C 
BRANCH  29  30
ATOM     30  C   UNL A   1      33.409  32.682  27.086  1.00  0.00     0.116 C 
BRANCH  30  31
ATOM     31  N   UNL A   1      32.811  33.806  27.795  1.00  0.00    -0.352 N 
ATOM     32  C   UNL A   1      33.265  34.449  28.920  1.00  0.00     0.251 C 
ATOM     33  H   UNL A   1      31.969  34.150  27.416  1.00  0.00     0.163 HD
ATOM     34  O   UNL A   1      32.588  35.314  29.465  1.00  0.00    -0.269 OA
BRANCH  32  35
ATOM     35  C   UNL A   1      34.567  34.052  29.489  1.00  0.00     0.039 A 
ATOM     36  C   UNL A   1      34.593  33.275  30.648  1.00  0.00     0.014 A 
ATOM     37  C   UNL A   1      35.753  34.394  28.831  1.00  0.00     0.014 A 
ATOM     38  C   UNL A   1      35.810  32.772  31.109  1.00  0.00     0.010 A 
ATOM     39  C   UNL A   1      36.950  33.828  29.246  1.00  0.00     0.010 A 
ATOM     40  C   UNL A   1      36.991  33.011  30.388  1.00  0.00    -0.014 A 
BRANCH  40  41
ATOM     41  C   UNL A   1      38.291  32.442  30.815  1.00  0.00     0.031 A 
ATOM     42  C   UNL A   1      38.781  31.168  30.185  1.00  0.00     0.074 A 
ATOM     43  C   UNL A   1      38.989  33.021  31.811  1.00  0.00     0.049 A 
ATOM     44  N   UNL A   1      39.811  30.428  30.506  1.00  0.00    -0.248 NA
ATOM     45  C   UNL A   1      37.986  30.639  29.064  1.00  0.00     0.031 C 
ATOM     46  C   UNL A   1      38.602  34.239  32.527  1.00  0.00     0.029 A 
ATOM     47  N   UNL A   1      40.169  32.651  32.405  1.00  0.00    -0.354 N 
ATOM     48  C   UNL A   1      39.776  29.342  29.643  1.00  0.00     0.074 A 
ATOM     49  C   UNL A   1      38.595  29.488  28.821  1.00  0.00     0.031 C 
ATOM     50  C   UNL A   1      39.537  34.525  33.448  1.00  0.00     0.029 A 
ATOM     51  C   UNL A   1      40.569  33.493  33.414  1.00  0.00     0.049 A 
ATOM     52  H   UNL A   1      40.683  31.855  32.132  1.00  0.00     0.167 HD
ATOM     53  C   UNL A   1      40.664  28.327  29.523  1.00  0.00     0.037 A 
ATOM     54  C   UNL A   1      41.642  33.431  34.224  1.00  0.00     0.037 A 
ATOM     55  C   UNL A   1      41.858  28.202  30.314  1.00  0.00     0.049 A 
ATOM     56  C   UNL A   1      42.615  32.294  34.068  1.00  0.00     0.074 A 
ATOM     57  C   UNL A   1      42.832  27.222  30.258  1.00  0.00     0.029 A 
ATOM     58  N   UNL A   1      42.248  29.101  31.295  1.00  0.00    -0.354 N 
ATOM     59  N   UNL A   1      42.581  31.287  33.230  1.00  0.00    -0.248 NA
ATOM     60  C   UNL A   1      43.777  32.288  34.969  1.00  0.00     0.031 C 
ATOM     61  C   UNL A   1      43.805  27.519  31.217  1.00  0.00     0.029 A 
ATOM     62  C   UNL A   1      43.452  28.701  31.848  1.00  0.00     0.049 A 
ATOM     63  H   UNL A   1      41.742  29.904  31.559  1.00  0.00     0.167 HD
ATOM     64  C   UNL A   1      43.732  30.551  33.476  1.00  0.00     0.074 A 
ATOM     65  C   UNL A   1      44.446  31.229  34.537  1.00  0.00     0.031 C 
ATOM     66  C   UNL A   1      44.160  29.411  32.879  1.00  0.00     0.037 A 
BRANCH  53  67
ATOM     67  C   UNL A   1      40.385  27.288  28.480  1.00  0.00     0.057 A 
ATOM     68  C   UNL A   1      40.954  27.365  27.201  1.00  0.00     0.134 A 
ATOM     69  C   UNL A   1      39.565  26.188  28.760  1.00  0.00     0.134 A 
ATOM     70  F   UNL A   1      41.733  28.404  26.866  1.00  0.00    -0.206 F 
ATOM     71  C   UNL A   1      40.700  26.394  26.232  1.00  0.00     0.040 A 
ATOM     72  C   UNL A   1      39.325  25.198  27.805  1.00  0.00     0.040 A 
ATOM     73  F   UNL A   1      38.991  26.055  29.965  1.00  0.00    -0.206 F 
ATOM     74  C   UNL A   1      39.889  25.303  26.536  1.00  0.00     0.006 A 
ENDBRANCH  53  67
BRANCH  54  75
ATOM     75  C   UNL A   1      41.877  34.484  35.244  1.00  0.00     0.057 A 
ATOM     76  C   UNL A   1      41.314  34.384  36.522  1.00  0.00     0.134 A 
ATOM     77  C   UNL A   1      42.630  35.628  34.959  1.00  0.00     0.134 A 
ATOM     78  F   UNL A   1      40.566  33.319  36.847  1.00  0.00    -0.206 F 
ATOM     79  C   UNL A   1      41.467  35.396  37.471  1.00  0.00     0.040 A 
ATOM     80  C   UNL A   1      42.811  36.639  35.906  1.00  0.00     0.040 A 
ATOM     81  F   UNL A   1      43.201  35.782  33.755  1.00  0.00    -0.206 F 
ATOM     82  C   UNL A   1      42.219  36.528  37.164  1.00  0.00     0.006 A 
ENDBRANCH  54  75
BRANCH  66  83
ATOM     83  C   UNL A   1      45.484  28.863  33.317  1.00  0.00     0.057 A 
ATOM     84  C   UNL A   1      45.589  27.914  34.340  1.00  0.00     0.134 A 
ATOM     85  C   UNL A   1      46.662  29.261  32.672  1.00  0.00     0.134 A 
ATOM     86  F   UNL A   1      44.497  27.504  35.003  1.00  0.00    -0.206 F 
ATOM     87  C   UNL A   1      46.825  27.390  34.719  1.00  0.00     0.040 A 
ATOM     88  C   UNL A   1      47.901  28.727  33.028  1.00  0.00     0.040 A 
ATOM     89  F   UNL A   1      46.625  30.162  31.680  1.00  0.00    -0.206 F 
ATOM     90  C   UNL A   1      47.985  27.792  34.057  1.00  0.00     0.006 A 
ENDBRANCH  66  83
ENDBRANCH  40  41
ENDBRANCH  32  35
ENDBRANCH  30  31
ENDBRANCH  29  30
ENDBRANCH  28  29
ENDBRANCH   1  28
TORSDOF 17
ENDMDL
MODEL 2
REMARK VINA RESULT:     -10.6      0.932      6.149
REMARK SMILES CCOc1cc(/C=C2/SC(=S)N([C@H](CC)C(=O)NCCCCNC(=O)c3ccc(-c4c5nc(c(-c6c(F)cccc6F)c6ccc([nH]6)c(-c6c(F)cccc6F)c6nc(c(-c7c(F)cccc7F)c7ccc4[nH]7)C=C6)C=C5)cc3)C2=O)ccc1O
REMARK SMILES IDX 19 1 18 2 16 3 17 4 13 6 12 7 7 8 8 9 9 10 80 11 10 12 81 13
REMARK SMILES IDX 11 14 6 15 4 16 5 17 84 18 83 19 82 20 3 21 2 22 1 23 85 24
REMARK SMILES IDX 14 26 15 27 20 28 21 29 22 30 23 31 24 32 25 34 26 35 27 36
REMARK SMILES IDX 79 37 28 38 78 39 29 40 30 41 31 42 72 43 32 44 77 45 71 46
REMARK SMILES IDX 73 47 33 48 76 49 70 50 69 51 34 53 60 54 43 55 59 56 44 57
REMARK SMILES IDX 47 58 58 59 74 60 45 61 46 62 57 64 75 65 48 66 35 67 36 68
REMARK SMILES IDX 41 69 37 70 38 71 40 72 42 73 39 74 61 75 62 76 67 77 63 78
REMARK SMILES IDX 64 79 66 80 68 81 65 82 49 83 50 84 55 85 51 86 52 87 54 88
REMARK SMILES IDX 56 89 53 90
REMARK H PARENT 18 5 85 25 23 33 73 52 47 63
REMARK Flexibility Score: inf
ROOT
ATOM      1  C   UNL A   1      34.166  29.560  27.131  1.00  0.00     0.116 C 
ENDROOT
BRANCH   1   2
ATOM      2  N   UNL A   1      33.960  29.826  25.724  1.00  0.00    -0.354 N 
ATOM      3  C   UNL A   1      33.364  29.088  24.747  1.00  0.00     0.243 C 
ATOM      4  O   UNL A   1      33.539  29.477  23.585  1.00  0.00    -0.273 OA
ATOM      5  H   UNL A   1      34.312  30.693  25.420  1.00  0.00     0.163 HD
BRANCH   3   6
ATOM      6  C   UNL A   1      32.655  27.725  25.012  1.00  0.00     0.181 C 
BRANCH   6   7
ATOM      7  N   UNL A   1      32.515  26.829  23.827  1.00  0.00    -0.280 N 
ATOM      8  C   UNL A   1      33.263  23.473  22.509  1.00  0.00     0.029 C 
ATOM      9  C   UNL A   1      32.785  24.703  22.768  1.00  0.00     0.081 C 
ATOM     10  S   UNL A   1      31.848  25.601  21.645  1.00  0.00    -0.054 SA
ATOM     11  C   UNL A   1      32.961  25.521  24.003  1.00  0.00     0.266 C 
ATOM     12  C   UNL A   1      31.632  26.947  22.772  1.00  0.00     0.149 C 
ATOM     13  O   UNL A   1      33.372  25.068  25.061  1.00  0.00    -0.268 OA
ATOM     14  S   UNL A   1      30.438  28.072  22.473  1.00  0.00    -0.052 S 
BRANCH   8  15
ATOM     15  C   UNL A   1      34.114  22.699  23.421  1.00  0.00    -0.020 A 
ATOM     16  C   UNL A   1      34.372  20.798  24.927  1.00  0.00     0.161 A 
ATOM     17  C   UNL A   1      33.557  21.668  24.191  1.00  0.00     0.058 A 
ATOM     18  C   UNL A   1      35.757  20.946  24.828  1.00  0.00     0.157 A 
ATOM     19  C   UNL A   1      36.314  22.037  24.168  1.00  0.00     0.051 A 
ATOM     20  C   UNL A   1      35.491  22.930  23.488  1.00  0.00     0.012 A 
BRANCH  16  21
ATOM     21  O   UNL A   1      33.687  19.858  25.643  1.00  0.00    -0.490 OA
BRANCH  21  22
ATOM     22  C   UNL A   1      32.867  18.897  24.971  1.00  0.00     0.226 C 
ATOM     23  C   UNL A   1      33.606  17.960  24.025  1.00  0.00     0.049 C 
ENDBRANCH  21  22
ENDBRANCH  16  21
BRANCH  18  24
ATOM     24  O   UNL A   1      36.642  20.016  25.287  1.00  0.00    -0.504 OA
ATOM     25  H   UNL A   1      36.573  19.695  26.164  1.00  0.00     0.293 HD
ENDBRANCH  18  24
ENDBRANCH   8  15
ENDBRANCH   6   7
BRANCH   6  26
ATOM     26  C   UNL A   1      31.402  28.048  25.864  1.00  0.00     0.032 C 
ATOM     27  C   UNL A   1      31.412  27.603  27.320  1.00  0.00     0.006 C 
ENDBRANCH   6  26
ENDBRANCH   3   6
ENDBRANCH   1   2
BRANCH   1  28
ATOM     28  C   UNL A   1      34.482  30.856  27.877  1.00  0.00     0.023 C 
BRANCH  28  29
ATOM     29  C   UNL A   1      33.318  31.840  27.964  1.00  0.00     0.023 C 
BRANCH  29  30
ATOM     30  C   UNL A   1      33.687  33.289  27.681  1.00  0.00     0.116 C 
BRANCH  30  31
ATOM     31  N   UNL A   1      33.155  34.220  28.668  1.00  0.00    -0.352 N 
ATOM     32  C   UNL A   1      33.614  34.478  29.937  1.00  0.00     0.251 C 
ATOM     33  H   UNL A   1      32.362  34.732  28.387  1.00  0.00     0.163 HD
ATOM     34  O   UNL A   1      32.988  35.214  30.692  1.00  0.00    -0.269 OA
BRANCH  32  35
ATOM     35  C   UNL A   1      34.853  33.819  30.392  1.00  0.00     0.039 A 
ATOM     36  C   UNL A   1      34.766  32.773  31.311  1.00  0.00     0.014 A 
ATOM     37  C   UNL A   1      36.086  34.197  29.853  1.00  0.00     0.014 A 
ATOM     38  C   UNL A   1      35.914  32.048  31.635  1.00  0.00     0.010 A 
ATOM     39  C   UNL A   1      37.210  33.426  30.115  1.00  0.00     0.010 A 
ATOM     40  C   UNL A   1      37.135  32.344  31.008  1.00  0.00    -0.014 A 
BRANCH  40  41
ATOM     41  C   UNL A   1      38.361  31.556  31.282  1.00  0.00     0.031 A 
ATOM     42  C   UNL A   1      39.290  31.995  32.378  1.00  0.00     0.074 A 
ATOM     43  C   UNL A   1      38.674  30.501  30.505  1.00  0.00     0.049 A 
ATOM     44  N   UNL A   1      40.477  31.540  32.690  1.00  0.00    -0.248 NA
ATOM     45  C   UNL A   1      38.838  33.120  33.214  1.00  0.00     0.031 C 
ATOM     46  C   UNL A   1      37.873  29.997  29.387  1.00  0.00     0.029 A 
ATOM     47  N   UNL A   1      39.765  29.668  30.531  1.00  0.00    -0.354 N 
ATOM     48  C   UNL A   1      40.917  32.332  33.741  1.00  0.00     0.074 A 
ATOM     49  C   UNL A   1      39.899  33.331  33.979  1.00  0.00     0.031 C 
ATOM     50  C   UNL A   1      38.489  28.931  28.849  1.00  0.00     0.029 A 
ATOM     51  C   UNL A   1      39.744  28.700  29.557  1.00  0.00     0.049 A 
ATOM     52  H   UNL A   1      40.494  29.757  31.187  1.00  0.00     0.167 HD
ATOM     53  C   UNL A   1      42.056  32.220  34.465  1.00  0.00     0.037 A 
ATOM     54  C   UNL A   1      40.643  27.741  29.265  1.00  0.00     0.037 A 
ATOM     55  C   UNL A   1      43.050  31.204  34.254  1.00  0.00     0.049 A 
ATOM     56  C   UNL A   1      41.898  27.637  30.087  1.00  0.00     0.074 A 
ATOM     57  C   UNL A   1      44.229  30.993  34.945  1.00  0.00     0.029 A 
ATOM     58  N   UNL A   1      42.969  30.216  33.285  1.00  0.00    -0.354 N 
ATOM     59  N   UNL A   1      42.290  28.379  31.095  1.00  0.00    -0.248 NA
ATOM     60  C   UNL A   1      42.835  26.561  29.734  1.00  0.00     0.031 C 
ATOM     61  C   UNL A   1      44.871  29.885  34.384  1.00  0.00     0.029 A 
ATOM     62  C   UNL A   1      44.075  29.388  33.364  1.00  0.00     0.049 A 
ATOM     63  H   UNL A   1      42.234  30.118  32.637  1.00  0.00     0.167 HD
ATOM     64  C   UNL A   1      43.496  27.836  31.518  1.00  0.00     0.074 A 
ATOM     65  C   UNL A   1      43.769  26.701  30.663  1.00  0.00     0.031 C 
ATOM     66  C   UNL A   1      44.308  28.244  32.524  1.00  0.00     0.037 A 
BRANCH  53  67
ATOM     67  C   UNL A   1      42.268  33.211  35.570  1.00  0.00     0.057 A 
ATOM     68  C   UNL A   1      41.814  32.962  36.872  1.00  0.00     0.134 A 
ATOM     69  C   UNL A   1      42.954  34.409  35.341  1.00  0.00     0.134 A 
ATOM     70  F   UNL A   1      41.134  31.839  37.152  1.00  0.00    -0.206 F 
ATOM     71  C   UNL A   1      42.018  33.880  37.903  1.00  0.00     0.040 A 
ATOM     72  C   UNL A   1      43.185  35.324  36.370  1.00  0.00     0.040 A 
ATOM     73  F   UNL A   1      43.415  34.708  34.117  1.00  0.00    -0.206 F 
ATOM     74  C   UNL A   1      42.712  35.062  37.654  1.00  0.00     0.006 A 
ENDBRANCH  53  67
BRANCH  54  75
ATOM     75  C   UNL A   1      40.389  26.782  28.161  1.00  0.00     0.057 A 
ATOM     76  C   UNL A   1      39.536  25.686  28.342  1.00  0.00     0.134 A 
ATOM     77  C   UNL A   1      41.017  26.911  26.917  1.00  0.00     0.134 A 
ATOM     78  F   UNL A   1      38.921  25.500  29.520  1.00  0.00    -0.206 F 
ATOM     79  C   UNL A   1      39.339  24.737  27.339  1.00  0.00     0.040 A 
ATOM     80  C   UNL A   1      40.811  25.981  25.895  1.00  0.00     0.040 A 
ATOM     81  F   UNL A   1      41.841  27.941  26.676  1.00  0.00    -0.206 F 
ATOM     82  C   UNL A   1      39.978  24.884  26.110  1.00  0.00     0.006 A 
ENDBRANCH  54  75
BRANCH  66  83
ATOM     83  C   UNL A   1      45.533  27.423  32.791  1.00  0.00     0.057 A 
ATOM     84  C   UNL A   1      46.766  27.723  32.201  1.00  0.00     0.134 A 
ATOM     85  C   UNL A   1      45.482  26.348  33.687  1.00  0.00     0.134 A 
ATOM     86  F   UNL A   1      46.874  28.733  31.326  1.00  0.00    -0.206 F 
ATOM     87  C   UNL A   1      47.906  26.968  32.480  1.00  0.00     0.040 A 
ATOM     88  C   UNL A   1      46.620  25.600  33.990  1.00  0.00     0.040 A 
ATOM     89  F   UNL A   1      44.331  26.015  34.289  1.00  0.00    -0.206 F 
ATOM     90  C   UNL A   1      47.836  25.907  33.383  1.00  0.00     0.006 A 
ENDBRANCH  66  83
ENDBRANCH  40  41
ENDBRANCH  32  35
ENDBRANCH  30  31
ENDBRANCH  29  30
ENDBRANCH  28  29
ENDBRANCH   1  28
TORSDOF 17
ENDMDL
MODEL 3
REMARK VINA RESULT:     -10.3      3.593      9.127
REMARK SMILES CCOc1cc(/C=C2/SC(=S)N([C@H](CC)C(=O)NCCCCNC(=O)c3ccc(-c4c5nc(c(-c6c(F)cccc6F)c6ccc([nH]6)c(-c6c(F)cccc6F)c6nc(c(-c7c(F)cccc7F)c7ccc4[nH]7)C=C6)C=C5)cc3)C2=O)ccc1O
REMARK SMILES IDX 19 1 18 2 16 3 17 4 13 6 12 7 7 8 8 9 9 10 80 11 10 12 81 13
REMARK SMILES IDX 11 14 6 15 4 16 5 17 84 18 83 19 82 20 3 21 2 22 1 23 85 24
REMARK SMILES IDX 14 26 15 27 20 28 21 29 22 30 23 31 24 32 25 34 26 35 27 36
REMARK SMILES IDX 79 37 28 38 78 39 29 40 30 41 31 42 72 43 32 44 77 45 71 46
REMARK SMILES IDX 73 47 33 48 76 49 70 50 69 51 34 53 60 54 43 55 59 56 44 57
REMARK SMILES IDX 47 58 58 59 74 60 45 61 46 62 57 64 75 65 48 66 35 67 36 68
REMARK SMILES IDX 41 69 37 70 38 71 40 72 42 73 39 74 61 75 62 76 67 77 63 78
REMARK SMILES IDX 64 79 66 80 68 81 65 82 49 83 50 84 55 85 51 86 52 87 54 88
REMARK SMILES IDX 56 89 53 90
REMARK H PARENT 18 5 85 25 23 33 73 52 47 63
REMARK Flexibility Score: inf
ROOT
ATOM      1  C   UNL A   1      36.306  20.264  25.166  1.00  0.00     0.116 C 
ENDROOT
BRANCH   1   2
ATOM      2  N   UNL A   1      35.976  21.295  24.207  1.00  0.00    -0.354 N 
ATOM      3  C   UNL A   1      35.343  22.491  24.355  1.00  0.00     0.243 C 
ATOM      4  O   UNL A   1      35.000  23.061  23.311  1.00  0.00    -0.273 OA
ATOM      5  H   UNL A   1      36.258  21.097  23.286  1.00  0.00     0.163 HD
BRANCH   3   6
ATOM      6  C   UNL A   1      34.887  23.058  25.735  1.00  0.00     0.181 C 
BRANCH   6   7
ATOM      7  N   UNL A   1      33.414  23.191  25.924  1.00  0.00    -0.280 N 
ATOM      8  C   UNL A   1      30.598  25.564  25.901  1.00  0.00     0.029 C 
ATOM      9  C   UNL A   1      31.408  24.491  25.877  1.00  0.00     0.081 C 
ATOM     10  S   UNL A   1      30.849  22.888  26.128  1.00  0.00    -0.054 SA
ATOM     11  C   UNL A   1      32.883  24.451  25.658  1.00  0.00     0.266 C 
ATOM     12  C   UNL A   1      32.457  22.197  25.878  1.00  0.00     0.149 C 
ATOM     13  O   UNL A   1      33.527  25.393  25.221  1.00  0.00    -0.268 OA
ATOM     14  S   UNL A   1      32.601  20.562  25.579  1.00  0.00    -0.052 S 
BRANCH   8  15
ATOM     15  C   UNL A   1      31.048  26.953  25.747  1.00  0.00    -0.020 A 
ATOM     16  C   UNL A   1      31.103  28.994  24.414  1.00  0.00     0.161 A 
ATOM     17  C   UNL A   1      30.853  27.620  24.530  1.00  0.00     0.058 A 
ATOM     18  C   UNL A   1      31.495  29.694  25.556  1.00  0.00     0.157 A 
ATOM     19  C   UNL A   1      31.809  29.023  26.734  1.00  0.00     0.051 A 
ATOM     20  C   UNL A   1      31.612  27.647  26.821  1.00  0.00     0.012 A 
BRANCH  16  21
ATOM     21  O   UNL A   1      30.887  29.500  23.163  1.00  0.00    -0.490 OA
BRANCH  21  22
ATOM     22  C   UNL A   1      29.835  28.979  22.347  1.00  0.00     0.226 C 
ATOM     23  C   UNL A   1      28.520  29.744  22.413  1.00  0.00     0.049 C 
ENDBRANCH  21  22
ENDBRANCH  16  21
BRANCH  18  24
ATOM     24  O   UNL A   1      31.520  31.056  25.625  1.00  0.00    -0.504 OA
ATOM     25  H   UNL A   1      30.806  31.557  25.284  1.00  0.00     0.293 HD
ENDBRANCH  18  24
ENDBRANCH   8  15
ENDBRANCH   6   7
BRANCH   6  26
ATOM     26  C   UNL A   1      35.797  24.278  26.022  1.00  0.00     0.032 C 
ATOM     27  C   UNL A   1      37.303  24.061  25.948  1.00  0.00     0.006 C 
ENDBRANCH   6  26
ENDBRANCH   3   6
ENDBRANCH   1   2
BRANCH   1  28
ATOM     28  C   UNL A   1      37.378  19.333  24.599  1.00  0.00     0.023 C 
BRANCH  28  29
ATOM     29  C   UNL A   1      38.808  19.848  24.743  1.00  0.00     0.023 C 
BRANCH  29  30
ATOM     30  C   UNL A   1      39.488  19.481  26.053  1.00  0.00     0.116 C 
BRANCH  30  31
ATOM     31  N   UNL A   1      40.821  18.920  25.871  1.00  0.00    -0.352 N 
ATOM     32  C   UNL A   1      42.039  19.534  26.037  1.00  0.00     0.251 C 
ATOM     33  H   UNL A   1      40.852  17.976  25.592  1.00  0.00     0.163 HD
ATOM     34  O   UNL A   1      43.078  18.956  25.737  1.00  0.00    -0.269 OA
BRANCH  32  35
ATOM     35  C   UNL A   1      42.074  20.918  26.546  1.00  0.00     0.039 A 
ATOM     36  C   UNL A   1      42.024  21.136  27.924  1.00  0.00     0.014 A 
ATOM     37  C   UNL A   1      42.226  21.987  25.658  1.00  0.00     0.014 A 
ATOM     38  C   UNL A   1      42.204  22.427  28.420  1.00  0.00     0.010 A 
ATOM     39  C   UNL A   1      42.483  23.257  26.157  1.00  0.00     0.010 A 
ATOM     40  C   UNL A   1      42.476  23.489  27.543  1.00  0.00    -0.014 A 
BRANCH  40  41
ATOM     41  C   UNL A   1      42.734  24.862  28.039  1.00  0.00     0.031 A 
ATOM     42  C   UNL A   1      44.126  25.248  28.453  1.00  0.00     0.074 A 
ATOM     43  C   UNL A   1      41.714  25.730  28.189  1.00  0.00     0.049 A 
ATOM     44  N   UNL A   1      44.543  26.339  29.043  1.00  0.00    -0.248 NA
ATOM     45  C   UNL A   1      45.187  24.259  28.199  1.00  0.00     0.031 C 
ATOM     46  C   UNL A   1      40.312  25.463  27.857  1.00  0.00     0.029 A 
ATOM     47  N   UNL A   1      41.700  27.013  28.673  1.00  0.00    -0.354 N 
ATOM     48  C   UNL A   1      45.904  26.159  29.245  1.00  0.00     0.074 A 
ATOM     49  C   UNL A   1      46.236  24.835  28.768  1.00  0.00     0.031 C 
ATOM     50  C   UNL A   1      39.580  26.556  28.129  1.00  0.00     0.029 A 
ATOM     51  C   UNL A   1      40.451  27.585  28.688  1.00  0.00     0.049 A 
ATOM     52  H   UNL A   1      42.510  27.481  28.982  1.00  0.00     0.167 HD
ATOM     53  C   UNL A   1      46.805  27.030  29.757  1.00  0.00     0.037 A 
ATOM     54  C   UNL A   1      40.055  28.799  29.115  1.00  0.00     0.037 A 
ATOM     55  C   UNL A   1      46.483  28.360  30.197  1.00  0.00     0.049 A 
ATOM     56  C   UNL A   1      41.078  29.748  29.677  1.00  0.00     0.074 A 
ATOM     57  C   UNL A   1      47.326  29.327  30.712  1.00  0.00     0.029 A 
ATOM     58  N   UNL A   1      45.214  28.915  30.154  1.00  0.00    -0.354 N 
ATOM     59  N   UNL A   1      42.367  29.573  29.839  1.00  0.00    -0.248 NA
ATOM     60  C   UNL A   1      40.592  31.066  30.111  1.00  0.00     0.031 C 
ATOM     61  C   UNL A   1      46.564  30.464  30.998  1.00  0.00     0.029 A 
ATOM     62  C   UNL A   1      45.251  30.214  30.628  1.00  0.00     0.049 A 
ATOM     63  H   UNL A   1      44.404  28.453  29.833  1.00  0.00     0.167 HD
ATOM     64  C   UNL A   1      42.850  30.768  30.357  1.00  0.00     0.074 A 
ATOM     65  C   UNL A   1      41.718  31.662  30.476  1.00  0.00     0.031 C 
ATOM     66  C   UNL A   1      44.117  31.095  30.706  1.00  0.00     0.037 A 
BRANCH  53  67
ATOM     67  C   UNL A   1      48.230  26.574  29.842  1.00  0.00     0.057 A 
ATOM     68  C   UNL A   1      49.157  26.880  28.835  1.00  0.00     0.134 A 
ATOM     69  C   UNL A   1      48.690  25.848  30.947  1.00  0.00     0.134 A 
ATOM     70  F   UNL A   1      48.774  27.558  27.742  1.00  0.00    -0.206 F 
ATOM     71  C   UNL A   1      50.486  26.463  28.916  1.00  0.00     0.040 A 
ATOM     72  C   UNL A   1      50.024  25.447  31.050  1.00  0.00     0.040 A 
ATOM     73  F   UNL A   1      47.855  25.523  31.945  1.00  0.00    -0.206 F 
ATOM     74  C   UNL A   1      50.924  25.750  30.031  1.00  0.00     0.006 A 
ENDBRANCH  53  67
BRANCH  54  75
ATOM     75  C   UNL A   1      38.632  29.206  29.012  1.00  0.00     0.057 A 
ATOM     76  C   UNL A   1      37.784  29.144  30.124  1.00  0.00     0.134 A 
ATOM     77  C   UNL A   1      38.074  29.627  27.799  1.00  0.00     0.134 A 
ATOM     78  F   UNL A   1      38.257  28.730  31.309  1.00  0.00    -0.206 F 
ATOM     79  C   UNL A   1      36.427  29.457  30.031  1.00  0.00     0.040 A 
ATOM     80  C   UNL A   1      36.722  29.965  27.695  1.00  0.00     0.040 A 
ATOM     81  F   UNL A   1      38.833  29.714  26.698  1.00  0.00    -0.206 F 
ATOM     82  C   UNL A   1      35.893  29.870  28.812  1.00  0.00     0.006 A 
ENDBRANCH  54  75
BRANCH  66  83
ATOM     83  C   UNL A   1      44.355  32.493  31.191  1.00  0.00     0.057 A 
ATOM     84  C   UNL A   1      44.621  33.546  30.308  1.00  0.00     0.134 A 
ATOM     85  C   UNL A   1      44.271  32.792  32.556  1.00  0.00     0.134 A 
ATOM     86  F   UNL A   1      44.726  33.319  28.991  1.00  0.00    -0.206 F 
ATOM     87  C   UNL A   1      44.812  34.848  30.769  1.00  0.00     0.040 A 
ATOM     88  C   UNL A   1      44.439  34.095  33.027  1.00  0.00     0.040 A 
ATOM     89  F   UNL A   1      44.013  31.827  33.452  1.00  0.00    -0.206 F 
ATOM     90  C   UNL A   1      44.715  35.127  32.133  1.00  0.00     0.006 A 
ENDBRANCH  66  83
ENDBRANCH  40  41
ENDBRANCH  32  35
ENDBRANCH  30  31
ENDBRANCH  29  30
ENDBRANCH  28  29
ENDBRANCH   1  28
TORSDOF 17
ENDMDL
