MODEL 1
REMARK VINA RESULT:     -10.2      0.000      0.000
REMARK SMILES [NH3+]C[C@@H]1CCCC[C@H]1CC(=O)NCCCCNC(=O)c1ccc(-c2c3nc(c(-c4c(F)cccc4F)c4ccc([nH]4)c(-c4c(F)cccc4F)c4nc(c(-c5c(F)cccc5F)c5ccc2[nH]5)C=C4)C=C3)cc1
REMARK SMILES IDX 14 1 13 2 12 3 10 4 11 5 9 7 8 8 3 9 4 10 5 11 7 12 6 13
REMARK SMILES IDX 2 14 1 15 15 19 16 20 17 21 18 22 19 24 20 25 21 26 73 27
REMARK SMILES IDX 22 28 72 29 23 30 24 31 25 32 66 33 26 34 71 35 65 36 67 37
REMARK SMILES IDX 27 38 70 39 64 40 63 41 28 43 54 44 37 45 53 46 38 47 41 48
REMARK SMILES IDX 52 49 68 50 39 51 40 52 51 54 69 55 42 56 29 57 30 58 35 59
REMARK SMILES IDX 31 60 32 61 34 62 36 63 33 64 55 65 56 66 61 67 57 68 58 69
REMARK SMILES IDX 60 70 62 71 59 72 43 73 44 74 49 75 45 76 46 77 48 78 50 79
REMARK SMILES IDX 47 80
REMARK H PARENT 12 6 1 16 1 17 1 18 17 23 67 42 41 53
REMARK Flexibility Score: inf
ROOT
ATOM      1  C   UNL A   1      38.778  22.145  25.839  1.00  0.00     0.023 C 
ENDROOT
BRANCH   1   2
ATOM      2  C   UNL A   1      37.464  22.849  25.474  1.00  0.00     0.116 C 
BRANCH   2   3
ATOM      3  N   UNL A   1      36.334  22.497  26.322  1.00  0.00    -0.356 N 
ATOM      4  C   UNL A   1      35.355  21.553  26.184  1.00  0.00     0.220 C 
ATOM      5  O   UNL A   1      34.497  21.463  27.063  1.00  0.00    -0.275 OA
ATOM      6  H   UNL A   1      36.262  23.036  27.143  1.00  0.00     0.163 HD
BRANCH   4   7
ATOM      7  C   UNL A   1      35.314  20.656  24.967  1.00  0.00     0.104 C 
BRANCH   7   8
ATOM      8  C   UNL A   1      34.141  19.638  24.868  1.00  0.00     0.007 C 
ATOM      9  C   UNL A   1      33.046  20.056  23.854  1.00  0.00     0.048 C 
ATOM     10  C   UNL A   1      32.199  18.921  23.256  1.00  0.00     0.010 C 
ATOM     11  C   UNL A   1      33.060  17.765  22.787  1.00  0.00     0.001 C 
ATOM     12  C   UNL A   1      34.791  18.275  24.513  1.00  0.00     0.004 C 
ATOM     13  C   UNL A   1      33.834  17.221  23.973  1.00  0.00     0.000 C 
BRANCH   9  14
ATOM     14  C   UNL A   1      32.081  21.179  24.323  1.00  0.00     0.262 C 
BRANCH  14  15
ATOM     15  N   UNL A   1      31.789  21.175  25.750  1.00  0.00    -0.357 N 
ATOM     16  H   UNL A   1      30.788  21.320  25.892  1.00  0.00     0.344 HD
ATOM     17  H   UNL A   1      32.309  21.924  26.206  1.00  0.00     0.344 HD
ATOM     18  H   UNL A   1      32.062  20.278  26.152  1.00  0.00     0.344 HD
ENDBRANCH  14  15
ENDBRANCH   9  14
ENDBRANCH   7   8
ENDBRANCH   4   7
ENDBRANCH   2   3
ENDBRANCH   1   2
BRANCH   1  19
ATOM     19  C   UNL A   1      38.936  20.719  25.331  1.00  0.00     0.023 C 
BRANCH  19  20
ATOM     20  C   UNL A   1      39.532  19.788  26.365  1.00  0.00     0.116 C 
BRANCH  20  21
ATOM     21  N   UNL A   1      40.767  19.177  25.892  1.00  0.00    -0.352 N 
ATOM     22  C   UNL A   1      42.024  19.710  25.779  1.00  0.00     0.251 C 
ATOM     23  H   UNL A   1      40.687  18.236  25.611  1.00  0.00     0.163 HD
ATOM     24  O   UNL A   1      42.899  19.096  25.179  1.00  0.00    -0.269 OA
BRANCH  22  25
ATOM     25  C   UNL A   1      42.309  21.030  26.369  1.00  0.00     0.039 A 
ATOM     26  C   UNL A   1      42.605  22.097  25.519  1.00  0.00     0.014 A 
ATOM     27  C   UNL A   1      42.291  21.211  27.755  1.00  0.00     0.014 A 
ATOM     28  C   UNL A   1      42.843  23.357  26.060  1.00  0.00     0.010 A 
ATOM     29  C   UNL A   1      42.422  22.484  28.285  1.00  0.00     0.010 A 
ATOM     30  C   UNL A   1      42.727  23.562  27.446  1.00  0.00    -0.014 A 
BRANCH  30  31
ATOM     31  C   UNL A   1      42.964  24.894  28.041  1.00  0.00     0.031 A 
ATOM     32  C   UNL A   1      44.352  25.278  28.471  1.00  0.00     0.074 A 
ATOM     33  C   UNL A   1      41.921  25.720  28.238  1.00  0.00     0.049 A 
ATOM     34  N   UNL A   1      44.763  26.380  29.042  1.00  0.00    -0.248 NA
ATOM     35  C   UNL A   1      45.416  24.279  28.266  1.00  0.00     0.031 C 
ATOM     36  C   UNL A   1      40.523  25.413  27.923  1.00  0.00     0.029 A 
ATOM     37  N   UNL A   1      41.874  26.989  28.752  1.00  0.00    -0.354 N 
ATOM     38  C   UNL A   1      46.119  26.196  29.283  1.00  0.00     0.074 A 
ATOM     39  C   UNL A   1      46.452  24.859  28.850  1.00  0.00     0.031 C 
ATOM     40  C   UNL A   1      39.762  26.480  28.216  1.00  0.00     0.029 A 
ATOM     41  C   UNL A   1      40.611  27.529  28.766  1.00  0.00     0.049 A 
ATOM     42  H   UNL A   1      42.669  27.467  29.081  1.00  0.00     0.167 HD
ATOM     43  C   UNL A   1      47.009  27.078  29.791  1.00  0.00     0.037 A 
ATOM     44  C   UNL A   1      40.196  28.742  29.172  1.00  0.00     0.037 A 
ATOM     45  C   UNL A   1      46.672  28.424  30.168  1.00  0.00     0.049 A 
ATOM     46  C   UNL A   1      41.216  29.716  29.690  1.00  0.00     0.074 A 
ATOM     47  C   UNL A   1      47.508  29.430  30.615  1.00  0.00     0.029 A 
ATOM     48  N   UNL A   1      45.389  28.950  30.133  1.00  0.00    -0.354 N 
ATOM     49  N   UNL A   1      42.511  29.561  29.833  1.00  0.00    -0.248 NA
ATOM     50  C   UNL A   1      40.720  31.038  30.094  1.00  0.00     0.031 C 
ATOM     51  C   UNL A   1      46.724  30.557  30.884  1.00  0.00     0.029 A 
ATOM     52  C   UNL A   1      45.408  30.263  30.568  1.00  0.00     0.049 A 
ATOM     53  H   UNL A   1      44.585  28.461  29.844  1.00  0.00     0.167 HD
ATOM     54  C   UNL A   1      42.988  30.770  30.320  1.00  0.00     0.074 A 
ATOM     55  C   UNL A   1      41.845  31.655  30.426  1.00  0.00     0.031 C 
ATOM     56  C   UNL A   1      44.253  31.119  30.656  1.00  0.00     0.037 A 
BRANCH  43  57
ATOM     57  C   UNL A   1      48.429  26.622  29.950  1.00  0.00     0.057 A 
ATOM     58  C   UNL A   1      49.391  26.839  28.955  1.00  0.00     0.134 A 
ATOM     59  C   UNL A   1      48.851  25.996  31.131  1.00  0.00     0.134 A 
ATOM     60  F   UNL A   1      49.050  27.418  27.794  1.00  0.00    -0.206 F 
ATOM     61  C   UNL A   1      50.717  26.433  29.120  1.00  0.00     0.040 A 
ATOM     62  C   UNL A   1      50.179  25.608  31.317  1.00  0.00     0.040 A 
ATOM     63  F   UNL A   1      47.980  25.758  32.124  1.00  0.00    -0.206 F 
ATOM     64  C   UNL A   1      51.116  25.823  30.308  1.00  0.00     0.006 A 
ENDBRANCH  43  57
BRANCH  44  65
ATOM     65  C   UNL A   1      38.764  29.117  29.071  1.00  0.00     0.057 A 
ATOM     66  C   UNL A   1      37.917  29.037  30.183  1.00  0.00     0.134 A 
ATOM     67  C   UNL A   1      38.202  29.546  27.863  1.00  0.00     0.134 A 
ATOM     68  F   UNL A   1      38.394  28.620  31.365  1.00  0.00    -0.206 F 
ATOM     69  C   UNL A   1      36.558  29.343  30.092  1.00  0.00     0.040 A 
ATOM     70  C   UNL A   1      36.850  29.879  27.763  1.00  0.00     0.040 A 
ATOM     71  F   UNL A   1      38.961  29.654  26.763  1.00  0.00    -0.206 F 
ATOM     72  C   UNL A   1      36.022  29.768  28.879  1.00  0.00     0.006 A 
ENDBRANCH  44  65
BRANCH  56  73
ATOM     73  C   UNL A   1      44.459  32.521  31.143  1.00  0.00     0.057 A 
ATOM     74  C   UNL A   1      44.411  32.841  32.504  1.00  0.00     0.134 A 
ATOM     75  C   UNL A   1      44.732  33.556  30.239  1.00  0.00     0.134 A 
ATOM     76  F   UNL A   1      44.141  31.894  33.416  1.00  0.00    -0.206 F 
ATOM     77  C   UNL A   1      44.598  34.149  32.951  1.00  0.00     0.040 A 
ATOM     78  C   UNL A   1      44.948  34.863  30.676  1.00  0.00     0.040 A 
ATOM     79  F   UNL A   1      44.802  33.311  28.923  1.00  0.00    -0.206 F 
ATOM     80  C   UNL A   1      44.873  35.163  32.035  1.00  0.00     0.006 A 
ENDBRANCH  56  73
ENDBRANCH  30  31
ENDBRANCH  22  25
ENDBRANCH  20  21
ENDBRANCH  19  20
ENDBRANCH   1  19
TORSDOF 14
ENDMDL
MODEL 2
REMARK VINA RESULT:      -9.9      1.510      2.504
REMARK SMILES [NH3+]C[C@@H]1CCCC[C@H]1CC(=O)NCCCCNC(=O)c1ccc(-c2c3nc(c(-c4c(F)cccc4F)c4ccc([nH]4)c(-c4c(F)cccc4F)c4nc(c(-c5c(F)cccc5F)c5ccc2[nH]5)C=C4)C=C3)cc1
REMARK SMILES IDX 14 1 13 2 12 3 10 4 11 5 9 7 8 8 3 9 4 10 5 11 7 12 6 13
REMARK SMILES IDX 2 14 1 15 15 19 16 20 17 21 18 22 19 24 20 25 21 26 73 27
REMARK SMILES IDX 22 28 72 29 23 30 24 31 25 32 66 33 26 34 71 35 65 36 67 37
REMARK SMILES IDX 27 38 70 39 64 40 63 41 28 43 54 44 37 45 53 46 38 47 41 48
REMARK SMILES IDX 52 49 68 50 39 51 40 52 51 54 69 55 42 56 29 57 30 58 35 59
REMARK SMILES IDX 31 60 32 61 34 62 36 63 33 64 55 65 56 66 61 67 57 68 58 69
REMARK SMILES IDX 60 70 62 71 59 72 43 73 44 74 49 75 45 76 46 77 48 78 50 79
REMARK SMILES IDX 47 80
REMARK H PARENT 12 6 1 16 1 17 1 18 17 23 67 42 41 53
REMARK Flexibility Score: inf
ROOT
ATOM      1  C   UNL A   1      36.477  20.293  24.999  1.00  0.00     0.023 C 
ENDROOT
BRANCH   1   2
ATOM      2  C   UNL A   1      36.588  21.753  25.454  1.00  0.00     0.116 C 
BRANCH   2   3
ATOM      3  N   UNL A   1      35.782  22.087  26.620  1.00  0.00    -0.356 N 
ATOM      4  C   UNL A   1      34.464  22.425  26.746  1.00  0.00     0.220 C 
ATOM      5  O   UNL A   1      34.024  22.667  27.871  1.00  0.00    -0.275 OA
ATOM      6  H   UNL A   1      36.276  22.065  27.472  1.00  0.00     0.163 HD
BRANCH   4   7
ATOM      7  C   UNL A   1      33.573  22.522  25.528  1.00  0.00     0.104 C 
BRANCH   7   8
ATOM      8  C   UNL A   1      33.007  23.926  25.165  1.00  0.00     0.007 C 
ATOM      9  C   UNL A   1      31.899  24.413  26.133  1.00  0.00     0.048 C 
ATOM     10  C   UNL A   1      31.703  25.935  26.236  1.00  0.00     0.010 C 
ATOM     11  C   UNL A   1      33.023  26.661  26.398  1.00  0.00     0.001 C 
ATOM     12  C   UNL A   1      34.229  24.880  25.130  1.00  0.00     0.004 C 
ATOM     13  C   UNL A   1      33.895  26.364  25.192  1.00  0.00     0.000 C 
BRANCH   9  14
ATOM     14  C   UNL A   1      30.502  23.760  25.947  1.00  0.00     0.262 C 
BRANCH  14  15
ATOM     15  N   UNL A   1      29.516  24.134  26.953  1.00  0.00    -0.357 N 
ATOM     16  H   UNL A   1      28.834  24.771  26.539  1.00  0.00     0.344 HD
ATOM     17  H   UNL A   1      29.984  24.596  27.732  1.00  0.00     0.344 HD
ATOM     18  H   UNL A   1      29.039  23.297  27.290  1.00  0.00     0.344 HD
ENDBRANCH  14  15
ENDBRANCH   9  14
ENDBRANCH   7   8
ENDBRANCH   4   7
ENDBRANCH   2   3
ENDBRANCH   1   2
BRANCH   1  19
ATOM     19  C   UNL A   1      37.791  19.542  24.833  1.00  0.00     0.023 C 
BRANCH  19  20
ATOM     20  C   UNL A   1      38.932  20.175  25.600  1.00  0.00     0.116 C 
BRANCH  20  21
ATOM     21  N   UNL A   1      40.070  19.273  25.717  1.00  0.00    -0.352 N 
ATOM     22  C   UNL A   1      41.367  19.537  26.071  1.00  0.00     0.251 C 
ATOM     23  H   UNL A   1      39.879  18.330  25.511  1.00  0.00     0.163 HD
ATOM     24  O   UNL A   1      42.229  18.677  25.927  1.00  0.00    -0.269 OA
BRANCH  22  25
ATOM     25  C   UNL A   1      41.718  20.864  26.607  1.00  0.00     0.039 A 
ATOM     26  C   UNL A   1      42.133  21.859  25.721  1.00  0.00     0.014 A 
ATOM     27  C   UNL A   1      41.646  21.121  27.979  1.00  0.00     0.014 A 
ATOM     28  C   UNL A   1      42.436  23.127  26.210  1.00  0.00     0.010 A 
ATOM     29  C   UNL A   1      41.843  22.408  28.450  1.00  0.00     0.010 A 
ATOM     30  C   UNL A   1      42.267  23.415  27.575  1.00  0.00    -0.014 A 
BRANCH  30  31
ATOM     31  C   UNL A   1      42.571  24.757  28.114  1.00  0.00     0.031 A 
ATOM     32  C   UNL A   1      43.981  25.097  28.507  1.00  0.00     0.074 A 
ATOM     33  C   UNL A   1      41.568  25.635  28.294  1.00  0.00     0.049 A 
ATOM     34  N   UNL A   1      44.449  26.200  29.028  1.00  0.00    -0.248 NA
ATOM     35  C   UNL A   1      44.998  24.045  28.325  1.00  0.00     0.031 C 
ATOM     36  C   UNL A   1      40.153  25.377  28.013  1.00  0.00     0.029 A 
ATOM     37  N   UNL A   1      41.584  26.924  28.759  1.00  0.00    -0.354 N 
ATOM     38  C   UNL A   1      45.799  25.968  29.255  1.00  0.00     0.074 A 
ATOM     39  C   UNL A   1      46.068  24.602  28.870  1.00  0.00     0.031 C 
ATOM     40  C   UNL A   1      39.443  26.487  28.276  1.00  0.00     0.029 A 
ATOM     41  C   UNL A   1      40.346  27.518  28.771  1.00  0.00     0.049 A 
ATOM     42  H   UNL A   1      42.405  27.379  29.056  1.00  0.00     0.167 HD
ATOM     43  C   UNL A   1      46.735  26.829  29.715  1.00  0.00     0.037 A 
ATOM     44  C   UNL A   1      39.990  28.763  29.136  1.00  0.00     0.037 A 
ATOM     45  C   UNL A   1      46.463  28.201  30.044  1.00  0.00     0.049 A 
ATOM     46  C   UNL A   1      41.060  29.711  29.600  1.00  0.00     0.074 A 
ATOM     47  C   UNL A   1      47.349  29.187  30.438  1.00  0.00     0.029 A 
ATOM     48  N   UNL A   1      45.203  28.781  30.008  1.00  0.00    -0.354 N 
ATOM     49  N   UNL A   1      42.350  29.505  29.728  1.00  0.00    -0.248 NA
ATOM     50  C   UNL A   1      40.629  31.068  29.958  1.00  0.00     0.031 C 
ATOM     51  C   UNL A   1      46.619  30.357  30.675  1.00  0.00     0.029 A 
ATOM     52  C   UNL A   1      45.286  30.108  30.390  1.00  0.00     0.049 A 
ATOM     53  H   UNL A   1      44.374  28.317  29.750  1.00  0.00     0.167 HD
ATOM     54  C   UNL A   1      42.886  30.710  30.160  1.00  0.00     0.074 A 
ATOM     55  C   UNL A   1      41.784  31.648  30.249  1.00  0.00     0.031 C 
ATOM     56  C   UNL A   1      44.170  31.016  30.463  1.00  0.00     0.037 A 
BRANCH  43  57
ATOM     57  C   UNL A   1      48.137  26.318  29.870  1.00  0.00     0.057 A 
ATOM     58  C   UNL A   1      48.591  25.757  31.070  1.00  0.00     0.134 A 
ATOM     59  C   UNL A   1      49.032  26.349  28.792  1.00  0.00     0.134 A 
ATOM     60  F   UNL A   1      47.790  25.712  32.146  1.00  0.00    -0.206 F 
ATOM     61  C   UNL A   1      49.890  25.261  31.200  1.00  0.00     0.040 A 
ATOM     62  C   UNL A   1      50.325  25.834  28.902  1.00  0.00     0.040 A 
ATOM     63  F   UNL A   1      48.661  26.873  27.614  1.00  0.00    -0.206 F 
ATOM     64  C   UNL A   1      50.758  25.291  30.110  1.00  0.00     0.006 A 
ENDBRANCH  43  57
BRANCH  44  65
ATOM     65  C   UNL A   1      38.574  29.196  29.042  1.00  0.00     0.057 A 
ATOM     66  C   UNL A   1      37.726  29.131  30.154  1.00  0.00     0.134 A 
ATOM     67  C   UNL A   1      38.029  29.665  27.841  1.00  0.00     0.134 A 
ATOM     68  F   UNL A   1      38.186  28.678  31.328  1.00  0.00    -0.206 F 
ATOM     69  C   UNL A   1      36.380  29.492  30.069  1.00  0.00     0.040 A 
ATOM     70  C   UNL A   1      36.691  30.053  27.748  1.00  0.00     0.040 A 
ATOM     71  F   UNL A   1      38.792  29.761  26.743  1.00  0.00    -0.206 F 
ATOM     72  C   UNL A   1      35.860  29.957  28.863  1.00  0.00     0.006 A 
ENDBRANCH  44  65
BRANCH  56  73
ATOM     73  C   UNL A   1      44.445  32.425  30.891  1.00  0.00     0.057 A 
ATOM     74  C   UNL A   1      44.433  32.800  32.240  1.00  0.00     0.134 A 
ATOM     75  C   UNL A   1      44.747  33.412  29.944  1.00  0.00     0.134 A 
ATOM     76  F   UNL A   1      44.138  31.902  33.192  1.00  0.00    -0.206 F 
ATOM     77  C   UNL A   1      44.684  34.115  32.632  1.00  0.00     0.040 A 
ATOM     78  C   UNL A   1      45.026  34.724  30.326  1.00  0.00     0.040 A 
ATOM     79  F   UNL A   1      44.784  33.114  28.637  1.00  0.00    -0.206 F 
ATOM     80  C   UNL A   1      44.987  35.080  31.673  1.00  0.00     0.006 A 
ENDBRANCH  56  73
ENDBRANCH  30  31
ENDBRANCH  22  25
ENDBRANCH  20  21
ENDBRANCH  19  20
ENDBRANCH   1  19
TORSDOF 14
ENDMDL
MODEL 3
REMARK VINA RESULT:      -9.9      0.332      1.800
REMARK SMILES [NH3+]C[C@@H]1CCCC[C@H]1CC(=O)NCCCCNC(=O)c1ccc(-c2c3nc(c(-c4c(F)cccc4F)c4ccc([nH]4)c(-c4c(F)cccc4F)c4nc(c(-c5c(F)cccc5F)c5ccc2[nH]5)C=C4)C=C3)cc1
REMARK SMILES IDX 14 1 13 2 12 3 10 4 11 5 9 7 8 8 3 9 4 10 5 11 7 12 6 13
REMARK SMILES IDX 2 14 1 15 15 19 16 20 17 21 18 22 19 24 20 25 21 26 73 27
REMARK SMILES IDX 22 28 72 29 23 30 24 31 25 32 66 33 26 34 71 35 65 36 67 37
REMARK SMILES IDX 27 38 70 39 64 40 63 41 28 43 54 44 37 45 53 46 38 47 41 48
REMARK SMILES IDX 52 49 68 50 39 51 40 52 51 54 69 55 42 56 29 57 30 58 35 59
REMARK SMILES IDX 31 60 32 61 34 62 36 63 33 64 55 65 56 66 61 67 57 68 58 69
REMARK SMILES IDX 60 70 62 71 59 72 43 73 44 74 49 75 45 76 46 77 48 78 50 79
REMARK SMILES IDX 47 80
REMARK H PARENT 12 6 1 16 1 17 1 18 17 23 67 42 41 53
REMARK Flexibility Score: inf
ROOT
ATOM      1  C   UNL A   1      38.944  21.937  26.101  1.00  0.00     0.023 C 
ENDROOT
BRANCH   1   2
ATOM      2  C   UNL A   1      37.728  22.704  25.565  1.00  0.00     0.116 C 
BRANCH   2   3
ATOM      3  N   UNL A   1      36.499  22.490  26.317  1.00  0.00    -0.356 N 
ATOM      4  C   UNL A   1      35.451  21.637  26.118  1.00  0.00     0.220 C 
ATOM      5  O   UNL A   1      34.514  21.660  26.917  1.00  0.00    -0.275 OA
ATOM      6  H   UNL A   1      36.407  23.064  27.111  1.00  0.00     0.163 HD
BRANCH   4   7
ATOM      7  C   UNL A   1      35.431  20.702  24.929  1.00  0.00     0.104 C 
BRANCH   7   8
ATOM      8  C   UNL A   1      34.476  19.474  24.999  1.00  0.00     0.007 C 
ATOM      9  C   UNL A   1      33.170  19.663  24.186  1.00  0.00     0.048 C 
ATOM     10  C   UNL A   1      32.472  18.380  23.709  1.00  0.00     0.010 C 
ATOM     11  C   UNL A   1      33.451  17.408  23.081  1.00  0.00     0.001 C 
ATOM     12  C   UNL A   1      35.310  18.260  24.513  1.00  0.00     0.004 C 
ATOM     13  C   UNL A   1      34.499  17.036  24.112  1.00  0.00     0.000 C 
BRANCH   9  14
ATOM     14  C   UNL A   1      32.097  20.582  24.831  1.00  0.00     0.262 C 
BRANCH  14  15
ATOM     15  N   UNL A   1      32.244  21.999  24.525  1.00  0.00    -0.357 N 
ATOM     16  H   UNL A   1      32.917  22.417  25.169  1.00  0.00     0.344 HD
ATOM     17  H   UNL A   1      31.342  22.464  24.627  1.00  0.00     0.344 HD
ATOM     18  H   UNL A   1      32.577  22.109  23.567  1.00  0.00     0.344 HD
ENDBRANCH  14  15
ENDBRANCH   9  14
ENDBRANCH   7   8
ENDBRANCH   4   7
ENDBRANCH   2   3
ENDBRANCH   1   2
BRANCH   1  19
ATOM     19  C   UNL A   1      39.220  20.586  25.455  1.00  0.00     0.023 C 
BRANCH  19  20
ATOM     20  C   UNL A   1      39.876  19.604  26.402  1.00  0.00     0.116 C 
BRANCH  20  21
ATOM     21  N   UNL A   1      41.161  19.140  25.893  1.00  0.00    -0.352 N 
ATOM     22  C   UNL A   1      42.344  19.815  25.753  1.00  0.00     0.251 C 
ATOM     23  H   UNL A   1      41.181  18.199  25.607  1.00  0.00     0.163 HD
ATOM     24  O   UNL A   1      43.268  19.308  25.126  1.00  0.00    -0.269 OA
BRANCH  22  25
ATOM     25  C   UNL A   1      42.492  21.156  26.346  1.00  0.00     0.039 A 
ATOM     26  C   UNL A   1      42.414  21.289  27.734  1.00  0.00     0.014 A 
ATOM     27  C   UNL A   1      42.699  22.276  25.537  1.00  0.00     0.014 A 
ATOM     28  C   UNL A   1      42.585  22.545  28.310  1.00  0.00     0.010 A 
ATOM     29  C   UNL A   1      42.975  23.503  26.116  1.00  0.00     0.010 A 
ATOM     30  C   UNL A   1      42.892  23.654  27.505  1.00  0.00    -0.014 A 
BRANCH  30  31
ATOM     31  C   UNL A   1      43.090  24.994  28.096  1.00  0.00     0.031 A 
ATOM     32  C   UNL A   1      44.463  25.415  28.538  1.00  0.00     0.074 A 
ATOM     33  C   UNL A   1      42.024  25.795  28.279  1.00  0.00     0.049 A 
ATOM     34  N   UNL A   1      44.840  26.529  29.108  1.00  0.00    -0.248 NA
ATOM     35  C   UNL A   1      45.554  24.443  28.348  1.00  0.00     0.031 C 
ATOM     36  C   UNL A   1      40.637  25.451  27.951  1.00  0.00     0.029 A 
ATOM     37  N   UNL A   1      41.940  27.065  28.787  1.00  0.00    -0.354 N 
ATOM     38  C   UNL A   1      46.198  26.381  29.363  1.00  0.00     0.074 A 
ATOM     39  C   UNL A   1      46.570  25.051  28.940  1.00  0.00     0.031 C 
ATOM     40  C   UNL A   1      39.847  26.499  28.233  1.00  0.00     0.029 A 
ATOM     41  C   UNL A   1      40.664  27.572  28.786  1.00  0.00     0.049 A 
ATOM     42  H   UNL A   1      42.720  27.564  29.121  1.00  0.00     0.167 HD
ATOM     43  C   UNL A   1      47.061  27.288  29.876  1.00  0.00     0.037 A 
ATOM     44  C   UNL A   1      40.214  28.776  29.182  1.00  0.00     0.037 A 
ATOM     45  C   UNL A   1      46.686  28.626  30.243  1.00  0.00     0.049 A 
ATOM     46  C   UNL A   1      41.205  29.778  29.706  1.00  0.00     0.074 A 
ATOM     47  C   UNL A   1      47.492  29.656  30.694  1.00  0.00     0.029 A 
ATOM     48  N   UNL A   1      45.390  29.119  30.193  1.00  0.00    -0.354 N 
ATOM     49  N   UNL A   1      42.501  29.657  29.862  1.00  0.00    -0.248 NA
ATOM     50  C   UNL A   1      40.671  31.089  30.098  1.00  0.00     0.031 C 
ATOM     51  C   UNL A   1      46.677  30.763  30.950  1.00  0.00     0.029 A 
ATOM     52  C   UNL A   1      45.372  30.435  30.622  1.00  0.00     0.049 A 
ATOM     53  H   UNL A   1      44.602  28.609  29.898  1.00  0.00     0.167 HD
ATOM     54  C   UNL A   1      42.942  30.879  30.348  1.00  0.00     0.074 A 
ATOM     55  C   UNL A   1      41.776  31.735  30.439  1.00  0.00     0.031 C 
ATOM     56  C   UNL A   1      44.195  31.262  30.695  1.00  0.00     0.037 A 
BRANCH  43  57
ATOM     57  C   UNL A   1      48.490  26.869  30.051  1.00  0.00     0.057 A 
ATOM     58  C   UNL A   1      48.938  26.240  31.220  1.00  0.00     0.134 A 
ATOM     59  C   UNL A   1      49.422  27.059  29.022  1.00  0.00     0.134 A 
ATOM     60  F   UNL A   1      48.102  26.043  32.249  1.00  0.00    -0.206 F 
ATOM     61  C   UNL A   1      50.265  25.830  31.366  1.00  0.00     0.040 A 
ATOM     62  C   UNL A   1      50.745  26.631  29.147  1.00  0.00     0.040 A 
ATOM     63  F   UNL A   1      49.059  27.655  27.876  1.00  0.00    -0.206 F 
ATOM     64  C   UNL A   1      51.171  26.018  30.323  1.00  0.00     0.006 A 
ENDBRANCH  43  57
BRANCH  44  65
ATOM     65  C   UNL A   1      38.774  29.114  29.066  1.00  0.00     0.057 A 
ATOM     66  C   UNL A   1      38.231  29.544  27.849  1.00  0.00     0.134 A 
ATOM     67  C   UNL A   1      37.911  29.035  30.165  1.00  0.00     0.134 A 
ATOM     68  F   UNL A   1      39.010  29.653  26.764  1.00  0.00    -0.206 F 
ATOM     69  C   UNL A   1      36.888  29.908  27.735  1.00  0.00     0.040 A 
ATOM     70  C   UNL A   1      36.560  29.372  30.059  1.00  0.00     0.040 A 
ATOM     71  F   UNL A   1      38.366  28.620  31.355  1.00  0.00    -0.206 F 
ATOM     72  C   UNL A   1      36.048  29.820  28.842  1.00  0.00     0.006 A 
ENDBRANCH  44  65
BRANCH  56  73
ATOM     73  C   UNL A   1      44.361  32.670  31.177  1.00  0.00     0.057 A 
ATOM     74  C   UNL A   1      44.594  33.728  30.290  1.00  0.00     0.134 A 
ATOM     75  C   UNL A   1      44.263  32.973  32.541  1.00  0.00     0.134 A 
ATOM     76  F   UNL A   1      44.712  33.497  28.974  1.00  0.00    -0.206 F 
ATOM     77  C   UNL A   1      44.755  35.037  30.745  1.00  0.00     0.040 A 
ATOM     78  C   UNL A   1      44.394  34.282  33.005  1.00  0.00     0.040 A 
ATOM     79  F   UNL A   1      44.029  32.005  33.440  1.00  0.00    -0.206 F 
ATOM     80  C   UNL A   1      44.649  35.317  32.106  1.00  0.00     0.006 A 
ENDBRANCH  56  73
ENDBRANCH  30  31
ENDBRANCH  22  25
ENDBRANCH  20  21
ENDBRANCH  19  20
ENDBRANCH   1  19
TORSDOF 14
ENDMDL
