MODEL 1
REMARK VINA RESULT:     -11.1      0.000      0.000
REMARK SMILES CC[NH+](CC)[C@@H](C(=O)NCCCCNC(=O)c1ccc(-c2c3nc(c(-c4c(F)cccc4F)c4ccc([nH]4)c(-c4c(F)cccc4F)c4nc(c(-c5c(F)cccc5F)c5ccc2[nH]5)C=C4)C=C3)cc1)c1ccc(C2CC2)cc1
REMARK SMILES IDX 11 1 10 2 9 3 7 4 8 5 6 7 3 8 2 10 1 11 4 12 5 13 71 14
REMARK SMILES IDX 72 15 79 16 73 17 78 18 74 19 75 20 76 21 77 22 12 23 13 24
REMARK SMILES IDX 14 25 15 26 16 28 17 29 18 30 70 31 19 32 69 33 20 34 21 35
REMARK SMILES IDX 22 36 63 37 23 38 68 39 62 40 64 41 24 42 67 43 61 44 60 45
REMARK SMILES IDX 25 47 51 48 34 49 50 50 35 51 38 52 49 53 65 54 36 55 37 56
REMARK SMILES IDX 48 58 66 59 39 60 26 61 27 62 32 63 28 64 29 65 31 66 33 67
REMARK SMILES IDX 30 68 52 69 53 70 58 71 54 72 55 73 57 74 59 75 56 76 40 77
REMARK SMILES IDX 41 78 46 79 42 80 43 81 45 82 47 83 44 84
REMARK H PARENT 9 6 3 9 14 27 64 46 38 57
REMARK Flexibility Score: inf
ROOT
ATOM      1  C   UNL A   1      36.389  20.604  25.017  1.00  0.00     0.023 C 
ENDROOT
BRANCH   1   2
ATOM      2  C   UNL A   1      36.432  22.051  25.540  1.00  0.00     0.116 C 
BRANCH   2   3
ATOM      3  N   UNL A   1      35.510  22.325  26.632  1.00  0.00    -0.351 N 
ATOM      4  C   UNL A   1      34.163  22.562  26.713  1.00  0.00     0.283 C 
ATOM      5  O   UNL A   1      33.769  22.801  27.861  1.00  0.00    -0.268 OA
ATOM      6  H   UNL A   1      35.955  22.343  27.510  1.00  0.00     0.163 HD
BRANCH   4   7
ATOM      7  C   UNL A   1      33.221  22.558  25.458  1.00  0.00     0.305 C 
BRANCH   7   8
ATOM      8  N   UNL A   1      32.004  23.437  25.598  1.00  0.00    -0.321 N 
ATOM      9  H   UNL A   1      32.275  23.906  26.462  1.00  0.00     0.349 HD
BRANCH   8  10
ATOM     10  C   UNL A   1      31.816  24.547  24.659  1.00  0.00     0.259 C 
ATOM     11  C   UNL A   1      30.709  24.292  23.641  1.00  0.00     0.071 C 
ENDBRANCH   8  10
BRANCH   8  12
ATOM     12  C   UNL A   1      30.752  22.728  25.833  1.00  0.00     0.259 C 
ATOM     13  C   UNL A   1      30.011  23.088  27.128  1.00  0.00     0.071 C 
ENDBRANCH   8  12
ENDBRANCH   7   8
BRANCH   7  14
ATOM     14  C   UNL A   1      32.834  21.150  24.962  1.00  0.00     0.019 A 
ATOM     15  C   UNL A   1      32.963  20.047  25.822  1.00  0.00     0.011 A 
ATOM     16  C   UNL A   1      32.565  20.881  23.611  1.00  0.00     0.011 A 
ATOM     17  C   UNL A   1      32.950  18.737  25.315  1.00  0.00     0.004 A 
ATOM     18  C   UNL A   1      32.541  19.573  23.117  1.00  0.00     0.004 A 
ATOM     19  C   UNL A   1      32.800  18.472  23.942  1.00  0.00    -0.045 A 
BRANCH  19  20
ATOM     20  C   UNL A   1      32.998  17.068  23.401  1.00  0.00     0.019 C 
ATOM     21  C   UNL A   1      34.275  16.601  22.741  1.00  0.00     0.009 C 
ATOM     22  C   UNL A   1      33.967  16.164  24.140  1.00  0.00     0.009 C 
ENDBRANCH  19  20
ENDBRANCH   7  14
ENDBRANCH   4   7
ENDBRANCH   2   3
ENDBRANCH   1   2
BRANCH   1  23
ATOM     23  C   UNL A   1      37.741  19.948  24.738  1.00  0.00     0.023 C 
BRANCH  23  24
ATOM     24  C   UNL A   1      38.795  20.308  25.762  1.00  0.00     0.116 C 
BRANCH  24  25
ATOM     25  N   UNL A   1      39.856  19.306  25.810  1.00  0.00    -0.352 N 
ATOM     26  C   UNL A   1      41.194  19.488  26.050  1.00  0.00     0.251 C 
ATOM     27  H   UNL A   1      39.573  18.377  25.650  1.00  0.00     0.163 HD
ATOM     28  O   UNL A   1      41.999  18.586  25.845  1.00  0.00    -0.269 OA
BRANCH  26  29
ATOM     29  C   UNL A   1      41.645  20.796  26.551  1.00  0.00     0.039 A 
ATOM     30  C   UNL A   1      41.928  20.960  27.908  1.00  0.00     0.014 A 
ATOM     31  C   UNL A   1      41.825  21.846  25.648  1.00  0.00     0.014 A 
ATOM     32  C   UNL A   1      42.441  22.178  28.353  1.00  0.00     0.010 A 
ATOM     33  C   UNL A   1      42.436  23.012  26.073  1.00  0.00     0.010 A 
ATOM     34  C   UNL A   1      42.720  23.200  27.433  1.00  0.00    -0.014 A 
BRANCH  34  35
ATOM     35  C   UNL A   1      43.230  24.524  27.852  1.00  0.00     0.031 A 
ATOM     36  C   UNL A   1      42.236  25.584  28.243  1.00  0.00     0.074 A 
ATOM     37  C   UNL A   1      44.545  24.796  27.787  1.00  0.00     0.049 A 
ATOM     38  N   UNL A   1      42.425  26.859  28.458  1.00  0.00    -0.248 NA
ATOM     39  C   UNL A   1      40.830  25.157  28.358  1.00  0.00     0.031 C 
ATOM     40  C   UNL A   1      45.593  23.853  27.391  1.00  0.00     0.029 A 
ATOM     41  N   UNL A   1      45.224  25.961  28.036  1.00  0.00    -0.354 N 
ATOM     42  C   UNL A   1      41.163  27.385  28.703  1.00  0.00     0.074 A 
ATOM     43  C   UNL A   1      40.210  26.312  28.539  1.00  0.00     0.031 C 
ATOM     44  C   UNL A   1      46.783  24.471  27.444  1.00  0.00     0.029 A 
ATOM     45  C   UNL A   1      46.579  25.864  27.830  1.00  0.00     0.049 A 
ATOM     46  H   UNL A   1      44.782  26.788  28.335  1.00  0.00     0.167 HD
ATOM     47  C   UNL A   1      40.831  28.645  29.068  1.00  0.00     0.037 A 
ATOM     48  C   UNL A   1      47.537  26.803  27.930  1.00  0.00     0.037 A 
ATOM     49  C   UNL A   1      41.795  29.692  29.267  1.00  0.00     0.049 A 
ATOM     50  C   UNL A   1      47.141  28.201  28.324  1.00  0.00     0.074 A 
ATOM     51  C   UNL A   1      41.581  30.997  29.672  1.00  0.00     0.029 A 
ATOM     52  N   UNL A   1      43.162  29.543  29.089  1.00  0.00    -0.354 N 
ATOM     53  N   UNL A   1      45.950  28.680  28.592  1.00  0.00    -0.248 NA
ATOM     54  C   UNL A   1      48.223  29.189  28.436  1.00  0.00     0.031 C 
ATOM     55  C   UNL A   1      42.817  31.647  29.704  1.00  0.00     0.029 A 
ATOM     56  C   UNL A   1      43.805  30.734  29.371  1.00  0.00     0.049 A 
ATOM     57  H   UNL A   1      43.609  28.713  28.802  1.00  0.00     0.167 HD
ATOM     58  C   UNL A   1      46.144  30.009  28.949  1.00  0.00     0.074 A 
ATOM     59  C   UNL A   1      47.568  30.259  28.864  1.00  0.00     0.031 C 
ATOM     60  C   UNL A   1      45.230  30.939  29.317  1.00  0.00     0.037 A 
BRANCH  47  61
ATOM     61  C   UNL A   1      39.378  28.944  29.290  1.00  0.00     0.057 A 
ATOM     62  C   UNL A   1      38.777  28.785  30.547  1.00  0.00     0.134 A 
ATOM     63  C   UNL A   1      38.573  29.415  28.246  1.00  0.00     0.134 A 
ATOM     64  F   UNL A   1      39.487  28.319  31.586  1.00  0.00    -0.206 F 
ATOM     65  C   UNL A   1      37.423  29.056  30.751  1.00  0.00     0.040 A 
ATOM     66  C   UNL A   1      37.225  29.720  28.445  1.00  0.00     0.040 A 
ATOM     67  F   UNL A   1      39.083  29.593  27.018  1.00  0.00    -0.206 F 
ATOM     68  C   UNL A   1      36.645  29.534  29.699  1.00  0.00     0.006 A 
ENDBRANCH  47  61
BRANCH  48  69
ATOM     69  C   UNL A   1      48.960  26.459  27.683  1.00  0.00     0.057 A 
ATOM     70  C   UNL A   1      49.511  26.560  26.400  1.00  0.00     0.134 A 
ATOM     71  C   UNL A   1      49.796  25.997  28.706  1.00  0.00     0.134 A 
ATOM     72  F   UNL A   1      48.758  26.984  25.374  1.00  0.00    -0.206 F 
ATOM     73  C   UNL A   1      50.830  26.183  26.135  1.00  0.00     0.040 A 
ATOM     74  C   UNL A   1      51.125  25.642  28.462  1.00  0.00     0.040 A 
ATOM     75  F   UNL A   1      49.335  25.887  29.961  1.00  0.00    -0.206 F 
ATOM     76  C   UNL A   1      51.641  25.724  27.171  1.00  0.00     0.006 A 
ENDBRANCH  48  69
BRANCH  60  77
ATOM     77  C   UNL A   1      45.743  32.285  29.732  1.00  0.00     0.057 A 
ATOM     78  C   UNL A   1      45.868  33.345  28.828  1.00  0.00     0.134 A 
ATOM     79  C   UNL A   1      46.049  32.536  31.077  1.00  0.00     0.134 A 
ATOM     80  F   UNL A   1      45.600  33.165  27.526  1.00  0.00    -0.206 F 
ATOM     81  C   UNL A   1      46.296  34.608  29.244  1.00  0.00     0.040 A 
ATOM     82  C   UNL A   1      46.450  33.799  31.508  1.00  0.00     0.040 A 
ATOM     83  F   UNL A   1      45.939  31.564  31.995  1.00  0.00    -0.206 F 
ATOM     84  C   UNL A   1      46.578  34.839  30.589  1.00  0.00     0.006 A 
ENDBRANCH  60  77
ENDBRANCH  34  35
ENDBRANCH  26  29
ENDBRANCH  24  25
ENDBRANCH  23  24
ENDBRANCH   1  23
TORSDOF 16
ENDMDL
MODEL 2
REMARK VINA RESULT:     -11.0      1.748      7.189
REMARK SMILES CC[NH+](CC)[C@@H](C(=O)NCCCCNC(=O)c1ccc(-c2c3nc(c(-c4c(F)cccc4F)c4ccc([nH]4)c(-c4c(F)cccc4F)c4nc(c(-c5c(F)cccc5F)c5ccc2[nH]5)C=C4)C=C3)cc1)c1ccc(C2CC2)cc1
REMARK SMILES IDX 11 1 10 2 9 3 7 4 8 5 6 7 3 8 2 10 1 11 4 12 5 13 71 14
REMARK SMILES IDX 72 15 79 16 73 17 78 18 74 19 75 20 76 21 77 22 12 23 13 24
REMARK SMILES IDX 14 25 15 26 16 28 17 29 18 30 70 31 19 32 69 33 20 34 21 35
REMARK SMILES IDX 22 36 63 37 23 38 68 39 62 40 64 41 24 42 67 43 61 44 60 45
REMARK SMILES IDX 25 47 51 48 34 49 50 50 35 51 38 52 49 53 65 54 36 55 37 56
REMARK SMILES IDX 48 58 66 59 39 60 26 61 27 62 32 63 28 64 29 65 31 66 33 67
REMARK SMILES IDX 30 68 52 69 53 70 58 71 54 72 55 73 57 74 59 75 56 76 40 77
REMARK SMILES IDX 41 78 46 79 42 80 43 81 45 82 47 83 44 84
REMARK H PARENT 9 6 3 9 14 27 64 46 38 57
REMARK Flexibility Score: inf
ROOT
ATOM      1  C   UNL A   1      36.877  20.375  24.834  1.00  0.00     0.023 C 
ENDROOT
BRANCH   1   2
ATOM      2  C   UNL A   1      37.023  21.905  24.930  1.00  0.00     0.116 C 
BRANCH   2   3
ATOM      3  N   UNL A   1      36.279  22.645  23.923  1.00  0.00    -0.351 N 
ATOM      4  C   UNL A   1      35.058  23.267  23.896  1.00  0.00     0.283 C 
ATOM      5  O   UNL A   1      34.773  23.755  22.796  1.00  0.00    -0.268 OA
ATOM      6  H   UNL A   1      36.763  22.717  23.068  1.00  0.00     0.163 HD
BRANCH   4   7
ATOM      7  C   UNL A   1      34.103  23.321  25.140  1.00  0.00     0.305 C 
BRANCH   7   8
ATOM      8  N   UNL A   1      33.120  22.181  25.213  1.00  0.00    -0.321 N 
ATOM      9  H   UNL A   1      32.284  22.736  25.398  1.00  0.00     0.349 HD
BRANCH   8  10
ATOM     10  C   UNL A   1      32.777  21.458  23.985  1.00  0.00     0.259 C 
ATOM     11  C   UNL A   1      32.661  19.950  24.187  1.00  0.00     0.071 C 
ENDBRANCH   8  10
BRANCH   8  12
ATOM     12  C   UNL A   1      33.317  21.261  26.327  1.00  0.00     0.259 C 
ATOM     13  C   UNL A   1      34.223  21.764  27.459  1.00  0.00     0.071 C 
ENDBRANCH   8  12
ENDBRANCH   7   8
BRANCH   7  14
ATOM     14  C   UNL A   1      33.395  24.677  25.335  1.00  0.00     0.019 A 
ATOM     15  C   UNL A   1      34.143  25.865  25.318  1.00  0.00     0.011 A 
ATOM     16  C   UNL A   1      32.057  24.769  25.751  1.00  0.00     0.011 A 
ATOM     17  C   UNL A   1      33.604  27.060  25.820  1.00  0.00     0.004 A 
ATOM     18  C   UNL A   1      31.524  25.966  26.239  1.00  0.00     0.004 A 
ATOM     19  C   UNL A   1      32.302  27.125  26.349  1.00  0.00    -0.045 A 
BRANCH  19  20
ATOM     20  C   UNL A   1      31.823  28.370  27.071  1.00  0.00     0.019 C 
ATOM     21  C   UNL A   1      32.715  29.553  27.374  1.00  0.00     0.009 C 
ATOM     22  C   UNL A   1      31.716  29.650  26.263  1.00  0.00     0.009 C 
ENDBRANCH  19  20
ENDBRANCH   7  14
ENDBRANCH   4   7
ENDBRANCH   2   3
ENDBRANCH   1   2
BRANCH   1  23
ATOM     23  C   UNL A   1      38.179  19.574  24.810  1.00  0.00     0.023 C 
BRANCH  23  24
ATOM     24  C   UNL A   1      39.136  19.970  25.913  1.00  0.00     0.116 C 
BRANCH  24  25
ATOM     25  N   UNL A   1      40.283  19.069  25.973  1.00  0.00    -0.352 N 
ATOM     26  C   UNL A   1      41.608  19.380  26.140  1.00  0.00     0.251 C 
ATOM     27  H   UNL A   1      40.077  18.111  25.882  1.00  0.00     0.163 HD
ATOM     28  O   UNL A   1      42.481  18.539  25.952  1.00  0.00    -0.269 OA
BRANCH  26  29
ATOM     29  C   UNL A   1      41.961  20.752  26.540  1.00  0.00     0.039 A 
ATOM     30  C   UNL A   1      42.364  21.675  25.573  1.00  0.00     0.014 A 
ATOM     31  C   UNL A   1      41.843  21.122  27.881  1.00  0.00     0.014 A 
ATOM     32  C   UNL A   1      42.607  22.994  25.953  1.00  0.00     0.010 A 
ATOM     33  C   UNL A   1      41.977  22.452  28.235  1.00  0.00     0.010 A 
ATOM     34  C   UNL A   1      42.391  23.393  27.281  1.00  0.00    -0.014 A 
BRANCH  34  35
ATOM     35  C   UNL A   1      42.667  24.769  27.748  1.00  0.00     0.031 A 
ATOM     36  C   UNL A   1      44.086  25.142  28.080  1.00  0.00     0.074 A 
ATOM     37  C   UNL A   1      41.655  25.629  27.962  1.00  0.00     0.049 A 
ATOM     38  N   UNL A   1      44.544  26.209  28.680  1.00  0.00    -0.248 NA
ATOM     39  C   UNL A   1      45.124  24.155  27.733  1.00  0.00     0.031 C 
ATOM     40  C   UNL A   1      40.239  25.361  27.704  1.00  0.00     0.029 A 
ATOM     41  N   UNL A   1      41.665  26.903  28.468  1.00  0.00    -0.354 N 
ATOM     42  C   UNL A   1      45.913  26.005  28.806  1.00  0.00     0.074 A 
ATOM     43  C   UNL A   1      46.201  24.687  28.289  1.00  0.00     0.031 C 
ATOM     44  C   UNL A   1      39.519  26.445  28.035  1.00  0.00     0.029 A 
ATOM     45  C   UNL A   1      40.415  27.465  28.570  1.00  0.00     0.049 A 
ATOM     46  H   UNL A   1      42.489  27.371  28.731  1.00  0.00     0.167 HD
ATOM     47  C   UNL A   1      46.852  26.856  29.279  1.00  0.00     0.037 A 
ATOM     48  C   UNL A   1      40.044  28.662  29.058  1.00  0.00     0.037 A 
ATOM     49  C   UNL A   1      46.555  28.180  29.752  1.00  0.00     0.049 A 
ATOM     50  C   UNL A   1      41.107  29.587  29.591  1.00  0.00     0.074 A 
ATOM     51  C   UNL A   1      47.428  29.145  30.221  1.00  0.00     0.029 A 
ATOM     52  N   UNL A   1      45.281  28.727  29.802  1.00  0.00    -0.354 N 
ATOM     53  N   UNL A   1      42.402  29.402  29.670  1.00  0.00    -0.248 NA
ATOM     54  C   UNL A   1      40.656  30.890  30.099  1.00  0.00     0.031 C 
ATOM     55  C   UNL A   1      46.677  30.265  30.586  1.00  0.00     0.029 A 
ATOM     56  C   UNL A   1      45.344  30.016  30.297  1.00  0.00     0.049 A 
ATOM     57  H   UNL A   1      44.456  28.266  29.527  1.00  0.00     0.167 HD
ATOM     58  C   UNL A   1      42.926  30.579  30.190  1.00  0.00     0.074 A 
ATOM     59  C   UNL A   1      41.807  31.472  30.406  1.00  0.00     0.031 C 
ATOM     60  C   UNL A   1      44.215  30.895  30.462  1.00  0.00     0.037 A 
BRANCH  47  61
ATOM     61  C   UNL A   1      48.276  26.385  29.285  1.00  0.00     0.057 A 
ATOM     62  C   UNL A   1      49.123  26.583  28.185  1.00  0.00     0.134 A 
ATOM     63  C   UNL A   1      48.817  25.745  30.407  1.00  0.00     0.134 A 
ATOM     64  F   UNL A   1      48.663  27.174  27.071  1.00  0.00    -0.206 F 
ATOM     65  C   UNL A   1      50.445  26.139  28.190  1.00  0.00     0.040 A 
ATOM     66  C   UNL A   1      50.147  25.323  30.436  1.00  0.00     0.040 A 
ATOM     67  F   UNL A   1      48.064  25.524  31.495  1.00  0.00    -0.206 F 
ATOM     68  C   UNL A   1      50.963  25.514  29.321  1.00  0.00     0.006 A 
ENDBRANCH  47  61
BRANCH  48  69
ATOM     69  C   UNL A   1      38.618  29.075  29.044  1.00  0.00     0.057 A 
ATOM     70  C   UNL A   1      38.039  29.621  27.892  1.00  0.00     0.134 A 
ATOM     71  C   UNL A   1      37.806  28.963  30.179  1.00  0.00     0.134 A 
ATOM     72  F   UNL A   1      38.769  29.767  26.775  1.00  0.00    -0.206 F 
ATOM     73  C   UNL A   1      36.718  30.072  27.877  1.00  0.00     0.040 A 
ATOM     74  C   UNL A   1      36.474  29.383  30.170  1.00  0.00     0.040 A 
ATOM     75  F   UNL A   1      38.294  28.437  31.312  1.00  0.00    -0.206 F 
ATOM     76  C   UNL A   1      35.931  29.951  29.020  1.00  0.00     0.006 A 
ENDBRANCH  48  69
BRANCH  60  77
ATOM     77  C   UNL A   1      44.497  32.287  30.945  1.00  0.00     0.057 A 
ATOM     78  C   UNL A   1      44.744  33.345  30.064  1.00  0.00     0.134 A 
ATOM     79  C   UNL A   1      44.451  32.577  32.316  1.00  0.00     0.134 A 
ATOM     80  F   UNL A   1      44.811  33.129  28.741  1.00  0.00    -0.206 F 
ATOM     81  C   UNL A   1      44.950  34.645  30.530  1.00  0.00     0.040 A 
ATOM     82  C   UNL A   1      44.628  33.876  32.790  1.00  0.00     0.040 A 
ATOM     83  F   UNL A   1      44.208  31.608  33.211  1.00  0.00    -0.206 F 
ATOM     84  C   UNL A   1      44.882  34.914  31.896  1.00  0.00     0.006 A 
ENDBRANCH  60  77
ENDBRANCH  34  35
ENDBRANCH  26  29
ENDBRANCH  24  25
ENDBRANCH  23  24
ENDBRANCH   1  23
TORSDOF 16
ENDMDL
MODEL 3
REMARK VINA RESULT:     -10.8      5.541     10.628
REMARK SMILES CC[NH+](CC)[C@@H](C(=O)NCCCCNC(=O)c1ccc(-c2c3nc(c(-c4c(F)cccc4F)c4ccc([nH]4)c(-c4c(F)cccc4F)c4nc(c(-c5c(F)cccc5F)c5ccc2[nH]5)C=C4)C=C3)cc1)c1ccc(C2CC2)cc1
REMARK SMILES IDX 11 1 10 2 9 3 7 4 8 5 6 7 3 8 2 10 1 11 4 12 5 13 71 14
REMARK SMILES IDX 72 15 79 16 73 17 78 18 74 19 75 20 76 21 77 22 12 23 13 24
REMARK SMILES IDX 14 25 15 26 16 28 17 29 18 30 70 31 19 32 69 33 20 34 21 35
REMARK SMILES IDX 22 36 63 37 23 38 68 39 62 40 64 41 24 42 67 43 61 44 60 45
REMARK SMILES IDX 25 47 51 48 34 49 50 50 35 51 38 52 49 53 65 54 36 55 37 56
REMARK SMILES IDX 48 58 66 59 39 60 26 61 27 62 32 63 28 64 29 65 31 66 33 67
REMARK SMILES IDX 30 68 52 69 53 70 58 71 54 72 55 73 57 74 59 75 56 76 40 77
REMARK SMILES IDX 41 78 46 79 42 80 43 81 45 82 47 83 44 84
REMARK H PARENT 9 6 3 9 14 27 64 46 38 57
REMARK Flexibility Score: inf
ROOT
ATOM      1  C   UNL A   1      31.414  30.549  25.728  1.00  0.00     0.023 C 
ENDROOT
BRANCH   1   2
ATOM      2  C   UNL A   1      31.945  29.265  26.392  1.00  0.00     0.116 C 
BRANCH   2   3
ATOM      3  N   UNL A   1      32.926  28.539  25.602  1.00  0.00    -0.351 N 
ATOM      4  C   UNL A   1      32.864  27.482  24.732  1.00  0.00     0.283 C 
ATOM      5  O   UNL A   1      33.967  27.132  24.296  1.00  0.00    -0.268 OA
ATOM      6  H   UNL A   1      33.840  28.886  25.718  1.00  0.00     0.163 HD
BRANCH   4   7
ATOM      7  C   UNL A   1      31.519  26.768  24.354  1.00  0.00     0.305 C 
BRANCH   7   8
ATOM      8  N   UNL A   1      31.696  25.402  23.741  1.00  0.00    -0.321 N 
ATOM      9  H   UNL A   1      32.674  25.266  23.996  1.00  0.00     0.349 HD
BRANCH   8  10
ATOM     10  C   UNL A   1      31.027  24.253  24.358  1.00  0.00     0.259 C 
ATOM     11  C   UNL A   1      31.091  24.267  25.882  1.00  0.00     0.071 C 
ENDBRANCH   8  10
BRANCH   8  12
ATOM     12  C   UNL A   1      31.589  25.356  22.288  1.00  0.00     0.259 C 
ATOM     13  C   UNL A   1      32.901  25.531  21.513  1.00  0.00     0.071 C 
ENDBRANCH   8  12
ENDBRANCH   7   8
BRANCH   7  14
ATOM     14  C   UNL A   1      30.559  27.633  23.512  1.00  0.00     0.019 A 
ATOM     15  C   UNL A   1      31.064  28.709  22.763  1.00  0.00     0.011 A 
ATOM     16  C   UNL A   1      29.164  27.534  23.630  1.00  0.00     0.011 A 
ATOM     17  C   UNL A   1      30.205  29.705  22.270  1.00  0.00     0.004 A 
ATOM     18  C   UNL A   1      28.316  28.525  23.126  1.00  0.00     0.004 A 
ATOM     19  C   UNL A   1      28.817  29.668  22.493  1.00  0.00    -0.045 A 
BRANCH  19  20
ATOM     20  C   UNL A   1      27.946  30.856  22.132  1.00  0.00     0.019 C 
ATOM     21  C   UNL A   1      28.494  32.236  21.844  1.00  0.00     0.009 C 
ATOM     22  C   UNL A   1      28.029  31.378  20.709  1.00  0.00     0.009 C 
ENDBRANCH  19  20
ENDBRANCH   7  14
ENDBRANCH   4   7
ENDBRANCH   2   3
ENDBRANCH   1   2
BRANCH   1  23
ATOM     23  C   UNL A   1      31.235  31.758  26.646  1.00  0.00     0.023 C 
BRANCH  23  24
ATOM     24  C   UNL A   1      32.541  32.443  26.983  1.00  0.00     0.116 C 
BRANCH  24  25
ATOM     25  N   UNL A   1      32.328  33.829  27.390  1.00  0.00    -0.352 N 
ATOM     26  C   UNL A   1      32.962  34.538  28.377  1.00  0.00     0.251 C 
ATOM     27  H   UNL A   1      31.637  34.319  26.888  1.00  0.00     0.163 HD
ATOM     28  O   UNL A   1      32.529  35.623  28.751  1.00  0.00    -0.269 OA
BRANCH  26  29
ATOM     29  C   UNL A   1      34.171  33.962  28.987  1.00  0.00     0.039 A 
ATOM     30  C   UNL A   1      35.429  34.455  28.635  1.00  0.00     0.014 A 
ATOM     31  C   UNL A   1      34.037  32.957  29.947  1.00  0.00     0.014 A 
ATOM     32  C   UNL A   1      36.559  33.964  29.287  1.00  0.00     0.010 A 
ATOM     33  C   UNL A   1      35.145  32.552  30.668  1.00  0.00     0.010 A 
ATOM     34  C   UNL A   1      36.419  33.028  30.323  1.00  0.00    -0.014 A 
BRANCH  34  35
ATOM     35  C   UNL A   1      37.583  32.445  31.025  1.00  0.00     0.031 A 
ATOM     36  C   UNL A   1      38.326  31.315  30.365  1.00  0.00     0.074 A 
ATOM     37  C   UNL A   1      37.902  32.855  32.266  1.00  0.00     0.049 A 
ATOM     38  N   UNL A   1      39.244  30.527  30.858  1.00  0.00    -0.248 NA
ATOM     39  C   UNL A   1      37.947  31.001  28.976  1.00  0.00     0.031 C 
ATOM     40  C   UNL A   1      37.230  33.920  33.012  1.00  0.00     0.029 A 
ATOM     41  N   UNL A   1      38.869  32.404  33.128  1.00  0.00    -0.354 N 
ATOM     42  C   UNL A   1      39.526  29.611  29.852  1.00  0.00     0.074 A 
ATOM     43  C   UNL A   1      38.634  29.893  28.751  1.00  0.00     0.031 C 
ATOM     44  C   UNL A   1      37.818  34.054  34.212  1.00  0.00     0.029 A 
ATOM     45  C   UNL A   1      38.874  33.055  34.338  1.00  0.00     0.049 A 
ATOM     46  H   UNL A   1      39.499  31.684  32.901  1.00  0.00     0.167 HD
ATOM     47  C   UNL A   1      40.470  28.642  29.835  1.00  0.00     0.037 A 
ATOM     48  C   UNL A   1      39.639  32.850  35.425  1.00  0.00     0.037 A 
ATOM     49  C   UNL A   1      41.378  28.400  30.922  1.00  0.00     0.049 A 
ATOM     50  C   UNL A   1      40.674  31.757  35.386  1.00  0.00     0.074 A 
ATOM     51  C   UNL A   1      42.399  27.471  31.004  1.00  0.00     0.029 A 
ATOM     52  N   UNL A   1      41.378  29.108  32.115  1.00  0.00    -0.354 N 
ATOM     53  N   UNL A   1      40.960  30.921  34.417  1.00  0.00    -0.248 NA
ATOM     54  C   UNL A   1      41.497  31.580  36.591  1.00  0.00     0.031 C 
ATOM     55  C   UNL A   1      42.995  27.595  32.261  1.00  0.00     0.029 A 
ATOM     56  C   UNL A   1      42.380  28.634  32.941  1.00  0.00     0.049 A 
ATOM     57  H   UNL A   1      40.757  29.838  32.340  1.00  0.00     0.167 HD
ATOM     58  C   UNL A   1      42.024  30.154  34.874  1.00  0.00     0.074 A 
ATOM     59  C   UNL A   1      42.332  30.625  36.208  1.00  0.00     0.031 C 
ATOM     60  C   UNL A   1      42.688  29.153  34.249  1.00  0.00     0.037 A 
BRANCH  47  61
ATOM     61  C   UNL A   1      40.574  27.797  28.600  1.00  0.00     0.057 A 
ATOM     62  C   UNL A   1      41.378  28.173  27.514  1.00  0.00     0.134 A 
ATOM     63  C   UNL A   1      39.883  26.583  28.499  1.00  0.00     0.134 A 
ATOM     64  F   UNL A   1      42.054  29.333  27.539  1.00  0.00    -0.206 F 
ATOM     65  C   UNL A   1      41.469  27.389  26.364  1.00  0.00     0.040 A 
ATOM     66  C   UNL A   1      39.990  25.774  27.366  1.00  0.00     0.040 A 
ATOM     67  F   UNL A   1      39.097  26.160  29.500  1.00  0.00    -0.206 F 
ATOM     68  C   UNL A   1      40.779  26.181  26.291  1.00  0.00     0.006 A 
ENDBRANCH  47  61
BRANCH  48  69
ATOM     69  C   UNL A   1      39.485  33.705  36.629  1.00  0.00     0.057 A 
ATOM     70  C   UNL A   1      40.168  34.923  36.738  1.00  0.00     0.134 A 
ATOM     71  C   UNL A   1      38.681  33.321  37.709  1.00  0.00     0.134 A 
ATOM     72  F   UNL A   1      40.965  35.340  35.743  1.00  0.00    -0.206 F 
ATOM     73  C   UNL A   1      40.085  35.711  37.888  1.00  0.00     0.040 A 
ATOM     74  C   UNL A   1      38.566  34.113  38.854  1.00  0.00     0.040 A 
ATOM     75  F   UNL A   1      37.990  32.173  37.665  1.00  0.00    -0.206 F 
ATOM     76  C   UNL A   1      39.279  35.306  38.950  1.00  0.00     0.006 A 
ENDBRANCH  48  69
BRANCH  60  77
ATOM     77  C   UNL A   1      43.863  28.553  34.962  1.00  0.00     0.057 A 
ATOM     78  C   UNL A   1      45.156  29.073  34.834  1.00  0.00     0.134 A 
ATOM     79  C   UNL A   1      43.677  27.479  35.843  1.00  0.00     0.134 A 
ATOM     80  F   UNL A   1      45.401  30.093  33.998  1.00  0.00    -0.206 F 
ATOM     81  C   UNL A   1      46.228  28.535  35.549  1.00  0.00     0.040 A 
ATOM     82  C   UNL A   1      44.735  26.952  36.583  1.00  0.00     0.040 A 
ATOM     83  F   UNL A   1      42.460  26.943  36.018  1.00  0.00    -0.206 F 
ATOM     84  C   UNL A   1      46.017  27.479  36.433  1.00  0.00     0.006 A 
ENDBRANCH  60  77
ENDBRANCH  34  35
ENDBRANCH  26  29
ENDBRANCH  24  25
ENDBRANCH  23  24
ENDBRANCH   1  23
TORSDOF 16
ENDMDL
