MODEL 1
REMARK VINA RESULT:     -12.5      0.000      0.000
REMARK SMILES O=C(NCCCCNC(=O)[C@H]1CCCN(C(=O)c2ccc(NC(=O)c3ccccc3)cc2)C1)c1ccc(-c2c3nc(c(-c4c(F)cccc4F)c4ccc([nH]4)c(-c4c(F)cccc4F)c4nc(c(-c5c(F)cccc5F)c5ccc2[nH]5)C=C4)C=C3)cc1
REMARK SMILES IDX 6 1 5 2 4 3 3 4 1 5 2 6 34 8 35 9 87 10 36 11 86 12 37 13
REMARK SMILES IDX 38 14 39 15 80 16 40 17 85 18 79 19 81 20 41 21 84 22 78 23
REMARK SMILES IDX 77 24 42 26 68 27 51 28 67 29 52 30 55 31 66 32 82 33 53 34
REMARK SMILES IDX 54 35 65 37 83 38 56 39 43 40 44 41 49 42 45 43 46 44 48 45
REMARK SMILES IDX 50 46 47 47 69 48 70 49 75 50 71 51 72 52 74 53 76 54 73 55
REMARK SMILES IDX 57 56 58 57 63 58 59 59 60 60 62 61 64 62 61 63 7 64 8 65
REMARK SMILES IDX 9 66 10 68 11 69 12 70 33 71 13 72 15 73 14 74 16 75 17 76
REMARK SMILES IDX 18 77 19 78 32 79 20 80 31 81 21 82 22 83 23 84 24 86 25 87
REMARK SMILES IDX 26 88 30 89 27 90 29 91 28 92
REMARK H PARENT 3 7 81 25 55 36 8 67 22 85
REMARK Flexibility Score: inf
ROOT
ATOM      1  C   UNL A   1      37.274  21.055  24.265  1.00  0.00     0.023 C 
ENDROOT
BRANCH   1   2
ATOM      2  C   UNL A   1      37.847  19.853  25.012  1.00  0.00     0.023 C 
BRANCH   2   3
ATOM      3  C   UNL A   1      39.021  20.157  25.931  1.00  0.00     0.116 C 
BRANCH   3   4
ATOM      4  N   UNL A   1      40.077  19.158  25.873  1.00  0.00    -0.352 N 
ATOM      5  O   UNL A   1      42.203  18.388  25.897  1.00  0.00    -0.269 OA
ATOM      6  C   UNL A   1      41.426  19.317  26.092  1.00  0.00     0.251 C 
ATOM      7  H   UNL A   1      39.787  18.244  25.646  1.00  0.00     0.163 HD
BRANCH   6   8
ATOM      8  C   UNL A   1      41.942  20.632  26.533  1.00  0.00     0.039 A 
ATOM      9  C   UNL A   1      42.091  20.915  27.890  1.00  0.00     0.014 A 
ATOM     10  C   UNL A   1      42.255  21.601  25.574  1.00  0.00     0.014 A 
ATOM     11  C   UNL A   1      42.397  22.208  28.293  1.00  0.00     0.010 A 
ATOM     12  C   UNL A   1      42.653  22.880  25.982  1.00  0.00     0.010 A 
ATOM     13  C   UNL A   1      42.693  23.203  27.345  1.00  0.00    -0.014 A 
BRANCH  13  14
ATOM     14  C   UNL A   1      43.096  24.548  27.831  1.00  0.00     0.031 A 
ATOM     15  C   UNL A   1      44.535  24.983  27.846  1.00  0.00     0.074 A 
ATOM     16  C   UNL A   1      42.126  25.410  28.194  1.00  0.00     0.049 A 
ATOM     17  N   UNL A   1      45.034  26.154  28.154  1.00  0.00    -0.248 NA
ATOM     18  C   UNL A   1      45.545  23.980  27.478  1.00  0.00     0.031 C 
ATOM     19  C   UNL A   1      40.697  25.092  28.245  1.00  0.00     0.029 A 
ATOM     20  N   UNL A   1      42.185  26.732  28.550  1.00  0.00    -0.354 N 
ATOM     21  C   UNL A   1      46.412  26.029  28.027  1.00  0.00     0.074 A 
ATOM     22  C   UNL A   1      46.675  24.658  27.641  1.00  0.00     0.031 C 
ATOM     23  C   UNL A   1      40.010  26.201  28.547  1.00  0.00     0.029 A 
ATOM     24  C   UNL A   1      40.950  27.294  28.764  1.00  0.00     0.049 A 
ATOM     25  H   UNL A   1      43.029  27.229  28.643  1.00  0.00     0.167 HD
ATOM     26  C   UNL A   1      47.368  26.973  28.205  1.00  0.00     0.037 A 
ATOM     27  C   UNL A   1      40.609  28.552  29.099  1.00  0.00     0.037 A 
ATOM     28  C   UNL A   1      47.104  28.339  28.580  1.00  0.00     0.049 A 
ATOM     29  C   UNL A   1      41.687  29.578  29.272  1.00  0.00     0.074 A 
ATOM     30  C   UNL A   1      48.007  29.370  28.781  1.00  0.00     0.029 A 
ATOM     31  N   UNL A   1      45.841  28.867  28.807  1.00  0.00    -0.354 N 
ATOM     32  N   UNL A   1      42.983  29.445  29.132  1.00  0.00    -0.248 NA
ATOM     33  C   UNL A   1      41.256  30.930  29.652  1.00  0.00     0.031 C 
ATOM     34  C   UNL A   1      47.292  30.514  29.155  1.00  0.00     0.029 A 
ATOM     35  C   UNL A   1      45.942  30.206  29.152  1.00  0.00     0.049 A 
ATOM     36  H   UNL A   1      44.998  28.364  28.732  1.00  0.00     0.167 HD
ATOM     37  C   UNL A   1      43.523  30.692  29.407  1.00  0.00     0.074 A 
ATOM     38  C   UNL A   1      42.412  31.578  29.686  1.00  0.00     0.031 C 
ATOM     39  C   UNL A   1      44.825  31.067  29.438  1.00  0.00     0.037 A 
BRANCH  26  40
ATOM     40  C   UNL A   1      48.798  26.563  28.001  1.00  0.00     0.057 A 
ATOM     41  C   UNL A   1      49.573  26.051  29.049  1.00  0.00     0.134 A 
ATOM     42  C   UNL A   1      49.386  26.623  26.731  1.00  0.00     0.134 A 
ATOM     43  F   UNL A   1      49.072  25.977  30.291  1.00  0.00    -0.206 F 
ATOM     44  C   UNL A   1      50.888  25.626  28.844  1.00  0.00     0.040 A 
ATOM     45  C   UNL A   1      50.693  26.183  26.510  1.00  0.00     0.040 A 
ATOM     46  F   UNL A   1      48.697  27.096  25.681  1.00  0.00    -0.206 F 
ATOM     47  C   UNL A   1      51.448  25.683  27.569  1.00  0.00     0.006 A 
ENDBRANCH  26  40
BRANCH  27  48
ATOM     48  C   UNL A   1      39.180  28.898  29.292  1.00  0.00     0.057 A 
ATOM     49  C   UNL A   1      38.397  29.372  28.234  1.00  0.00     0.134 A 
ATOM     50  C   UNL A   1      38.560  28.747  30.538  1.00  0.00     0.134 A 
ATOM     51  F   UNL A   1      38.939  29.552  27.020  1.00  0.00    -0.206 F 
ATOM     52  C   UNL A   1      37.052  29.696  28.411  1.00  0.00     0.040 A 
ATOM     53  C   UNL A   1      37.210  29.041  30.723  1.00  0.00     0.040 A 
ATOM     54  F   UNL A   1      39.257  28.287  31.588  1.00  0.00    -0.206 F 
ATOM     55  C   UNL A   1      36.453  29.524  29.658  1.00  0.00     0.006 A 
ENDBRANCH  27  48
BRANCH  39  56
ATOM     56  C   UNL A   1      45.103  32.499  29.787  1.00  0.00     0.057 A 
ATOM     57  C   UNL A   1      45.330  32.899  31.110  1.00  0.00     0.134 A 
ATOM     58  C   UNL A   1      45.144  33.483  28.794  1.00  0.00     0.134 A 
ATOM     59  F   UNL A   1      45.286  32.004  32.108  1.00  0.00    -0.206 F 
ATOM     60  C   UNL A   1      45.558  34.236  31.437  1.00  0.00     0.040 A 
ATOM     61  C   UNL A   1      45.395  34.820  29.104  1.00  0.00     0.040 A 
ATOM     62  F   UNL A   1      44.941  33.163  27.507  1.00  0.00    -0.206 F 
ATOM     63  C   UNL A   1      45.595  35.200  30.432  1.00  0.00     0.006 A 
ENDBRANCH  39  56
ENDBRANCH  13  14
ENDBRANCH   6   8
ENDBRANCH   3   4
ENDBRANCH   2   3
ENDBRANCH   1   2
BRANCH   1  64
ATOM     64  C   UNL A   1      37.022  22.292  25.125  1.00  0.00     0.116 C 
BRANCH  64  65
ATOM     65  N   UNL A   1      36.141  22.018  26.251  1.00  0.00    -0.356 N 
ATOM     66  C   UNL A   1      34.843  21.592  26.254  1.00  0.00     0.224 C 
ATOM     67  H   UNL A   1      36.538  22.161  27.140  1.00  0.00     0.163 HD
ATOM     68  O   UNL A   1      34.289  21.392  27.334  1.00  0.00    -0.275 OA
BRANCH  66  69
ATOM     69  C   UNL A   1      34.135  21.401  24.929  1.00  0.00     0.098 C 
ATOM     70  C   UNL A   1      33.350  20.085  24.857  1.00  0.00     0.017 C 
ATOM     71  C   UNL A   1      33.169  22.558  24.689  1.00  0.00     0.133 C 
ATOM     72  C   UNL A   1      32.691  19.958  23.482  1.00  0.00     0.022 C 
ATOM     73  N   UNL A   1      32.585  22.437  23.353  1.00  0.00    -0.338 N 
ATOM     74  C   UNL A   1      31.851  21.188  23.121  1.00  0.00     0.120 C 
BRANCH  73  75
ATOM     75  C   UNL A   1      32.895  23.425  22.418  1.00  0.00     0.253 C 
ATOM     76  O   UNL A   1      33.640  23.219  21.459  1.00  0.00    -0.269 OA
BRANCH  75  77
ATOM     77  C   UNL A   1      32.274  24.767  22.509  1.00  0.00     0.040 A 
ATOM     78  C   UNL A   1      31.030  24.865  23.136  1.00  0.00     0.016 A 
ATOM     79  C   UNL A   1      32.854  25.908  21.958  1.00  0.00     0.016 A 
ATOM     80  C   UNL A   1      30.430  26.114  23.315  1.00  0.00     0.027 A 
ATOM     81  C   UNL A   1      32.270  27.161  22.177  1.00  0.00     0.027 A 
ATOM     82  C   UNL A   1      31.084  27.279  22.915  1.00  0.00     0.041 A 
BRANCH  82  83
ATOM     83  N   UNL A   1      30.632  28.583  23.191  1.00  0.00    -0.322 N 
ATOM     84  C   UNL A   1      30.839  29.437  24.253  1.00  0.00     0.255 C 
ATOM     85  H   UNL A   1      30.055  28.958  22.488  1.00  0.00     0.170 HD
ATOM     86  O   UNL A   1      30.193  30.482  24.328  1.00  0.00    -0.269 OA
BRANCH  84  87
ATOM     87  C   UNL A   1      31.850  29.165  25.291  1.00  0.00     0.040 A 
ATOM     88  C   UNL A   1      31.409  28.795  26.565  1.00  0.00     0.014 A 
ATOM     89  C   UNL A   1      33.220  29.270  25.017  1.00  0.00     0.014 A 
ATOM     90  C   UNL A   1      32.341  28.456  27.547  1.00  0.00     0.001 A 
ATOM     91  C   UNL A   1      34.146  28.922  26.001  1.00  0.00     0.001 A 
ATOM     92  C   UNL A   1      33.707  28.505  27.259  1.00  0.00     0.000 A 
ENDBRANCH  84  87
ENDBRANCH  82  83
ENDBRANCH  75  77
ENDBRANCH  73  75
ENDBRANCH  66  69
ENDBRANCH  64  65
ENDBRANCH   1  64
TORSDOF 15
ENDMDL
MODEL 2
REMARK VINA RESULT:     -12.5      4.445      9.971
REMARK SMILES O=C(NCCCCNC(=O)[C@H]1CCCN(C(=O)c2ccc(NC(=O)c3ccccc3)cc2)C1)c1ccc(-c2c3nc(c(-c4c(F)cccc4F)c4ccc([nH]4)c(-c4c(F)cccc4F)c4nc(c(-c5c(F)cccc5F)c5ccc2[nH]5)C=C4)C=C3)cc1
REMARK SMILES IDX 6 1 5 2 4 3 3 4 1 5 2 6 34 8 35 9 87 10 36 11 86 12 37 13
REMARK SMILES IDX 38 14 39 15 80 16 40 17 85 18 79 19 81 20 41 21 84 22 78 23
REMARK SMILES IDX 77 24 42 26 68 27 51 28 67 29 52 30 55 31 66 32 82 33 53 34
REMARK SMILES IDX 54 35 65 37 83 38 56 39 43 40 44 41 49 42 45 43 46 44 48 45
REMARK SMILES IDX 50 46 47 47 69 48 70 49 75 50 71 51 72 52 74 53 76 54 73 55
REMARK SMILES IDX 57 56 58 57 63 58 59 59 60 60 62 61 64 62 61 63 7 64 8 65
REMARK SMILES IDX 9 66 10 68 11 69 12 70 33 71 13 72 15 73 14 74 16 75 17 76
REMARK SMILES IDX 18 77 19 78 32 79 20 80 31 81 21 82 22 83 23 84 24 86 25 87
REMARK SMILES IDX 26 88 30 89 27 90 29 91 28 92
REMARK H PARENT 3 7 81 25 55 36 8 67 22 85
REMARK Flexibility Score: inf
ROOT
ATOM      1  C   UNL A   1      31.412  30.640  26.647  1.00  0.00     0.023 C 
ENDROOT
BRANCH   1   2
ATOM      2  C   UNL A   1      31.446  32.163  26.538  1.00  0.00     0.023 C 
BRANCH   2   3
ATOM      3  C   UNL A   1      32.610  32.839  27.248  1.00  0.00     0.116 C 
BRANCH   3   4
ATOM      4  N   UNL A   1      32.319  34.201  27.669  1.00  0.00    -0.352 N 
ATOM      5  O   UNL A   1      32.527  36.068  28.928  1.00  0.00    -0.269 OA
ATOM      6  C   UNL A   1      32.967  34.968  28.611  1.00  0.00     0.251 C 
ATOM      7  H   UNL A   1      31.556  34.633  27.220  1.00  0.00     0.163 HD
BRANCH   6   8
ATOM      8  C   UNL A   1      34.182  34.440  29.269  1.00  0.00     0.039 A 
ATOM      9  C   UNL A   1      35.438  34.628  28.691  1.00  0.00     0.014 A 
ATOM     10  C   UNL A   1      34.059  33.726  30.465  1.00  0.00     0.014 A 
ATOM     11  C   UNL A   1      36.542  33.972  29.219  1.00  0.00     0.010 A 
ATOM     12  C   UNL A   1      35.190  33.142  31.047  1.00  0.00     0.010 A 
ATOM     13  C   UNL A   1      36.435  33.231  30.409  1.00  0.00    -0.014 A 
BRANCH  13  14
ATOM     14  C   UNL A   1      37.664  32.617  30.975  1.00  0.00     0.031 A 
ATOM     15  C   UNL A   1      38.249  33.084  32.280  1.00  0.00     0.074 A 
ATOM     16  C   UNL A   1      38.210  31.571  30.326  1.00  0.00     0.049 A 
ATOM     17  N   UNL A   1      39.261  32.589  32.948  1.00  0.00    -0.248 NA
ATOM     18  C   UNL A   1      37.629  34.257  32.914  1.00  0.00     0.031 C 
ATOM     19  C   UNL A   1      37.746  31.046  29.040  1.00  0.00     0.029 A 
ATOM     20  N   UNL A   1      39.244  30.739  30.671  1.00  0.00    -0.354 N 
ATOM     21  C   UNL A   1      39.406  33.392  34.073  1.00  0.00     0.074 A 
ATOM     22  C   UNL A   1      38.395  34.424  33.984  1.00  0.00     0.031 C 
ATOM     23  C   UNL A   1      38.446  29.946  28.734  1.00  0.00     0.029 A 
ATOM     24  C   UNL A   1      39.444  29.719  29.773  1.00  0.00     0.049 A 
ATOM     25  H   UNL A   1      39.789  30.862  31.480  1.00  0.00     0.167 HD
ATOM     26  C   UNL A   1      40.293  33.270  35.090  1.00  0.00     0.037 A 
ATOM     27  C   UNL A   1      40.333  28.709  29.782  1.00  0.00     0.037 A 
ATOM     28  C   UNL A   1      41.292  32.235  35.181  1.00  0.00     0.049 A 
ATOM     29  C   UNL A   1      41.290  28.590  30.929  1.00  0.00     0.074 A 
ATOM     30  C   UNL A   1      42.234  32.027  36.176  1.00  0.00     0.029 A 
ATOM     31  N   UNL A   1      41.476  31.229  34.243  1.00  0.00    -0.354 N 
ATOM     32  N   UNL A   1      41.401  29.349  31.992  1.00  0.00    -0.248 NA
ATOM     33  C   UNL A   1      42.246  27.477  30.878  1.00  0.00     0.031 C 
ATOM     34  C   UNL A   1      43.005  30.912  35.825  1.00  0.00     0.029 A 
ATOM     35  C   UNL A   1      42.520  30.404  34.632  1.00  0.00     0.049 A 
ATOM     36  H   UNL A   1      40.943  31.119  33.423  1.00  0.00     0.167 HD
ATOM     37  C   UNL A   1      42.439  28.807  32.736  1.00  0.00     0.074 A 
ATOM     38  C   UNL A   1      42.899  27.635  32.021  1.00  0.00     0.031 C 
ATOM     39  C   UNL A   1      42.971  29.250  33.901  1.00  0.00     0.037 A 
BRANCH  26  40
ATOM     40  C   UNL A   1      40.231  34.286  36.193  1.00  0.00     0.057 A 
ATOM     41  C   UNL A   1      40.946  35.488  36.127  1.00  0.00     0.134 A 
ATOM     42  C   UNL A   1      39.400  34.088  37.304  1.00  0.00     0.134 A 
ATOM     43  F   UNL A   1      41.766  35.735  35.094  1.00  0.00    -0.206 F 
ATOM     44  C   UNL A   1      40.847  36.453  37.133  1.00  0.00     0.040 A 
ATOM     45  C   UNL A   1      39.279  35.052  38.307  1.00  0.00     0.040 A 
ATOM     46  F   UNL A   1      38.683  32.961  37.427  1.00  0.00    -0.206 F 
ATOM     47  C   UNL A   1      40.005  36.239  38.223  1.00  0.00     0.006 A 
ENDBRANCH  26  40
BRANCH  27  48
ATOM     48  C   UNL A   1      40.350  27.736  28.662  1.00  0.00     0.057 A 
ATOM     49  C   UNL A   1      41.097  27.974  27.504  1.00  0.00     0.134 A 
ATOM     50  C   UNL A   1      39.630  26.538  28.734  1.00  0.00     0.134 A 
ATOM     51  F   UNL A   1      41.795  29.112  27.371  1.00  0.00    -0.206 F 
ATOM     52  C   UNL A   1      41.118  27.059  26.451  1.00  0.00     0.040 A 
ATOM     53  C   UNL A   1      39.663  25.603  27.700  1.00  0.00     0.040 A 
ATOM     54  F   UNL A   1      38.903  26.250  29.824  1.00  0.00    -0.206 F 
ATOM     55  C   UNL A   1      40.404  25.866  26.551  1.00  0.00     0.006 A 
ENDBRANCH  27  48
BRANCH  39  56
ATOM     56  C   UNL A   1      44.111  28.453  34.463  1.00  0.00     0.057 A 
ATOM     57  C   UNL A   1      45.442  28.758  34.151  1.00  0.00     0.134 A 
ATOM     58  C   UNL A   1      43.875  27.373  35.321  1.00  0.00     0.134 A 
ATOM     59  F   UNL A   1      45.731  29.771  33.321  1.00  0.00    -0.206 F 
ATOM     60  C   UNL A   1      46.499  27.997  34.651  1.00  0.00     0.040 A 
ATOM     61  C   UNL A   1      44.924  26.619  35.846  1.00  0.00     0.040 A 
ATOM     62  F   UNL A   1      42.622  27.033  35.663  1.00  0.00    -0.206 F 
ATOM     63  C   UNL A   1      46.241  26.926  35.505  1.00  0.00     0.006 A 
ENDBRANCH  39  56
ENDBRANCH  13  14
ENDBRANCH   6   8
ENDBRANCH   3   4
ENDBRANCH   2   3
ENDBRANCH   1   2
BRANCH   1  64
ATOM     64  C   UNL A   1      32.779  29.959  26.636  1.00  0.00     0.116 C 
BRANCH  64  65
ATOM     65  N   UNL A   1      33.329  29.833  25.294  1.00  0.00    -0.356 N 
ATOM     66  C   UNL A   1      32.794  29.232  24.190  1.00  0.00     0.224 C 
ATOM     67  H   UNL A   1      34.215  30.239  25.162  1.00  0.00     0.163 HD
ATOM     68  O   UNL A   1      33.424  29.268  23.133  1.00  0.00    -0.275 OA
BRANCH  66  69
ATOM     69  C   UNL A   1      31.457  28.531  24.316  1.00  0.00     0.098 C 
ATOM     70  C   UNL A   1      30.419  29.043  23.309  1.00  0.00     0.017 C 
ATOM     71  C   UNL A   1      31.640  27.031  24.107  1.00  0.00     0.133 C 
ATOM     72  C   UNL A   1      29.095  28.306  23.522  1.00  0.00     0.022 C 
ATOM     73  N   UNL A   1      30.372  26.345  24.358  1.00  0.00    -0.338 N 
ATOM     74  C   UNL A   1      29.264  26.784  23.501  1.00  0.00     0.120 C 
BRANCH  73  75
ATOM     75  C   UNL A   1      30.309  25.475  25.446  1.00  0.00     0.253 C 
ATOM     76  O   UNL A   1      29.688  25.744  26.475  1.00  0.00    -0.269 OA
BRANCH  75  77
ATOM     77  C   UNL A   1      30.945  24.139  25.376  1.00  0.00     0.040 A 
ATOM     78  C   UNL A   1      31.029  23.524  24.125  1.00  0.00     0.016 A 
ATOM     79  C   UNL A   1      31.411  23.462  26.503  1.00  0.00     0.016 A 
ATOM     80  C   UNL A   1      31.683  22.297  23.988  1.00  0.00     0.027 A 
ATOM     81  C   UNL A   1      32.102  22.254  26.353  1.00  0.00     0.027 A 
ATOM     82  C   UNL A   1      32.299  21.694  25.084  1.00  0.00     0.041 A 
BRANCH  82  83
ATOM     83  N   UNL A   1      33.107  20.544  25.013  1.00  0.00    -0.322 N 
ATOM     84  C   UNL A   1      34.461  20.365  24.833  1.00  0.00     0.255 C 
ATOM     85  H   UNL A   1      32.606  19.703  25.110  1.00  0.00     0.170 HD
ATOM     86  O   UNL A   1      34.906  19.233  24.649  1.00  0.00    -0.269 OA
BRANCH  84  87
ATOM     87  C   UNL A   1      35.415  21.487  24.901  1.00  0.00     0.040 A 
ATOM     88  C   UNL A   1      35.679  22.205  23.730  1.00  0.00     0.014 A 
ATOM     89  C   UNL A   1      36.045  21.836  26.102  1.00  0.00     0.014 A 
ATOM     90  C   UNL A   1      36.517  23.319  23.777  1.00  0.00     0.001 A 
ATOM     91  C   UNL A   1      36.875  22.957  26.144  1.00  0.00     0.001 A 
ATOM     92  C   UNL A   1      37.101  23.703  24.986  1.00  0.00     0.000 A 
ENDBRANCH  84  87
ENDBRANCH  82  83
ENDBRANCH  75  77
ENDBRANCH  73  75
ENDBRANCH  66  69
ENDBRANCH  64  65
ENDBRANCH   1  64
TORSDOF 15
ENDMDL
MODEL 3
REMARK VINA RESULT:     -12.3      3.541      9.245
REMARK SMILES O=C(NCCCCNC(=O)[C@H]1CCCN(C(=O)c2ccc(NC(=O)c3ccccc3)cc2)C1)c1ccc(-c2c3nc(c(-c4c(F)cccc4F)c4ccc([nH]4)c(-c4c(F)cccc4F)c4nc(c(-c5c(F)cccc5F)c5ccc2[nH]5)C=C4)C=C3)cc1
REMARK SMILES IDX 6 1 5 2 4 3 3 4 1 5 2 6 34 8 35 9 87 10 36 11 86 12 37 13
REMARK SMILES IDX 38 14 39 15 80 16 40 17 85 18 79 19 81 20 41 21 84 22 78 23
REMARK SMILES IDX 77 24 42 26 68 27 51 28 67 29 52 30 55 31 66 32 82 33 53 34
REMARK SMILES IDX 54 35 65 37 83 38 56 39 43 40 44 41 49 42 45 43 46 44 48 45
REMARK SMILES IDX 50 46 47 47 69 48 70 49 75 50 71 51 72 52 74 53 76 54 73 55
REMARK SMILES IDX 57 56 58 57 63 58 59 59 60 60 62 61 64 62 61 63 7 64 8 65
REMARK SMILES IDX 9 66 10 68 11 69 12 70 33 71 13 72 15 73 14 74 16 75 17 76
REMARK SMILES IDX 18 77 19 78 32 79 20 80 31 81 21 82 22 83 23 84 24 86 25 87
REMARK SMILES IDX 26 88 30 89 27 90 29 91 28 92
REMARK H PARENT 3 7 81 25 55 36 8 67 22 85
REMARK Flexibility Score: inf
ROOT
ATOM      1  C   UNL A   1      33.902  30.395  27.507  1.00  0.00     0.023 C 
ENDROOT
BRANCH   1   2
ATOM      2  C   UNL A   1      32.747  31.391  27.579  1.00  0.00     0.023 C 
BRANCH   2   3
ATOM      3  C   UNL A   1      33.019  32.749  26.951  1.00  0.00     0.116 C 
BRANCH   3   4
ATOM      4  N   UNL A   1      32.565  33.866  27.765  1.00  0.00    -0.352 N 
ATOM      5  O   UNL A   1      32.595  35.303  29.511  1.00  0.00    -0.269 OA
ATOM      6  C   UNL A   1      33.166  34.427  28.869  1.00  0.00     0.251 C 
ATOM      7  H   UNL A   1      31.714  34.277  27.489  1.00  0.00     0.163 HD
BRANCH   6   8
ATOM      8  C   UNL A   1      34.495  33.940  29.301  1.00  0.00     0.039 A 
ATOM      9  C   UNL A   1      35.648  34.343  28.629  1.00  0.00     0.014 A 
ATOM     10  C   UNL A   1      34.582  33.049  30.375  1.00  0.00     0.014 A 
ATOM     11  C   UNL A   1      36.863  33.738  28.924  1.00  0.00     0.010 A 
ATOM     12  C   UNL A   1      35.824  32.509  30.732  1.00  0.00     0.010 A 
ATOM     13  C   UNL A   1      36.968  32.822  29.986  1.00  0.00    -0.014 A 
BRANCH  13  14
ATOM     14  C   UNL A   1      38.306  32.267  30.313  1.00  0.00     0.031 A 
ATOM     15  C   UNL A   1      39.199  32.910  31.338  1.00  0.00     0.074 A 
ATOM     16  C   UNL A   1      38.680  31.117  29.720  1.00  0.00     0.049 A 
ATOM     17  N   UNL A   1      40.353  32.494  31.798  1.00  0.00    -0.248 NA
ATOM     18  C   UNL A   1      38.749  34.186  31.916  1.00  0.00     0.031 C 
ATOM     19  C   UNL A   1      37.909  30.414  28.691  1.00  0.00     0.029 A 
ATOM     20  N   UNL A   1      39.775  30.316  29.918  1.00  0.00    -0.354 N 
ATOM     21  C   UNL A   1      40.771  33.456  32.710  1.00  0.00     0.074 A 
ATOM     22  C   UNL A   1      39.761  34.493  32.718  1.00  0.00     0.031 C 
ATOM     23  C   UNL A   1      38.520  29.259  28.395  1.00  0.00     0.029 A 
ATOM     24  C   UNL A   1      39.751  29.164  29.171  1.00  0.00     0.049 A 
ATOM     25  H   UNL A   1      40.507  30.546  30.535  1.00  0.00     0.167 HD
ATOM     26  C   UNL A   1      41.889  33.465  33.476  1.00  0.00     0.037 A 
ATOM     27  C   UNL A   1      40.622  28.141  29.114  1.00  0.00     0.037 A 
ATOM     28  C   UNL A   1      42.888  32.426  33.473  1.00  0.00     0.049 A 
ATOM     29  C   UNL A   1      41.840  28.171  29.986  1.00  0.00     0.074 A 
ATOM     30  C   UNL A   1      44.053  32.346  34.218  1.00  0.00     0.029 A 
ATOM     31  N   UNL A   1      42.837  31.283  32.689  1.00  0.00    -0.354 N 
ATOM     32  N   UNL A   1      42.211  29.081  30.854  1.00  0.00    -0.248 NA
ATOM     33  C   UNL A   1      42.763  27.035  29.871  1.00  0.00     0.031 C 
ATOM     34  C   UNL A   1      44.721  31.168  33.864  1.00  0.00     0.029 A 
ATOM     35  C   UNL A   1      43.954  30.496  32.926  1.00  0.00     0.049 A 
ATOM     36  H   UNL A   1      42.115  31.064  32.057  1.00  0.00     0.167 HD
ATOM     37  C   UNL A   1      43.409  28.629  31.387  1.00  0.00     0.074 A 
ATOM     38  C   UNL A   1      43.684  27.347  30.773  1.00  0.00     0.031 C 
ATOM     39  C   UNL A   1      44.216  29.230  32.295  1.00  0.00     0.037 A 
BRANCH  26  40
ATOM     40  C   UNL A   1      42.099  34.641  34.386  1.00  0.00     0.057 A 
ATOM     41  C   UNL A   1      41.693  34.615  35.726  1.00  0.00     0.134 A 
ATOM     42  C   UNL A   1      42.768  35.786  33.934  1.00  0.00     0.134 A 
ATOM     43  F   UNL A   1      41.038  33.552  36.217  1.00  0.00    -0.206 F 
ATOM     44  C   UNL A   1      41.933  35.693  36.582  1.00  0.00     0.040 A 
ATOM     45  C   UNL A   1      43.031  36.861  34.785  1.00  0.00     0.040 A 
ATOM     46  F   UNL A   1      43.189  35.873  32.663  1.00  0.00    -0.206 F 
ATOM     47  C   UNL A   1      42.612  36.816  36.114  1.00  0.00     0.006 A 
ENDBRANCH  26  40
BRANCH  27  48
ATOM     48  C   UNL A   1      40.364  27.007  28.193  1.00  0.00     0.057 A 
ATOM     49  C   UNL A   1      39.524  25.951  28.558  1.00  0.00     0.134 A 
ATOM     50  C   UNL A   1      40.943  26.964  26.919  1.00  0.00     0.134 A 
ATOM     51  F   UNL A   1      38.953  25.929  29.772  1.00  0.00    -0.206 F 
ATOM     52  C   UNL A   1      39.277  24.884  27.692  1.00  0.00     0.040 A 
ATOM     53  C   UNL A   1      40.684  25.918  26.034  1.00  0.00     0.040 A 
ATOM     54  F   UNL A   1      41.751  27.954  26.509  1.00  0.00    -0.206 F 
ATOM     55  C   UNL A   1      39.853  24.870  26.423  1.00  0.00     0.006 A 
ENDBRANCH  27  48
BRANCH  39  56
ATOM     56  C   UNL A   1      45.468  28.495  32.670  1.00  0.00     0.057 A 
ATOM     57  C   UNL A   1      46.670  28.698  31.981  1.00  0.00     0.134 A 
ATOM     58  C   UNL A   1      45.471  27.577  33.726  1.00  0.00     0.134 A 
ATOM     59  F   UNL A   1      46.726  29.553  30.948  1.00  0.00    -0.206 F 
ATOM     60  C   UNL A   1      47.827  27.991  32.311  1.00  0.00     0.040 A 
ATOM     61  C   UNL A   1      46.627  26.881  34.081  1.00  0.00     0.040 A 
ATOM     62  F   UNL A   1      44.353  27.341  34.429  1.00  0.00    -0.206 F 
ATOM     63  C   UNL A   1      47.808  27.082  33.367  1.00  0.00     0.006 A 
ENDBRANCH  39  56
ENDBRANCH  13  14
ENDBRANCH   6   8
ENDBRANCH   3   4
ENDBRANCH   2   3
ENDBRANCH   1   2
BRANCH   1  64
ATOM     64  C   UNL A   1      33.623  29.138  26.685  1.00  0.00     0.116 C 
BRANCH  64  65
ATOM     65  N   UNL A   1      33.984  29.296  25.284  1.00  0.00    -0.356 N 
ATOM     66  C   UNL A   1      33.242  29.052  24.164  1.00  0.00     0.224 C 
ATOM     67  H   UNL A   1      34.896  29.626  25.119  1.00  0.00     0.163 HD
ATOM     68  O   UNL A   1      33.738  29.286  23.062  1.00  0.00    -0.275 OA
BRANCH  66  69
ATOM     69  C   UNL A   1      31.846  28.487  24.323  1.00  0.00     0.098 C 
ATOM     70  C   UNL A   1      30.843  29.088  23.329  1.00  0.00     0.017 C 
ATOM     71  C   UNL A   1      31.877  26.973  24.128  1.00  0.00     0.133 C 
ATOM     72  C   UNL A   1      29.458  28.486  23.575  1.00  0.00     0.022 C 
ATOM     73  N   UNL A   1      30.553  26.418  24.411  1.00  0.00    -0.338 N 
ATOM     74  C   UNL A   1      29.477  26.954  23.569  1.00  0.00     0.120 C 
BRANCH  73  75
ATOM     75  C   UNL A   1      30.426  25.569  25.510  1.00  0.00     0.253 C 
ATOM     76  O   UNL A   1      29.803  25.886  26.524  1.00  0.00    -0.269 OA
BRANCH  75  77
ATOM     77  C   UNL A   1      30.994  24.201  25.471  1.00  0.00     0.040 A 
ATOM     78  C   UNL A   1      30.952  23.515  24.257  1.00  0.00     0.016 A 
ATOM     79  C   UNL A   1      31.515  23.566  26.598  1.00  0.00     0.016 A 
ATOM     80  C   UNL A   1      31.537  22.251  24.143  1.00  0.00     0.027 A 
ATOM     81  C   UNL A   1      32.136  22.319  26.468  1.00  0.00     0.027 A 
ATOM     82  C   UNL A   1      32.209  21.680  25.223  1.00  0.00     0.041 A 
BRANCH  82  83
ATOM     83  N   UNL A   1      32.956  20.489  25.160  1.00  0.00    -0.322 N 
ATOM     84  C   UNL A   1      34.275  20.231  24.859  1.00  0.00     0.255 C 
ATOM     85  H   UNL A   1      32.433  19.683  25.372  1.00  0.00     0.170 HD
ATOM     86  O   UNL A   1      34.651  19.067  24.718  1.00  0.00    -0.269 OA
BRANCH  84  87
ATOM     87  C   UNL A   1      35.277  21.306  24.743  1.00  0.00     0.040 A 
ATOM     88  C   UNL A   1      36.262  21.404  25.731  1.00  0.00     0.014 A 
ATOM     89  C   UNL A   1      35.253  22.212  23.674  1.00  0.00     0.014 A 
ATOM     90  C   UNL A   1      37.269  22.362  25.609  1.00  0.00     0.001 A 
ATOM     91  C   UNL A   1      36.268  23.161  23.554  1.00  0.00     0.001 A 
ATOM     92  C   UNL A   1      37.280  23.228  24.514  1.00  0.00     0.000 A 
ENDBRANCH  84  87
ENDBRANCH  82  83
ENDBRANCH  75  77
ENDBRANCH  73  75
ENDBRANCH  66  69
ENDBRANCH  64  65
ENDBRANCH   1  64
TORSDOF 15
ENDMDL
