MODEL 1
REMARK VINA RESULT:     -10.9      0.000      0.000
REMARK SMILES CC[NH2+][C@H](CC(=O)Nc1cc(C)cc(C)c1)C(=O)NCCCCNC(=O)c1ccc(-c2c3nc(c(-c4c(F)cccc4F)c4ccc([nH]4)c(-c4c(F)cccc4F)c4nc(c(-c5c(F)cccc5F)c5ccc2[nH]5)C=C4)C=C3)cc1
REMARK SMILES IDX 21 1 20 2 19 3 17 4 18 5 4 7 3 8 2 11 1 12 5 13 6 14 7 15
REMARK SMILES IDX 8 16 9 18 10 19 16 20 11 21 14 22 12 23 13 24 15 25 22 26
REMARK SMILES IDX 23 27 24 28 25 29 26 31 27 32 28 33 80 34 29 35 79 36 30 37
REMARK SMILES IDX 31 38 32 39 73 40 33 41 78 42 72 43 74 44 34 45 77 46 71 47
REMARK SMILES IDX 70 48 35 50 61 51 44 52 60 53 45 54 48 55 59 56 75 57 46 58
REMARK SMILES IDX 47 59 58 61 76 62 49 63 36 64 37 65 42 66 38 67 39 68 41 69
REMARK SMILES IDX 43 70 40 71 62 72 63 73 68 74 64 75 65 76 67 77 69 78 66 79
REMARK SMILES IDX 50 80 51 81 56 82 52 83 53 84 55 85 57 86 54 87
REMARK H PARENT 19 6 3 9 3 10 8 17 24 30 74 49 48 60
REMARK Flexibility Score: inf
ROOT
ATOM      1  C   UNL A   1      36.702  22.312  24.265  1.00  0.00     0.023 C 
ENDROOT
BRANCH   1   2
ATOM      2  C   UNL A   1      36.383  23.260  25.414  1.00  0.00     0.116 C 
BRANCH   2   3
ATOM      3  N   UNL A   1      35.622  24.410  24.969  1.00  0.00    -0.351 N 
ATOM      4  C   UNL A   1      34.265  24.581  24.972  1.00  0.00     0.278 C 
ATOM      5  O   UNL A   1      33.812  25.664  24.593  1.00  0.00    -0.268 OA
ATOM      6  H   UNL A   1      36.148  25.164  24.618  1.00  0.00     0.163 HD
BRANCH   4   7
ATOM      7  C   UNL A   1      33.329  23.450  25.465  1.00  0.00     0.281 C 
BRANCH   7   8
ATOM      8  N   UNL A   1      32.644  22.907  24.256  1.00  0.00    -0.336 N 
ATOM      9  H   UNL A   1      31.639  22.960  24.425  1.00  0.00     0.346 HD
ATOM     10  H   UNL A   1      32.988  23.479  23.484  1.00  0.00     0.346 HD
BRANCH   8  11
ATOM     11  C   UNL A   1      32.948  21.538  23.865  1.00  0.00     0.257 C 
ATOM     12  C   UNL A   1      32.470  20.557  24.924  1.00  0.00     0.071 C 
ENDBRANCH   8  11
ENDBRANCH   7   8
BRANCH   7  13
ATOM     13  C   UNL A   1      32.490  23.929  26.657  1.00  0.00     0.175 C 
BRANCH  13  14
ATOM     14  C   UNL A   1      30.971  23.888  26.490  1.00  0.00     0.230 C 
ATOM     15  O   UNL A   1      30.359  22.826  26.622  1.00  0.00    -0.274 OA
ATOM     16  N   UNL A   1      30.260  25.063  26.434  1.00  0.00    -0.326 N 
ATOM     17  H   UNL A   1      29.348  25.030  26.803  1.00  0.00     0.169 HD
BRANCH  16  18
ATOM     18  C   UNL A   1      30.666  26.299  25.922  1.00  0.00     0.041 A 
ATOM     19  C   UNL A   1      31.392  27.187  26.716  1.00  0.00     0.029 A 
ATOM     20  C   UNL A   1      30.381  26.627  24.598  1.00  0.00     0.029 A 
ATOM     21  C   UNL A   1      31.693  28.474  26.262  1.00  0.00    -0.049 A 
ATOM     22  C   UNL A   1      30.704  27.903  24.111  1.00  0.00    -0.049 A 
ATOM     23  C   UNL A   1      32.349  29.467  27.174  1.00  0.00     0.044 C 
ATOM     24  C   UNL A   1      31.340  28.825  24.957  1.00  0.00     0.007 A 
ATOM     25  C   UNL A   1      30.312  28.322  22.725  1.00  0.00     0.044 C 
ENDBRANCH  16  18
ENDBRANCH  13  14
ENDBRANCH   7  13
ENDBRANCH   4   7
ENDBRANCH   2   3
ENDBRANCH   1   2
BRANCH   1  26
ATOM     26  C   UNL A   1      37.297  20.976  24.697  1.00  0.00     0.023 C 
BRANCH  26  27
ATOM     27  C   UNL A   1      38.473  21.078  25.660  1.00  0.00     0.116 C 
BRANCH  27  28
ATOM     28  N   UNL A   1      39.364  19.928  25.601  1.00  0.00    -0.352 N 
ATOM     29  C   UNL A   1      40.688  19.850  25.964  1.00  0.00     0.251 C 
ATOM     30  H   UNL A   1      38.965  19.095  25.257  1.00  0.00     0.163 HD
ATOM     31  O   UNL A   1      41.340  18.836  25.757  1.00  0.00    -0.269 OA
BRANCH  29  32
ATOM     32  C   UNL A   1      41.322  21.032  26.578  1.00  0.00     0.039 A 
ATOM     33  C   UNL A   1      41.916  21.987  25.750  1.00  0.00     0.014 A 
ATOM     34  C   UNL A   1      41.257  21.223  27.960  1.00  0.00     0.014 A 
ATOM     35  C   UNL A   1      42.375  23.182  26.305  1.00  0.00     0.010 A 
ATOM     36  C   UNL A   1      41.652  22.440  28.499  1.00  0.00     0.010 A 
ATOM     37  C   UNL A   1      42.207  23.433  27.677  1.00  0.00    -0.014 A 
BRANCH  37  38
ATOM     38  C   UNL A   1      42.594  24.730  28.281  1.00  0.00     0.031 A 
ATOM     39  C   UNL A   1      41.556  25.794  28.488  1.00  0.00     0.074 A 
ATOM     40  C   UNL A   1      43.892  24.986  28.538  1.00  0.00     0.049 A 
ATOM     41  N   UNL A   1      41.710  27.036  28.869  1.00  0.00    -0.248 NA
ATOM     42  C   UNL A   1      40.164  25.421  28.192  1.00  0.00     0.031 C 
ATOM     43  C   UNL A   1      45.000  24.054  28.323  1.00  0.00     0.029 A 
ATOM     44  N   UNL A   1      44.498  26.122  29.013  1.00  0.00    -0.354 N 
ATOM     45  C   UNL A   1      40.441  27.600  28.827  1.00  0.00     0.074 A 
ATOM     46  C   UNL A   1      39.538  26.578  28.347  1.00  0.00     0.031 C 
ATOM     47  C   UNL A   1      46.150  24.654  28.667  1.00  0.00     0.029 A 
ATOM     48  C   UNL A   1      45.866  26.021  29.093  1.00  0.00     0.049 A 
ATOM     49  H   UNL A   1      44.002  26.931  29.271  1.00  0.00     0.167 HD
ATOM     50  C   UNL A   1      40.064  28.852  29.175  1.00  0.00     0.037 A 
ATOM     51  C   UNL A   1      46.788  26.934  29.453  1.00  0.00     0.037 A 
ATOM     52  C   UNL A   1      40.959  29.852  29.692  1.00  0.00     0.049 A 
ATOM     53  C   UNL A   1      46.342  28.308  29.862  1.00  0.00     0.074 A 
ATOM     54  C   UNL A   1      40.660  31.119  30.159  1.00  0.00     0.029 A 
ATOM     55  N   UNL A   1      42.332  29.694  29.808  1.00  0.00    -0.354 N 
ATOM     56  N   UNL A   1      45.129  28.806  29.894  1.00  0.00    -0.248 NA
ATOM     57  C   UNL A   1      47.389  29.246  30.292  1.00  0.00     0.031 C 
ATOM     58  C   UNL A   1      41.857  31.743  30.526  1.00  0.00     0.029 A 
ATOM     59  C   UNL A   1      42.897  30.849  30.322  1.00  0.00     0.049 A 
ATOM     60  H   UNL A   1      42.830  28.882  29.562  1.00  0.00     0.167 HD
ATOM     61  C   UNL A   1      45.263  30.105  30.365  1.00  0.00     0.074 A 
ATOM     62  C   UNL A   1      46.674  30.316  30.615  1.00  0.00     0.031 C 
ATOM     63  C   UNL A   1      44.303  31.039  30.572  1.00  0.00     0.037 A 
BRANCH  50  64
ATOM     64  C   UNL A   1      38.616  29.205  29.006  1.00  0.00     0.057 A 
ATOM     65  C   UNL A   1      37.715  29.162  30.079  1.00  0.00     0.134 A 
ATOM     66  C   UNL A   1      38.120  29.605  27.760  1.00  0.00     0.134 A 
ATOM     67  F   UNL A   1      38.124  28.772  31.296  1.00  0.00    -0.206 F 
ATOM     68  C   UNL A   1      36.366  29.476  29.910  1.00  0.00     0.040 A 
ATOM     69  C   UNL A   1      36.779  29.946  27.584  1.00  0.00     0.040 A 
ATOM     70  F   UNL A   1      38.931  29.672  26.693  1.00  0.00    -0.206 F 
ATOM     71  C   UNL A   1      35.896  29.874  28.660  1.00  0.00     0.006 A 
ENDBRANCH  50  64
BRANCH  51  72
ATOM     72  C   UNL A   1      48.225  26.567  29.453  1.00  0.00     0.057 A 
ATOM     73  C   UNL A   1      48.814  25.957  30.566  1.00  0.00     0.134 A 
ATOM     74  C   UNL A   1      49.039  26.802  28.339  1.00  0.00     0.134 A 
ATOM     75  F   UNL A   1      48.087  25.723  31.669  1.00  0.00    -0.206 F 
ATOM     76  C   UNL A   1      50.164  25.603  30.577  1.00  0.00     0.040 A 
ATOM     77  C   UNL A   1      50.386  26.434  28.328  1.00  0.00     0.040 A 
ATOM     78  F   UNL A   1      48.531  27.376  27.238  1.00  0.00    -0.206 F 
ATOM     79  C   UNL A   1      50.953  25.837  29.452  1.00  0.00     0.006 A 
ENDBRANCH  51  72
BRANCH  63  80
ATOM     80  C   UNL A   1      44.738  32.363  31.120  1.00  0.00     0.057 A 
ATOM     81  C   UNL A   1      45.060  33.437  30.280  1.00  0.00     0.134 A 
ATOM     82  C   UNL A   1      44.777  32.585  32.501  1.00  0.00     0.134 A 
ATOM     83  F   UNL A   1      45.054  33.282  28.947  1.00  0.00    -0.206 F 
ATOM     84  C   UNL A   1      45.414  34.683  30.797  1.00  0.00     0.040 A 
ATOM     85  C   UNL A   1      45.109  33.831  33.031  1.00  0.00     0.040 A 
ATOM     86  F   UNL A   1      44.472  31.598  33.358  1.00  0.00    -0.206 F 
ATOM     87  C   UNL A   1      45.432  34.885  32.177  1.00  0.00     0.006 A 
ENDBRANCH  63  80
ENDBRANCH  37  38
ENDBRANCH  29  32
ENDBRANCH  27  28
ENDBRANCH  26  27
ENDBRANCH   1  26
TORSDOF 16
ENDMDL
MODEL 2
REMARK VINA RESULT:     -10.9      4.292      9.104
REMARK SMILES CC[NH2+][C@H](CC(=O)Nc1cc(C)cc(C)c1)C(=O)NCCCCNC(=O)c1ccc(-c2c3nc(c(-c4c(F)cccc4F)c4ccc([nH]4)c(-c4c(F)cccc4F)c4nc(c(-c5c(F)cccc5F)c5ccc2[nH]5)C=C4)C=C3)cc1
REMARK SMILES IDX 21 1 20 2 19 3 17 4 18 5 4 7 3 8 2 11 1 12 5 13 6 14 7 15
REMARK SMILES IDX 8 16 9 18 10 19 16 20 11 21 14 22 12 23 13 24 15 25 22 26
REMARK SMILES IDX 23 27 24 28 25 29 26 31 27 32 28 33 80 34 29 35 79 36 30 37
REMARK SMILES IDX 31 38 32 39 73 40 33 41 78 42 72 43 74 44 34 45 77 46 71 47
REMARK SMILES IDX 70 48 35 50 61 51 44 52 60 53 45 54 48 55 59 56 75 57 46 58
REMARK SMILES IDX 47 59 58 61 76 62 49 63 36 64 37 65 42 66 38 67 39 68 41 69
REMARK SMILES IDX 43 70 40 71 62 72 63 73 68 74 64 75 65 76 67 77 69 78 66 79
REMARK SMILES IDX 50 80 51 81 56 82 52 83 53 84 55 85 57 86 54 87
REMARK H PARENT 19 6 3 9 3 10 8 17 24 30 74 49 48 60
REMARK Flexibility Score: inf
ROOT
ATOM      1  C   UNL A   1      31.803  30.514  26.889  1.00  0.00     0.023 C 
ENDROOT
BRANCH   1   2
ATOM      2  C   UNL A   1      32.445  30.006  25.605  1.00  0.00     0.116 C 
BRANCH   2   3
ATOM      3  N   UNL A   1      31.479  29.882  24.532  1.00  0.00    -0.351 N 
ATOM      4  C   UNL A   1      31.200  28.785  23.764  1.00  0.00     0.278 C 
ATOM      5  O   UNL A   1      30.299  28.872  22.927  1.00  0.00    -0.268 OA
ATOM      6  H   UNL A   1      30.958  30.691  24.328  1.00  0.00     0.163 HD
BRANCH   4   7
ATOM      7  C   UNL A   1      31.983  27.463  23.965  1.00  0.00     0.281 C 
BRANCH   7   8
ATOM      8  N   UNL A   1      32.599  27.129  22.648  1.00  0.00    -0.336 N 
ATOM      9  H   UNL A   1      31.840  27.004  21.979  1.00  0.00     0.346 HD
ATOM     10  H   UNL A   1      33.231  27.906  22.454  1.00  0.00     0.346 HD
BRANCH   8  11
ATOM     11  C   UNL A   1      33.440  25.943  22.579  1.00  0.00     0.257 C 
ATOM     12  C   UNL A   1      32.804  24.883  21.693  1.00  0.00     0.071 C 
ENDBRANCH   8  11
ENDBRANCH   7   8
BRANCH   7  13
ATOM     13  C   UNL A   1      31.105  26.423  24.674  1.00  0.00     0.175 C 
BRANCH  13  14
ATOM     14  C   UNL A   1      31.409  26.154  26.147  1.00  0.00     0.230 C 
ATOM     15  O   UNL A   1      31.005  26.930  27.017  1.00  0.00    -0.274 OA
ATOM     16  N   UNL A   1      31.917  24.936  26.527  1.00  0.00    -0.326 N 
ATOM     17  H   UNL A   1      31.656  24.622  27.422  1.00  0.00     0.169 HD
BRANCH  16  18
ATOM     18  C   UNL A   1      32.756  24.082  25.804  1.00  0.00     0.041 A 
ATOM     19  C   UNL A   1      34.141  24.237  25.865  1.00  0.00     0.029 A 
ATOM     20  C   UNL A   1      32.208  23.043  25.054  1.00  0.00     0.029 A 
ATOM     21  C   UNL A   1      34.985  23.476  25.052  1.00  0.00    -0.049 A 
ATOM     22  C   UNL A   1      33.041  22.246  24.254  1.00  0.00    -0.049 A 
ATOM     23  C   UNL A   1      36.459  23.748  25.022  1.00  0.00     0.044 C 
ATOM     24  C   UNL A   1      34.424  22.483  24.244  1.00  0.00     0.007 A 
ATOM     25  C   UNL A   1      32.467  21.192  23.353  1.00  0.00     0.044 C 
ENDBRANCH  16  18
ENDBRANCH  13  14
ENDBRANCH   7  13
ENDBRANCH   4   7
ENDBRANCH   2   3
ENDBRANCH   1   2
BRANCH   1  26
ATOM     26  C   UNL A   1      31.415  31.990  26.860  1.00  0.00     0.023 C 
BRANCH  26  27
ATOM     27  C   UNL A   1      32.588  32.960  26.822  1.00  0.00     0.116 C 
BRANCH  27  28
ATOM     28  N   UNL A   1      32.368  34.158  27.622  1.00  0.00    -0.352 N 
ATOM     29  C   UNL A   1      33.082  34.606  28.708  1.00  0.00     0.251 C 
ATOM     30  H   UNL A   1      31.607  34.720  27.347  1.00  0.00     0.163 HD
ATOM     31  O   UNL A   1      32.711  35.580  29.347  1.00  0.00    -0.269 OA
BRANCH  29  32
ATOM     32  C   UNL A   1      34.291  33.864  29.112  1.00  0.00     0.039 A 
ATOM     33  C   UNL A   1      35.545  34.389  28.793  1.00  0.00     0.014 A 
ATOM     34  C   UNL A   1      34.175  32.695  29.868  1.00  0.00     0.014 A 
ATOM     35  C   UNL A   1      36.691  33.782  29.307  1.00  0.00     0.010 A 
ATOM     36  C   UNL A   1      35.312  32.133  30.433  1.00  0.00     0.010 A 
ATOM     37  C   UNL A   1      36.579  32.675  30.164  1.00  0.00    -0.014 A 
BRANCH  37  38
ATOM     38  C   UNL A   1      37.770  32.066  30.805  1.00  0.00     0.031 A 
ATOM     39  C   UNL A   1      38.527  30.985  30.092  1.00  0.00     0.074 A 
ATOM     40  C   UNL A   1      38.097  32.408  32.066  1.00  0.00     0.049 A 
ATOM     41  N   UNL A   1      39.503  30.231  30.530  1.00  0.00    -0.248 NA
ATOM     42  C   UNL A   1      38.106  30.687  28.714  1.00  0.00     0.031 C 
ATOM     43  C   UNL A   1      37.400  33.402  32.884  1.00  0.00     0.029 A 
ATOM     44  N   UNL A   1      39.087  31.933  32.889  1.00  0.00    -0.354 N 
ATOM     45  C   UNL A   1      39.789  29.351  29.495  1.00  0.00     0.074 A 
ATOM     46  C   UNL A   1      38.860  29.637  28.425  1.00  0.00     0.031 C 
ATOM     47  C   UNL A   1      37.985  33.465  34.091  1.00  0.00     0.029 A 
ATOM     48  C   UNL A   1      39.074  32.494  34.143  1.00  0.00     0.049 A 
ATOM     49  H   UNL A   1      39.742  31.255  32.609  1.00  0.00     0.167 HD
ATOM     50  C   UNL A   1      40.753  28.402  29.440  1.00  0.00     0.037 A 
ATOM     51  C   UNL A   1      39.842  32.240  35.219  1.00  0.00     0.037 A 
ATOM     52  C   UNL A   1      41.701  28.150  30.491  1.00  0.00     0.049 A 
ATOM     53  C   UNL A   1      40.924  31.203  35.123  1.00  0.00     0.074 A 
ATOM     54  C   UNL A   1      42.772  27.274  30.494  1.00  0.00     0.029 A 
ATOM     55  N   UNL A   1      41.689  28.776  31.728  1.00  0.00    -0.354 N 
ATOM     56  N   UNL A   1      41.238  30.430  34.111  1.00  0.00    -0.248 NA
ATOM     57  C   UNL A   1      41.763  31.005  36.314  1.00  0.00     0.031 C 
ATOM     58  C   UNL A   1      43.389  27.345  31.748  1.00  0.00     0.029 A 
ATOM     59  C   UNL A   1      42.723  28.292  32.510  1.00  0.00     0.049 A 
ATOM     60  H   UNL A   1      41.042  29.463  32.007  1.00  0.00     0.167 HD
ATOM     61  C   UNL A   1      42.320  29.670  34.533  1.00  0.00     0.074 A 
ATOM     62  C   UNL A   1      42.616  30.081  35.891  1.00  0.00     0.031 C 
ATOM     63  C   UNL A   1      43.007  28.719  33.857  1.00  0.00     0.037 A 
BRANCH  50  64
ATOM     64  C   UNL A   1      40.825  27.569  28.194  1.00  0.00     0.057 A 
ATOM     65  C   UNL A   1      41.585  27.961  27.085  1.00  0.00     0.134 A 
ATOM     66  C   UNL A   1      40.136  26.353  28.109  1.00  0.00     0.134 A 
ATOM     67  F   UNL A   1      42.256  29.124  27.098  1.00  0.00    -0.206 F 
ATOM     68  C   UNL A   1      41.633  27.189  25.924  1.00  0.00     0.040 A 
ATOM     69  C   UNL A   1      40.197  25.559  26.964  1.00  0.00     0.040 A 
ATOM     70  F   UNL A   1      39.393  25.917  29.138  1.00  0.00    -0.206 F 
ATOM     71  C   UNL A   1      40.941  25.981  25.863  1.00  0.00     0.006 A 
ENDBRANCH  50  64
BRANCH  51  72
ATOM     72  C   UNL A   1      39.620  32.996  36.476  1.00  0.00     0.057 A 
ATOM     73  C   UNL A   1      40.312  34.185  36.734  1.00  0.00     0.134 A 
ATOM     74  C   UNL A   1      38.704  32.559  37.439  1.00  0.00     0.134 A 
ATOM     75  F   UNL A   1      41.215  34.643  35.856  1.00  0.00    -0.206 F 
ATOM     76  C   UNL A   1      40.109  34.908  37.911  1.00  0.00     0.040 A 
ATOM     77  C   UNL A   1      38.475  33.283  38.611  1.00  0.00     0.040 A 
ATOM     78  F   UNL A   1      38.004  31.431  37.245  1.00  0.00    -0.206 F 
ATOM     79  C   UNL A   1      39.183  34.459  38.851  1.00  0.00     0.006 A 
ENDBRANCH  51  72
BRANCH  63  80
ATOM     80  C   UNL A   1      44.162  28.074  34.560  1.00  0.00     0.057 A 
ATOM     81  C   UNL A   1      44.013  26.880  35.278  1.00  0.00     0.134 A 
ATOM     82  C   UNL A   1      45.448  28.620  34.467  1.00  0.00     0.134 A 
ATOM     83  F   UNL A   1      42.804  26.316  35.414  1.00  0.00    -0.206 F 
ATOM     84  C   UNL A   1      45.103  26.258  35.887  1.00  0.00     0.040 A 
ATOM     85  C   UNL A   1      46.549  27.997  35.053  1.00  0.00     0.040 A 
ATOM     86  F   UNL A   1      45.657  29.758  33.786  1.00  0.00    -0.206 F 
ATOM     87  C   UNL A   1      46.378  26.812  35.768  1.00  0.00     0.006 A 
ENDBRANCH  63  80
ENDBRANCH  37  38
ENDBRANCH  29  32
ENDBRANCH  27  28
ENDBRANCH  26  27
ENDBRANCH   1  26
TORSDOF 16
ENDMDL
MODEL 3
REMARK VINA RESULT:     -10.8      0.711      6.305
REMARK SMILES CC[NH2+][C@H](CC(=O)Nc1cc(C)cc(C)c1)C(=O)NCCCCNC(=O)c1ccc(-c2c3nc(c(-c4c(F)cccc4F)c4ccc([nH]4)c(-c4c(F)cccc4F)c4nc(c(-c5c(F)cccc5F)c5ccc2[nH]5)C=C4)C=C3)cc1
REMARK SMILES IDX 21 1 20 2 19 3 17 4 18 5 4 7 3 8 2 11 1 12 5 13 6 14 7 15
REMARK SMILES IDX 8 16 9 18 10 19 16 20 11 21 14 22 12 23 13 24 15 25 22 26
REMARK SMILES IDX 23 27 24 28 25 29 26 31 27 32 28 33 80 34 29 35 79 36 30 37
REMARK SMILES IDX 31 38 32 39 73 40 33 41 78 42 72 43 74 44 34 45 77 46 71 47
REMARK SMILES IDX 70 48 35 50 61 51 44 52 60 53 45 54 48 55 59 56 75 57 46 58
REMARK SMILES IDX 47 59 58 61 76 62 49 63 36 64 37 65 42 66 38 67 39 68 41 69
REMARK SMILES IDX 43 70 40 71 62 72 63 73 68 74 64 75 65 76 67 77 69 78 66 79
REMARK SMILES IDX 50 80 51 81 56 82 52 83 53 84 55 85 57 86 54 87
REMARK H PARENT 19 6 3 9 3 10 8 17 24 30 74 49 48 60
REMARK Flexibility Score: inf
ROOT
ATOM      1  C   UNL A   1      36.573  20.186  25.066  1.00  0.00     0.023 C 
ENDROOT
BRANCH   1   2
ATOM      2  C   UNL A   1      35.814  21.355  25.680  1.00  0.00     0.116 C 
BRANCH   2   3
ATOM      3  N   UNL A   1      35.715  22.474  24.766  1.00  0.00    -0.351 N 
ATOM      4  C   UNL A   1      34.674  23.345  24.600  1.00  0.00     0.278 C 
ATOM      5  O   UNL A   1      34.808  24.269  23.794  1.00  0.00    -0.268 OA
ATOM      6  H   UNL A   1      36.498  22.627  24.189  1.00  0.00     0.163 HD
BRANCH   4   7
ATOM      7  C   UNL A   1      33.372  23.182  25.423  1.00  0.00     0.281 C 
BRANCH   7   8
ATOM      8  N   UNL A   1      32.405  22.453  24.552  1.00  0.00    -0.336 N 
ATOM      9  H   UNL A   1      31.550  23.008  24.515  1.00  0.00     0.346 HD
ATOM     10  H   UNL A   1      32.892  22.340  23.662  1.00  0.00     0.346 HD
BRANCH   8  11
ATOM     11  C   UNL A   1      32.031  21.102  24.942  1.00  0.00     0.257 C 
ATOM     12  C   UNL A   1      32.814  20.074  24.143  1.00  0.00     0.071 C 
ENDBRANCH   8  11
ENDBRANCH   7   8
BRANCH   7  13
ATOM     13  C   UNL A   1      32.963  24.522  26.049  1.00  0.00     0.175 C 
BRANCH  13  14
ATOM     14  C   UNL A   1      31.569  24.594  26.671  1.00  0.00     0.230 C 
ATOM     15  O   UNL A   1      31.070  23.597  27.199  1.00  0.00    -0.274 OA
ATOM     16  N   UNL A   1      30.970  25.816  26.859  1.00  0.00    -0.326 N 
ATOM     17  H   UNL A   1      30.370  25.884  27.637  1.00  0.00     0.169 HD
BRANCH  16  18
ATOM     18  C   UNL A   1      31.104  26.976  26.091  1.00  0.00     0.041 A 
ATOM     19  C   UNL A   1      31.705  28.114  26.630  1.00  0.00     0.029 A 
ATOM     20  C   UNL A   1      30.675  26.982  24.765  1.00  0.00     0.029 A 
ATOM     21  C   UNL A   1      31.730  29.317  25.920  1.00  0.00    -0.049 A 
ATOM     22  C   UNL A   1      30.722  28.172  24.022  1.00  0.00    -0.049 A 
ATOM     23  C   UNL A   1      32.251  30.568  26.562  1.00  0.00     0.044 C 
ATOM     24  C   UNL A   1      31.232  29.337  24.614  1.00  0.00     0.007 A 
ATOM     25  C   UNL A   1      30.167  28.234  22.629  1.00  0.00     0.044 C 
ENDBRANCH  16  18
ENDBRANCH  13  14
ENDBRANCH   7  13
ENDBRANCH   4   7
ENDBRANCH   2   3
ENDBRANCH   1   2
BRANCH   1  26
ATOM     26  C   UNL A   1      38.026  20.491  24.715  1.00  0.00     0.023 C 
BRANCH  26  27
ATOM     27  C   UNL A   1      38.980  20.520  25.902  1.00  0.00     0.116 C 
BRANCH  27  28
ATOM     28  N   UNL A   1      39.993  19.475  25.848  1.00  0.00    -0.352 N 
ATOM     29  C   UNL A   1      41.339  19.572  26.112  1.00  0.00     0.251 C 
ATOM     30  H   UNL A   1      39.672  18.581  25.589  1.00  0.00     0.163 HD
ATOM     31  O   UNL A   1      42.089  18.626  25.921  1.00  0.00    -0.269 OA
BRANCH  29  32
ATOM     32  C   UNL A   1      41.871  20.860  26.600  1.00  0.00     0.039 A 
ATOM     33  C   UNL A   1      42.350  21.787  25.673  1.00  0.00     0.014 A 
ATOM     34  C   UNL A   1      41.822  21.167  27.962  1.00  0.00     0.014 A 
ATOM     35  C   UNL A   1      42.706  23.065  26.107  1.00  0.00     0.010 A 
ATOM     36  C   UNL A   1      42.111  22.459  28.379  1.00  0.00     0.010 A 
ATOM     37  C   UNL A   1      42.548  23.422  27.455  1.00  0.00    -0.014 A 
BRANCH  37  38
ATOM     38  C   UNL A   1      42.823  24.799  27.932  1.00  0.00     0.031 A 
ATOM     39  C   UNL A   1      44.207  25.168  28.379  1.00  0.00     0.074 A 
ATOM     40  C   UNL A   1      41.808  25.674  28.065  1.00  0.00     0.049 A 
ATOM     41  N   UNL A   1      44.624  26.267  28.956  1.00  0.00    -0.248 NA
ATOM     42  C   UNL A   1      45.254  24.153  28.185  1.00  0.00     0.031 C 
ATOM     43  C   UNL A   1      40.410  25.412  27.721  1.00  0.00     0.029 A 
ATOM     44  N   UNL A   1      41.797  26.957  28.553  1.00  0.00    -0.354 N 
ATOM     45  C   UNL A   1      45.971  26.061  29.221  1.00  0.00     0.074 A 
ATOM     46  C   UNL A   1      46.292  24.721  28.780  1.00  0.00     0.031 C 
ATOM     47  C   UNL A   1      39.677  26.500  28.005  1.00  0.00     0.029 A 
ATOM     48  C   UNL A   1      40.544  27.521  28.582  1.00  0.00     0.049 A 
ATOM     49  H   UNL A   1      42.607  27.427  28.853  1.00  0.00     0.167 HD
ATOM     50  C   UNL A   1      46.863  26.921  29.768  1.00  0.00     0.037 A 
ATOM     51  C   UNL A   1      40.140  28.721  29.040  1.00  0.00     0.037 A 
ATOM     52  C   UNL A   1      46.549  28.265  30.167  1.00  0.00     0.049 A 
ATOM     53  C   UNL A   1      41.153  29.669  29.616  1.00  0.00     0.074 A 
ATOM     54  C   UNL A   1      47.401  29.244  30.645  1.00  0.00     0.029 A 
ATOM     55  N   UNL A   1      45.278  28.820  30.132  1.00  0.00    -0.354 N 
ATOM     56  N   UNL A   1      42.440  29.493  29.790  1.00  0.00    -0.248 NA
ATOM     57  C   UNL A   1      40.661  30.983  30.054  1.00  0.00     0.031 C 
ATOM     58  C   UNL A   1      46.640  30.382  30.934  1.00  0.00     0.029 A 
ATOM     59  C   UNL A   1      45.320  30.122  30.599  1.00  0.00     0.049 A 
ATOM     60  H   UNL A   1      44.467  28.356  29.821  1.00  0.00     0.167 HD
ATOM     61  C   UNL A   1      42.916  30.677  30.337  1.00  0.00     0.074 A 
ATOM     62  C   UNL A   1      41.780  31.568  30.458  1.00  0.00     0.031 C 
ATOM     63  C   UNL A   1      44.180  30.998  30.705  1.00  0.00     0.037 A 
BRANCH  50  64
ATOM     64  C   UNL A   1      48.265  26.424  29.964  1.00  0.00     0.057 A 
ATOM     65  C   UNL A   1      49.252  26.593  28.985  1.00  0.00     0.134 A 
ATOM     66  C   UNL A   1      48.634  25.780  31.150  1.00  0.00     0.134 A 
ATOM     67  F   UNL A   1      48.958  27.189  27.818  1.00  0.00    -0.206 F 
ATOM     68  C   UNL A   1      50.550  26.114  29.167  1.00  0.00     0.040 A 
ATOM     69  C   UNL A   1      49.934  25.319  31.356  1.00  0.00     0.040 A 
ATOM     70  F   UNL A   1      47.737  25.590  32.130  1.00  0.00    -0.206 F 
ATOM     71  C   UNL A   1      50.895  25.478  30.359  1.00  0.00     0.006 A 
ENDBRANCH  50  64
BRANCH  51  72
ATOM     72  C   UNL A   1      38.707  29.095  28.957  1.00  0.00     0.057 A 
ATOM     73  C   UNL A   1      37.872  29.003  30.076  1.00  0.00     0.134 A 
ATOM     74  C   UNL A   1      38.143  29.565  27.766  1.00  0.00     0.134 A 
ATOM     75  F   UNL A   1      38.353  28.542  31.240  1.00  0.00    -0.206 F 
ATOM     76  C   UNL A   1      36.523  29.356  30.012  1.00  0.00     0.040 A 
ATOM     77  C   UNL A   1      36.800  29.941  27.692  1.00  0.00     0.040 A 
ATOM     78  F   UNL A   1      38.894  29.683  26.661  1.00  0.00    -0.206 F 
ATOM     79  C   UNL A   1      35.985  29.832  28.817  1.00  0.00     0.006 A 
ENDBRANCH  51  72
BRANCH  63  80
ATOM     80  C   UNL A   1      44.410  32.375  31.248  1.00  0.00     0.057 A 
ATOM     81  C   UNL A   1      44.368  32.641  32.622  1.00  0.00     0.134 A 
ATOM     82  C   UNL A   1      44.738  33.432  30.391  1.00  0.00     0.134 A 
ATOM     83  F   UNL A   1      44.046  31.671  33.492  1.00  0.00    -0.206 F 
ATOM     84  C   UNL A   1      44.634  33.915  33.124  1.00  0.00     0.040 A 
ATOM     85  C   UNL A   1      45.027  34.705  30.881  1.00  0.00     0.040 A 
ATOM     86  F   UNL A   1      44.803  33.239  29.064  1.00  0.00    -0.206 F 
ATOM     87  C   UNL A   1      44.973  34.950  32.253  1.00  0.00     0.006 A 
ENDBRANCH  63  80
ENDBRANCH  37  38
ENDBRANCH  29  32
ENDBRANCH  27  28
ENDBRANCH  26  27
ENDBRANCH   1  26
TORSDOF 16
ENDMDL
