MODEL 1
REMARK VINA RESULT:     -12.1      0.000      0.000
REMARK SMILES C[NH+]1CCC(NC(=O)N[C@@H]2C=C[C@H](C(=O)NCCCCNC(=O)c3ccc(-c4c5nc(c(-c6c(F)cccc6F)c6ccc([nH]6)c(-c6c(F)cccc6F)c6nc(c(-c7c(F)cccc7F)c7ccc4[nH]7)C=C6)C=C5)cc3)C2)CC1
REMARK SMILES IDX 18 1 17 2 16 3 14 4 15 5 13 7 10 8 11 9 78 10 12 11 9 12
REMARK SMILES IDX 6 13 7 14 8 16 5 18 1 19 2 20 3 21 80 22 4 24 79 25 19 26
REMARK SMILES IDX 20 27 21 28 22 29 23 31 24 32 25 33 77 34 26 35 76 36 27 37
REMARK SMILES IDX 28 38 29 39 70 40 30 41 75 42 69 43 71 44 31 45 74 46 68 47
REMARK SMILES IDX 67 48 32 50 58 51 41 52 57 53 42 54 45 55 56 56 72 57 43 58
REMARK SMILES IDX 44 59 55 61 73 62 46 63 33 64 34 65 39 66 35 67 36 68 38 69
REMARK SMILES IDX 40 70 37 71 59 72 60 73 65 74 61 75 62 76 64 77 66 78 63 79
REMARK SMILES IDX 47 80 48 81 53 82 49 83 50 84 52 85 54 86 51 87
REMARK H PARENT 16 6 6 15 9 17 2 23 21 30 71 49 45 60
REMARK Flexibility Score: inf
ROOT
ATOM      1  C   UNL A   1      37.305  20.786  24.347  1.00  0.00     0.023 C 
ENDROOT
BRANCH   1   2
ATOM      2  C   UNL A   1      37.132  21.964  25.303  1.00  0.00     0.116 C 
BRANCH   2   3
ATOM      3  N   UNL A   1      36.290  21.607  26.426  1.00  0.00    -0.356 N 
ATOM      4  C   UNL A   1      34.951  21.819  26.587  1.00  0.00     0.227 C 
ATOM      5  O   UNL A   1      34.430  21.501  27.655  1.00  0.00    -0.274 OA
ATOM      6  H   UNL A   1      36.742  21.151  27.171  1.00  0.00     0.163 HD
BRANCH   4   7
ATOM      7  C   UNL A   1      34.162  22.378  25.410  1.00  0.00     0.103 C 
ATOM      8  C   UNL A   1      31.732  22.759  25.332  1.00  0.00     0.107 C 
ATOM      9  C   UNL A   1      32.115  21.439  24.749  1.00  0.00    -0.006 C 
ATOM     10  C   UNL A   1      33.050  23.336  25.856  1.00  0.00     0.047 C 
ATOM     11  C   UNL A   1      33.433  21.239  24.763  1.00  0.00    -0.016 C 
BRANCH   8  12
ATOM     12  N   UNL A   1      30.732  22.543  26.348  1.00  0.00    -0.332 N 
ATOM     13  N   UNL A   1      29.651  24.639  26.611  1.00  0.00    -0.335 N 
ATOM     14  C   UNL A   1      29.826  23.344  26.937  1.00  0.00     0.315 C 
ATOM     15  H   UNL A   1      28.951  25.093  27.132  1.00  0.00     0.165 HD
ATOM     16  O   UNL A   1      29.110  22.867  27.820  1.00  0.00    -0.249 OA
ATOM     17  H   UNL A   1      30.707  21.616  26.679  1.00  0.00     0.165 HD
BRANCH  13  18
ATOM     18  C   UNL A   1      30.301  25.488  25.633  1.00  0.00     0.095 C 
ATOM     19  C   UNL A   1      32.014  28.309  23.038  1.00  0.00     0.332 C 
ATOM     20  N   UNL A   1      31.127  27.775  24.075  1.00  0.00    -0.337 N 
ATOM     21  C   UNL A   1      31.930  27.313  25.217  1.00  0.00     0.264 C 
ATOM     22  C   UNL A   1      30.257  26.731  23.508  1.00  0.00     0.264 C 
ATOM     23  H   UNL A   1      30.505  28.505  24.425  1.00  0.00     0.347 HD
ATOM     24  C   UNL A   1      31.086  26.621  26.285  1.00  0.00     0.086 C 
ATOM     25  C   UNL A   1      29.373  26.066  24.574  1.00  0.00     0.086 C 
ENDBRANCH  13  18
ENDBRANCH   8  12
ENDBRANCH   4   7
ENDBRANCH   2   3
ENDBRANCH   1   2
BRANCH   1  26
ATOM     26  C   UNL A   1      38.084  19.607  24.941  1.00  0.00     0.023 C 
BRANCH  26  27
ATOM     27  C   UNL A   1      39.203  19.995  25.902  1.00  0.00     0.116 C 
BRANCH  27  28
ATOM     28  N   UNL A   1      40.311  19.054  25.883  1.00  0.00    -0.352 N 
ATOM     29  C   UNL A   1      41.647  19.285  26.098  1.00  0.00     0.251 C 
ATOM     30  H   UNL A   1      40.068  18.120  25.690  1.00  0.00     0.163 HD
ATOM     31  O   UNL A   1      42.461  18.392  25.902  1.00  0.00    -0.269 OA
BRANCH  29  32
ATOM     32  C   UNL A   1      42.103  20.623  26.535  1.00  0.00     0.039 A 
ATOM     33  C   UNL A   1      42.482  21.548  25.559  1.00  0.00     0.014 A 
ATOM     34  C   UNL A   1      42.159  20.966  27.889  1.00  0.00     0.014 A 
ATOM     35  C   UNL A   1      42.871  22.832  25.942  1.00  0.00     0.010 A 
ATOM     36  C   UNL A   1      42.469  22.271  28.262  1.00  0.00     0.010 A 
ATOM     37  C   UNL A   1      42.839  23.215  27.292  1.00  0.00    -0.014 A 
BRANCH  37  38
ATOM     38  C   UNL A   1      43.192  24.600  27.694  1.00  0.00     0.031 A 
ATOM     39  C   UNL A   1      44.627  25.048  27.718  1.00  0.00     0.074 A 
ATOM     40  C   UNL A   1      42.216  25.447  28.076  1.00  0.00     0.049 A 
ATOM     41  N   UNL A   1      45.122  26.219  28.031  1.00  0.00    -0.248 NA
ATOM     42  C   UNL A   1      45.643  24.042  27.369  1.00  0.00     0.031 C 
ATOM     43  C   UNL A   1      40.792  25.114  28.159  1.00  0.00     0.029 A 
ATOM     44  N   UNL A   1      42.272  26.762  28.465  1.00  0.00    -0.354 N 
ATOM     45  C   UNL A   1      46.501  26.088  27.927  1.00  0.00     0.074 A 
ATOM     46  C   UNL A   1      46.768  24.708  27.581  1.00  0.00     0.031 C 
ATOM     47  C   UNL A   1      40.108  26.203  28.543  1.00  0.00     0.029 A 
ATOM     48  C   UNL A   1      41.044  27.299  28.766  1.00  0.00     0.049 A 
ATOM     49  H   UNL A   1      43.113  27.270  28.524  1.00  0.00     0.167 HD
ATOM     50  C   UNL A   1      47.457  27.035  28.080  1.00  0.00     0.037 A 
ATOM     51  C   UNL A   1      40.710  28.538  29.175  1.00  0.00     0.037 A 
ATOM     52  C   UNL A   1      47.186  28.410  28.411  1.00  0.00     0.049 A 
ATOM     53  C   UNL A   1      41.788  29.574  29.328  1.00  0.00     0.074 A 
ATOM     54  C   UNL A   1      48.078  29.462  28.524  1.00  0.00     0.029 A 
ATOM     55  N   UNL A   1      45.928  28.923  28.690  1.00  0.00    -0.354 N 
ATOM     56  N   UNL A   1      43.080  29.459  29.139  1.00  0.00    -0.248 NA
ATOM     57  C   UNL A   1      41.358  30.918  29.739  1.00  0.00     0.031 C 
ATOM     58  C   UNL A   1      47.368  30.597  28.927  1.00  0.00     0.029 A 
ATOM     59  C   UNL A   1      46.024  30.270  29.003  1.00  0.00     0.049 A 
ATOM     60  H   UNL A   1      45.090  28.406  28.670  1.00  0.00     0.167 HD
ATOM     61  C   UNL A   1      43.614  30.719  29.380  1.00  0.00     0.074 A 
ATOM     62  C   UNL A   1      42.502  31.587  29.709  1.00  0.00     0.031 C 
ATOM     63  C   UNL A   1      44.909  31.122  29.332  1.00  0.00     0.037 A 
BRANCH  50  64
ATOM     64  C   UNL A   1      48.887  26.611  27.896  1.00  0.00     0.057 A 
ATOM     65  C   UNL A   1      49.699  26.246  28.980  1.00  0.00     0.134 A 
ATOM     66  C   UNL A   1      49.454  26.541  26.617  1.00  0.00     0.134 A 
ATOM     67  F   UNL A   1      49.224  26.299  30.234  1.00  0.00    -0.206 F 
ATOM     68  C   UNL A   1      51.029  25.858  28.800  1.00  0.00     0.040 A 
ATOM     69  C   UNL A   1      50.773  26.126  26.423  1.00  0.00     0.040 A 
ATOM     70  F   UNL A   1      48.735  26.869  25.533  1.00  0.00    -0.206 F 
ATOM     71  C   UNL A   1      51.566  25.792  27.518  1.00  0.00     0.006 A 
ENDBRANCH  50  64
BRANCH  51  72
ATOM     72  C   UNL A   1      39.288  28.871  29.445  1.00  0.00     0.057 A 
ATOM     73  C   UNL A   1      38.462  29.392  28.443  1.00  0.00     0.134 A 
ATOM     74  C   UNL A   1      38.722  28.676  30.711  1.00  0.00     0.134 A 
ATOM     75  F   UNL A   1      38.950  29.616  27.214  1.00  0.00    -0.206 F 
ATOM     76  C   UNL A   1      37.131  29.730  28.694  1.00  0.00     0.040 A 
ATOM     77  C   UNL A   1      37.385  28.983  30.968  1.00  0.00     0.040 A 
ATOM     78  F   UNL A   1      39.458  28.170  31.711  1.00  0.00    -0.206 F 
ATOM     79  C   UNL A   1      36.587  29.519  29.960  1.00  0.00     0.006 A 
ENDBRANCH  51  72
BRANCH  63  80
ATOM     80  C   UNL A   1      45.184  32.573  29.609  1.00  0.00     0.057 A 
ATOM     81  C   UNL A   1      45.488  33.041  30.893  1.00  0.00     0.134 A 
ATOM     82  C   UNL A   1      45.159  33.512  28.569  1.00  0.00     0.134 A 
ATOM     83  F   UNL A   1      45.518  32.198  31.936  1.00  0.00    -0.206 F 
ATOM     84  C   UNL A   1      45.722  34.396  31.141  1.00  0.00     0.040 A 
ATOM     85  C   UNL A   1      45.423  34.863  28.798  1.00  0.00     0.040 A 
ATOM     86  F   UNL A   1      44.885  33.131  27.312  1.00  0.00    -0.206 F 
ATOM     87  C   UNL A   1      45.695  35.310  30.089  1.00  0.00     0.006 A 
ENDBRANCH  63  80
ENDBRANCH  37  38
ENDBRANCH  29  32
ENDBRANCH  27  28
ENDBRANCH  26  27
ENDBRANCH   1  26
TORSDOF 13
ENDMDL
MODEL 2
REMARK VINA RESULT:     -12.1      0.466      1.388
REMARK SMILES C[NH+]1CCC(NC(=O)N[C@@H]2C=C[C@H](C(=O)NCCCCNC(=O)c3ccc(-c4c5nc(c(-c6c(F)cccc6F)c6ccc([nH]6)c(-c6c(F)cccc6F)c6nc(c(-c7c(F)cccc7F)c7ccc4[nH]7)C=C6)C=C5)cc3)C2)CC1
REMARK SMILES IDX 18 1 17 2 16 3 14 4 15 5 13 7 10 8 11 9 78 10 12 11 9 12
REMARK SMILES IDX 6 13 7 14 8 16 5 18 1 19 2 20 3 21 80 22 4 24 79 25 19 26
REMARK SMILES IDX 20 27 21 28 22 29 23 31 24 32 25 33 77 34 26 35 76 36 27 37
REMARK SMILES IDX 28 38 29 39 70 40 30 41 75 42 69 43 71 44 31 45 74 46 68 47
REMARK SMILES IDX 67 48 32 50 58 51 41 52 57 53 42 54 45 55 56 56 72 57 43 58
REMARK SMILES IDX 44 59 55 61 73 62 46 63 33 64 34 65 39 66 35 67 36 68 38 69
REMARK SMILES IDX 40 70 37 71 59 72 60 73 65 74 61 75 62 76 64 77 66 78 63 79
REMARK SMILES IDX 47 80 48 81 53 82 49 83 50 84 52 85 54 86 51 87
REMARK H PARENT 16 6 6 15 9 17 2 23 21 30 71 49 45 60
REMARK Flexibility Score: inf
ROOT
ATOM      1  C   UNL A   1      37.408  20.665  24.266  1.00  0.00     0.023 C 
ENDROOT
BRANCH   1   2
ATOM      2  C   UNL A   1      37.138  21.885  25.145  1.00  0.00     0.116 C 
BRANCH   2   3
ATOM      3  N   UNL A   1      36.304  21.539  26.278  1.00  0.00    -0.356 N 
ATOM      4  C   UNL A   1      34.971  21.771  26.455  1.00  0.00     0.227 C 
ATOM      5  O   UNL A   1      34.458  21.459  27.530  1.00  0.00    -0.274 OA
ATOM      6  H   UNL A   1      36.759  21.075  27.017  1.00  0.00     0.163 HD
BRANCH   4   7
ATOM      7  C   UNL A   1      34.176  22.342  25.288  1.00  0.00     0.103 C 
ATOM      8  C   UNL A   1      31.747  22.734  25.231  1.00  0.00     0.107 C 
ATOM      9  C   UNL A   1      32.121  21.417  24.634  1.00  0.00    -0.006 C 
ATOM     10  C   UNL A   1      33.071  23.301  25.750  1.00  0.00     0.047 C 
ATOM     11  C   UNL A   1      33.438  21.212  24.637  1.00  0.00    -0.016 C 
BRANCH   8  12
ATOM     12  N   UNL A   1      30.753  22.514  26.252  1.00  0.00    -0.332 N 
ATOM     13  N   UNL A   1      29.727  24.627  26.585  1.00  0.00    -0.335 N 
ATOM     14  C   UNL A   1      29.874  23.319  26.873  1.00  0.00     0.315 C 
ATOM     15  H   UNL A   1      29.044  25.082  27.127  1.00  0.00     0.165 HD
ATOM     16  O   UNL A   1      29.156  22.835  27.751  1.00  0.00    -0.249 OA
ATOM     17  H   UNL A   1      30.709  21.579  26.557  1.00  0.00     0.165 HD
BRANCH  13  18
ATOM     18  C   UNL A   1      30.387  25.487  25.624  1.00  0.00     0.095 C 
ATOM     19  C   UNL A   1      32.110  28.337  23.068  1.00  0.00     0.332 C 
ATOM     20  N   UNL A   1      31.202  27.786  24.078  1.00  0.00    -0.337 N 
ATOM     21  C   UNL A   1      31.978  27.354  25.251  1.00  0.00     0.264 C 
ATOM     22  C   UNL A   1      30.382  26.713  23.490  1.00  0.00     0.264 C 
ATOM     23  H   UNL A   1      30.548  28.500  24.400  1.00  0.00     0.347 HD
ATOM     24  C   UNL A   1      31.116  26.646  26.294  1.00  0.00     0.086 C 
ATOM     25  C   UNL A   1      29.480  26.031  24.529  1.00  0.00     0.086 C 
ENDBRANCH  13  18
ENDBRANCH   8  12
ENDBRANCH   4   7
ENDBRANCH   2   3
ENDBRANCH   1   2
BRANCH   1  26
ATOM     26  C   UNL A   1      38.065  19.494  25.005  1.00  0.00     0.023 C 
BRANCH  26  27
ATOM     27  C   UNL A   1      39.238  19.877  25.902  1.00  0.00     0.116 C 
BRANCH  27  28
ATOM     28  N   UNL A   1      40.332  18.923  25.833  1.00  0.00    -0.352 N 
ATOM     29  C   UNL A   1      41.681  19.141  25.969  1.00  0.00     0.251 C 
ATOM     30  H   UNL A   1      40.069  17.989  25.665  1.00  0.00     0.163 HD
ATOM     31  O   UNL A   1      42.473  18.236  25.739  1.00  0.00    -0.269 OA
BRANCH  29  32
ATOM     32  C   UNL A   1      42.176  20.478  26.361  1.00  0.00     0.039 A 
ATOM     33  C   UNL A   1      42.543  21.374  25.354  1.00  0.00     0.014 A 
ATOM     34  C   UNL A   1      42.280  20.850  27.705  1.00  0.00     0.014 A 
ATOM     35  C   UNL A   1      42.968  22.658  25.696  1.00  0.00     0.010 A 
ATOM     36  C   UNL A   1      42.626  22.156  28.039  1.00  0.00     0.010 A 
ATOM     37  C   UNL A   1      42.985  23.071  27.038  1.00  0.00    -0.014 A 
BRANCH  37  38
ATOM     38  C   UNL A   1      43.377  24.457  27.398  1.00  0.00     0.031 A 
ATOM     39  C   UNL A   1      44.815  24.890  27.324  1.00  0.00     0.074 A 
ATOM     40  C   UNL A   1      42.436  25.319  27.830  1.00  0.00     0.049 A 
ATOM     41  N   UNL A   1      45.341  26.059  27.589  1.00  0.00    -0.248 NA
ATOM     42  C   UNL A   1      45.796  23.869  26.924  1.00  0.00     0.031 C 
ATOM     43  C   UNL A   1      41.017  25.003  28.008  1.00  0.00     0.029 A 
ATOM     44  N   UNL A   1      42.530  26.638  28.197  1.00  0.00    -0.354 N 
ATOM     45  C   UNL A   1      46.709  25.912  27.398  1.00  0.00     0.074 A 
ATOM     46  C   UNL A   1      46.939  24.525  27.055  1.00  0.00     0.031 C 
ATOM     47  C   UNL A   1      40.370  26.104  28.420  1.00  0.00     0.029 A 
ATOM     48  C   UNL A   1      41.329  27.193  28.568  1.00  0.00     0.049 A 
ATOM     49  H   UNL A   1      43.378  27.138  28.195  1.00  0.00     0.167 HD
ATOM     50  C   UNL A   1      47.682  26.850  27.477  1.00  0.00     0.037 A 
ATOM     51  C   UNL A   1      41.035  28.440  28.981  1.00  0.00     0.037 A 
ATOM     52  C   UNL A   1      47.446  28.232  27.807  1.00  0.00     0.049 A 
ATOM     53  C   UNL A   1      42.131  29.467  29.051  1.00  0.00     0.074 A 
ATOM     54  C   UNL A   1      48.355  29.276  27.848  1.00  0.00     0.029 A 
ATOM     55  N   UNL A   1      46.214  28.762  28.158  1.00  0.00    -0.354 N 
ATOM     56  N   UNL A   1      43.407  29.336  28.781  1.00  0.00    -0.248 NA
ATOM     57  C   UNL A   1      41.741  30.821  29.470  1.00  0.00     0.031 C 
ATOM     58  C   UNL A   1      47.684  30.424  28.281  1.00  0.00     0.029 A 
ATOM     59  C   UNL A   1      46.344  30.112  28.446  1.00  0.00     0.049 A 
ATOM     60  H   UNL A   1      45.372  28.254  28.199  1.00  0.00     0.167 HD
ATOM     61  C   UNL A   1      43.967  30.592  28.970  1.00  0.00     0.074 A 
ATOM     62  C   UNL A   1      42.888  31.477  29.358  1.00  0.00     0.031 C 
ATOM     63  C   UNL A   1      45.261  30.981  28.835  1.00  0.00     0.037 A 
BRANCH  50  64
ATOM     64  C   UNL A   1      49.093  26.409  27.208  1.00  0.00     0.057 A 
ATOM     65  C   UNL A   1      49.649  26.439  25.921  1.00  0.00     0.134 A 
ATOM     66  C   UNL A   1      49.918  25.973  28.253  1.00  0.00     0.134 A 
ATOM     67  F   UNL A   1      48.912  26.836  24.872  1.00  0.00    -0.206 F 
ATOM     68  C   UNL A   1      50.960  26.022  25.679  1.00  0.00     0.040 A 
ATOM     69  C   UNL A   1      51.240  25.582  28.028  1.00  0.00     0.040 A 
ATOM     70  F   UNL A   1      49.456  25.924  29.512  1.00  0.00    -0.206 F 
ATOM     71  C   UNL A   1      51.760  25.598  26.736  1.00  0.00     0.006 A 
ENDBRANCH  50  64
BRANCH  51  72
ATOM     72  C   UNL A   1      39.636  28.792  29.336  1.00  0.00     0.057 A 
ATOM     73  C   UNL A   1      38.744  29.282  28.376  1.00  0.00     0.134 A 
ATOM     74  C   UNL A   1      39.159  28.648  30.645  1.00  0.00     0.134 A 
ATOM     75  F   UNL A   1      39.147  29.458  27.108  1.00  0.00    -0.206 F 
ATOM     76  C   UNL A   1      37.436  29.638  28.706  1.00  0.00     0.040 A 
ATOM     77  C   UNL A   1      37.845  28.973  30.983  1.00  0.00     0.040 A 
ATOM     78  F   UNL A   1      39.961  28.174  31.610  1.00  0.00    -0.206 F 
ATOM     79  C   UNL A   1      36.980  29.477  30.013  1.00  0.00     0.006 A 
ENDBRANCH  51  72
BRANCH  63  80
ATOM     80  C   UNL A   1      45.567  32.431  29.074  1.00  0.00     0.057 A 
ATOM     81  C   UNL A   1      45.491  33.387  28.054  1.00  0.00     0.134 A 
ATOM     82  C   UNL A   1      45.928  32.880  30.352  1.00  0.00     0.134 A 
ATOM     83  F   UNL A   1      45.163  33.024  26.805  1.00  0.00    -0.206 F 
ATOM     84  C   UNL A   1      45.799  34.730  28.285  1.00  0.00     0.040 A 
ATOM     85  C   UNL A   1      46.206  34.224  30.603  1.00  0.00     0.040 A 
ATOM     86  F   UNL A   1      46.009  32.020  31.379  1.00  0.00    -0.206 F 
ATOM     87  C   UNL A   1      46.152  35.152  29.566  1.00  0.00     0.006 A 
ENDBRANCH  63  80
ENDBRANCH  37  38
ENDBRANCH  29  32
ENDBRANCH  27  28
ENDBRANCH  26  27
ENDBRANCH   1  26
TORSDOF 13
ENDMDL
MODEL 3
REMARK VINA RESULT:     -12.1      1.227      1.965
REMARK SMILES C[NH+]1CCC(NC(=O)N[C@@H]2C=C[C@H](C(=O)NCCCCNC(=O)c3ccc(-c4c5nc(c(-c6c(F)cccc6F)c6ccc([nH]6)c(-c6c(F)cccc6F)c6nc(c(-c7c(F)cccc7F)c7ccc4[nH]7)C=C6)C=C5)cc3)C2)CC1
REMARK SMILES IDX 18 1 17 2 16 3 14 4 15 5 13 7 10 8 11 9 78 10 12 11 9 12
REMARK SMILES IDX 6 13 7 14 8 16 5 18 1 19 2 20 3 21 80 22 4 24 79 25 19 26
REMARK SMILES IDX 20 27 21 28 22 29 23 31 24 32 25 33 77 34 26 35 76 36 27 37
REMARK SMILES IDX 28 38 29 39 70 40 30 41 75 42 69 43 71 44 31 45 74 46 68 47
REMARK SMILES IDX 67 48 32 50 58 51 41 52 57 53 42 54 45 55 56 56 72 57 43 58
REMARK SMILES IDX 44 59 55 61 73 62 46 63 33 64 34 65 39 66 35 67 36 68 38 69
REMARK SMILES IDX 40 70 37 71 59 72 60 73 65 74 61 75 62 76 64 77 66 78 63 79
REMARK SMILES IDX 47 80 48 81 53 82 49 83 50 84 52 85 54 86 51 87
REMARK H PARENT 16 6 6 15 9 17 2 23 21 30 71 49 45 60
REMARK Flexibility Score: inf
ROOT
ATOM      1  C   UNL A   1      37.775  21.068  24.766  1.00  0.00     0.023 C 
ENDROOT
BRANCH   1   2
ATOM      2  C   UNL A   1      36.513  21.251  25.606  1.00  0.00     0.116 C 
BRANCH   2   3
ATOM      3  N   UNL A   1      35.519  20.247  25.282  1.00  0.00    -0.356 N 
ATOM      4  C   UNL A   1      34.274  20.423  24.751  1.00  0.00     0.227 C 
ATOM      5  O   UNL A   1      33.549  19.438  24.616  1.00  0.00    -0.274 OA
ATOM      6  H   UNL A   1      35.776  19.316  25.468  1.00  0.00     0.163 HD
BRANCH   4   7
ATOM      7  C   UNL A   1      33.875  21.820  24.294  1.00  0.00     0.103 C 
ATOM      8  C   UNL A   1      31.978  23.144  25.135  1.00  0.00     0.107 C 
ATOM      9  C   UNL A   1      31.633  22.387  23.895  1.00  0.00    -0.006 C 
ATOM     10  C   UNL A   1      33.408  22.703  25.459  1.00  0.00     0.047 C 
ATOM     11  C   UNL A   1      32.665  21.689  23.419  1.00  0.00    -0.016 C 
BRANCH   8  12
ATOM     12  N   UNL A   1      31.012  22.824  26.157  1.00  0.00    -0.332 N 
ATOM     13  N   UNL A   1      29.797  24.831  26.511  1.00  0.00    -0.335 N 
ATOM     14  C   UNL A   1      30.064  23.540  26.787  1.00  0.00     0.315 C 
ATOM     15  H   UNL A   1      29.076  25.217  27.058  1.00  0.00     0.165 HD
ATOM     16  O   UNL A   1      29.396  22.984  27.662  1.00  0.00    -0.249 OA
ATOM     17  H   UNL A   1      31.054  21.886  26.454  1.00  0.00     0.165 HD
BRANCH  13  18
ATOM     18  C   UNL A   1      30.372  25.756  25.556  1.00  0.00     0.095 C 
ATOM     19  C   UNL A   1      31.828  28.776  23.028  1.00  0.00     0.332 C 
ATOM     20  N   UNL A   1      30.983  28.139  24.043  1.00  0.00    -0.337 N 
ATOM     21  C   UNL A   1      31.811  27.745  25.193  1.00  0.00     0.264 C 
ATOM     22  C   UNL A   1      30.236  27.019  23.447  1.00  0.00     0.264 C 
ATOM     23  H   UNL A   1      30.283  28.796  24.390  1.00  0.00     0.347 HD
ATOM     24  C   UNL A   1      31.024  26.955  26.237  1.00  0.00     0.086 C 
ATOM     25  C   UNL A   1      29.407  26.251  24.487  1.00  0.00     0.086 C 
ENDBRANCH  13  18
ENDBRANCH   8  12
ENDBRANCH   4   7
ENDBRANCH   2   3
ENDBRANCH   1   2
BRANCH   1  26
ATOM     26  C   UNL A   1      38.449  19.702  24.937  1.00  0.00     0.023 C 
BRANCH  26  27
ATOM     27  C   UNL A   1      39.367  19.585  26.148  1.00  0.00     0.116 C 
BRANCH  27  28
ATOM     28  N   UNL A   1      40.656  18.999  25.821  1.00  0.00    -0.352 N 
ATOM     29  C   UNL A   1      41.902  19.574  25.853  1.00  0.00     0.251 C 
ATOM     30  H   UNL A   1      40.632  18.056  25.538  1.00  0.00     0.163 HD
ATOM     31  O   UNL A   1      42.867  18.968  25.406  1.00  0.00    -0.269 OA
BRANCH  29  32
ATOM     32  C   UNL A   1      42.070  20.939  26.397  1.00  0.00     0.039 A 
ATOM     33  C   UNL A   1      41.939  21.128  27.774  1.00  0.00     0.014 A 
ATOM     34  C   UNL A   1      42.352  22.025  25.563  1.00  0.00     0.014 A 
ATOM     35  C   UNL A   1      42.139  22.397  28.319  1.00  0.00     0.010 A 
ATOM     36  C   UNL A   1      42.630  23.272  26.116  1.00  0.00     0.010 A 
ATOM     37  C   UNL A   1      42.516  23.473  27.500  1.00  0.00    -0.014 A 
BRANCH  37  38
ATOM     38  C   UNL A   1      42.791  24.810  28.085  1.00  0.00     0.031 A 
ATOM     39  C   UNL A   1      44.182  25.184  28.519  1.00  0.00     0.074 A 
ATOM     40  C   UNL A   1      41.775  25.676  28.262  1.00  0.00     0.049 A 
ATOM     41  N   UNL A   1      44.611  26.306  29.040  1.00  0.00    -0.248 NA
ATOM     42  C   UNL A   1      45.223  24.155  28.372  1.00  0.00     0.031 C 
ATOM     43  C   UNL A   1      40.371  25.409  27.943  1.00  0.00     0.029 A 
ATOM     44  N   UNL A   1      41.766  26.958  28.752  1.00  0.00    -0.354 N 
ATOM     45  C   UNL A   1      45.963  26.114  29.291  1.00  0.00     0.074 A 
ATOM     46  C   UNL A   1      46.271  24.749  28.922  1.00  0.00     0.031 C 
ATOM     47  C   UNL A   1      39.642  26.502  28.216  1.00  0.00     0.029 A 
ATOM     48  C   UNL A   1      40.518  27.534  28.761  1.00  0.00     0.049 A 
ATOM     49  H   UNL A   1      42.575  27.419  29.068  1.00  0.00     0.167 HD
ATOM     50  C   UNL A   1      46.873  27.000  29.762  1.00  0.00     0.037 A 
ATOM     51  C   UNL A   1      40.125  28.758  29.162  1.00  0.00     0.037 A 
ATOM     52  C   UNL A   1      46.565  28.362  30.115  1.00  0.00     0.049 A 
ATOM     53  C   UNL A   1      41.154  29.728  29.672  1.00  0.00     0.074 A 
ATOM     54  C   UNL A   1      47.426  29.360  30.539  1.00  0.00     0.029 A 
ATOM     55  N   UNL A   1      45.294  28.917  30.093  1.00  0.00    -0.354 N 
ATOM     56  N   UNL A   1      42.446  29.562  29.820  1.00  0.00    -0.248 NA
ATOM     57  C   UNL A   1      40.671  31.061  30.057  1.00  0.00     0.031 C 
ATOM     58  C   UNL A   1      46.669  30.499  30.828  1.00  0.00     0.029 A 
ATOM     59  C   UNL A   1      45.344  30.234  30.523  1.00  0.00     0.049 A 
ATOM     60  H   UNL A   1      44.476  28.444  29.814  1.00  0.00     0.167 HD
ATOM     61  C   UNL A   1      42.934  30.775  30.288  1.00  0.00     0.074 A 
ATOM     62  C   UNL A   1      41.802  31.673  30.380  1.00  0.00     0.031 C 
ATOM     63  C   UNL A   1      44.207  31.116  30.613  1.00  0.00     0.037 A 
BRANCH  50  64
ATOM     64  C   UNL A   1      48.287  26.520  29.928  1.00  0.00     0.057 A 
ATOM     65  C   UNL A   1      49.255  26.703  28.930  1.00  0.00     0.134 A 
ATOM     66  C   UNL A   1      48.695  25.891  31.110  1.00  0.00     0.134 A 
ATOM     67  F   UNL A   1      48.932  27.289  27.767  1.00  0.00    -0.206 F 
ATOM     68  C   UNL A   1      50.567  26.249  29.090  1.00  0.00     0.040 A 
ATOM     69  C   UNL A   1      50.011  25.460  31.294  1.00  0.00     0.040 A 
ATOM     70  F   UNL A   1      47.824  25.689  32.111  1.00  0.00    -0.206 F 
ATOM     71  C   UNL A   1      50.948  25.631  30.278  1.00  0.00     0.006 A 
ENDBRANCH  50  64
BRANCH  51  72
ATOM     72  C   UNL A   1      38.693  29.142  29.074  1.00  0.00     0.057 A 
ATOM     73  C   UNL A   1      37.853  29.074  30.192  1.00  0.00     0.134 A 
ATOM     74  C   UNL A   1      38.130  29.585  27.871  1.00  0.00     0.134 A 
ATOM     75  F   UNL A   1      38.330  28.642  31.369  1.00  0.00    -0.206 F 
ATOM     76  C   UNL A   1      36.501  29.410  30.112  1.00  0.00     0.040 A 
ATOM     77  C   UNL A   1      36.786  29.951  27.784  1.00  0.00     0.040 A 
ATOM     78  F   UNL A   1      38.884  29.682  26.767  1.00  0.00    -0.206 F 
ATOM     79  C   UNL A   1      35.965  29.857  28.906  1.00  0.00     0.006 A 
ENDBRANCH  51  72
BRANCH  63  80
ATOM     80  C   UNL A   1      44.442  32.530  31.063  1.00  0.00     0.057 A 
ATOM     81  C   UNL A   1      44.395  32.899  32.413  1.00  0.00     0.134 A 
ATOM     82  C   UNL A   1      44.736  33.534  30.130  1.00  0.00     0.134 A 
ATOM     83  F   UNL A   1      44.107  31.991  33.358  1.00  0.00    -0.206 F 
ATOM     84  C   UNL A   1      44.595  34.221  32.817  1.00  0.00     0.040 A 
ATOM     85  C   UNL A   1      44.971  34.851  30.524  1.00  0.00     0.040 A 
ATOM     86  F   UNL A   1      44.809  33.248  28.821  1.00  0.00    -0.206 F 
ATOM     87  C   UNL A   1      44.890  35.201  31.870  1.00  0.00     0.006 A 
ENDBRANCH  63  80
ENDBRANCH  37  38
ENDBRANCH  29  32
ENDBRANCH  27  28
ENDBRANCH  26  27
ENDBRANCH   1  26
TORSDOF 13
ENDMDL
