MODEL 1
REMARK VINA RESULT:     -10.5      0.000      0.000
REMARK SMILES [NH3+]CC(=O)N1C[C@H](O)C[C@H]1C(=O)NCCCCNC(=O)c1ccc(-c2c3nc(c(-c4c(F)cccc4F)c4ccc([nH]4)c(-c4c(F)cccc4F)c4nc(c(-c5c(F)cccc5F)c5ccc2[nH]5)C=C4)C=C3)cc1
REMARK SMILES IDX 15 1 14 2 13 3 11 4 12 5 10 7 5 8 6 9 7 10 9 11 3 12 4 13
REMARK SMILES IDX 2 14 1 15 8 19 16 21 17 22 18 23 19 24 20 26 21 27 22 28
REMARK SMILES IDX 74 29 23 30 73 31 24 32 25 33 26 34 67 35 27 36 72 37 66 38
REMARK SMILES IDX 68 39 28 40 71 41 65 42 64 43 29 45 55 46 38 47 54 48 39 49
REMARK SMILES IDX 42 50 53 51 69 52 40 53 41 54 52 56 70 57 43 58 30 59 31 60
REMARK SMILES IDX 36 61 32 62 33 63 35 64 37 65 34 66 56 67 57 68 62 69 58 70
REMARK SMILES IDX 59 71 61 72 63 73 60 74 44 75 45 76 50 77 46 78 47 79 49 80
REMARK SMILES IDX 51 81 48 82
REMARK H PARENT 13 6 1 16 1 17 1 18 8 20 18 25 68 44 42 55
REMARK Flexibility Score: inf
ROOT
ATOM      1  C   UNL A   1      36.182  21.642  24.810  1.00  0.00     0.023 C 
ENDROOT
BRANCH   1   2
ATOM      2  C   UNL A   1      35.209  21.698  25.981  1.00  0.00     0.116 C 
BRANCH   2   3
ATOM      3  N   UNL A   1      34.266  20.604  25.971  1.00  0.00    -0.354 N 
ATOM      4  C   UNL A   1      33.002  20.533  25.466  1.00  0.00     0.242 C 
ATOM      5  O   UNL A   1      32.501  19.405  25.385  1.00  0.00    -0.273 OA
ATOM      6  H   UNL A   1      34.587  19.777  26.398  1.00  0.00     0.163 HD
BRANCH   4   7
ATOM      7  C   UNL A   1      32.307  21.740  24.806  1.00  0.00     0.177 C 
ATOM      8  N   UNL A   1      32.274  23.026  25.514  1.00  0.00    -0.323 N 
ATOM      9  C   UNL A   1      32.689  24.126  24.655  1.00  0.00     0.152 C 
ATOM     10  C   UNL A   1      32.742  23.538  23.248  1.00  0.00     0.136 C 
ATOM     11  C   UNL A   1      32.964  22.045  23.452  1.00  0.00     0.069 C 
BRANCH   8  12
ATOM     12  C   UNL A   1      31.618  23.112  26.727  1.00  0.00     0.278 C 
ATOM     13  O   UNL A   1      32.213  22.889  27.783  1.00  0.00    -0.268 OA
BRANCH  12  14
ATOM     14  C   UNL A   1      30.115  23.428  26.747  1.00  0.00     0.360 C 
BRANCH  14  15
ATOM     15  N   UNL A   1      29.277  22.267  27.064  1.00  0.00    -0.350 N 
ATOM     16  H   UNL A   1      29.618  21.453  26.552  1.00  0.00     0.344 HD
ATOM     17  H   UNL A   1      28.313  22.460  26.793  1.00  0.00     0.344 HD
ATOM     18  H   UNL A   1      29.319  22.082  28.066  1.00  0.00     0.344 HD
ENDBRANCH  14  15
ENDBRANCH  12  14
ENDBRANCH   8  12
BRANCH  10  19
ATOM     19  O   UNL A   1      31.514  23.762  22.564  1.00  0.00    -0.391 OA
ATOM     20  H   UNL A   1      30.905  24.247  23.143  1.00  0.00     0.211 HD
ENDBRANCH  10  19
ENDBRANCH   4   7
ENDBRANCH   2   3
ENDBRANCH   1   2
BRANCH   1  21
ATOM     21  C   UNL A   1      37.201  20.504  24.881  1.00  0.00     0.023 C 
BRANCH  21  22
ATOM     22  C   UNL A   1      38.479  20.812  25.653  1.00  0.00     0.116 C 
BRANCH  22  23
ATOM     23  N   UNL A   1      39.457  19.735  25.602  1.00  0.00    -0.352 N 
ATOM     24  C   UNL A   1      40.783  19.764  25.964  1.00  0.00     0.251 C 
ATOM     25  H   UNL A   1      39.125  18.872  25.265  1.00  0.00     0.163 HD
ATOM     26  O   UNL A   1      41.506  18.794  25.760  1.00  0.00    -0.269 OA
BRANCH  24  27
ATOM     27  C   UNL A   1      41.339  20.991  26.570  1.00  0.00     0.039 A 
ATOM     28  C   UNL A   1      41.846  21.990  25.737  1.00  0.00     0.014 A 
ATOM     29  C   UNL A   1      41.318  21.165  27.957  1.00  0.00     0.014 A 
ATOM     30  C   UNL A   1      42.271  23.200  26.291  1.00  0.00     0.010 A 
ATOM     31  C   UNL A   1      41.675  22.394  28.499  1.00  0.00     0.010 A 
ATOM     32  C   UNL A   1      42.156  23.423  27.673  1.00  0.00    -0.014 A 
BRANCH  32  33
ATOM     33  C   UNL A   1      42.549  24.714  28.291  1.00  0.00     0.031 A 
ATOM     34  C   UNL A   1      41.515  25.787  28.488  1.00  0.00     0.074 A 
ATOM     35  C   UNL A   1      43.841  24.956  28.588  1.00  0.00     0.049 A 
ATOM     36  N   UNL A   1      41.671  27.029  28.870  1.00  0.00    -0.248 NA
ATOM     37  C   UNL A   1      40.122  25.421  28.181  1.00  0.00     0.031 C 
ATOM     38  C   UNL A   1      44.945  24.011  28.410  1.00  0.00     0.029 A 
ATOM     39  N   UNL A   1      44.447  26.084  29.083  1.00  0.00    -0.354 N 
ATOM     40  C   UNL A   1      40.404  27.597  28.822  1.00  0.00     0.074 A 
ATOM     41  C   UNL A   1      39.500  26.581  28.331  1.00  0.00     0.031 C 
ATOM     42  C   UNL A   1      46.089  24.595  28.801  1.00  0.00     0.029 A 
ATOM     43  C   UNL A   1      45.809  25.965  29.216  1.00  0.00     0.049 A 
ATOM     44  H   UNL A   1      43.952  26.901  29.319  1.00  0.00     0.167 HD
ATOM     45  C   UNL A   1      40.026  28.848  29.175  1.00  0.00     0.037 A 
ATOM     46  C   UNL A   1      46.729  26.866  29.612  1.00  0.00     0.037 A 
ATOM     47  C   UNL A   1      40.922  29.845  29.698  1.00  0.00     0.049 A 
ATOM     48  C   UNL A   1      46.283  28.250  30.000  1.00  0.00     0.074 A 
ATOM     49  C   UNL A   1      40.628  31.124  30.135  1.00  0.00     0.029 A 
ATOM     50  N   UNL A   1      42.289  29.671  29.854  1.00  0.00    -0.354 N 
ATOM     51  N   UNL A   1      45.075  28.760  30.000  1.00  0.00    -0.248 NA
ATOM     52  C   UNL A   1      47.327  29.182  30.449  1.00  0.00     0.031 C 
ATOM     53  C   UNL A   1      41.823  31.738  30.525  1.00  0.00     0.029 A 
ATOM     54  C   UNL A   1      42.854  30.824  30.373  1.00  0.00     0.049 A 
ATOM     55  H   UNL A   1      42.784  28.850  29.631  1.00  0.00     0.167 HD
ATOM     56  C   UNL A   1      45.208  30.056  30.483  1.00  0.00     0.074 A 
ATOM     57  C   UNL A   1      46.614  30.254  30.768  1.00  0.00     0.031 C 
ATOM     58  C   UNL A   1      44.250  30.993  30.677  1.00  0.00     0.037 A 
BRANCH  45  59
ATOM     59  C   UNL A   1      38.578  29.205  29.010  1.00  0.00     0.057 A 
ATOM     60  C   UNL A   1      37.679  29.162  30.085  1.00  0.00     0.134 A 
ATOM     61  C   UNL A   1      38.082  29.623  27.769  1.00  0.00     0.134 A 
ATOM     62  F   UNL A   1      38.087  28.757  31.297  1.00  0.00    -0.206 F 
ATOM     63  C   UNL A   1      36.333  29.492  29.923  1.00  0.00     0.040 A 
ATOM     64  C   UNL A   1      36.744  29.983  27.602  1.00  0.00     0.040 A 
ATOM     65  F   UNL A   1      38.889  29.692  26.700  1.00  0.00    -0.206 F 
ATOM     66  C   UNL A   1      35.863  29.911  28.680  1.00  0.00     0.006 A 
ENDBRANCH  45  59
BRANCH  46  67
ATOM     67  C   UNL A   1      48.162  26.485  29.684  1.00  0.00     0.057 A 
ATOM     68  C   UNL A   1      48.676  25.829  30.808  1.00  0.00     0.134 A 
ATOM     69  C   UNL A   1      49.051  26.773  28.642  1.00  0.00     0.134 A 
ATOM     70  F   UNL A   1      47.877  25.542  31.846  1.00  0.00    -0.206 F 
ATOM     71  C   UNL A   1      50.027  25.489  30.903  1.00  0.00     0.040 A 
ATOM     72  C   UNL A   1      50.399  26.418  28.714  1.00  0.00     0.040 A 
ATOM     73  F   UNL A   1      48.619  27.394  27.534  1.00  0.00    -0.206 F 
ATOM     74  C   UNL A   1      50.892  25.781  29.850  1.00  0.00     0.006 A 
ENDBRANCH  46  67
BRANCH  58  75
ATOM     75  C   UNL A   1      44.673  32.300  31.282  1.00  0.00     0.057 A 
ATOM     76  C   UNL A   1      44.718  32.498  32.667  1.00  0.00     0.134 A 
ATOM     77  C   UNL A   1      45.105  33.350  30.461  1.00  0.00     0.134 A 
ATOM     78  F   UNL A   1      44.306  31.535  33.505  1.00  0.00    -0.206 F 
ATOM     79  C   UNL A   1      45.166  33.701  33.215  1.00  0.00     0.040 A 
ATOM     80  C   UNL A   1      45.578  34.548  30.997  1.00  0.00     0.040 A 
ATOM     81  F   UNL A   1      45.095  33.220  29.126  1.00  0.00    -0.206 F 
ATOM     82  C   UNL A   1      45.607  34.727  32.379  1.00  0.00     0.006 A 
ENDBRANCH  58  75
ENDBRANCH  32  33
ENDBRANCH  24  27
ENDBRANCH  22  23
ENDBRANCH  21  22
ENDBRANCH   1  21
TORSDOF 15
ENDMDL
MODEL 2
REMARK VINA RESULT:     -10.5      4.867      9.643
REMARK SMILES [NH3+]CC(=O)N1C[C@H](O)C[C@H]1C(=O)NCCCCNC(=O)c1ccc(-c2c3nc(c(-c4c(F)cccc4F)c4ccc([nH]4)c(-c4c(F)cccc4F)c4nc(c(-c5c(F)cccc5F)c5ccc2[nH]5)C=C4)C=C3)cc1
REMARK SMILES IDX 15 1 14 2 13 3 11 4 12 5 10 7 5 8 6 9 7 10 9 11 3 12 4 13
REMARK SMILES IDX 2 14 1 15 8 19 16 21 17 22 18 23 19 24 20 26 21 27 22 28
REMARK SMILES IDX 74 29 23 30 73 31 24 32 25 33 26 34 67 35 27 36 72 37 66 38
REMARK SMILES IDX 68 39 28 40 71 41 65 42 64 43 29 45 55 46 38 47 54 48 39 49
REMARK SMILES IDX 42 50 53 51 69 52 40 53 41 54 52 56 70 57 43 58 30 59 31 60
REMARK SMILES IDX 36 61 32 62 33 63 35 64 37 65 34 66 56 67 57 68 62 69 58 70
REMARK SMILES IDX 59 71 61 72 63 73 60 74 44 75 45 76 50 77 46 78 47 79 49 80
REMARK SMILES IDX 51 81 48 82
REMARK H PARENT 13 6 1 16 1 17 1 18 8 20 18 25 68 44 42 55
REMARK Flexibility Score: inf
ROOT
ATOM      1  C   UNL A   1      31.954  30.306  26.650  1.00  0.00     0.023 C 
ENDROOT
BRANCH   1   2
ATOM      2  C   UNL A   1      31.672  29.730  25.269  1.00  0.00     0.116 C 
BRANCH   2   3
ATOM      3  N   UNL A   1      32.854  29.668  24.442  1.00  0.00    -0.354 N 
ATOM      4  C   UNL A   1      33.576  28.594  24.015  1.00  0.00     0.242 C 
ATOM      5  O   UNL A   1      34.409  28.806  23.125  1.00  0.00    -0.273 OA
ATOM      6  H   UNL A   1      33.194  30.541  24.140  1.00  0.00     0.163 HD
BRANCH   4   7
ATOM      7  C   UNL A   1      33.231  27.149  24.426  1.00  0.00     0.177 C 
ATOM      8  N   UNL A   1      33.568  26.044  23.520  1.00  0.00    -0.323 N 
ATOM      9  C   UNL A   1      34.256  24.966  24.215  1.00  0.00     0.152 C 
ATOM     10  C   UNL A   1      34.121  25.295  25.699  1.00  0.00     0.136 C 
ATOM     11  C   UNL A   1      33.923  26.804  25.752  1.00  0.00     0.069 C 
BRANCH   8  12
ATOM     12  C   UNL A   1      32.983  25.994  22.269  1.00  0.00     0.278 C 
ATOM     13  O   UNL A   1      33.651  26.188  21.252  1.00  0.00    -0.268 OA
BRANCH  12  14
ATOM     14  C   UNL A   1      31.469  25.756  22.158  1.00  0.00     0.360 C 
BRANCH  14  15
ATOM     15  N   UNL A   1      31.032  24.486  22.747  1.00  0.00    -0.350 N 
ATOM     16  H   UNL A   1      31.779  23.797  22.659  1.00  0.00     0.344 HD
ATOM     17  H   UNL A   1      30.203  24.153  22.257  1.00  0.00     0.344 HD
ATOM     18  H   UNL A   1      30.812  24.627  23.732  1.00  0.00     0.344 HD
ENDBRANCH  14  15
ENDBRANCH  12  14
ENDBRANCH   8  12
BRANCH  10  19
ATOM     19  O   UNL A   1      32.991  24.633  26.258  1.00  0.00    -0.391 OA
ATOM     20  H   UNL A   1      33.139  23.675  26.248  1.00  0.00     0.211 HD
ENDBRANCH  10  19
ENDBRANCH   4   7
ENDBRANCH   2   3
ENDBRANCH   1   2
BRANCH   1  21
ATOM     21  C   UNL A   1      31.672  31.803  26.788  1.00  0.00     0.023 C 
BRANCH  21  22
ATOM     22  C   UNL A   1      32.842  32.651  27.273  1.00  0.00     0.116 C 
BRANCH  22  23
ATOM     23  N   UNL A   1      32.467  34.021  27.593  1.00  0.00    -0.352 N 
ATOM     24  C   UNL A   1      33.020  34.865  28.528  1.00  0.00     0.251 C 
ATOM     25  H   UNL A   1      31.720  34.393  27.072  1.00  0.00     0.163 HD
ATOM     26  O   UNL A   1      32.518  35.962  28.752  1.00  0.00    -0.269 OA
BRANCH  24  27
ATOM     27  C   UNL A   1      34.208  34.422  29.286  1.00  0.00     0.039 A 
ATOM     28  C   UNL A   1      34.030  33.799  30.523  1.00  0.00     0.014 A 
ATOM     29  C   UNL A   1      35.489  34.588  28.753  1.00  0.00     0.014 A 
ATOM     30  C   UNL A   1      35.135  33.277  31.198  1.00  0.00     0.010 A 
ATOM     31  C   UNL A   1      36.578  34.005  29.390  1.00  0.00     0.010 A 
ATOM     32  C   UNL A   1      36.413  33.345  30.619  1.00  0.00    -0.014 A 
BRANCH  32  33
ATOM     33  C   UNL A   1      37.604  32.756  31.281  1.00  0.00     0.031 A 
ATOM     34  C   UNL A   1      38.288  31.572  30.660  1.00  0.00     0.074 A 
ATOM     35  C   UNL A   1      38.011  33.222  32.479  1.00  0.00     0.049 A 
ATOM     36  N   UNL A   1      39.244  30.819  31.140  1.00  0.00    -0.248 NA
ATOM     37  C   UNL A   1      37.808  31.159  29.330  1.00  0.00     0.031 C 
ATOM     38  C   UNL A   1      37.409  34.341  33.204  1.00  0.00     0.029 A 
ATOM     39  N   UNL A   1      39.018  32.793  33.307  1.00  0.00    -0.354 N 
ATOM     40  C   UNL A   1      39.459  29.831  30.187  1.00  0.00     0.074 A 
ATOM     41  C   UNL A   1      38.504  30.052  29.124  1.00  0.00     0.031 C 
ATOM     42  C   UNL A   1      38.065  34.518  34.363  1.00  0.00     0.029 A 
ATOM     43  C   UNL A   1      39.104  33.500  34.482  1.00  0.00     0.049 A 
ATOM     44  H   UNL A   1      39.621  32.049  33.081  1.00  0.00     0.167 HD
ATOM     45  C   UNL A   1      40.382  28.841  30.190  1.00  0.00     0.037 A 
ATOM     46  C   UNL A   1      39.919  33.335  35.542  1.00  0.00     0.037 A 
ATOM     47  C   UNL A   1      41.354  28.648  31.233  1.00  0.00     0.049 A 
ATOM     48  C   UNL A   1      40.938  32.228  35.520  1.00  0.00     0.074 A 
ATOM     49  C   UNL A   1      42.367  27.708  31.304  1.00  0.00     0.029 A 
ATOM     50  N   UNL A   1      41.434  29.411  32.388  1.00  0.00    -0.354 N 
ATOM     51  N   UNL A   1      41.166  31.332  34.591  1.00  0.00    -0.248 NA
ATOM     52  C   UNL A   1      41.818  32.112  36.693  1.00  0.00     0.031 C 
ATOM     53  C   UNL A   1      43.038  27.879  32.518  1.00  0.00     0.029 A 
ATOM     54  C   UNL A   1      42.473  28.957  33.182  1.00  0.00     0.049 A 
ATOM     55  H   UNL A   1      40.840  30.165  32.610  1.00  0.00     0.167 HD
ATOM     56  C   UNL A   1      42.236  30.573  35.047  1.00  0.00     0.074 A 
ATOM     57  C   UNL A   1      42.614  31.114  36.336  1.00  0.00     0.031 C 
ATOM     58  C   UNL A   1      42.853  29.526  34.449  1.00  0.00     0.037 A 
BRANCH  45  59
ATOM     59  C   UNL A   1      40.386  27.896  29.025  1.00  0.00     0.057 A 
ATOM     60  C   UNL A   1      41.144  28.145  27.873  1.00  0.00     0.134 A 
ATOM     61  C   UNL A   1      39.644  26.709  29.066  1.00  0.00     0.134 A 
ATOM     62  F   UNL A   1      41.866  29.271  27.764  1.00  0.00    -0.206 F 
ATOM     63  C   UNL A   1      41.140  27.262  26.793  1.00  0.00     0.040 A 
ATOM     64  C   UNL A   1      39.655  25.805  28.003  1.00  0.00     0.040 A 
ATOM     65  F   UNL A   1      38.901  26.406  30.141  1.00  0.00    -0.206 F 
ATOM     66  C   UNL A   1      40.399  26.084  26.859  1.00  0.00     0.006 A 
ENDBRANCH  45  59
BRANCH  46  67
ATOM     67  C   UNL A   1      39.823  34.252  36.705  1.00  0.00     0.057 A 
ATOM     68  C   UNL A   1      39.025  33.932  37.809  1.00  0.00     0.134 A 
ATOM     69  C   UNL A   1      40.513  35.469  36.739  1.00  0.00     0.134 A 
ATOM     70  F   UNL A   1      38.325  32.787  37.827  1.00  0.00    -0.206 F 
ATOM     71  C   UNL A   1      38.901  34.796  38.899  1.00  0.00     0.040 A 
ATOM     72  C   UNL A   1      40.416  36.333  37.832  1.00  0.00     0.040 A 
ATOM     73  F   UNL A   1      41.300  35.831  35.715  1.00  0.00    -0.206 F 
ATOM     74  C   UNL A   1      39.603  36.000  38.913  1.00  0.00     0.006 A 
ENDBRANCH  46  67
BRANCH  58  75
ATOM     75  C   UNL A   1      44.040  28.930  35.146  1.00  0.00     0.057 A 
ATOM     76  C   UNL A   1      43.913  27.884  36.067  1.00  0.00     0.134 A 
ATOM     77  C   UNL A   1      45.334  29.369  34.836  1.00  0.00     0.134 A 
ATOM     78  F   UNL A   1      42.701  27.427  36.415  1.00  0.00    -0.206 F 
ATOM     79  C   UNL A   1      45.033  27.303  36.666  1.00  0.00     0.040 A 
ATOM     80  C   UNL A   1      46.461  28.781  35.409  1.00  0.00     0.040 A 
ATOM     81  F   UNL A   1      45.523  30.363  33.955  1.00  0.00    -0.206 F 
ATOM     82  C   UNL A   1      46.312  27.746  36.330  1.00  0.00     0.006 A 
ENDBRANCH  58  75
ENDBRANCH  32  33
ENDBRANCH  24  27
ENDBRANCH  22  23
ENDBRANCH  21  22
ENDBRANCH   1  21
TORSDOF 15
ENDMDL
MODEL 3
REMARK VINA RESULT:     -10.5      1.239      6.797
REMARK SMILES [NH3+]CC(=O)N1C[C@H](O)C[C@H]1C(=O)NCCCCNC(=O)c1ccc(-c2c3nc(c(-c4c(F)cccc4F)c4ccc([nH]4)c(-c4c(F)cccc4F)c4nc(c(-c5c(F)cccc5F)c5ccc2[nH]5)C=C4)C=C3)cc1
REMARK SMILES IDX 15 1 14 2 13 3 11 4 12 5 10 7 5 8 6 9 7 10 9 11 3 12 4 13
REMARK SMILES IDX 2 14 1 15 8 19 16 21 17 22 18 23 19 24 20 26 21 27 22 28
REMARK SMILES IDX 74 29 23 30 73 31 24 32 25 33 26 34 67 35 27 36 72 37 66 38
REMARK SMILES IDX 68 39 28 40 71 41 65 42 64 43 29 45 55 46 38 47 54 48 39 49
REMARK SMILES IDX 42 50 53 51 69 52 40 53 41 54 52 56 70 57 43 58 30 59 31 60
REMARK SMILES IDX 36 61 32 62 33 63 35 64 37 65 34 66 56 67 57 68 62 69 58 70
REMARK SMILES IDX 59 71 61 72 63 73 60 74 44 75 45 76 50 77 46 78 47 79 49 80
REMARK SMILES IDX 51 81 48 82
REMARK H PARENT 13 6 1 16 1 17 1 18 8 20 18 25 68 44 42 55
REMARK Flexibility Score: inf
ROOT
ATOM      1  C   UNL A   1      38.935  22.550  26.110  1.00  0.00     0.023 C 
ENDROOT
BRANCH   1   2
ATOM      2  C   UNL A   1      37.630  23.293  25.852  1.00  0.00     0.116 C 
BRANCH   2   3
ATOM      3  N   UNL A   1      37.220  23.228  24.469  1.00  0.00    -0.354 N 
ATOM      4  C   UNL A   1      36.062  22.775  23.912  1.00  0.00     0.242 C 
ATOM      5  O   UNL A   1      35.876  23.048  22.720  1.00  0.00    -0.273 OA
ATOM      6  H   UNL A   1      37.884  23.565  23.824  1.00  0.00     0.163 HD
BRANCH   4   7
ATOM      7  C   UNL A   1      34.925  22.163  24.754  1.00  0.00     0.177 C 
ATOM      8  N   UNL A   1      33.538  22.286  24.286  1.00  0.00    -0.323 N 
ATOM      9  C   UNL A   1      32.841  21.008  24.323  1.00  0.00     0.152 C 
ATOM     10  C   UNL A   1      33.761  20.071  25.100  1.00  0.00     0.136 C 
ATOM     11  C   UNL A   1      35.156  20.655  24.927  1.00  0.00     0.069 C 
BRANCH   8  12
ATOM     12  C   UNL A   1      32.978  23.542  24.157  1.00  0.00     0.278 C 
ATOM     13  O   UNL A   1      33.036  24.356  25.080  1.00  0.00    -0.268 OA
BRANCH  12  14
ATOM     14  C   UNL A   1      32.223  23.897  22.868  1.00  0.00     0.360 C 
BRANCH  14  15
ATOM     15  N   UNL A   1      32.978  23.602  21.646  1.00  0.00    -0.350 N 
ATOM     16  H   UNL A   1      33.884  24.069  21.686  1.00  0.00     0.344 HD
ATOM     17  H   UNL A   1      32.458  23.937  20.836  1.00  0.00     0.344 HD
ATOM     18  H   UNL A   1      33.118  22.595  21.569  1.00  0.00     0.344 HD
ENDBRANCH  14  15
ENDBRANCH  12  14
ENDBRANCH   8  12
BRANCH  10  19
ATOM     19  O   UNL A   1      33.406  20.050  26.479  1.00  0.00    -0.391 OA
ATOM     20  H   UNL A   1      32.458  19.863  26.567  1.00  0.00     0.211 HD
ENDBRANCH  10  19
ENDBRANCH   4   7
ENDBRANCH   2   3
ENDBRANCH   1   2
BRANCH   1  21
ATOM     21  C   UNL A   1      39.011  21.157  25.485  1.00  0.00     0.023 C 
BRANCH  21  22
ATOM     22  C   UNL A   1      39.414  20.033  26.433  1.00  0.00     0.116 C 
BRANCH  22  23
ATOM     23  N   UNL A   1      40.559  19.266  25.964  1.00  0.00    -0.352 N 
ATOM     24  C   UNL A   1      41.878  19.649  25.897  1.00  0.00     0.251 C 
ATOM     25  H   UNL A   1      40.364  18.352  25.654  1.00  0.00     0.163 HD
ATOM     26  O   UNL A   1      42.714  18.919  25.374  1.00  0.00    -0.269 OA
BRANCH  24  27
ATOM     27  C   UNL A   1      42.274  20.968  26.433  1.00  0.00     0.039 A 
ATOM     28  C   UNL A   1      42.646  21.977  25.542  1.00  0.00     0.014 A 
ATOM     29  C   UNL A   1      42.236  21.212  27.808  1.00  0.00     0.014 A 
ATOM     30  C   UNL A   1      42.914  23.259  26.027  1.00  0.00     0.010 A 
ATOM     31  C   UNL A   1      42.434  22.504  28.280  1.00  0.00     0.010 A 
ATOM     32  C   UNL A   1      42.776  23.540  27.396  1.00  0.00    -0.014 A 
BRANCH  32  33
ATOM     33  C   UNL A   1      43.002  24.902  27.941  1.00  0.00     0.031 A 
ATOM     34  C   UNL A   1      44.374  25.293  28.415  1.00  0.00     0.074 A 
ATOM     35  C   UNL A   1      41.966  25.750  28.096  1.00  0.00     0.049 A 
ATOM     36  N   UNL A   1      44.756  26.368  29.053  1.00  0.00    -0.248 NA
ATOM     37  C   UNL A   1      45.455  24.324  28.165  1.00  0.00     0.031 C 
ATOM     38  C   UNL A   1      40.581  25.477  27.709  1.00  0.00     0.029 A 
ATOM     39  N   UNL A   1      41.917  27.008  28.641  1.00  0.00    -0.354 N 
ATOM     40  C   UNL A   1      46.112  26.194  29.304  1.00  0.00     0.074 A 
ATOM     41  C   UNL A   1      46.475  24.891  28.792  1.00  0.00     0.031 C 
ATOM     42  C   UNL A   1      39.821  26.540  28.020  1.00  0.00     0.029 A 
ATOM     43  C   UNL A   1      40.655  27.551  28.663  1.00  0.00     0.049 A 
ATOM     44  H   UNL A   1      42.711  27.478  28.984  1.00  0.00     0.167 HD
ATOM     45  C   UNL A   1      46.979  27.051  29.892  1.00  0.00     0.037 A 
ATOM     46  C   UNL A   1      40.218  28.724  29.162  1.00  0.00     0.037 A 
ATOM     47  C   UNL A   1      46.621  28.361  30.367  1.00  0.00     0.049 A 
ATOM     48  C   UNL A   1      41.201  29.660  29.809  1.00  0.00     0.074 A 
ATOM     49  C   UNL A   1      47.438  29.327  30.928  1.00  0.00     0.029 A 
ATOM     50  N   UNL A   1      45.339  28.888  30.335  1.00  0.00    -0.354 N 
ATOM     51  N   UNL A   1      42.490  29.505  29.995  1.00  0.00    -0.248 NA
ATOM     52  C   UNL A   1      40.672  30.936  30.311  1.00  0.00     0.031 C 
ATOM     53  C   UNL A   1      46.644  30.426  31.268  1.00  0.00     0.029 A 
ATOM     54  C   UNL A   1      45.341  30.163  30.876  1.00  0.00     0.049 A 
ATOM     55  H   UNL A   1      44.546  28.426  29.980  1.00  0.00     0.167 HD
ATOM     56  C   UNL A   1      42.931  30.677  30.598  1.00  0.00     0.074 A 
ATOM     57  C   UNL A   1      41.773  31.533  30.747  1.00  0.00     0.031 C 
ATOM     58  C   UNL A   1      44.184  31.012  30.989  1.00  0.00     0.037 A 
BRANCH  45  59
ATOM     59  C   UNL A   1      48.401  26.598  30.048  1.00  0.00     0.057 A 
ATOM     60  C   UNL A   1      48.820  25.844  31.152  1.00  0.00     0.134 A 
ATOM     61  C   UNL A   1      49.357  26.897  29.068  1.00  0.00     0.134 A 
ATOM     62  F   UNL A   1      47.957  25.536  32.132  1.00  0.00    -0.206 F 
ATOM     63  C   UNL A   1      50.145  25.429  31.291  1.00  0.00     0.040 A 
ATOM     64  C   UNL A   1      50.678  26.462  29.183  1.00  0.00     0.040 A 
ATOM     65  F   UNL A   1      49.022  27.610  27.984  1.00  0.00    -0.206 F 
ATOM     66  C   UNL A   1      51.077  25.731  30.301  1.00  0.00     0.006 A 
ENDBRANCH  45  59
BRANCH  46  67
ATOM     67  C   UNL A   1      38.784  29.091  29.051  1.00  0.00     0.057 A 
ATOM     68  C   UNL A   1      38.250  29.548  27.841  1.00  0.00     0.134 A 
ATOM     69  C   UNL A   1      37.917  29.006  30.146  1.00  0.00     0.134 A 
ATOM     70  F   UNL A   1      39.035  29.668  26.759  1.00  0.00    -0.206 F 
ATOM     71  C   UNL A   1      36.911  29.925  27.727  1.00  0.00     0.040 A 
ATOM     72  C   UNL A   1      36.570  29.358  30.041  1.00  0.00     0.040 A 
ATOM     73  F   UNL A   1      38.366  28.569  31.333  1.00  0.00    -0.206 F 
ATOM     74  C   UNL A   1      36.065  29.826  28.830  1.00  0.00     0.006 A 
ENDBRANCH  46  67
BRANCH  58  75
ATOM     75  C   UNL A   1      44.387  32.385  31.558  1.00  0.00     0.057 A 
ATOM     76  C   UNL A   1      44.662  33.493  30.748  1.00  0.00     0.134 A 
ATOM     77  C   UNL A   1      44.238  32.608  32.934  1.00  0.00     0.134 A 
ATOM     78  F   UNL A   1      44.828  33.343  29.425  1.00  0.00    -0.206 F 
ATOM     79  C   UNL A   1      44.794  34.774  31.288  1.00  0.00     0.040 A 
ATOM     80  C   UNL A   1      44.343  33.886  33.481  1.00  0.00     0.040 A 
ATOM     81  F   UNL A   1      43.966  31.590  33.763  1.00  0.00    -0.206 F 
ATOM     82  C   UNL A   1      44.624  34.974  32.657  1.00  0.00     0.006 A 
ENDBRANCH  58  75
ENDBRANCH  32  33
ENDBRANCH  24  27
ENDBRANCH  22  23
ENDBRANCH  21  22
ENDBRANCH   1  21
TORSDOF 15
ENDMDL
