MODEL 1
REMARK VINA RESULT:      -9.7      0.000      0.000
REMARK SMILES CC(C)(C)SSC[C@H]([NH3+])C(=O)NCCCCNC(=O)c1ccc(-c2c3nc(c(-c4c(F)cccc4F)c4ccc([nH]4)c(-c4c(F)cccc4F)c4nc(c(-c5c(F)cccc5F)c5ccc2[nH]5)C=C4)C=C3)cc1
REMARK SMILES IDX 13 1 12 2 10 3 11 4 8 6 7 7 6 8 5 9 2 10 1 11 3 12 4 13 9 14
REMARK SMILES IDX 14 18 15 19 16 20 17 21 18 22 19 24 20 25 21 26 73 27 22 28
REMARK SMILES IDX 72 29 23 30 24 31 25 32 66 33 26 34 71 35 65 36 67 37 27 38
REMARK SMILES IDX 70 39 64 40 63 41 28 43 54 44 37 45 53 46 38 47 41 48 52 49
REMARK SMILES IDX 68 50 39 51 40 52 51 54 69 55 42 56 29 57 30 58 35 59 31 60
REMARK SMILES IDX 32 61 34 62 36 63 33 64 55 65 56 66 61 67 57 68 58 69 60 70
REMARK SMILES IDX 62 71 59 72 43 73 44 74 49 75 45 76 46 77 48 78 50 79 47 80
REMARK H PARENT 12 5 9 15 9 16 9 17 17 23 67 42 41 53
REMARK Flexibility Score: inf
ROOT
ATOM      1  C   UNL A   1      35.616  22.913  23.630  1.00  0.00     0.116 C 
ENDROOT
BRANCH   1   2
ATOM      2  N   UNL A   1      34.764  23.748  24.448  1.00  0.00    -0.351 N 
ATOM      3  C   UNL A   1      34.171  23.460  25.641  1.00  0.00     0.279 C 
ATOM      4  O   UNL A   1      33.499  24.348  26.175  1.00  0.00    -0.268 OA
ATOM      5  H   UNL A   1      34.589  24.650  24.094  1.00  0.00     0.163 HD
BRANCH   3   6
ATOM      6  C   UNL A   1      34.330  22.083  26.322  1.00  0.00     0.281 C 
BRANCH   6   7
ATOM      7  C   UNL A   1      33.150  21.140  25.994  1.00  0.00     0.157 C 
BRANCH   7   8
ATOM      8  S   UNL A   1      33.069  20.185  24.419  1.00  0.00    -0.087 SA
BRANCH   8   9
ATOM      9  S   UNL A   1      32.672  18.243  24.966  1.00  0.00    -0.088 SA
BRANCH   9  10
ATOM     10  C   UNL A   1      34.140  17.238  24.411  1.00  0.00     0.018 C 
ATOM     11  C   UNL A   1      35.360  18.167  24.536  1.00  0.00     0.023 C 
ATOM     12  C   UNL A   1      33.991  16.807  22.946  1.00  0.00     0.023 C 
ATOM     13  C   UNL A   1      34.359  16.009  25.297  1.00  0.00     0.023 C 
ENDBRANCH   9  10
ENDBRANCH   8   9
ENDBRANCH   7   8
ENDBRANCH   6   7
BRANCH   6  14
ATOM     14  N   UNL A   1      34.734  22.254  27.728  1.00  0.00    -0.347 N 
ATOM     15  H   UNL A   1      35.387  21.515  27.985  1.00  0.00     0.345 HD
ATOM     16  H   UNL A   1      33.910  22.203  28.326  1.00  0.00     0.345 HD
ATOM     17  H   UNL A   1      35.184  23.162  27.844  1.00  0.00     0.345 HD
ENDBRANCH   6  14
ENDBRANCH   3   6
ENDBRANCH   1   2
BRANCH   1  18
ATOM     18  C   UNL A   1      37.028  22.768  24.185  1.00  0.00     0.023 C 
BRANCH  18  19
ATOM     19  C   UNL A   1      37.433  21.346  24.566  1.00  0.00     0.023 C 
BRANCH  19  20
ATOM     20  C   UNL A   1      38.441  21.229  25.705  1.00  0.00     0.116 C 
BRANCH  20  21
ATOM     21  N   UNL A   1      39.302  20.060  25.602  1.00  0.00    -0.352 N 
ATOM     22  C   UNL A   1      40.626  19.924  25.951  1.00  0.00     0.251 C 
ATOM     23  H   UNL A   1      38.878  19.253  25.232  1.00  0.00     0.163 HD
ATOM     24  O   UNL A   1      41.231  18.884  25.712  1.00  0.00    -0.269 OA
BRANCH  22  25
ATOM     25  C   UNL A   1      41.331  21.062  26.574  1.00  0.00     0.039 A 
ATOM     26  C   UNL A   1      41.956  22.000  25.747  1.00  0.00     0.014 A 
ATOM     27  C   UNL A   1      41.320  21.236  27.960  1.00  0.00     0.014 A 
ATOM     28  C   UNL A   1      42.477  23.170  26.304  1.00  0.00     0.010 A 
ATOM     29  C   UNL A   1      41.781  22.430  28.505  1.00  0.00     0.010 A 
ATOM     30  C   UNL A   1      42.342  23.418  27.679  1.00  0.00    -0.014 A 
BRANCH  30  31
ATOM     31  C   UNL A   1      42.722  24.723  28.275  1.00  0.00     0.031 A 
ATOM     32  C   UNL A   1      41.686  25.788  28.487  1.00  0.00     0.074 A 
ATOM     33  C   UNL A   1      44.022  24.988  28.511  1.00  0.00     0.049 A 
ATOM     34  N   UNL A   1      41.845  27.034  28.849  1.00  0.00    -0.248 NA
ATOM     35  C   UNL A   1      40.287  25.409  28.230  1.00  0.00     0.031 C 
ATOM     36  C   UNL A   1      45.132  24.057  28.294  1.00  0.00     0.029 A 
ATOM     37  N   UNL A   1      44.636  26.134  28.957  1.00  0.00    -0.354 N 
ATOM     38  C   UNL A   1      40.576  27.596  28.834  1.00  0.00     0.074 A 
ATOM     39  C   UNL A   1      39.659  26.563  28.402  1.00  0.00     0.031 C 
ATOM     40  C   UNL A   1      46.288  24.668  28.604  1.00  0.00     0.029 A 
ATOM     41  C   UNL A   1      46.006  26.043  29.003  1.00  0.00     0.049 A 
ATOM     42  H   UNL A   1      44.140  26.943  29.220  1.00  0.00     0.167 HD
ATOM     43  C   UNL A   1      40.210  28.857  29.163  1.00  0.00     0.037 A 
ATOM     44  C   UNL A   1      46.935  26.970  29.306  1.00  0.00     0.037 A 
ATOM     45  C   UNL A   1      41.116  29.869  29.638  1.00  0.00     0.049 A 
ATOM     46  C   UNL A   1      46.497  28.360  29.674  1.00  0.00     0.074 A 
ATOM     47  C   UNL A   1      40.820  31.137  30.106  1.00  0.00     0.029 A 
ATOM     48  N   UNL A   1      42.492  29.728  29.701  1.00  0.00    -0.354 N 
ATOM     49  N   UNL A   1      45.284  28.851  29.742  1.00  0.00    -0.248 NA
ATOM     50  C   UNL A   1      47.556  29.325  30.004  1.00  0.00     0.031 C 
ATOM     51  C   UNL A   1      42.023  31.780  30.414  1.00  0.00     0.029 A 
ATOM     52  C   UNL A   1      43.064  30.900  30.169  1.00  0.00     0.049 A 
ATOM     53  H   UNL A   1      42.991  28.917  29.450  1.00  0.00     0.167 HD
ATOM     54  C   UNL A   1      45.432  30.174  30.136  1.00  0.00     0.074 A 
ATOM     55  C   UNL A   1      46.851  30.406  30.308  1.00  0.00     0.031 C 
ATOM     56  C   UNL A   1      44.477  31.114  30.335  1.00  0.00     0.037 A 
BRANCH  43  57
ATOM     57  C   UNL A   1      38.762  29.220  29.027  1.00  0.00     0.057 A 
ATOM     58  C   UNL A   1      38.207  29.593  27.796  1.00  0.00     0.134 A 
ATOM     59  C   UNL A   1      37.901  29.134  30.128  1.00  0.00     0.134 A 
ATOM     60  F   UNL A   1      38.982  29.703  26.707  1.00  0.00    -0.206 F 
ATOM     61  C   UNL A   1      36.848  29.883  27.669  1.00  0.00     0.040 A 
ATOM     62  C   UNL A   1      36.537  29.401  30.008  1.00  0.00     0.040 A 
ATOM     63  F   UNL A   1      38.369  28.777  31.333  1.00  0.00    -0.206 F 
ATOM     64  C   UNL A   1      36.008  29.780  28.776  1.00  0.00     0.006 A 
ENDBRANCH  43  57
BRANCH  44  65
ATOM     65  C   UNL A   1      48.377  26.622  29.263  1.00  0.00     0.057 A 
ATOM     66  C   UNL A   1      49.142  26.858  28.117  1.00  0.00     0.134 A 
ATOM     67  C   UNL A   1      49.017  26.030  30.359  1.00  0.00     0.134 A 
ATOM     68  F   UNL A   1      48.577  27.403  27.030  1.00  0.00    -0.206 F 
ATOM     69  C   UNL A   1      50.489  26.500  28.053  1.00  0.00     0.040 A 
ATOM     70  C   UNL A   1      50.369  25.687  30.315  1.00  0.00     0.040 A 
ATOM     71  F   UNL A   1      48.338  25.781  31.488  1.00  0.00    -0.206 F 
ATOM     72  C   UNL A   1      51.108  25.916  29.157  1.00  0.00     0.006 A 
ENDBRANCH  44  65
BRANCH  56  73
ATOM     73  C   UNL A   1      44.931  32.472  30.775  1.00  0.00     0.057 A 
ATOM     74  C   UNL A   1      45.187  33.492  29.852  1.00  0.00     0.134 A 
ATOM     75  C   UNL A   1      45.065  32.776  32.135  1.00  0.00     0.134 A 
ATOM     76  F   UNL A   1      45.091  33.258  28.534  1.00  0.00    -0.206 F 
ATOM     77  C   UNL A   1      45.571  34.768  30.266  1.00  0.00     0.040 A 
ATOM     78  C   UNL A   1      45.429  34.054  32.563  1.00  0.00     0.040 A 
ATOM     79  F   UNL A   1      44.829  31.843  33.069  1.00  0.00    -0.206 F 
ATOM     80  C   UNL A   1      45.685  35.054  31.626  1.00  0.00     0.006 A 
ENDBRANCH  56  73
ENDBRANCH  30  31
ENDBRANCH  22  25
ENDBRANCH  20  21
ENDBRANCH  19  20
ENDBRANCH  18  19
ENDBRANCH   1  18
TORSDOF 16
ENDMDL
MODEL 2
REMARK VINA RESULT:      -9.5      1.060      6.606
REMARK SMILES CC(C)(C)SSC[C@H]([NH3+])C(=O)NCCCCNC(=O)c1ccc(-c2c3nc(c(-c4c(F)cccc4F)c4ccc([nH]4)c(-c4c(F)cccc4F)c4nc(c(-c5c(F)cccc5F)c5ccc2[nH]5)C=C4)C=C3)cc1
REMARK SMILES IDX 13 1 12 2 10 3 11 4 8 6 7 7 6 8 5 9 2 10 1 11 3 12 4 13 9 14
REMARK SMILES IDX 14 18 15 19 16 20 17 21 18 22 19 24 20 25 21 26 73 27 22 28
REMARK SMILES IDX 72 29 23 30 24 31 25 32 66 33 26 34 71 35 65 36 67 37 27 38
REMARK SMILES IDX 70 39 64 40 63 41 28 43 54 44 37 45 53 46 38 47 41 48 52 49
REMARK SMILES IDX 68 50 39 51 40 52 51 54 69 55 42 56 29 57 30 58 35 59 31 60
REMARK SMILES IDX 32 61 34 62 36 63 33 64 55 65 56 66 61 67 57 68 58 69 60 70
REMARK SMILES IDX 62 71 59 72 43 73 44 74 49 75 45 76 46 77 48 78 50 79 47 80
REMARK H PARENT 12 5 9 15 9 16 9 17 17 23 67 42 41 53
REMARK Flexibility Score: inf
ROOT
ATOM      1  C   UNL A   1      35.832  21.622  24.622  1.00  0.00     0.116 C 
ENDROOT
BRANCH   1   2
ATOM      2  N   UNL A   1      35.208  22.814  25.154  1.00  0.00    -0.351 N 
ATOM      3  C   UNL A   1      34.105  22.924  25.947  1.00  0.00     0.279 C 
ATOM      4  O   UNL A   1      33.766  24.057  26.303  1.00  0.00    -0.268 OA
ATOM      5  H   UNL A   1      35.640  23.664  24.909  1.00  0.00     0.163 HD
BRANCH   3   6
ATOM      6  C   UNL A   1      33.301  21.688  26.404  1.00  0.00     0.281 C 
BRANCH   6   7
ATOM      7  C   UNL A   1      32.227  21.285  25.368  1.00  0.00     0.157 C 
BRANCH   7   8
ATOM      8  S   UNL A   1      32.528  19.973  24.107  1.00  0.00    -0.087 SA
BRANCH   8   9
ATOM      9  S   UNL A   1      32.529  18.197  25.143  1.00  0.00    -0.088 SA
BRANCH   9  10
ATOM     10  C   UNL A   1      33.908  17.174  24.417  1.00  0.00     0.018 C 
ATOM     11  C   UNL A   1      35.195  17.990  24.625  1.00  0.00     0.023 C 
ATOM     12  C   UNL A   1      33.697  16.953  22.913  1.00  0.00     0.023 C 
ATOM     13  C   UNL A   1      34.055  15.826  25.128  1.00  0.00     0.023 C 
ENDBRANCH   9  10
ENDBRANCH   8   9
ENDBRANCH   7   8
ENDBRANCH   6   7
BRANCH   6  14
ATOM     14  N   UNL A   1      32.907  21.829  27.816  1.00  0.00    -0.347 N 
ATOM     15  H   UNL A   1      33.723  21.688  28.412  1.00  0.00     0.345 HD
ATOM     16  H   UNL A   1      32.197  21.133  28.042  1.00  0.00     0.345 HD
ATOM     17  H   UNL A   1      32.530  22.764  27.971  1.00  0.00     0.345 HD
ENDBRANCH   6  14
ENDBRANCH   3   6
ENDBRANCH   1   2
BRANCH   1  18
ATOM     18  C   UNL A   1      37.355  21.683  24.637  1.00  0.00     0.023 C 
BRANCH  18  19
ATOM     19  C   UNL A   1      38.054  20.375  25.001  1.00  0.00     0.023 C 
BRANCH  19  20
ATOM     20  C   UNL A   1      39.160  20.487  26.045  1.00  0.00     0.116 C 
BRANCH  20  21
ATOM     21  N   UNL A   1      40.135  19.407  25.977  1.00  0.00    -0.352 N 
ATOM     22  C   UNL A   1      41.502  19.464  26.114  1.00  0.00     0.251 C 
ATOM     23  H   UNL A   1      39.764  18.512  25.810  1.00  0.00     0.163 HD
ATOM     24  O   UNL A   1      42.189  18.462  25.937  1.00  0.00    -0.269 OA
BRANCH  22  25
ATOM     25  C   UNL A   1      42.147  20.754  26.430  1.00  0.00     0.039 A 
ATOM     26  C   UNL A   1      42.569  21.570  25.376  1.00  0.00     0.014 A 
ATOM     27  C   UNL A   1      42.272  21.183  27.753  1.00  0.00     0.014 A 
ATOM     28  C   UNL A   1      43.020  22.864  25.646  1.00  0.00     0.010 A 
ATOM     29  C   UNL A   1      42.661  22.493  28.014  1.00  0.00     0.010 A 
ATOM     30  C   UNL A   1      43.015  23.353  26.962  1.00  0.00    -0.014 A 
BRANCH  30  31
ATOM     31  C   UNL A   1      43.316  24.775  27.264  1.00  0.00     0.031 A 
ATOM     32  C   UNL A   1      44.738  25.248  27.335  1.00  0.00     0.074 A 
ATOM     33  C   UNL A   1      42.309  25.608  27.594  1.00  0.00     0.049 A 
ATOM     34  N   UNL A   1      45.205  26.404  27.731  1.00  0.00    -0.248 NA
ATOM     35  C   UNL A   1      45.777  24.284  26.935  1.00  0.00     0.031 C 
ATOM     36  C   UNL A   1      40.888  25.254  27.617  1.00  0.00     0.029 A 
ATOM     37  N   UNL A   1      42.329  26.919  28.004  1.00  0.00    -0.354 N 
ATOM     38  C   UNL A   1      46.587  26.298  27.658  1.00  0.00     0.074 A 
ATOM     39  C   UNL A   1      46.887  24.957  27.205  1.00  0.00     0.031 C 
ATOM     40  C   UNL A   1      40.175  26.318  28.021  1.00  0.00     0.029 A 
ATOM     41  C   UNL A   1      41.088  27.415  28.324  1.00  0.00     0.049 A 
ATOM     42  H   UNL A   1      43.154  27.452  28.062  1.00  0.00     0.167 HD
ATOM     43  C   UNL A   1      47.519  27.241  27.933  1.00  0.00     0.037 A 
ATOM     44  C   UNL A   1      40.727  28.610  28.830  1.00  0.00     0.037 A 
ATOM     45  C   UNL A   1      47.218  28.588  28.337  1.00  0.00     0.049 A 
ATOM     46  C   UNL A   1      41.784  29.638  29.119  1.00  0.00     0.074 A 
ATOM     47  C   UNL A   1      48.092  29.645  28.524  1.00  0.00     0.029 A 
ATOM     48  N   UNL A   1      45.948  29.062  28.620  1.00  0.00    -0.354 N 
ATOM     49  N   UNL A   1      43.082  29.553  28.959  1.00  0.00    -0.248 NA
ATOM     50  C   UNL A   1      41.328  30.926  29.661  1.00  0.00     0.031 C 
ATOM     51  C   UNL A   1      47.353  30.749  28.962  1.00  0.00     0.029 A 
ATOM     52  C   UNL A   1      46.017  30.388  29.013  1.00  0.00     0.049 A 
ATOM     53  H   UNL A   1      45.119  28.534  28.552  1.00  0.00     0.167 HD
ATOM     54  C   UNL A   1      43.596  30.778  29.365  1.00  0.00     0.074 A 
ATOM     55  C   UNL A   1      42.469  31.595  29.764  1.00  0.00     0.031 C 
ATOM     56  C   UNL A   1      44.886  31.187  29.406  1.00  0.00     0.037 A 
BRANCH  43  57
ATOM     57  C   UNL A   1      48.961  26.853  27.803  1.00  0.00     0.057 A 
ATOM     58  C   UNL A   1      49.691  26.350  28.887  1.00  0.00     0.134 A 
ATOM     59  C   UNL A   1      49.607  26.924  26.562  1.00  0.00     0.134 A 
ATOM     60  F   UNL A   1      49.131  26.266  30.102  1.00  0.00    -0.206 F 
ATOM     61  C   UNL A   1      51.019  25.947  28.745  1.00  0.00     0.040 A 
ATOM     62  C   UNL A   1      50.928  26.504  26.403  1.00  0.00     0.040 A 
ATOM     63  F   UNL A   1      48.961  27.392  25.484  1.00  0.00    -0.206 F 
ATOM     64  C   UNL A   1      51.639  26.016  27.498  1.00  0.00     0.006 A 
ENDBRANCH  43  57
BRANCH  44  65
ATOM     65  C   UNL A   1      39.299  28.900  29.110  1.00  0.00     0.057 A 
ATOM     66  C   UNL A   1      38.465  29.437  28.125  1.00  0.00     0.134 A 
ATOM     67  C   UNL A   1      38.742  28.665  30.373  1.00  0.00     0.134 A 
ATOM     68  F   UNL A   1      38.949  29.702  26.903  1.00  0.00    -0.206 F 
ATOM     69  C   UNL A   1      37.131  29.748  28.389  1.00  0.00     0.040 A 
ATOM     70  C   UNL A   1      37.404  28.952  30.644  1.00  0.00     0.040 A 
ATOM     71  F   UNL A   1      39.490  28.149  31.359  1.00  0.00    -0.206 F 
ATOM     72  C   UNL A   1      36.595  29.502  29.652  1.00  0.00     0.006 A 
ENDBRANCH  44  65
BRANCH  56  73
ATOM     73  C   UNL A   1      45.149  32.582  29.884  1.00  0.00     0.057 A 
ATOM     74  C   UNL A   1      45.456  32.852  31.222  1.00  0.00     0.134 A 
ATOM     75  C   UNL A   1      45.144  33.658  28.987  1.00  0.00     0.134 A 
ATOM     76  F   UNL A   1      45.461  31.865  32.131  1.00  0.00    -0.206 F 
ATOM     77  C   UNL A   1      45.740  34.147  31.656  1.00  0.00     0.040 A 
ATOM     78  C   UNL A   1      45.446  34.955  29.405  1.00  0.00     0.040 A 
ATOM     79  F   UNL A   1      44.863  33.464  27.691  1.00  0.00    -0.206 F 
ATOM     80  C   UNL A   1      45.744  35.202  30.745  1.00  0.00     0.006 A 
ENDBRANCH  56  73
ENDBRANCH  30  31
ENDBRANCH  22  25
ENDBRANCH  20  21
ENDBRANCH  19  20
ENDBRANCH  18  19
ENDBRANCH   1  18
TORSDOF 16
ENDMDL
MODEL 3
REMARK VINA RESULT:      -9.4      1.669      2.403
REMARK SMILES CC(C)(C)SSC[C@H]([NH3+])C(=O)NCCCCNC(=O)c1ccc(-c2c3nc(c(-c4c(F)cccc4F)c4ccc([nH]4)c(-c4c(F)cccc4F)c4nc(c(-c5c(F)cccc5F)c5ccc2[nH]5)C=C4)C=C3)cc1
REMARK SMILES IDX 13 1 12 2 10 3 11 4 8 6 7 7 6 8 5 9 2 10 1 11 3 12 4 13 9 14
REMARK SMILES IDX 14 18 15 19 16 20 17 21 18 22 19 24 20 25 21 26 73 27 22 28
REMARK SMILES IDX 72 29 23 30 24 31 25 32 66 33 26 34 71 35 65 36 67 37 27 38
REMARK SMILES IDX 70 39 64 40 63 41 28 43 54 44 37 45 53 46 38 47 41 48 52 49
REMARK SMILES IDX 68 50 39 51 40 52 51 54 69 55 42 56 29 57 30 58 35 59 31 60
REMARK SMILES IDX 32 61 34 62 36 63 33 64 55 65 56 66 61 67 57 68 58 69 60 70
REMARK SMILES IDX 62 71 59 72 43 73 44 74 49 75 45 76 46 77 48 78 50 79 47 80
REMARK H PARENT 12 5 9 15 9 16 9 17 17 23 67 42 41 53
REMARK Flexibility Score: inf
ROOT
ATOM      1  C   UNL A   1      36.420  23.074  25.369  1.00  0.00     0.116 C 
ENDROOT
BRANCH   1   2
ATOM      2  N   UNL A   1      35.758  22.444  26.491  1.00  0.00    -0.351 N 
ATOM      3  C   UNL A   1      34.510  21.900  26.556  1.00  0.00     0.279 C 
ATOM      4  O   UNL A   1      34.163  21.389  27.625  1.00  0.00    -0.268 OA
ATOM      5  H   UNL A   1      36.282  22.403  27.324  1.00  0.00     0.163 HD
BRANCH   3   6
ATOM      6  C   UNL A   1      33.554  21.901  25.344  1.00  0.00     0.281 C 
BRANCH   6   7
ATOM      7  C   UNL A   1      33.783  20.676  24.429  1.00  0.00     0.157 C 
BRANCH   7   8
ATOM      8  S   UNL A   1      32.534  19.330  24.266  1.00  0.00    -0.087 SA
BRANCH   8   9
ATOM      9  S   UNL A   1      32.988  17.969  25.739  1.00  0.00    -0.088 SA
BRANCH   9  10
ATOM     10  C   UNL A   1      33.601  16.442  24.862  1.00  0.00     0.018 C 
ATOM     11  C   UNL A   1      35.029  16.201  25.380  1.00  0.00     0.023 C 
ATOM     12  C   UNL A   1      33.653  16.662  23.344  1.00  0.00     0.023 C 
ATOM     13  C   UNL A   1      32.743  15.216  25.184  1.00  0.00     0.023 C 
ENDBRANCH   9  10
ENDBRANCH   8   9
ENDBRANCH   7   8
ENDBRANCH   6   7
BRANCH   6  14
ATOM     14  N   UNL A   1      33.503  23.242  24.737  1.00  0.00    -0.347 N 
ATOM     15  H   UNL A   1      33.278  23.931  25.454  1.00  0.00     0.345 HD
ATOM     16  H   UNL A   1      32.785  23.259  24.012  1.00  0.00     0.345 HD
ATOM     17  H   UNL A   1      34.409  23.462  24.324  1.00  0.00     0.345 HD
ENDBRANCH   6  14
ENDBRANCH   3   6
ENDBRANCH   1   2
BRANCH   1  18
ATOM     18  C   UNL A   1      37.061  22.076  24.412  1.00  0.00     0.023 C 
BRANCH  18  19
ATOM     19  C   UNL A   1      37.608  20.809  25.065  1.00  0.00     0.023 C 
BRANCH  19  20
ATOM     20  C   UNL A   1      38.957  20.956  25.761  1.00  0.00     0.116 C 
BRANCH  20  21
ATOM     21  N   UNL A   1      39.739  19.728  25.779  1.00  0.00    -0.352 N 
ATOM     22  C   UNL A   1      41.081  19.558  26.028  1.00  0.00     0.251 C 
ATOM     23  H   UNL A   1      39.238  18.904  25.587  1.00  0.00     0.163 HD
ATOM     24  O   UNL A   1      41.603  18.453  25.913  1.00  0.00    -0.269 OA
BRANCH  22  25
ATOM     25  C   UNL A   1      41.905  20.730  26.389  1.00  0.00     0.039 A 
ATOM     26  C   UNL A   1      42.370  21.565  25.369  1.00  0.00     0.014 A 
ATOM     27  C   UNL A   1      42.161  21.036  27.728  1.00  0.00     0.014 A 
ATOM     28  C   UNL A   1      43.001  22.767  25.697  1.00  0.00     0.010 A 
ATOM     29  C   UNL A   1      42.731  22.262  28.053  1.00  0.00     0.010 A 
ATOM     30  C   UNL A   1      43.135  23.149  27.041  1.00  0.00    -0.014 A 
BRANCH  30  31
ATOM     31  C   UNL A   1      43.635  24.494  27.421  1.00  0.00     0.031 A 
ATOM     32  C   UNL A   1      42.674  25.573  27.825  1.00  0.00     0.074 A 
ATOM     33  C   UNL A   1      44.947  24.774  27.283  1.00  0.00     0.049 A 
ATOM     34  N   UNL A   1      42.901  26.842  28.043  1.00  0.00    -0.248 NA
ATOM     35  C   UNL A   1      41.263  25.178  27.977  1.00  0.00     0.031 C 
ATOM     36  C   UNL A   1      45.976  23.828  26.845  1.00  0.00     0.029 A 
ATOM     37  N   UNL A   1      45.636  25.948  27.468  1.00  0.00    -0.354 N 
ATOM     38  C   UNL A   1      41.663  27.404  28.326  1.00  0.00     0.074 A 
ATOM     39  C   UNL A   1      40.684  26.343  28.228  1.00  0.00     0.031 C 
ATOM     40  C   UNL A   1      47.161  24.457  26.793  1.00  0.00     0.029 A 
ATOM     41  C   UNL A   1      46.970  25.859  27.154  1.00  0.00     0.049 A 
ATOM     42  H   UNL A   1      45.213  26.775  27.794  1.00  0.00     0.167 HD
ATOM     43  C   UNL A   1      41.375  28.686  28.650  1.00  0.00     0.037 A 
ATOM     44  C   UNL A   1      47.930  26.804  27.132  1.00  0.00     0.037 A 
ATOM     45  C   UNL A   1      42.356  29.728  28.794  1.00  0.00     0.049 A 
ATOM     46  C   UNL A   1      47.581  28.218  27.504  1.00  0.00     0.074 A 
ATOM     47  C   UNL A   1      42.172  31.027  29.234  1.00  0.00     0.029 A 
ATOM     48  N   UNL A   1      43.703  29.590  28.499  1.00  0.00    -0.354 N 
ATOM     49  N   UNL A   1      46.421  28.714  27.857  1.00  0.00    -0.248 NA
ATOM     50  C   UNL A   1      48.672  29.203  27.471  1.00  0.00     0.031 C 
ATOM     51  C   UNL A   1      43.403  31.690  29.163  1.00  0.00     0.029 A 
ATOM     52  C   UNL A   1      44.357  30.792  28.714  1.00  0.00     0.049 A 
ATOM     53  H   UNL A   1      44.131  28.762  28.182  1.00  0.00     0.167 HD
ATOM     54  C   UNL A   1      46.644  30.062  28.104  1.00  0.00     0.074 A 
ATOM     55  C   UNL A   1      48.053  30.304  27.875  1.00  0.00     0.031 C 
ATOM     56  C   UNL A   1      45.759  31.016  28.482  1.00  0.00     0.037 A 
BRANCH  43  57
ATOM     57  C   UNL A   1      39.937  29.040  28.879  1.00  0.00     0.057 A 
ATOM     58  C   UNL A   1      39.389  29.111  30.166  1.00  0.00     0.134 A 
ATOM     59  C   UNL A   1      39.108  29.375  27.801  1.00  0.00     0.134 A 
ATOM     60  F   UNL A   1      40.131  28.793  31.237  1.00  0.00    -0.206 F 
ATOM     61  C   UNL A   1      38.062  29.488  30.371  1.00  0.00     0.040 A 
ATOM     62  C   UNL A   1      37.785  29.773  27.996  1.00  0.00     0.040 A 
ATOM     63  F   UNL A   1      39.573  29.331  26.544  1.00  0.00    -0.206 F 
ATOM     64  C   UNL A   1      37.258  29.828  29.285  1.00  0.00     0.006 A 
ENDBRANCH  43  57
BRANCH  44  65
ATOM     65  C   UNL A   1      49.315  26.451  26.732  1.00  0.00     0.057 A 
ATOM     66  C   UNL A   1      49.728  26.550  25.400  1.00  0.00     0.134 A 
ATOM     67  C   UNL A   1      50.249  25.991  27.668  1.00  0.00     0.134 A 
ATOM     68  F   UNL A   1      48.869  26.964  24.457  1.00  0.00    -0.206 F 
ATOM     69  C   UNL A   1      51.016  26.185  25.006  1.00  0.00     0.040 A 
ATOM     70  C   UNL A   1      51.547  25.645  27.291  1.00  0.00     0.040 A 
ATOM     71  F   UNL A   1      49.915  25.878  28.961  1.00  0.00    -0.206 F 
ATOM     72  C   UNL A   1      51.932  25.734  25.955  1.00  0.00     0.006 A 
ENDBRANCH  44  65
BRANCH  56  73
ATOM     73  C   UNL A   1      46.290  32.401  28.688  1.00  0.00     0.057 A 
ATOM     74  C   UNL A   1      46.812  32.809  29.920  1.00  0.00     0.134 A 
ATOM     75  C   UNL A   1      46.325  33.319  27.630  1.00  0.00     0.134 A 
ATOM     76  F   UNL A   1      46.793  31.980  30.975  1.00  0.00    -0.206 F 
ATOM     77  C   UNL A   1      47.343  34.087  30.098  1.00  0.00     0.040 A 
ATOM     78  C   UNL A   1      46.872  34.593  27.790  1.00  0.00     0.040 A 
ATOM     79  F   UNL A   1      45.845  32.986  26.423  1.00  0.00    -0.206 F 
ATOM     80  C   UNL A   1      47.381  34.981  29.028  1.00  0.00     0.006 A 
ENDBRANCH  56  73
ENDBRANCH  30  31
ENDBRANCH  22  25
ENDBRANCH  20  21
ENDBRANCH  19  20
ENDBRANCH  18  19
ENDBRANCH   1  18
TORSDOF 16
ENDMDL
