MODEL 1
REMARK VINA RESULT:     -12.3      0.000      0.000
REMARK SMILES Cc1ccccc1[C@@H](Cc1ncnn1C(C)C)C(=O)NCCCCNC(=O)c1ccc(-c2c3nc(c(-c4c(F)cccc4F)c4ccc([nH]4)c(-c4c(F)cccc4F)c4nc(c(-c5c(F)cccc5F)c5ccc2[nH]5)C=C4)C=C3)cc1
REMARK SMILES IDX 22 1 21 2 20 3 18 4 19 5 8 7 7 8 1 9 2 10 3 11 4 12 6 13
REMARK SMILES IDX 5 14 9 15 10 16 11 17 14 18 12 19 13 20 15 21 16 22 17 23
REMARK SMILES IDX 23 24 24 25 25 26 26 27 27 29 28 30 29 31 81 32 30 33 80 34
REMARK SMILES IDX 31 35 32 36 33 37 74 38 34 39 79 40 73 41 75 42 35 43 78 44
REMARK SMILES IDX 72 45 71 46 36 48 62 49 45 50 61 51 46 52 49 53 60 54 76 55
REMARK SMILES IDX 47 56 48 57 59 59 77 60 50 61 37 62 38 63 43 64 39 65 40 66
REMARK SMILES IDX 42 67 44 68 41 69 63 70 64 71 69 72 65 73 66 74 68 75 70 76
REMARK SMILES IDX 67 77 51 78 52 79 57 80 53 81 54 82 56 83 58 84 55 85
REMARK H PARENT 20 6 25 28 75 47 49 58
REMARK Flexibility Score: inf
ROOT
ATOM      1  C   UNL A   1      32.184  30.834  26.421  1.00  0.00     0.023 C 
ENDROOT
BRANCH   1   2
ATOM      2  C   UNL A   1      31.681  29.776  25.435  1.00  0.00     0.116 C 
BRANCH   2   3
ATOM      3  N   UNL A   1      32.624  29.386  24.406  1.00  0.00    -0.356 N 
ATOM      4  C   UNL A   1      32.477  28.644  23.275  1.00  0.00     0.228 C 
ATOM      5  O   UNL A   1      33.417  28.711  22.469  1.00  0.00    -0.274 OA
ATOM      6  H   UNL A   1      33.539  29.721  24.552  1.00  0.00     0.163 HD
BRANCH   4   7
ATOM      7  C   UNL A   1      31.257  27.770  22.931  1.00  0.00     0.116 C 
BRANCH   7   8
ATOM      8  C   UNL A   1      29.984  28.573  22.629  1.00  0.00    -0.032 A 
ATOM      9  C   UNL A   1      28.424  26.862  23.787  1.00  0.00     0.044 C 
ATOM     10  C   UNL A   1      28.705  28.177  23.104  1.00  0.00    -0.047 A 
ATOM     11  C   UNL A   1      27.583  28.996  22.855  1.00  0.00     0.004 A 
ATOM     12  C   UNL A   1      27.704  30.204  22.176  1.00  0.00     0.000 A 
ATOM     13  C   UNL A   1      30.055  29.772  21.902  1.00  0.00     0.005 A 
ATOM     14  C   UNL A   1      28.943  30.589  21.694  1.00  0.00     0.000 A 
ENDBRANCH   7   8
BRANCH   7  15
ATOM     15  C   UNL A   1      31.541  26.447  22.182  1.00  0.00     0.095 C 
BRANCH  15  16
ATOM     16  C   UNL A   1      32.512  25.487  22.775  1.00  0.00     0.128 A 
ATOM     17  N   UNL A   1      33.667  25.136  22.244  1.00  0.00    -0.220 NA
ATOM     18  N   UNL A   1      32.343  24.775  23.941  1.00  0.00    -0.248 N 
ATOM     19  C   UNL A   1      34.215  24.296  23.163  1.00  0.00     0.246 A 
ATOM     20  N   UNL A   1      33.474  24.096  24.252  1.00  0.00    -0.159 NA
BRANCH  18  21
ATOM     21  C   UNL A   1      31.151  24.600  24.760  1.00  0.00     0.103 C 
ATOM     22  C   UNL A   1      31.056  23.146  25.224  1.00  0.00     0.033 C 
ATOM     23  C   UNL A   1      31.102  25.589  25.924  1.00  0.00     0.033 C 
ENDBRANCH  18  21
ENDBRANCH  15  16
ENDBRANCH   7  15
ENDBRANCH   4   7
ENDBRANCH   2   3
ENDBRANCH   1   2
BRANCH   1  24
ATOM     24  C   UNL A   1      33.105  30.323  27.525  1.00  0.00     0.023 C 
BRANCH  24  25
ATOM     25  C   UNL A   1      34.593  30.536  27.272  1.00  0.00     0.116 C 
BRANCH  25  26
ATOM     26  N   UNL A   1      35.293  31.445  28.164  1.00  0.00    -0.352 N 
ATOM     27  C   UNL A   1      36.431  31.230  28.941  1.00  0.00     0.251 C 
ATOM     28  H   UNL A   1      34.907  32.348  28.229  1.00  0.00     0.163 HD
ATOM     29  O   UNL A   1      36.794  32.095  29.713  1.00  0.00    -0.269 OA
BRANCH  27  30
ATOM     30  C   UNL A   1      37.288  30.018  28.732  1.00  0.00     0.039 A 
ATOM     31  C   UNL A   1      37.318  29.048  29.745  1.00  0.00     0.014 A 
ATOM     32  C   UNL A   1      38.200  29.925  27.690  1.00  0.00     0.014 A 
ATOM     33  C   UNL A   1      38.416  28.190  29.853  1.00  0.00     0.010 A 
ATOM     34  C   UNL A   1      39.352  29.195  27.871  1.00  0.00     0.010 A 
ATOM     35  C   UNL A   1      39.488  28.370  28.986  1.00  0.00    -0.014 A 
BRANCH  35  36
ATOM     36  C   UNL A   1      40.828  27.848  29.214  1.00  0.00     0.031 A 
ATOM     37  C   UNL A   1      41.260  26.572  28.602  1.00  0.00     0.074 A 
ATOM     38  C   UNL A   1      41.736  28.642  29.826  1.00  0.00     0.049 A 
ATOM     39  N   UNL A   1      42.256  25.871  29.024  1.00  0.00    -0.248 NA
ATOM     40  C   UNL A   1      40.593  25.976  27.448  1.00  0.00     0.031 C 
ATOM     41  C   UNL A   1      43.185  28.458  29.849  1.00  0.00     0.029 A 
ATOM     42  N   UNL A   1      41.507  29.698  30.724  1.00  0.00    -0.354 N 
ATOM     43  C   UNL A   1      42.549  24.936  28.060  1.00  0.00     0.074 A 
ATOM     44  C   UNL A   1      41.448  24.999  27.128  1.00  0.00     0.031 C 
ATOM     45  C   UNL A   1      43.686  29.113  30.905  1.00  0.00     0.029 A 
ATOM     46  C   UNL A   1      42.559  29.625  31.664  1.00  0.00     0.049 A 
ATOM     47  H   UNL A   1      40.770  30.351  30.701  1.00  0.00     0.167 HD
ATOM     48  C   UNL A   1      43.762  24.312  28.076  1.00  0.00     0.037 A 
ATOM     49  C   UNL A   1      42.334  29.370  32.984  1.00  0.00     0.037 A 
ATOM     50  C   UNL A   1      44.577  24.771  29.198  1.00  0.00     0.049 A 
ATOM     51  C   UNL A   1      43.069  28.148  33.478  1.00  0.00     0.074 A 
ATOM     52  C   UNL A   1      45.594  25.708  29.289  1.00  0.00     0.029 A 
ATOM     53  N   UNL A   1      44.180  24.495  30.503  1.00  0.00    -0.354 N 
ATOM     54  N   UNL A   1      43.471  27.187  32.692  1.00  0.00    -0.248 NA
ATOM     55  C   UNL A   1      43.427  27.913  34.872  1.00  0.00     0.031 C 
ATOM     56  C   UNL A   1      45.785  26.022  30.655  1.00  0.00     0.029 A 
ATOM     57  C   UNL A   1      44.895  25.265  31.398  1.00  0.00     0.049 A 
ATOM     58  H   UNL A   1      43.486  23.841  30.751  1.00  0.00     0.167 HD
ATOM     59  C   UNL A   1      44.138  26.242  33.425  1.00  0.00     0.074 A 
ATOM     60  C   UNL A   1      44.078  26.737  34.786  1.00  0.00     0.031 C 
ATOM     61  C   UNL A   1      44.689  25.142  32.833  1.00  0.00     0.037 A 
BRANCH  48  62
ATOM     62  C   UNL A   1      44.311  23.523  26.909  1.00  0.00     0.057 A 
ATOM     63  C   UNL A   1      43.780  22.264  26.561  1.00  0.00     0.134 A 
ATOM     64  C   UNL A   1      45.387  23.938  26.107  1.00  0.00     0.134 A 
ATOM     65  F   UNL A   1      42.688  21.767  27.156  1.00  0.00    -0.206 F 
ATOM     66  C   UNL A   1      44.346  21.440  25.580  1.00  0.00     0.040 A 
ATOM     67  C   UNL A   1      45.995  23.104  25.156  1.00  0.00     0.040 A 
ATOM     68  F   UNL A   1      45.866  25.187  26.177  1.00  0.00    -0.206 F 
ATOM     69  C   UNL A   1      45.482  21.842  24.898  1.00  0.00     0.006 A 
ENDBRANCH  48  62
BRANCH  49  70
ATOM     70  C   UNL A   1      41.007  29.841  33.454  1.00  0.00     0.057 A 
ATOM     71  C   UNL A   1      40.853  31.204  33.765  1.00  0.00     0.134 A 
ATOM     72  C   UNL A   1      39.841  29.110  33.210  1.00  0.00     0.134 A 
ATOM     73  F   UNL A   1      41.931  31.965  34.016  1.00  0.00    -0.206 F 
ATOM     74  C   UNL A   1      39.609  31.839  33.715  1.00  0.00     0.040 A 
ATOM     75  C   UNL A   1      38.588  29.733  33.169  1.00  0.00     0.040 A 
ATOM     76  F   UNL A   1      39.906  27.810  32.885  1.00  0.00    -0.206 F 
ATOM     77  C   UNL A   1      38.475  31.107  33.378  1.00  0.00     0.006 A 
ENDBRANCH  49  70
BRANCH  61  78
ATOM     78  C   UNL A   1      45.189  23.899  33.528  1.00  0.00     0.057 A 
ATOM     79  C   UNL A   1      46.487  23.747  34.034  1.00  0.00     0.134 A 
ATOM     80  C   UNL A   1      44.293  22.855  33.863  1.00  0.00     0.134 A 
ATOM     81  F   UNL A   1      47.416  24.699  33.885  1.00  0.00    -0.206 F 
ATOM     82  C   UNL A   1      46.877  22.626  34.780  1.00  0.00     0.040 A 
ATOM     83  C   UNL A   1      44.656  21.761  34.652  1.00  0.00     0.040 A 
ATOM     84  F   UNL A   1      43.011  22.864  33.468  1.00  0.00    -0.206 F 
ATOM     85  C   UNL A   1      45.959  21.636  35.105  1.00  0.00     0.006 A 
ENDBRANCH  61  78
ENDBRANCH  35  36
ENDBRANCH  27  30
ENDBRANCH  25  26
ENDBRANCH  24  25
ENDBRANCH   1  24
TORSDOF 15
ENDMDL
MODEL 2
REMARK VINA RESULT:     -12.3      2.133      3.630
REMARK SMILES Cc1ccccc1[C@@H](Cc1ncnn1C(C)C)C(=O)NCCCCNC(=O)c1ccc(-c2c3nc(c(-c4c(F)cccc4F)c4ccc([nH]4)c(-c4c(F)cccc4F)c4nc(c(-c5c(F)cccc5F)c5ccc2[nH]5)C=C4)C=C3)cc1
REMARK SMILES IDX 22 1 21 2 20 3 18 4 19 5 8 7 7 8 1 9 2 10 3 11 4 12 6 13
REMARK SMILES IDX 5 14 9 15 10 16 11 17 14 18 12 19 13 20 15 21 16 22 17 23
REMARK SMILES IDX 23 24 24 25 25 26 26 27 27 29 28 30 29 31 81 32 30 33 80 34
REMARK SMILES IDX 31 35 32 36 33 37 74 38 34 39 79 40 73 41 75 42 35 43 78 44
REMARK SMILES IDX 72 45 71 46 36 48 62 49 45 50 61 51 46 52 49 53 60 54 76 55
REMARK SMILES IDX 47 56 48 57 59 59 77 60 50 61 37 62 38 63 43 64 39 65 40 66
REMARK SMILES IDX 42 67 44 68 41 69 63 70 64 71 69 72 65 73 66 74 68 75 70 76
REMARK SMILES IDX 67 77 51 78 52 79 57 80 53 81 54 82 56 83 58 84 55 85
REMARK H PARENT 20 6 25 28 75 47 49 58
REMARK Flexibility Score: inf
ROOT
ATOM      1  C   UNL A   1      32.345  29.863  27.016  1.00  0.00     0.023 C 
ENDROOT
BRANCH   1   2
ATOM      2  C   UNL A   1      31.770  29.816  25.598  1.00  0.00     0.116 C 
BRANCH   2   3
ATOM      3  N   UNL A   1      32.726  29.521  24.549  1.00  0.00    -0.356 N 
ATOM      4  C   UNL A   1      32.616  28.804  23.397  1.00  0.00     0.228 C 
ATOM      5  O   UNL A   1      33.540  28.958  22.585  1.00  0.00    -0.274 OA
ATOM      6  H   UNL A   1      33.618  29.911  24.697  1.00  0.00     0.163 HD
BRANCH   4   7
ATOM      7  C   UNL A   1      31.452  27.862  23.038  1.00  0.00     0.116 C 
BRANCH   7   8
ATOM      8  C   UNL A   1      30.149  28.592  22.683  1.00  0.00    -0.032 A 
ATOM      9  C   UNL A   1      28.649  26.861  23.888  1.00  0.00     0.044 C 
ATOM     10  C   UNL A   1      28.882  28.158  23.154  1.00  0.00    -0.047 A 
ATOM     11  C   UNL A   1      27.728  28.913  22.853  1.00  0.00     0.004 A 
ATOM     12  C   UNL A   1      27.806  30.096  22.125  1.00  0.00     0.000 A 
ATOM     13  C   UNL A   1      30.178  29.761  21.906  1.00  0.00     0.005 A 
ATOM     14  C   UNL A   1      29.034  30.517  21.646  1.00  0.00     0.000 A 
ENDBRANCH   7   8
BRANCH   7  15
ATOM     15  C   UNL A   1      31.825  26.541  22.326  1.00  0.00     0.095 C 
BRANCH  15  16
ATOM     16  C   UNL A   1      31.746  25.270  23.097  1.00  0.00     0.128 A 
ATOM     17  N   UNL A   1      30.733  24.425  23.083  1.00  0.00    -0.220 NA
ATOM     18  N   UNL A   1      32.687  24.795  23.983  1.00  0.00    -0.248 N 
ATOM     19  C   UNL A   1      31.139  23.404  23.886  1.00  0.00     0.246 A 
ATOM     20  N   UNL A   1      32.357  23.551  24.406  1.00  0.00    -0.159 NA
BRANCH  18  21
ATOM     21  C   UNL A   1      33.851  25.463  24.551  1.00  0.00     0.103 C 
ATOM     22  C   UNL A   1      33.450  26.189  25.836  1.00  0.00     0.033 C 
ATOM     23  C   UNL A   1      35.019  24.501  24.763  1.00  0.00     0.033 C 
ENDBRANCH  18  21
ENDBRANCH  15  16
ENDBRANCH   7  15
ENDBRANCH   4   7
ENDBRANCH   2   3
ENDBRANCH   1   2
BRANCH   1  24
ATOM     24  C   UNL A   1      33.836  29.564  27.135  1.00  0.00     0.023 C 
BRANCH  24  25
ATOM     25  C   UNL A   1      34.693  30.735  27.601  1.00  0.00     0.116 C 
BRANCH  25  26
ATOM     26  N   UNL A   1      34.009  31.987  27.878  1.00  0.00    -0.352 N 
ATOM     27  C   UNL A   1      34.302  32.974  28.818  1.00  0.00     0.251 C 
ATOM     28  H   UNL A   1      33.220  32.166  27.316  1.00  0.00     0.163 HD
ATOM     29  O   UNL A   1      33.531  33.901  28.966  1.00  0.00    -0.269 OA
BRANCH  27  30
ATOM     30  C   UNL A   1      35.618  32.985  29.537  1.00  0.00     0.039 A 
ATOM     31  C   UNL A   1      36.710  33.598  28.904  1.00  0.00     0.014 A 
ATOM     32  C   UNL A   1      35.843  32.240  30.685  1.00  0.00     0.014 A 
ATOM     33  C   UNL A   1      38.011  33.228  29.252  1.00  0.00     0.010 A 
ATOM     34  C   UNL A   1      37.107  31.754  30.932  1.00  0.00     0.010 A 
ATOM     35  C   UNL A   1      38.187  32.203  30.175  1.00  0.00    -0.014 A 
BRANCH  35  36
ATOM     36  C   UNL A   1      39.420  31.446  30.342  1.00  0.00     0.031 A 
ATOM     37  C   UNL A   1      39.632  30.173  29.617  1.00  0.00     0.074 A 
ATOM     38  C   UNL A   1      40.446  32.019  31.010  1.00  0.00     0.049 A 
ATOM     39  N   UNL A   1      40.494  29.281  29.966  1.00  0.00    -0.248 NA
ATOM     40  C   UNL A   1      38.878  29.801  28.424  1.00  0.00     0.031 C 
ATOM     41  C   UNL A   1      41.843  31.592  31.000  1.00  0.00     0.029 A 
ATOM     42  N   UNL A   1      40.396  33.017  31.998  1.00  0.00    -0.354 N 
ATOM     43  C   UNL A   1      40.628  28.396  28.922  1.00  0.00     0.074 A 
ATOM     44  C   UNL A   1      39.556  28.725  28.011  1.00  0.00     0.031 C 
ATOM     45  C   UNL A   1      42.444  32.059  32.103  1.00  0.00     0.029 A 
ATOM     46  C   UNL A   1      41.417  32.687  32.916  1.00  0.00     0.049 A 
ATOM     47  H   UNL A   1      39.780  33.784  32.040  1.00  0.00     0.167 HD
ATOM     48  C   UNL A   1      41.719  27.578  28.871  1.00  0.00     0.037 A 
ATOM     49  C   UNL A   1      41.148  32.359  34.212  1.00  0.00     0.037 A 
ATOM     50  C   UNL A   1      42.595  27.794  30.019  1.00  0.00     0.049 A 
ATOM     51  C   UNL A   1      41.665  30.993  34.590  1.00  0.00     0.074 A 
ATOM     52  C   UNL A   1      43.755  28.535  30.179  1.00  0.00     0.029 A 
ATOM     53  N   UNL A   1      42.152  27.476  31.299  1.00  0.00    -0.354 N 
ATOM     54  N   UNL A   1      41.901  30.050  33.720  1.00  0.00    -0.248 NA
ATOM     55  C   UNL A   1      41.973  30.581  35.955  1.00  0.00     0.031 C 
ATOM     56  C   UNL A   1      43.992  28.692  31.565  1.00  0.00     0.029 A 
ATOM     57  C   UNL A   1      42.984  28.035  32.249  1.00  0.00     0.049 A 
ATOM     58  H   UNL A   1      41.357  26.930  31.499  1.00  0.00     0.167 HD
ATOM     59  C   UNL A   1      42.396  28.946  34.361  1.00  0.00     0.074 A 
ATOM     60  C   UNL A   1      42.416  29.324  35.761  1.00  0.00     0.031 C 
ATOM     61  C   UNL A   1      42.756  27.824  33.671  1.00  0.00     0.037 A 
BRANCH  48  62
ATOM     62  C   UNL A   1      42.130  26.812  27.634  1.00  0.00     0.057 A 
ATOM     63  C   UNL A   1      42.752  27.456  26.545  1.00  0.00     0.134 A 
ATOM     64  C   UNL A   1      41.911  25.437  27.444  1.00  0.00     0.134 A 
ATOM     65  F   UNL A   1      43.126  28.741  26.602  1.00  0.00    -0.206 F 
ATOM     66  C   UNL A   1      43.022  26.815  25.330  1.00  0.00     0.040 A 
ATOM     67  C   UNL A   1      42.131  24.793  26.216  1.00  0.00     0.040 A 
ATOM     68  F   UNL A   1      41.519  24.648  28.453  1.00  0.00    -0.206 F 
ATOM     69  C   UNL A   1      42.676  25.487  25.147  1.00  0.00     0.006 A 
ENDBRANCH  48  62
BRANCH  49  70
ATOM     70  C   UNL A   1      39.918  33.005  34.735  1.00  0.00     0.057 A 
ATOM     71  C   UNL A   1      38.720  32.268  34.726  1.00  0.00     0.134 A 
ATOM     72  C   UNL A   1      39.976  34.111  35.588  1.00  0.00     0.134 A 
ATOM     73  F   UNL A   1      38.594  31.196  33.926  1.00  0.00    -0.206 F 
ATOM     74  C   UNL A   1      37.674  32.542  35.612  1.00  0.00     0.040 A 
ATOM     75  C   UNL A   1      38.929  34.402  36.471  1.00  0.00     0.040 A 
ATOM     76  F   UNL A   1      41.091  34.851  35.670  1.00  0.00    -0.206 F 
ATOM     77  C   UNL A   1      37.795  33.592  36.516  1.00  0.00     0.006 A 
ENDBRANCH  49  70
BRANCH  61  78
ATOM     78  C   UNL A   1      43.036  26.459  34.250  1.00  0.00     0.057 A 
ATOM     79  C   UNL A   1      42.076  25.663  34.889  1.00  0.00     0.134 A 
ATOM     80  C   UNL A   1      44.281  25.824  34.022  1.00  0.00     0.134 A 
ATOM     81  F   UNL A   1      40.823  26.091  35.083  1.00  0.00    -0.206 F 
ATOM     82  C   UNL A   1      42.343  24.351  35.306  1.00  0.00     0.040 A 
ATOM     83  C   UNL A   1      44.540  24.499  34.384  1.00  0.00     0.040 A 
ATOM     84  F   UNL A   1      45.295  26.449  33.406  1.00  0.00    -0.206 F 
ATOM     85  C   UNL A   1      43.572  23.759  35.041  1.00  0.00     0.006 A 
ENDBRANCH  61  78
ENDBRANCH  35  36
ENDBRANCH  27  30
ENDBRANCH  25  26
ENDBRANCH  24  25
ENDBRANCH   1  24
TORSDOF 15
ENDMDL
MODEL 3
REMARK VINA RESULT:     -12.2      1.451      3.168
REMARK SMILES Cc1ccccc1[C@@H](Cc1ncnn1C(C)C)C(=O)NCCCCNC(=O)c1ccc(-c2c3nc(c(-c4c(F)cccc4F)c4ccc([nH]4)c(-c4c(F)cccc4F)c4nc(c(-c5c(F)cccc5F)c5ccc2[nH]5)C=C4)C=C3)cc1
REMARK SMILES IDX 22 1 21 2 20 3 18 4 19 5 8 7 7 8 1 9 2 10 3 11 4 12 6 13
REMARK SMILES IDX 5 14 9 15 10 16 11 17 14 18 12 19 13 20 15 21 16 22 17 23
REMARK SMILES IDX 23 24 24 25 25 26 26 27 27 29 28 30 29 31 81 32 30 33 80 34
REMARK SMILES IDX 31 35 32 36 33 37 74 38 34 39 79 40 73 41 75 42 35 43 78 44
REMARK SMILES IDX 72 45 71 46 36 48 62 49 45 50 61 51 46 52 49 53 60 54 76 55
REMARK SMILES IDX 47 56 48 57 59 59 77 60 50 61 37 62 38 63 43 64 39 65 40 66
REMARK SMILES IDX 42 67 44 68 41 69 63 70 64 71 69 72 65 73 66 74 68 75 70 76
REMARK SMILES IDX 67 77 51 78 52 79 57 80 53 81 54 82 56 83 58 84 55 85
REMARK H PARENT 20 6 25 28 75 47 49 58
REMARK Flexibility Score: inf
ROOT
ATOM      1  C   UNL A   1      32.710  28.441  27.328  1.00  0.00     0.023 C 
ENDROOT
BRANCH   1   2
ATOM      2  C   UNL A   1      31.516  27.835  26.586  1.00  0.00     0.116 C 
BRANCH   2   3
ATOM      3  N   UNL A   1      31.117  26.512  27.024  1.00  0.00    -0.356 N 
ATOM      4  C   UNL A   1      31.176  25.298  26.412  1.00  0.00     0.228 C 
ATOM      5  O   UNL A   1      30.997  24.320  27.152  1.00  0.00    -0.274 OA
ATOM      6  H   UNL A   1      30.734  26.487  27.931  1.00  0.00     0.163 HD
BRANCH   4   7
ATOM      7  C   UNL A   1      31.459  25.063  24.916  1.00  0.00     0.116 C 
BRANCH   7   8
ATOM      8  C   UNL A   1      32.349  23.845  24.637  1.00  0.00    -0.032 A 
ATOM      9  C   UNL A   1      34.545  25.113  25.161  1.00  0.00     0.044 C 
ATOM     10  C   UNL A   1      33.755  23.869  24.835  1.00  0.00    -0.047 A 
ATOM     11  C   UNL A   1      34.510  22.694  24.631  1.00  0.00     0.004 A 
ATOM     12  C   UNL A   1      33.904  21.497  24.264  1.00  0.00     0.000 A 
ATOM     13  C   UNL A   1      31.782  22.631  24.214  1.00  0.00     0.005 A 
ATOM     14  C   UNL A   1      32.537  21.469  24.050  1.00  0.00     0.000 A 
ENDBRANCH   7   8
BRANCH   7  15
ATOM     15  C   UNL A   1      30.333  25.450  23.929  1.00  0.00     0.095 C 
BRANCH  15  16
ATOM     16  C   UNL A   1      30.347  26.814  23.332  1.00  0.00     0.128 A 
ATOM     17  N   UNL A   1      29.298  27.603  23.196  1.00  0.00    -0.220 NA
ATOM     18  N   UNL A   1      31.436  27.452  22.783  1.00  0.00    -0.248 N 
ATOM     19  C   UNL A   1      29.807  28.745  22.661  1.00  0.00     0.246 A 
ATOM     20  N   UNL A   1      31.123  28.728  22.453  1.00  0.00    -0.159 NA
BRANCH  18  21
ATOM     21  C   UNL A   1      32.752  26.924  22.449  1.00  0.00     0.103 C 
ATOM     22  C   UNL A   1      32.628  25.924  21.299  1.00  0.00     0.033 C 
ATOM     23  C   UNL A   1      33.758  28.036  22.150  1.00  0.00     0.033 C 
ENDBRANCH  18  21
ENDBRANCH  15  16
ENDBRANCH   7  15
ENDBRANCH   4   7
ENDBRANCH   2   3
ENDBRANCH   1   2
BRANCH   1  24
ATOM     24  C   UNL A   1      32.775  29.965  27.345  1.00  0.00     0.023 C 
BRANCH  24  25
ATOM     25  C   UNL A   1      34.139  30.555  27.006  1.00  0.00     0.116 C 
BRANCH  25  26
ATOM     26  N   UNL A   1      34.723  31.470  27.973  1.00  0.00    -0.352 N 
ATOM     27  C   UNL A   1      35.802  31.283  28.837  1.00  0.00     0.251 C 
ATOM     28  H   UNL A   1      34.293  32.354  28.024  1.00  0.00     0.163 HD
ATOM     29  O   UNL A   1      36.062  32.143  29.655  1.00  0.00    -0.269 OA
BRANCH  27  30
ATOM     30  C   UNL A   1      36.726  30.114  28.673  1.00  0.00     0.039 A 
ATOM     31  C   UNL A   1      36.808  29.186  29.722  1.00  0.00     0.014 A 
ATOM     32  C   UNL A   1      37.643  30.033  27.636  1.00  0.00     0.014 A 
ATOM     33  C   UNL A   1      37.951  28.396  29.862  1.00  0.00     0.010 A 
ATOM     34  C   UNL A   1      38.834  29.376  27.844  1.00  0.00     0.010 A 
ATOM     35  C   UNL A   1      39.013  28.602  28.989  1.00  0.00    -0.014 A 
BRANCH  35  36
ATOM     36  C   UNL A   1      40.380  28.166  29.237  1.00  0.00     0.031 A 
ATOM     37  C   UNL A   1      40.910  26.937  28.604  1.00  0.00     0.074 A 
ATOM     38  C   UNL A   1      41.219  29.001  29.890  1.00  0.00     0.049 A 
ATOM     39  N   UNL A   1      41.942  26.294  29.033  1.00  0.00    -0.248 NA
ATOM     40  C   UNL A   1      40.312  26.329  27.420  1.00  0.00     0.031 C 
ATOM     41  C   UNL A   1      42.676  28.914  29.943  1.00  0.00     0.029 A 
ATOM     42  N   UNL A   1      40.899  30.016  30.807  1.00  0.00    -0.354 N 
ATOM     43  C   UNL A   1      42.319  25.405  28.053  1.00  0.00     0.074 A 
ATOM     44  C   UNL A   1      41.237  25.419  27.097  1.00  0.00     0.031 C 
ATOM     45  C   UNL A   1      43.108  29.573  31.027  1.00  0.00     0.029 A 
ATOM     46  C   UNL A   1      41.932  29.989  31.771  1.00  0.00     0.049 A 
ATOM     47  H   UNL A   1      40.121  30.619  30.783  1.00  0.00     0.167 HD
ATOM     48  C   UNL A   1      43.570  24.863  28.083  1.00  0.00     0.037 A 
ATOM     49  C   UNL A   1      41.695  29.685  33.079  1.00  0.00     0.037 A 
ATOM     50  C   UNL A   1      44.327  25.346  29.236  1.00  0.00     0.049 A 
ATOM     51  C   UNL A   1      42.500  28.502  33.559  1.00  0.00     0.074 A 
ATOM     52  C   UNL A   1      45.276  26.346  29.375  1.00  0.00     0.029 A 
ATOM     53  N   UNL A   1      43.920  25.010  30.523  1.00  0.00    -0.354 N 
ATOM     54  N   UNL A   1      42.983  27.591  32.761  1.00  0.00    -0.248 NA
ATOM     55  C   UNL A   1      42.841  28.256  34.956  1.00  0.00     0.031 C 
ATOM     56  C   UNL A   1      45.415  26.636  30.752  1.00  0.00     0.029 A 
ATOM     57  C   UNL A   1      44.561  25.803  31.454  1.00  0.00     0.049 A 
ATOM     58  H   UNL A   1      43.266  24.306  30.739  1.00  0.00     0.167 HD
ATOM     59  C   UNL A   1      43.695  26.674  33.485  1.00  0.00     0.074 A 
ATOM     60  C   UNL A   1      43.571  27.128  34.857  1.00  0.00     0.031 C 
ATOM     61  C   UNL A   1      44.332  25.629  32.881  1.00  0.00     0.037 A 
BRANCH  48  62
ATOM     62  C   UNL A   1      44.197  24.143  26.911  1.00  0.00     0.057 A 
ATOM     63  C   UNL A   1      44.034  22.754  26.732  1.00  0.00     0.134 A 
ATOM     64  C   UNL A   1      45.002  24.761  25.939  1.00  0.00     0.134 A 
ATOM     65  F   UNL A   1      43.215  22.031  27.507  1.00  0.00    -0.206 F 
ATOM     66  C   UNL A   1      44.707  22.026  25.744  1.00  0.00     0.040 A 
ATOM     67  C   UNL A   1      45.721  24.038  24.975  1.00  0.00     0.040 A 
ATOM     68  F   UNL A   1      45.088  26.094  25.852  1.00  0.00    -0.206 F 
ATOM     69  C   UNL A   1      45.587  22.662  24.883  1.00  0.00     0.006 A 
ENDBRANCH  48  62
BRANCH  49  70
ATOM     70  C   UNL A   1      40.329  30.054  33.527  1.00  0.00     0.057 A 
ATOM     71  C   UNL A   1      40.082  31.391  33.887  1.00  0.00     0.134 A 
ATOM     72  C   UNL A   1      39.218  29.263  33.221  1.00  0.00     0.134 A 
ATOM     73  F   UNL A   1      41.103  32.206  34.198  1.00  0.00    -0.206 F 
ATOM     74  C   UNL A   1      38.802  31.950  33.826  1.00  0.00     0.040 A 
ATOM     75  C   UNL A   1      37.930  29.810  33.168  1.00  0.00     0.040 A 
ATOM     76  F   UNL A   1      39.373  27.985  32.848  1.00  0.00    -0.206 F 
ATOM     77  C   UNL A   1      37.726  31.165  33.427  1.00  0.00     0.006 A 
ENDBRANCH  49  70
BRANCH  61  78
ATOM     78  C   UNL A   1      44.898  24.404  33.557  1.00  0.00     0.057 A 
ATOM     79  C   UNL A   1      46.265  24.186  33.775  1.00  0.00     0.134 A 
ATOM     80  C   UNL A   1      44.039  23.463  34.174  1.00  0.00     0.134 A 
ATOM     81  F   UNL A   1      47.193  25.046  33.339  1.00  0.00    -0.206 F 
ATOM     82  C   UNL A   1      46.744  23.095  34.514  1.00  0.00     0.040 A 
ATOM     83  C   UNL A   1      44.503  22.404  34.958  1.00  0.00     0.040 A 
ATOM     84  F   UNL A   1      42.704  23.547  34.073  1.00  0.00    -0.206 F 
ATOM     85  C   UNL A   1      45.864  22.209  35.122  1.00  0.00     0.006 A 
ENDBRANCH  61  78
ENDBRANCH  35  36
ENDBRANCH  27  30
ENDBRANCH  25  26
ENDBRANCH  24  25
ENDBRANCH   1  24
TORSDOF 15
ENDMDL
