MODEL 1
REMARK VINA RESULT:     -10.7      0.000      0.000
REMARK SMILES CC(C)C[C@H](NC(=O)CNC(=O)[C@@H]([NH3+])C(C)C)C(=O)NCCCCNC(=O)c1ccc(-c2c3nc(c(-c4c(F)cccc4F)c4ccc([nH]4)c(-c4c(F)cccc4F)c4nc(c(-c5c(F)cccc5F)c5ccc2[nH]5)C=C4)C=C3)cc1
REMARK SMILES IDX 21 1 20 2 18 3 19 4 5 6 4 7 2 8 1 9 3 10 6 11 7 12 8 14 9 15
REMARK SMILES IDX 10 16 11 17 12 19 13 20 14 21 15 25 16 26 17 27 22 28 23 29
REMARK SMILES IDX 24 30 25 31 26 32 27 34 28 35 29 36 81 37 30 38 80 39 31 40
REMARK SMILES IDX 32 41 33 42 74 43 34 44 79 45 73 46 75 47 35 48 78 49 72 50
REMARK SMILES IDX 71 51 36 53 62 54 45 55 61 56 46 57 49 58 60 59 76 60 47 61
REMARK SMILES IDX 48 62 59 64 77 65 50 66 37 67 38 68 43 69 39 70 40 71 42 72
REMARK SMILES IDX 44 73 41 74 63 75 64 76 69 77 65 78 66 79 68 80 70 81 67 82
REMARK SMILES IDX 51 83 52 84 57 85 53 86 54 87 56 88 58 89 55 90
REMARK H PARENT 20 5 6 13 10 18 14 22 14 23 14 24 25 33 75 52 49 63
REMARK Flexibility Score: inf
ROOT
ATOM      1  C   UNL A   1      31.652  29.861  25.313  1.00  0.00     0.116 C 
ENDROOT
BRANCH   1   2
ATOM      2  N   UNL A   1      32.892  29.708  24.568  1.00  0.00    -0.354 N 
ATOM      3  C   UNL A   1      33.400  28.582  23.975  1.00  0.00     0.242 C 
ATOM      4  O   UNL A   1      34.405  28.687  23.273  1.00  0.00    -0.273 OA
ATOM      5  H   UNL A   1      33.440  30.521  24.480  1.00  0.00     0.163 HD
BRANCH   3   6
ATOM      6  C   UNL A   1      32.662  27.241  24.152  1.00  0.00     0.171 C 
BRANCH   6   7
ATOM      7  C   UNL A   1      33.025  26.628  25.510  1.00  0.00     0.038 C 
BRANCH   7   8
ATOM      8  C   UNL A   1      31.912  26.109  26.440  1.00  0.00    -0.015 C 
ATOM      9  C   UNL A   1      30.513  26.311  25.857  1.00  0.00     0.007 C 
ATOM     10  C   UNL A   1      32.140  24.610  26.683  1.00  0.00     0.007 C 
ENDBRANCH   7   8
ENDBRANCH   6   7
BRANCH   6  11
ATOM     11  N   UNL A   1      33.029  26.443  22.959  1.00  0.00    -0.343 N 
ATOM     12  C   UNL A   1      32.688  25.265  22.390  1.00  0.00     0.240 C 
ATOM     13  H   UNL A   1      33.720  26.902  22.428  1.00  0.00     0.164 HD
ATOM     14  O   UNL A   1      33.271  25.000  21.331  1.00  0.00    -0.273 OA
BRANCH  12  15
ATOM     15  C   UNL A   1      31.607  24.320  22.909  1.00  0.00     0.216 C 
BRANCH  15  16
ATOM     16  N   UNL A   1      31.689  22.959  22.419  1.00  0.00    -0.342 N 
ATOM     17  C   UNL A   1      32.173  21.841  23.029  1.00  0.00     0.278 C 
ATOM     18  H   UNL A   1      31.342  22.821  21.508  1.00  0.00     0.164 HD
ATOM     19  O   UNL A   1      32.153  20.789  22.382  1.00  0.00    -0.268 OA
BRANCH  17  20
ATOM     20  C   UNL A   1      32.727  21.864  24.478  1.00  0.00     0.273 C 
BRANCH  20  21
ATOM     21  N   UNL A   1      31.960  20.967  25.376  1.00  0.00    -0.347 N 
ATOM     22  H   UNL A   1      32.013  21.317  26.333  1.00  0.00     0.345 HD
ATOM     23  H   UNL A   1      32.353  20.027  25.336  1.00  0.00     0.345 HD
ATOM     24  H   UNL A   1      30.984  20.942  25.079  1.00  0.00     0.345 HD
ENDBRANCH  20  21
BRANCH  20  25
ATOM     25  C   UNL A   1      34.245  21.583  24.462  1.00  0.00     0.051 C 
ATOM     26  C   UNL A   1      34.984  22.790  23.864  1.00  0.00     0.014 C 
ATOM     27  C   UNL A   1      34.802  21.303  25.860  1.00  0.00     0.014 C 
ENDBRANCH  20  25
ENDBRANCH  17  20
ENDBRANCH  15  16
ENDBRANCH  12  15
ENDBRANCH   6  11
ENDBRANCH   3   6
ENDBRANCH   1   2
BRANCH   1  28
ATOM     28  C   UNL A   1      31.882  30.451  26.693  1.00  0.00     0.023 C 
BRANCH  28  29
ATOM     29  C   UNL A   1      31.643  31.953  26.764  1.00  0.00     0.023 C 
BRANCH  29  30
ATOM     30  C   UNL A   1      32.841  32.753  27.258  1.00  0.00     0.116 C 
BRANCH  30  31
ATOM     31  N   UNL A   1      32.496  34.128  27.596  1.00  0.00    -0.352 N 
ATOM     32  C   UNL A   1      33.030  34.922  28.581  1.00  0.00     0.251 C 
ATOM     33  H   UNL A   1      31.791  34.542  27.047  1.00  0.00     0.163 HD
ATOM     34  O   UNL A   1      32.529  36.004  28.866  1.00  0.00    -0.269 OA
BRANCH  32  35
ATOM     35  C   UNL A   1      34.208  34.425  29.313  1.00  0.00     0.039 A 
ATOM     36  C   UNL A   1      34.026  33.761  30.526  1.00  0.00     0.014 A 
ATOM     37  C   UNL A   1      35.477  34.538  28.738  1.00  0.00     0.014 A 
ATOM     38  C   UNL A   1      35.118  33.141  31.131  1.00  0.00     0.010 A 
ATOM     39  C   UNL A   1      36.541  33.843  29.295  1.00  0.00     0.010 A 
ATOM     40  C   UNL A   1      36.373  33.141  30.499  1.00  0.00    -0.014 A 
BRANCH  40  41
ATOM     41  C   UNL A   1      37.530  32.421  31.082  1.00  0.00     0.031 A 
ATOM     42  C   UNL A   1      38.154  32.920  32.355  1.00  0.00     0.074 A 
ATOM     43  C   UNL A   1      38.059  31.365  30.434  1.00  0.00     0.049 A 
ATOM     44  N   UNL A   1      39.210  32.477  32.986  1.00  0.00    -0.248 NA
ATOM     45  C   UNL A   1      37.527  34.094  32.983  1.00  0.00     0.031 C 
ATOM     46  C   UNL A   1      37.578  30.821  29.162  1.00  0.00     0.029 A 
ATOM     47  N   UNL A   1      39.127  30.566  30.753  1.00  0.00    -0.354 N 
ATOM     48  C   UNL A   1      39.380  33.325  34.073  1.00  0.00     0.074 A 
ATOM     49  C   UNL A   1      38.360  34.345  33.981  1.00  0.00     0.031 C 
ATOM     50  C   UNL A   1      38.331  29.761  28.824  1.00  0.00     0.029 A 
ATOM     51  C   UNL A   1      39.369  29.574  29.833  1.00  0.00     0.049 A 
ATOM     52  H   UNL A   1      39.671  30.691  31.564  1.00  0.00     0.167 HD
ATOM     53  C   UNL A   1      40.288  33.245  35.074  1.00  0.00     0.037 A 
ATOM     54  C   UNL A   1      40.323  28.624  29.806  1.00  0.00     0.037 A 
ATOM     55  C   UNL A   1      41.283  32.213  35.177  1.00  0.00     0.049 A 
ATOM     56  C   UNL A   1      41.320  28.557  30.929  1.00  0.00     0.074 A 
ATOM     57  C   UNL A   1      42.209  32.005  36.185  1.00  0.00     0.029 A 
ATOM     58  N   UNL A   1      41.482  31.213  34.237  1.00  0.00    -0.354 N 
ATOM     59  N   UNL A   1      41.425  29.322  31.989  1.00  0.00    -0.248 NA
ATOM     60  C   UNL A   1      42.328  27.489  30.856  1.00  0.00     0.031 C 
ATOM     61  C   UNL A   1      42.997  30.906  35.832  1.00  0.00     0.029 A 
ATOM     62  C   UNL A   1      42.530  30.397  34.630  1.00  0.00     0.049 A 
ATOM     63  H   UNL A   1      40.957  31.100  33.413  1.00  0.00     0.167 HD
ATOM     64  C   UNL A   1      42.488  28.811  32.723  1.00  0.00     0.074 A 
ATOM     65  C   UNL A   1      42.986  27.663  31.994  1.00  0.00     0.031 C 
ATOM     66  C   UNL A   1      43.006  29.254  33.895  1.00  0.00     0.037 A 
BRANCH  53  67
ATOM     67  C   UNL A   1      40.236  34.302  36.138  1.00  0.00     0.057 A 
ATOM     68  C   UNL A   1      41.013  35.467  36.061  1.00  0.00     0.134 A 
ATOM     69  C   UNL A   1      39.383  34.167  37.240  1.00  0.00     0.134 A 
ATOM     70  F   UNL A   1      41.863  35.651  35.040  1.00  0.00    -0.206 F 
ATOM     71  C   UNL A   1      40.964  36.445  37.056  1.00  0.00     0.040 A 
ATOM     72  C   UNL A   1      39.304  35.152  38.226  1.00  0.00     0.040 A 
ATOM     73  F   UNL A   1      38.609  33.079  37.374  1.00  0.00    -0.206 F 
ATOM     74  C   UNL A   1      40.101  36.292  38.139  1.00  0.00     0.006 A 
ENDBRANCH  53  67
BRANCH  54  75
ATOM     75  C   UNL A   1      40.367  27.644  28.692  1.00  0.00     0.057 A 
ATOM     76  C   UNL A   1      41.111  27.902  27.534  1.00  0.00     0.134 A 
ATOM     77  C   UNL A   1      39.663  26.436  28.749  1.00  0.00     0.134 A 
ATOM     78  F   UNL A   1      41.793  29.050  27.411  1.00  0.00    -0.206 F 
ATOM     79  C   UNL A   1      41.136  27.004  26.465  1.00  0.00     0.040 A 
ATOM     80  C   UNL A   1      39.699  25.518  27.699  1.00  0.00     0.040 A 
ATOM     81  F   UNL A   1      38.939  26.126  29.834  1.00  0.00    -0.206 F 
ATOM     82  C   UNL A   1      40.431  25.805  26.548  1.00  0.00     0.006 A 
ENDBRANCH  54  75
BRANCH  66  83
ATOM     83  C   UNL A   1      44.146  28.473  34.480  1.00  0.00     0.057 A 
ATOM     84  C   UNL A   1      45.481  28.832  34.257  1.00  0.00     0.134 A 
ATOM     85  C   UNL A   1      43.901  27.372  35.312  1.00  0.00     0.134 A 
ATOM     86  F   UNL A   1      45.782  29.869  33.460  1.00  0.00    -0.206 F 
ATOM     87  C   UNL A   1      46.533  28.110  34.823  1.00  0.00     0.040 A 
ATOM     88  C   UNL A   1      44.943  26.660  35.906  1.00  0.00     0.040 A 
ATOM     89  F   UNL A   1      42.644  26.982  35.574  1.00  0.00    -0.206 F 
ATOM     90  C   UNL A   1      46.264  27.026  35.657  1.00  0.00     0.006 A 
ENDBRANCH  66  83
ENDBRANCH  40  41
ENDBRANCH  32  35
ENDBRANCH  30  31
ENDBRANCH  29  30
ENDBRANCH  28  29
ENDBRANCH   1  28
TORSDOF 19
ENDMDL
MODEL 2
REMARK VINA RESULT:     -10.7      4.418      9.139
REMARK SMILES CC(C)C[C@H](NC(=O)CNC(=O)[C@@H]([NH3+])C(C)C)C(=O)NCCCCNC(=O)c1ccc(-c2c3nc(c(-c4c(F)cccc4F)c4ccc([nH]4)c(-c4c(F)cccc4F)c4nc(c(-c5c(F)cccc5F)c5ccc2[nH]5)C=C4)C=C3)cc1
REMARK SMILES IDX 21 1 20 2 18 3 19 4 5 6 4 7 2 8 1 9 3 10 6 11 7 12 8 14 9 15
REMARK SMILES IDX 10 16 11 17 12 19 13 20 14 21 15 25 16 26 17 27 22 28 23 29
REMARK SMILES IDX 24 30 25 31 26 32 27 34 28 35 29 36 81 37 30 38 80 39 31 40
REMARK SMILES IDX 32 41 33 42 74 43 34 44 79 45 73 46 75 47 35 48 78 49 72 50
REMARK SMILES IDX 71 51 36 53 62 54 45 55 61 56 46 57 49 58 60 59 76 60 47 61
REMARK SMILES IDX 48 62 59 64 77 65 50 66 37 67 38 68 43 69 39 70 40 71 42 72
REMARK SMILES IDX 44 73 41 74 63 75 64 76 69 77 65 78 66 79 68 80 70 81 67 82
REMARK SMILES IDX 51 83 52 84 57 85 53 86 54 87 56 88 58 89 55 90
REMARK H PARENT 20 5 6 13 10 18 14 22 14 23 14 24 25 33 75 52 49 63
REMARK Flexibility Score: inf
ROOT
ATOM      1  C   UNL A   1      36.919  22.677  25.352  1.00  0.00     0.116 C 
ENDROOT
BRANCH   1   2
ATOM      2  N   UNL A   1      36.020  22.462  26.475  1.00  0.00    -0.354 N 
ATOM      3  C   UNL A   1      34.739  22.917  26.644  1.00  0.00     0.242 C 
ATOM      4  O   UNL A   1      34.091  22.513  27.609  1.00  0.00    -0.273 OA
ATOM      5  H   UNL A   1      36.380  21.916  27.212  1.00  0.00     0.163 HD
BRANCH   3   6
ATOM      6  C   UNL A   1      34.132  23.863  25.589  1.00  0.00     0.171 C 
BRANCH   6   7
ATOM      7  C   UNL A   1      34.536  25.309  25.901  1.00  0.00     0.038 C 
BRANCH   7   8
ATOM      8  C   UNL A   1      33.994  26.461  25.032  1.00  0.00    -0.015 C 
ATOM      9  C   UNL A   1      33.624  26.011  23.619  1.00  0.00     0.007 C 
ATOM     10  C   UNL A   1      32.746  27.039  25.716  1.00  0.00     0.007 C 
ENDBRANCH   7   8
ENDBRANCH   6   7
BRANCH   6  11
ATOM     11  N   UNL A   1      32.679  23.575  25.609  1.00  0.00    -0.343 N 
ATOM     12  C   UNL A   1      31.843  22.583  25.228  1.00  0.00     0.240 C 
ATOM     13  H   UNL A   1      32.179  24.318  26.016  1.00  0.00     0.164 HD
ATOM     14  O   UNL A   1      30.646  22.776  25.473  1.00  0.00    -0.273 OA
BRANCH  12  15
ATOM     15  C   UNL A   1      32.279  21.254  24.617  1.00  0.00     0.216 C 
BRANCH  15  16
ATOM     16  N   UNL A   1      32.150  20.101  25.486  1.00  0.00    -0.342 N 
ATOM     17  C   UNL A   1      32.757  18.883  25.413  1.00  0.00     0.278 C 
ATOM     18  H   UNL A   1      31.532  20.215  26.243  1.00  0.00     0.164 HD
ATOM     19  O   UNL A   1      32.457  18.049  26.273  1.00  0.00    -0.268 OA
BRANCH  17  20
ATOM     20  C   UNL A   1      33.789  18.538  24.306  1.00  0.00     0.273 C 
BRANCH  20  21
ATOM     21  N   UNL A   1      35.103  18.157  24.877  1.00  0.00    -0.347 N 
ATOM     22  H   UNL A   1      35.498  18.950  25.382  1.00  0.00     0.345 HD
ATOM     23  H   UNL A   1      35.735  17.884  24.124  1.00  0.00     0.345 HD
ATOM     24  H   UNL A   1      34.981  17.373  25.519  1.00  0.00     0.345 HD
ENDBRANCH  20  21
BRANCH  20  25
ATOM     25  C   UNL A   1      33.194  17.485  23.348  1.00  0.00     0.051 C 
ATOM     26  C   UNL A   1      32.416  18.191  22.227  1.00  0.00     0.014 C 
ATOM     27  C   UNL A   1      34.268  16.593  22.720  1.00  0.00     0.014 C 
ENDBRANCH  20  25
ENDBRANCH  17  20
ENDBRANCH  15  16
ENDBRANCH  12  15
ENDBRANCH   6  11
ENDBRANCH   3   6
ENDBRANCH   1   2
BRANCH   1  28
ATOM     28  C   UNL A   1      36.938  21.494  24.399  1.00  0.00     0.023 C 
BRANCH  28  29
ATOM     29  C   UNL A   1      37.687  20.284  24.939  1.00  0.00     0.023 C 
BRANCH  29  30
ATOM     30  C   UNL A   1      38.927  20.630  25.753  1.00  0.00     0.116 C 
BRANCH  30  31
ATOM     31  N   UNL A   1      39.904  19.550  25.773  1.00  0.00    -0.352 N 
ATOM     32  C   UNL A   1      41.241  19.618  26.078  1.00  0.00     0.251 C 
ATOM     33  H   UNL A   1      39.562  18.656  25.539  1.00  0.00     0.163 HD
ATOM     34  O   UNL A   1      41.985  18.660  25.891  1.00  0.00    -0.269 OA
BRANCH  32  35
ATOM     35  C   UNL A   1      41.771  20.885  26.608  1.00  0.00     0.039 A 
ATOM     36  C   UNL A   1      42.280  21.834  25.723  1.00  0.00     0.014 A 
ATOM     37  C   UNL A   1      41.667  21.159  27.975  1.00  0.00     0.014 A 
ATOM     38  C   UNL A   1      42.619  23.099  26.203  1.00  0.00     0.010 A 
ATOM     39  C   UNL A   1      41.919  22.444  28.433  1.00  0.00     0.010 A 
ATOM     40  C   UNL A   1      42.401  23.425  27.553  1.00  0.00    -0.014 A 
BRANCH  40  41
ATOM     41  C   UNL A   1      42.679  24.787  28.070  1.00  0.00     0.031 A 
ATOM     42  C   UNL A   1      44.074  25.154  28.491  1.00  0.00     0.074 A 
ATOM     43  C   UNL A   1      41.669  25.665  28.225  1.00  0.00     0.049 A 
ATOM     44  N   UNL A   1      44.509  26.262  29.033  1.00  0.00    -0.248 NA
ATOM     45  C   UNL A   1      45.112  24.126  28.310  1.00  0.00     0.031 C 
ATOM     46  C   UNL A   1      40.263  25.406  27.905  1.00  0.00     0.029 A 
ATOM     47  N   UNL A   1      41.669  26.951  28.701  1.00  0.00    -0.354 N 
ATOM     48  C   UNL A   1      45.862  26.057  29.270  1.00  0.00     0.074 A 
ATOM     49  C   UNL A   1      46.164  24.700  28.874  1.00  0.00     0.031 C 
ATOM     50  C   UNL A   1      39.543  26.509  28.168  1.00  0.00     0.029 A 
ATOM     51  C   UNL A   1      40.426  27.537  28.709  1.00  0.00     0.049 A 
ATOM     52  H   UNL A   1      42.483  27.411  29.008  1.00  0.00     0.167 HD
ATOM     53  C   UNL A   1      46.778  26.932  29.749  1.00  0.00     0.037 A 
ATOM     54  C   UNL A   1      40.044  28.764  29.112  1.00  0.00     0.037 A 
ATOM     55  C   UNL A   1      46.480  28.290  30.115  1.00  0.00     0.049 A 
ATOM     56  C   UNL A   1      41.080  29.716  29.640  1.00  0.00     0.074 A 
ATOM     57  C   UNL A   1      47.348  29.275  30.551  1.00  0.00     0.029 A 
ATOM     58  N   UNL A   1      45.213  28.853  30.089  1.00  0.00    -0.354 N 
ATOM     59  N   UNL A   1      42.371  29.535  29.791  1.00  0.00    -0.248 NA
ATOM     60  C   UNL A   1      40.609  31.047  30.048  1.00  0.00     0.031 C 
ATOM     61  C   UNL A   1      46.599  30.422  30.830  1.00  0.00     0.029 A 
ATOM     62  C   UNL A   1      45.272  30.167  30.520  1.00  0.00     0.049 A 
ATOM     63  H   UNL A   1      44.394  28.388  29.805  1.00  0.00     0.167 HD
ATOM     64  C   UNL A   1      42.869  30.734  30.281  1.00  0.00     0.074 A 
ATOM     65  C   UNL A   1      41.744  31.641  30.390  1.00  0.00     0.031 C 
ATOM     66  C   UNL A   1      44.143  31.057  30.614  1.00  0.00     0.037 A 
BRANCH  53  67
ATOM     67  C   UNL A   1      48.189  26.441  29.894  1.00  0.00     0.057 A 
ATOM     68  C   UNL A   1      48.637  25.816  31.066  1.00  0.00     0.134 A 
ATOM     69  C   UNL A   1      49.104  26.573  28.843  1.00  0.00     0.134 A 
ATOM     70  F   UNL A   1      47.816  25.672  32.117  1.00  0.00    -0.206 F 
ATOM     71  C   UNL A   1      49.952  25.366  31.198  1.00  0.00     0.040 A 
ATOM     72  C   UNL A   1      50.414  26.101  28.952  1.00  0.00     0.040 A 
ATOM     73  F   UNL A   1      48.741  27.159  27.692  1.00  0.00    -0.206 F 
ATOM     74  C   UNL A   1      50.842  25.501  30.135  1.00  0.00     0.006 A 
ENDBRANCH  53  67
BRANCH  54  75
ATOM     75  C   UNL A   1      38.621  29.172  29.007  1.00  0.00     0.057 A 
ATOM     76  C   UNL A   1      38.090  29.633  27.796  1.00  0.00     0.134 A 
ATOM     77  C   UNL A   1      37.761  29.124  30.110  1.00  0.00     0.134 A 
ATOM     78  F   UNL A   1      38.868  29.720  26.707  1.00  0.00    -0.206 F 
ATOM     79  C   UNL A   1      36.762  30.051  27.691  1.00  0.00     0.040 A 
ATOM     80  C   UNL A   1      36.424  29.515  30.014  1.00  0.00     0.040 A 
ATOM     81  F   UNL A   1      38.205  28.684  31.297  1.00  0.00    -0.206 F 
ATOM     82  C   UNL A   1      35.923  29.988  28.802  1.00  0.00     0.006 A 
ENDBRANCH  54  75
BRANCH  66  83
ATOM     83  C   UNL A   1      44.395  32.458  31.089  1.00  0.00     0.057 A 
ATOM     84  C   UNL A   1      44.675  33.502  30.199  1.00  0.00     0.134 A 
ATOM     85  C   UNL A   1      44.317  32.772  32.452  1.00  0.00     0.134 A 
ATOM     86  F   UNL A   1      44.776  33.265  28.882  1.00  0.00    -0.206 F 
ATOM     87  C   UNL A   1      44.888  34.805  30.650  1.00  0.00     0.040 A 
ATOM     88  C   UNL A   1      44.500  34.075  32.912  1.00  0.00     0.040 A 
ATOM     89  F   UNL A   1      44.043  31.818  33.356  1.00  0.00    -0.206 F 
ATOM     90  C   UNL A   1      44.793  35.096  32.010  1.00  0.00     0.006 A 
ENDBRANCH  66  83
ENDBRANCH  40  41
ENDBRANCH  32  35
ENDBRANCH  30  31
ENDBRANCH  29  30
ENDBRANCH  28  29
ENDBRANCH   1  28
TORSDOF 19
ENDMDL
MODEL 3
REMARK VINA RESULT:     -10.5      0.826      6.252
REMARK SMILES CC(C)C[C@H](NC(=O)CNC(=O)[C@@H]([NH3+])C(C)C)C(=O)NCCCCNC(=O)c1ccc(-c2c3nc(c(-c4c(F)cccc4F)c4ccc([nH]4)c(-c4c(F)cccc4F)c4nc(c(-c5c(F)cccc5F)c5ccc2[nH]5)C=C4)C=C3)cc1
REMARK SMILES IDX 21 1 20 2 18 3 19 4 5 6 4 7 2 8 1 9 3 10 6 11 7 12 8 14 9 15
REMARK SMILES IDX 10 16 11 17 12 19 13 20 14 21 15 25 16 26 17 27 22 28 23 29
REMARK SMILES IDX 24 30 25 31 26 32 27 34 28 35 29 36 81 37 30 38 80 39 31 40
REMARK SMILES IDX 32 41 33 42 74 43 34 44 79 45 73 46 75 47 35 48 78 49 72 50
REMARK SMILES IDX 71 51 36 53 62 54 45 55 61 56 46 57 49 58 60 59 76 60 47 61
REMARK SMILES IDX 48 62 59 64 77 65 50 66 37 67 38 68 43 69 39 70 40 71 42 72
REMARK SMILES IDX 44 73 41 74 63 75 64 76 69 77 65 78 66 79 68 80 70 81 67 82
REMARK SMILES IDX 51 83 52 84 57 85 53 86 54 87 56 88 58 89 55 90
REMARK H PARENT 20 5 6 13 10 18 14 22 14 23 14 24 25 33 75 52 49 63
REMARK Flexibility Score: inf
ROOT
ATOM      1  C   UNL A   1      31.586  29.854  25.181  1.00  0.00     0.116 C 
ENDROOT
BRANCH   1   2
ATOM      2  N   UNL A   1      32.849  29.693  24.478  1.00  0.00    -0.354 N 
ATOM      3  C   UNL A   1      33.407  28.548  23.973  1.00  0.00     0.242 C 
ATOM      4  O   UNL A   1      34.426  28.640  23.290  1.00  0.00    -0.273 OA
ATOM      5  H   UNL A   1      33.374  30.517  24.348  1.00  0.00     0.163 HD
BRANCH   3   6
ATOM      6  C   UNL A   1      32.706  27.198  24.221  1.00  0.00     0.171 C 
BRANCH   6   7
ATOM      7  C   UNL A   1      32.970  26.737  25.660  1.00  0.00     0.038 C 
BRANCH   7   8
ATOM      8  C   UNL A   1      31.821  26.141  26.496  1.00  0.00    -0.015 C 
ATOM      9  C   UNL A   1      30.450  26.356  25.855  1.00  0.00     0.007 C 
ATOM     10  C   UNL A   1      32.068  24.633  26.655  1.00  0.00     0.007 C 
ENDBRANCH   7   8
ENDBRANCH   6   7
BRANCH   6  11
ATOM     11  N   UNL A   1      33.208  26.306  23.150  1.00  0.00    -0.343 N 
ATOM     12  C   UNL A   1      32.880  25.120  22.591  1.00  0.00     0.240 C 
ATOM     13  H   UNL A   1      34.010  26.685  22.724  1.00  0.00     0.164 HD
ATOM     14  O   UNL A   1      33.610  24.752  21.662  1.00  0.00    -0.273 OA
BRANCH  12  15
ATOM     15  C   UNL A   1      31.659  24.282  22.962  1.00  0.00     0.216 C 
BRANCH  15  16
ATOM     16  N   UNL A   1      31.704  22.899  22.531  1.00  0.00    -0.342 N 
ATOM     17  C   UNL A   1      32.218  21.806  23.162  1.00  0.00     0.278 C 
ATOM     18  H   UNL A   1      31.303  22.722  21.650  1.00  0.00     0.164 HD
ATOM     19  O   UNL A   1      32.154  20.726  22.566  1.00  0.00    -0.268 OA
BRANCH  17  20
ATOM     20  C   UNL A   1      32.858  21.890  24.573  1.00  0.00     0.273 C 
BRANCH  20  21
ATOM     21  N   UNL A   1      32.240  20.930  25.518  1.00  0.00    -0.347 N 
ATOM     22  H   UNL A   1      32.531  21.152  26.469  1.00  0.00     0.345 HD
ATOM     23  H   UNL A   1      32.538  19.982  25.284  1.00  0.00     0.345 HD
ATOM     24  H   UNL A   1      31.224  20.993  25.451  1.00  0.00     0.345 HD
ENDBRANCH  20  21
BRANCH  20  25
ATOM     25  C   UNL A   1      34.392  21.758  24.460  1.00  0.00     0.051 C 
ATOM     26  C   UNL A   1      35.066  22.897  25.239  1.00  0.00     0.014 C 
ATOM     27  C   UNL A   1      34.904  20.419  24.997  1.00  0.00     0.014 C 
ENDBRANCH  20  25
ENDBRANCH  17  20
ENDBRANCH  15  16
ENDBRANCH  12  15
ENDBRANCH   6  11
ENDBRANCH   3   6
ENDBRANCH   1   2
BRANCH   1  28
ATOM     28  C   UNL A   1      31.782  30.336  26.608  1.00  0.00     0.023 C 
BRANCH  28  29
ATOM     29  C   UNL A   1      31.400  31.795  26.820  1.00  0.00     0.023 C 
BRANCH  29  30
ATOM     30  C   UNL A   1      32.550  32.774  26.632  1.00  0.00     0.116 C 
BRANCH  30  31
ATOM     31  N   UNL A   1      32.349  34.022  27.357  1.00  0.00    -0.352 N 
ATOM     32  C   UNL A   1      33.029  34.487  28.456  1.00  0.00     0.251 C 
ATOM     33  H   UNL A   1      31.634  34.607  27.014  1.00  0.00     0.163 HD
ATOM     34  O   UNL A   1      32.643  35.476  29.069  1.00  0.00    -0.269 OA
BRANCH  32  35
ATOM     35  C   UNL A   1      34.221  33.747  28.901  1.00  0.00     0.039 A 
ATOM     36  C   UNL A   1      35.479  34.329  28.752  1.00  0.00     0.014 A 
ATOM     37  C   UNL A   1      34.070  32.519  29.553  1.00  0.00     0.014 A 
ATOM     38  C   UNL A   1      36.588  33.709  29.328  1.00  0.00     0.010 A 
ATOM     39  C   UNL A   1      35.157  31.954  30.201  1.00  0.00     0.010 A 
ATOM     40  C   UNL A   1      36.428  32.540  30.092  1.00  0.00    -0.014 A 
BRANCH  40  41
ATOM     41  C   UNL A   1      37.578  31.907  30.781  1.00  0.00     0.031 A 
ATOM     42  C   UNL A   1      38.381  30.853  30.073  1.00  0.00     0.074 A 
ATOM     43  C   UNL A   1      37.854  32.229  32.060  1.00  0.00     0.049 A 
ATOM     44  N   UNL A   1      39.375  30.130  30.523  1.00  0.00    -0.248 NA
ATOM     45  C   UNL A   1      37.995  30.545  28.687  1.00  0.00     0.031 C 
ATOM     46  C   UNL A   1      37.111  33.196  32.871  1.00  0.00     0.029 A 
ATOM     47  N   UNL A   1      38.831  31.768  32.904  1.00  0.00    -0.354 N 
ATOM     48  C   UNL A   1      39.719  29.277  29.483  1.00  0.00     0.074 A 
ATOM     49  C   UNL A   1      38.790  29.525  28.403  1.00  0.00     0.031 C 
ATOM     50  C   UNL A   1      37.677  33.275  34.087  1.00  0.00     0.029 A 
ATOM     51  C   UNL A   1      38.796  32.341  34.153  1.00  0.00     0.049 A 
ATOM     52  H   UNL A   1      39.495  31.091  32.642  1.00  0.00     0.167 HD
ATOM     53  C   UNL A   1      40.736  28.386  29.422  1.00  0.00     0.037 A 
ATOM     54  C   UNL A   1      39.576  32.131  35.230  1.00  0.00     0.037 A 
ATOM     55  C   UNL A   1      41.676  28.163  30.487  1.00  0.00     0.049 A 
ATOM     56  C   UNL A   1      40.700  31.136  35.137  1.00  0.00     0.074 A 
ATOM     57  C   UNL A   1      42.780  27.329  30.501  1.00  0.00     0.029 A 
ATOM     58  N   UNL A   1      41.621  28.779  31.728  1.00  0.00    -0.354 N 
ATOM     59  N   UNL A   1      41.060  30.387  34.122  1.00  0.00    -0.248 NA
ATOM     60  C   UNL A   1      41.530  30.961  36.337  1.00  0.00     0.031 C 
ATOM     61  C   UNL A   1      43.367  27.407  31.768  1.00  0.00     0.029 A 
ATOM     62  C   UNL A   1      42.659  28.327  32.525  1.00  0.00     0.049 A 
ATOM     63  H   UNL A   1      40.944  29.438  32.002  1.00  0.00     0.167 HD
ATOM     64  C   UNL A   1      42.174  29.677  34.549  1.00  0.00     0.074 A 
ATOM     65  C   UNL A   1      42.438  30.093  35.911  1.00  0.00     0.031 C 
ATOM     66  C   UNL A   1      42.911  28.760  33.876  1.00  0.00     0.037 A 
BRANCH  53  67
ATOM     67  C   UNL A   1      40.885  27.595  28.155  1.00  0.00     0.057 A 
ATOM     68  C   UNL A   1      40.257  26.354  27.981  1.00  0.00     0.134 A 
ATOM     69  C   UNL A   1      41.643  28.090  27.087  1.00  0.00     0.134 A 
ATOM     70  F   UNL A   1      39.529  25.815  28.971  1.00  0.00    -0.206 F 
ATOM     71  C   UNL A   1      40.402  25.620  26.803  1.00  0.00     0.040 A 
ATOM     72  C   UNL A   1      41.772  27.378  25.892  1.00  0.00     0.040 A 
ATOM     73  F   UNL A   1      42.268  29.273  27.185  1.00  0.00    -0.206 F 
ATOM     74  C   UNL A   1      41.156  26.137  25.751  1.00  0.00     0.006 A 
ENDBRANCH  53  67
BRANCH  54  75
ATOM     75  C   UNL A   1      39.342  32.895  36.481  1.00  0.00     0.057 A 
ATOM     76  C   UNL A   1      38.445  32.432  37.451  1.00  0.00     0.134 A 
ATOM     77  C   UNL A   1      39.994  34.107  36.733  1.00  0.00     0.134 A 
ATOM     78  F   UNL A   1      37.775  31.286  37.259  1.00  0.00    -0.206 F 
ATOM     79  C   UNL A   1      38.190  33.156  38.617  1.00  0.00     0.040 A 
ATOM     80  C   UNL A   1      39.769  34.829  37.906  1.00  0.00     0.040 A 
ATOM     81  F   UNL A   1      40.872  34.601  35.848  1.00  0.00    -0.206 F 
ATOM     82  C   UNL A   1      38.857  34.358  38.849  1.00  0.00     0.006 A 
ENDBRANCH  54  75
BRANCH  66  83
ATOM     83  C   UNL A   1      44.095  28.174  34.587  1.00  0.00     0.057 A 
ATOM     84  C   UNL A   1      45.354  28.789  34.559  1.00  0.00     0.134 A 
ATOM     85  C   UNL A   1      43.963  27.002  35.343  1.00  0.00     0.134 A 
ATOM     86  F   UNL A   1      45.548  29.907  33.843  1.00  0.00    -0.206 F 
ATOM     87  C   UNL A   1      46.443  28.246  35.241  1.00  0.00     0.040 A 
ATOM     88  C   UNL A   1      45.038  26.466  36.051  1.00  0.00     0.040 A 
ATOM     89  F   UNL A   1      42.782  26.370  35.419  1.00  0.00    -0.206 F 
ATOM     90  C   UNL A   1      46.285  27.085  35.996  1.00  0.00     0.006 A 
ENDBRANCH  66  83
ENDBRANCH  40  41
ENDBRANCH  32  35
ENDBRANCH  30  31
ENDBRANCH  29  30
ENDBRANCH  28  29
ENDBRANCH   1  28
TORSDOF 19
ENDMDL
