MODEL 1
REMARK VINA RESULT:     -13.9      0.000      0.000
REMARK SMILES COc1ccc([C@H]2[NH2+][C@@H](C(=O)NCCCCNC(=O)c3ccc(-c4c5nc(c(-c6c(F)cccc6F)c6ccc([nH]6)c(-c6c(F)cccc6F)c6nc(c(-c7c(F)cccc7F)c7ccc4[nH]7)C=C6)C=C5)cc3)CC3=c4ccccc4=N[C@H]32)cc1Cn1cc([N+](=O)[O-])cn1
REMARK SMILES IDX 13 1 12 2 10 3 11 4 9 6 7 7 8 8 83 9 75 12 82 13 74 14 76 15
REMARK SMILES IDX 81 16 77 17 80 18 78 19 79 20 6 21 3 22 4 23 85 24 5 25
REMARK SMILES IDX 84 26 2 27 1 28 86 29 87 30 88 31 94 32 89 33 93 34 90 35
REMARK SMILES IDX 91 36 92 37 14 38 15 39 16 40 17 41 18 42 19 44 20 45 21 46
REMARK SMILES IDX 73 47 22 48 72 49 23 50 24 51 25 52 66 53 26 54 71 55 65 56
REMARK SMILES IDX 67 57 27 58 70 59 64 60 63 61 28 63 54 64 37 65 53 66 38 67
REMARK SMILES IDX 41 68 52 69 68 70 39 71 40 72 51 74 69 75 42 76 29 77 30 78
REMARK SMILES IDX 35 79 31 80 32 81 34 82 36 83 33 84 55 85 56 86 61 87 57 88
REMARK SMILES IDX 58 89 60 90 62 91 59 92 43 93 44 94 49 95 45 96 46 97 48 98
REMARK SMILES IDX 50 99 47 100
REMARK H PARENT 12 5 8 10 8 11 17 43 67 62 41 73
REMARK Flexibility Score: inf
ROOT
ATOM      1  C   UNL A   1      36.261  23.674  25.008  1.00  0.00     0.116 C 
ENDROOT
BRANCH   1   2
ATOM      2  N   UNL A   1      35.424  24.337  24.009  1.00  0.00    -0.351 N 
ATOM      3  C   UNL A   1      34.401  25.248  24.154  1.00  0.00     0.278 C 
ATOM      4  O   UNL A   1      33.810  25.573  23.111  1.00  0.00    -0.268 OA
ATOM      5  H   UNL A   1      35.626  24.092  23.078  1.00  0.00     0.163 HD
BRANCH   3   6
ATOM      6  C   UNL A   1      33.989  25.973  25.482  1.00  0.00     0.277 C 
ATOM      7  C   UNL A   1      31.874  24.741  25.887  1.00  0.00     0.243 C 
ATOM      8  N   UNL A   1      33.225  25.088  26.402  1.00  0.00    -0.327 N 
ATOM      9  C   UNL A   1      31.117  26.246  25.771  1.00  0.00     0.196 C 
ATOM     10  H   UNL A   1      33.752  24.225  26.535  1.00  0.00     0.347 HD
ATOM     11  H   UNL A   1      33.096  25.596  27.277  1.00  0.00     0.347 HD
ATOM     12  C   UNL A   1      31.946  27.410  25.229  1.00  0.00    -0.024 C 
ATOM     13  N   UNL A   1      29.831  26.365  25.005  1.00  0.00    -0.270 NA
ATOM     14  C   UNL A   1      33.421  27.393  25.419  1.00  0.00     0.109 C 
ATOM     15  C   UNL A   1      31.260  28.162  24.364  1.00  0.00     0.002 A 
ATOM     16  C   UNL A   1      29.957  27.479  24.324  1.00  0.00     0.066 A 
ATOM     17  C   UNL A   1      31.677  29.063  23.321  1.00  0.00     0.010 A 
ATOM     18  C   UNL A   1      28.992  28.044  23.328  1.00  0.00     0.028 A 
ATOM     19  C   UNL A   1      30.837  29.305  22.301  1.00  0.00     0.001 A 
ATOM     20  C   UNL A   1      29.467  28.822  22.334  1.00  0.00     0.002 A 
BRANCH   7  21
ATOM     21  C   UNL A   1      32.010  23.478  24.919  1.00  0.00     0.012 A 
ATOM     22  C   UNL A   1      32.258  21.049  23.349  1.00  0.00     0.123 A 
ATOM     23  C   UNL A   1      31.453  22.152  22.950  1.00  0.00     0.047 A 
ATOM     24  C   UNL A   1      33.060  21.097  24.491  1.00  0.00     0.016 A 
ATOM     25  C   UNL A   1      31.348  23.350  23.704  1.00  0.00     0.014 A 
ATOM     26  C   UNL A   1      32.793  22.345  25.213  1.00  0.00     0.019 A 
BRANCH  22  27
ATOM     27  O   UNL A   1      32.215  19.947  22.535  1.00  0.00    -0.496 OA
ATOM     28  C   UNL A   1      31.809  20.300  21.208  1.00  0.00     0.278 C 
ENDBRANCH  22  27
BRANCH  24  29
ATOM     29  C   UNL A   1      33.930  19.743  24.903  1.00  0.00     0.183 C 
BRANCH  29  30
ATOM     30  N   UNL A   1      33.781  18.160  24.942  1.00  0.00    -0.261 N 
ATOM     31  C   UNL A   1      32.901  17.194  25.367  1.00  0.00     0.194 A 
ATOM     32  N   UNL A   1      34.707  17.476  24.186  1.00  0.00    -0.174 NA
ATOM     33  C   UNL A   1      33.382  15.927  25.181  1.00  0.00     0.307 A 
ATOM     34  C   UNL A   1      34.511  16.163  24.431  1.00  0.00     0.220 A 
BRANCH  33  35
ATOM     35  N   UNL A   1      32.796  14.730  25.718  1.00  0.00     0.066 N 
ATOM     36  O   UNL A   1      33.437  13.681  25.585  1.00  0.00    -0.258 OA
ATOM     37  O   UNL A   1      31.699  14.840  26.288  1.00  0.00    -0.258 OA
ENDBRANCH  33  35
ENDBRANCH  29  30
ENDBRANCH  24  29
ENDBRANCH   7  21
ENDBRANCH   3   6
ENDBRANCH   1   2
BRANCH   1  38
ATOM     38  C   UNL A   1      37.062  22.381  24.683  1.00  0.00     0.023 C 
BRANCH  38  39
ATOM     39  C   UNL A   1      38.099  21.609  25.784  1.00  0.00     0.023 C 
BRANCH  39  40
ATOM     40  C   UNL A   1      39.733  22.053  26.429  1.00  0.00     0.116 C 
BRANCH  40  41
ATOM     41  N   UNL A   1      40.963  22.494  25.712  1.00  0.00    -0.352 N 
ATOM     42  C   UNL A   1      42.027  23.355  26.093  1.00  0.00     0.251 C 
ATOM     43  H   UNL A   1      41.054  22.120  24.807  1.00  0.00     0.163 HD
ATOM     44  O   UNL A   1      43.119  23.152  25.540  1.00  0.00    -0.269 OA
BRANCH  42  45
ATOM     45  C   UNL A   1      41.953  24.631  26.937  1.00  0.00     0.039 A 
ATOM     46  C   UNL A   1      41.036  24.634  28.012  1.00  0.00     0.014 A 
ATOM     47  C   UNL A   1      42.653  25.825  26.747  1.00  0.00     0.014 A 
ATOM     48  C   UNL A   1      40.965  25.689  28.969  1.00  0.00     0.010 A 
ATOM     49  C   UNL A   1      42.587  26.890  27.715  1.00  0.00     0.010 A 
ATOM     50  C   UNL A   1      41.786  26.822  28.878  1.00  0.00    -0.014 A 
BRANCH  50  51
ATOM     51  C   UNL A   1      41.669  27.953  29.895  1.00  0.00     0.031 A 
ATOM     52  C   UNL A   1      40.538  28.944  29.755  1.00  0.00     0.074 A 
ATOM     53  C   UNL A   1      42.474  28.130  30.974  1.00  0.00     0.049 A 
ATOM     54  N   UNL A   1      40.188  29.934  30.543  1.00  0.00    -0.248 NA
ATOM     55  C   UNL A   1      39.691  28.794  28.565  1.00  0.00     0.031 C 
ATOM     56  C   UNL A   1      43.626  27.317  31.312  1.00  0.00     0.029 A 
ATOM     57  N   UNL A   1      42.454  29.058  32.005  1.00  0.00    -0.354 N 
ATOM     58  C   UNL A   1      39.075  30.514  29.953  1.00  0.00     0.074 A 
ATOM     59  C   UNL A   1      38.840  29.797  28.715  1.00  0.00     0.031 C 
ATOM     60  C   UNL A   1      44.192  27.737  32.454  1.00  0.00     0.029 A 
ATOM     61  C   UNL A   1      43.455  28.892  32.946  1.00  0.00     0.049 A 
ATOM     62  H   UNL A   1      41.783  29.776  32.064  1.00  0.00     0.167 HD
ATOM     63  C   UNL A   1      38.294  31.532  30.393  1.00  0.00     0.037 A 
ATOM     64  C   UNL A   1      43.766  29.570  34.074  1.00  0.00     0.037 A 
ATOM     65  C   UNL A   1      38.493  32.284  31.604  1.00  0.00     0.049 A 
ATOM     66  C   UNL A   1      42.922  30.737  34.512  1.00  0.00     0.074 A 
ATOM     67  C   UNL A   1      37.730  33.328  32.104  1.00  0.00     0.029 A 
ATOM     68  N   UNL A   1      39.529  32.087  32.501  1.00  0.00    -0.354 N 
ATOM     69  N   UNL A   1      41.837  31.222  33.964  1.00  0.00    -0.248 NA
ATOM     70  C   UNL A   1      43.340  31.447  35.735  1.00  0.00     0.031 C 
ATOM     71  C   UNL A   1      38.323  33.784  33.286  1.00  0.00     0.029 A 
ATOM     72  C   UNL A   1      39.433  33.000  33.542  1.00  0.00     0.049 A 
ATOM     73  H   UNL A   1      40.230  31.401  32.413  1.00  0.00     0.167 HD
ATOM     74  C   UNL A   1      41.423  32.260  34.792  1.00  0.00     0.074 A 
ATOM     75  C   UNL A   1      42.367  32.335  35.883  1.00  0.00     0.031 C 
ATOM     76  C   UNL A   1      40.351  33.072  34.649  1.00  0.00     0.037 A 
BRANCH  63  77
ATOM     77  C   UNL A   1      37.128  31.894  29.525  1.00  0.00     0.057 A 
ATOM     78  C   UNL A   1      37.157  33.028  28.702  1.00  0.00     0.134 A 
ATOM     79  C   UNL A   1      35.964  31.118  29.523  1.00  0.00     0.134 A 
ATOM     80  F   UNL A   1      38.241  33.819  28.673  1.00  0.00    -0.206 F 
ATOM     81  C   UNL A   1      36.053  33.399  27.937  1.00  0.00     0.040 A 
ATOM     82  C   UNL A   1      34.861  31.465  28.742  1.00  0.00     0.040 A 
ATOM     83  F   UNL A   1      35.879  30.016  30.284  1.00  0.00    -0.206 F 
ATOM     84  C   UNL A   1      34.901  32.614  27.954  1.00  0.00     0.006 A 
ENDBRANCH  63  77
BRANCH  64  85
ATOM     85  C   UNL A   1      44.936  29.177  34.916  1.00  0.00     0.057 A 
ATOM     86  C   UNL A   1      44.786  28.300  36.000  1.00  0.00     0.134 A 
ATOM     87  C   UNL A   1      46.200  29.746  34.725  1.00  0.00     0.134 A 
ATOM     88  F   UNL A   1      43.591  27.752  36.264  1.00  0.00    -0.206 F 
ATOM     89  C   UNL A   1      45.841  28.025  36.876  1.00  0.00     0.040 A 
ATOM     90  C   UNL A   1      47.270  29.462  35.581  1.00  0.00     0.040 A 
ATOM     91  F   UNL A   1      46.412  30.604  33.717  1.00  0.00    -0.206 F 
ATOM     92  C   UNL A   1      47.088  28.607  36.667  1.00  0.00     0.006 A 
ENDBRANCH  64  85
BRANCH  76  93
ATOM     93  C   UNL A   1      40.093  34.090  35.721  1.00  0.00     0.057 A 
ATOM     94  C   UNL A   1      39.351  33.789  36.871  1.00  0.00     0.134 A 
ATOM     95  C   UNL A   1      40.636  35.378  35.625  1.00  0.00     0.134 A 
ATOM     96  F   UNL A   1      38.791  32.579  37.020  1.00  0.00    -0.206 F 
ATOM     97  C   UNL A   1      39.149  34.734  37.879  1.00  0.00     0.040 A 
ATOM     98  C   UNL A   1      40.461  36.325  36.636  1.00  0.00     0.040 A 
ATOM     99  F   UNL A   1      41.360  35.733  34.553  1.00  0.00    -0.206 F 
ATOM    100  C   UNL A   1      39.712  36.005  37.767  1.00  0.00     0.006 A 
ENDBRANCH  76  93
ENDBRANCH  50  51
ENDBRANCH  42  45
ENDBRANCH  40  41
ENDBRANCH  39  40
ENDBRANCH  38  39
ENDBRANCH   1  38
TORSDOF 16
ENDMDL
MODEL 2
REMARK VINA RESULT:     -13.9      4.145      9.112
REMARK SMILES COc1ccc([C@H]2[NH2+][C@@H](C(=O)NCCCCNC(=O)c3ccc(-c4c5nc(c(-c6c(F)cccc6F)c6ccc([nH]6)c(-c6c(F)cccc6F)c6nc(c(-c7c(F)cccc7F)c7ccc4[nH]7)C=C6)C=C5)cc3)CC3=c4ccccc4=N[C@H]32)cc1Cn1cc([N+](=O)[O-])cn1
REMARK SMILES IDX 13 1 12 2 10 3 11 4 9 6 7 7 8 8 83 9 75 12 82 13 74 14 76 15
REMARK SMILES IDX 81 16 77 17 80 18 78 19 79 20 6 21 3 22 4 23 85 24 5 25
REMARK SMILES IDX 84 26 2 27 1 28 86 29 87 30 88 31 94 32 89 33 93 34 90 35
REMARK SMILES IDX 91 36 92 37 14 38 15 39 16 40 17 41 18 42 19 44 20 45 21 46
REMARK SMILES IDX 73 47 22 48 72 49 23 50 24 51 25 52 66 53 26 54 71 55 65 56
REMARK SMILES IDX 67 57 27 58 70 59 64 60 63 61 28 63 54 64 37 65 53 66 38 67
REMARK SMILES IDX 41 68 52 69 68 70 39 71 40 72 51 74 69 75 42 76 29 77 30 78
REMARK SMILES IDX 35 79 31 80 32 81 34 82 36 83 33 84 55 85 56 86 61 87 57 88
REMARK SMILES IDX 58 89 60 90 62 91 59 92 43 93 44 94 49 95 45 96 46 97 48 98
REMARK SMILES IDX 50 99 47 100
REMARK H PARENT 12 5 8 10 8 11 17 43 67 62 41 73
REMARK Flexibility Score: inf
ROOT
ATOM      1  C   UNL A   1      31.990  24.352  26.614  1.00  0.00     0.116 C 
ENDROOT
BRANCH   1   2
ATOM      2  N   UNL A   1      31.321  25.652  26.646  1.00  0.00    -0.351 N 
ATOM      3  C   UNL A   1      30.823  26.433  25.626  1.00  0.00     0.278 C 
ATOM      4  O   UNL A   1      30.379  27.544  25.958  1.00  0.00    -0.268 OA
ATOM      5  H   UNL A   1      31.207  26.032  27.546  1.00  0.00     0.163 HD
BRANCH   3   6
ATOM      6  C   UNL A   1      30.678  26.009  24.123  1.00  0.00     0.277 C 
ATOM      7  C   UNL A   1      32.331  27.596  23.172  1.00  0.00     0.243 C 
ATOM      8  N   UNL A   1      31.944  26.173  23.360  1.00  0.00    -0.327 N 
ATOM      9  C   UNL A   1      31.037  28.226  22.289  1.00  0.00     0.196 C 
ATOM     10  H   UNL A   1      32.692  25.697  23.865  1.00  0.00     0.347 HD
ATOM     11  H   UNL A   1      31.795  25.774  22.433  1.00  0.00     0.347 HD
ATOM     12  C   UNL A   1      29.629  27.786  22.693  1.00  0.00    -0.024 C 
ATOM     13  N   UNL A   1      30.896  29.714  22.150  1.00  0.00    -0.270 NA
ATOM     14  C   UNL A   1      29.446  26.455  23.331  1.00  0.00     0.109 C 
ATOM     15  C   UNL A   1      28.764  28.803  22.704  1.00  0.00     0.002 A 
ATOM     16  C   UNL A   1      29.613  29.939  22.309  1.00  0.00     0.066 A 
ATOM     17  C   UNL A   1      27.503  28.995  23.372  1.00  0.00     0.010 A 
ATOM     18  C   UNL A   1      28.926  31.269  22.344  1.00  0.00     0.028 A 
ATOM     19  C   UNL A   1      27.084  30.249  23.614  1.00  0.00     0.001 A 
ATOM     20  C   UNL A   1      27.785  31.390  23.053  1.00  0.00     0.002 A 
BRANCH   7  21
ATOM     21  C   UNL A   1      33.143  28.073  24.462  1.00  0.00     0.012 A 
ATOM     22  C   UNL A   1      34.418  28.995  26.902  1.00  0.00     0.123 A 
ATOM     23  C   UNL A   1      34.851  27.844  26.188  1.00  0.00     0.047 A 
ATOM     24  C   UNL A   1      33.395  29.817  26.424  1.00  0.00     0.016 A 
ATOM     25  C   UNL A   1      34.245  27.403  24.982  1.00  0.00     0.014 A 
ATOM     26  C   UNL A   1      32.807  29.205  25.229  1.00  0.00     0.019 A 
BRANCH  22  27
ATOM     27  O   UNL A   1      35.076  29.260  28.075  1.00  0.00    -0.496 OA
ATOM     28  C   UNL A   1      36.436  29.638  27.829  1.00  0.00     0.278 C 
ENDBRANCH  22  27
BRANCH  24  29
ATOM     29  C   UNL A   1      32.925  31.113  27.351  1.00  0.00     0.183 C 
BRANCH  29  30
ATOM     30  N   UNL A   1      33.406  32.578  27.737  1.00  0.00    -0.261 N 
ATOM     31  C   UNL A   1      32.897  33.768  28.199  1.00  0.00     0.194 A 
ATOM     32  N   UNL A   1      34.773  32.733  27.816  1.00  0.00    -0.174 NA
ATOM     33  C   UNL A   1      33.845  34.752  28.272  1.00  0.00     0.307 A 
ATOM     34  C   UNL A   1      35.001  34.046  28.029  1.00  0.00     0.220 A 
BRANCH  33  35
ATOM     35  N   UNL A   1      33.579  36.145  28.506  1.00  0.00     0.066 N 
ATOM     36  O   UNL A   1      32.575  36.422  29.171  1.00  0.00    -0.258 OA
ATOM     37  O   UNL A   1      34.386  36.964  28.038  1.00  0.00    -0.258 OA
ENDBRANCH  33  35
ENDBRANCH  29  30
ENDBRANCH  24  29
ENDBRANCH   7  21
ENDBRANCH   3   6
ENDBRANCH   1   2
BRANCH   1  38
ATOM     38  C   UNL A   1      33.173  24.060  25.646  1.00  0.00     0.023 C 
BRANCH  38  39
ATOM     39  C   UNL A   1      34.703  23.529  26.157  1.00  0.00     0.023 C 
BRANCH  39  40
ATOM     40  C   UNL A   1      35.426  21.874  26.306  1.00  0.00     0.116 C 
BRANCH  40  41
ATOM     41  N   UNL A   1      36.510  21.224  25.517  1.00  0.00    -0.352 N 
ATOM     42  C   UNL A   1      37.918  21.167  25.703  1.00  0.00     0.251 C 
ATOM     43  H   UNL A   1      36.192  20.745  24.718  1.00  0.00     0.163 HD
ATOM     44  O   UNL A   1      38.495  20.183  25.216  1.00  0.00    -0.269 OA
BRANCH  42  45
ATOM     45  C   UNL A   1      38.843  22.263  26.240  1.00  0.00     0.039 A 
ATOM     46  C   UNL A   1      38.517  23.597  25.905  1.00  0.00     0.014 A 
ATOM     47  C   UNL A   1      40.011  22.106  26.991  1.00  0.00     0.014 A 
ATOM     48  C   UNL A   1      39.196  24.724  26.454  1.00  0.00     0.010 A 
ATOM     49  C   UNL A   1      40.696  23.243  27.552  1.00  0.00     0.010 A 
ATOM     50  C   UNL A   1      40.269  24.575  27.343  1.00  0.00    -0.014 A 
BRANCH  50  51
ATOM     51  C   UNL A   1      41.002  25.795  27.892  1.00  0.00     0.031 A 
ATOM     52  C   UNL A   1      42.435  26.032  27.479  1.00  0.00     0.074 A 
ATOM     53  C   UNL A   1      40.459  26.744  28.698  1.00  0.00     0.049 A 
ATOM     54  N   UNL A   1      43.229  27.041  27.750  1.00  0.00    -0.248 NA
ATOM     55  C   UNL A   1      43.048  24.987  26.651  1.00  0.00     0.031 C 
ATOM     56  C   UNL A   1      39.111  26.731  29.232  1.00  0.00     0.029 A 
ATOM     57  N   UNL A   1      40.971  27.925  29.218  1.00  0.00    -0.354 N 
ATOM     58  C   UNL A   1      44.430  26.760  27.113  1.00  0.00     0.074 A 
ATOM     59  C   UNL A   1      44.274  25.461  26.487  1.00  0.00     0.031 C 
ATOM     60  C   UNL A   1      38.876  27.827  29.970  1.00  0.00     0.029 A 
ATOM     61  C   UNL A   1      40.080  28.643  29.996  1.00  0.00     0.049 A 
ATOM     62  H   UNL A   1      41.892  28.227  29.048  1.00  0.00     0.167 HD
ATOM     63  C   UNL A   1      45.558  27.507  27.026  1.00  0.00     0.037 A 
ATOM     64  C   UNL A   1      40.192  29.815  30.661  1.00  0.00     0.037 A 
ATOM     65  C   UNL A   1      45.769  28.792  27.641  1.00  0.00     0.049 A 
ATOM     66  C   UNL A   1      41.476  30.598  30.603  1.00  0.00     0.074 A 
ATOM     67  C   UNL A   1      46.894  29.598  27.584  1.00  0.00     0.029 A 
ATOM     68  N   UNL A   1      44.845  29.455  28.430  1.00  0.00    -0.354 N 
ATOM     69  N   UNL A   1      42.573  30.335  29.940  1.00  0.00    -0.248 NA
ATOM     70  C   UNL A   1      41.534  31.852  31.378  1.00  0.00     0.031 C 
ATOM     71  C   UNL A   1      46.665  30.735  28.367  1.00  0.00     0.029 A 
ATOM     72  C   UNL A   1      45.382  30.654  28.879  1.00  0.00     0.049 A 
ATOM     73  H   UNL A   1      43.942  29.126  28.642  1.00  0.00     0.167 HD
ATOM     74  C   UNL A   1      43.431  31.402  30.184  1.00  0.00     0.074 A 
ATOM     75  C   UNL A   1      42.729  32.322  31.050  1.00  0.00     0.031 C 
ATOM     76  C   UNL A   1      44.688  31.592  29.722  1.00  0.00     0.037 A 
BRANCH  63  77
ATOM     77  C   UNL A   1      46.677  26.923  26.219  1.00  0.00     0.057 A 
ATOM     78  C   UNL A   1      47.623  26.065  26.798  1.00  0.00     0.134 A 
ATOM     79  C   UNL A   1      46.822  27.232  24.862  1.00  0.00     0.134 A 
ATOM     80  F   UNL A   1      47.544  25.745  28.098  1.00  0.00    -0.206 F 
ATOM     81  C   UNL A   1      48.697  25.567  26.062  1.00  0.00     0.040 A 
ATOM     82  C   UNL A   1      47.879  26.719  24.109  1.00  0.00     0.040 A 
ATOM     83  F   UNL A   1      45.944  28.041  24.250  1.00  0.00    -0.206 F 
ATOM     84  C   UNL A   1      48.826  25.892  24.713  1.00  0.00     0.006 A 
ENDBRANCH  63  77
BRANCH  64  85
ATOM     85  C   UNL A   1      39.053  30.366  31.455  1.00  0.00     0.057 A 
ATOM     86  C   UNL A   1      38.797  29.921  32.761  1.00  0.00     0.134 A 
ATOM     87  C   UNL A   1      38.137  31.265  30.897  1.00  0.00     0.134 A 
ATOM     88  F   UNL A   1      39.612  29.027  33.340  1.00  0.00    -0.206 F 
ATOM     89  C   UNL A   1      37.661  30.327  33.468  1.00  0.00     0.040 A 
ATOM     90  C   UNL A   1      37.009  31.697  31.602  1.00  0.00     0.040 A 
ATOM     91  F   UNL A   1      38.311  31.721  29.649  1.00  0.00    -0.206 F 
ATOM     92  C   UNL A   1      36.763  31.219  32.888  1.00  0.00     0.006 A 
ENDBRANCH  64  85
BRANCH  76  93
ATOM     93  C   UNL A   1      45.388  32.867  30.094  1.00  0.00     0.057 A 
ATOM     94  C   UNL A   1      45.264  34.034  29.328  1.00  0.00     0.134 A 
ATOM     95  C   UNL A   1      46.158  32.942  31.261  1.00  0.00     0.134 A 
ATOM     96  F   UNL A   1      44.553  34.028  28.191  1.00  0.00    -0.206 F 
ATOM     97  C   UNL A   1      45.891  35.225  29.705  1.00  0.00     0.040 A 
ATOM     98  C   UNL A   1      46.771  34.131  31.660  1.00  0.00     0.040 A 
ATOM     99  F   UNL A   1      46.317  31.863  32.042  1.00  0.00    -0.206 F 
ATOM    100  C   UNL A   1      46.641  35.277  30.879  1.00  0.00     0.006 A 
ENDBRANCH  76  93
ENDBRANCH  50  51
ENDBRANCH  42  45
ENDBRANCH  40  41
ENDBRANCH  39  40
ENDBRANCH  38  39
ENDBRANCH   1  38
TORSDOF 16
ENDMDL
MODEL 3
REMARK VINA RESULT:     -13.9      4.053      8.462
REMARK SMILES COc1ccc([C@H]2[NH2+][C@@H](C(=O)NCCCCNC(=O)c3ccc(-c4c5nc(c(-c6c(F)cccc6F)c6ccc([nH]6)c(-c6c(F)cccc6F)c6nc(c(-c7c(F)cccc7F)c7ccc4[nH]7)C=C6)C=C5)cc3)CC3=c4ccccc4=N[C@H]32)cc1Cn1cc([N+](=O)[O-])cn1
REMARK SMILES IDX 13 1 12 2 10 3 11 4 9 6 7 7 8 8 83 9 75 12 82 13 74 14 76 15
REMARK SMILES IDX 81 16 77 17 80 18 78 19 79 20 6 21 3 22 4 23 85 24 5 25
REMARK SMILES IDX 84 26 2 27 1 28 86 29 87 30 88 31 94 32 89 33 93 34 90 35
REMARK SMILES IDX 91 36 92 37 14 38 15 39 16 40 17 41 18 42 19 44 20 45 21 46
REMARK SMILES IDX 73 47 22 48 72 49 23 50 24 51 25 52 66 53 26 54 71 55 65 56
REMARK SMILES IDX 67 57 27 58 70 59 64 60 63 61 28 63 54 64 37 65 53 66 38 67
REMARK SMILES IDX 41 68 52 69 68 70 39 71 40 72 51 74 69 75 42 76 29 77 30 78
REMARK SMILES IDX 35 79 31 80 32 81 34 82 36 83 33 84 55 85 56 86 61 87 57 88
REMARK SMILES IDX 58 89 60 90 62 91 59 92 43 93 44 94 49 95 45 96 46 97 48 98
REMARK SMILES IDX 50 99 47 100
REMARK H PARENT 12 5 8 10 8 11 17 43 67 62 41 73
REMARK Flexibility Score: inf
ROOT
ATOM      1  C   UNL A   1      32.019  24.282  26.790  1.00  0.00     0.116 C 
ENDROOT
BRANCH   1   2
ATOM      2  N   UNL A   1      31.364  25.590  26.784  1.00  0.00    -0.351 N 
ATOM      3  C   UNL A   1      30.908  26.363  25.738  1.00  0.00     0.278 C 
ATOM      4  O   UNL A   1      30.467  27.483  26.041  1.00  0.00    -0.268 OA
ATOM      5  H   UNL A   1      31.226  25.983  27.675  1.00  0.00     0.163 HD
BRANCH   3   6
ATOM      6  C   UNL A   1      30.807  25.921  24.237  1.00  0.00     0.277 C 
ATOM      7  C   UNL A   1      32.445  27.536  23.307  1.00  0.00     0.243 C 
ATOM      8  N   UNL A   1      32.086  26.106  23.500  1.00  0.00    -0.327 N 
ATOM      9  C   UNL A   1      31.158  28.127  22.389  1.00  0.00     0.196 C 
ATOM     10  H   UNL A   1      32.833  25.652  24.027  1.00  0.00     0.347 HD
ATOM     11  H   UNL A   1      31.966  25.694  22.575  1.00  0.00     0.347 HD
ATOM     12  C   UNL A   1      29.752  27.660  22.765  1.00  0.00    -0.024 C 
ATOM     13  N   UNL A   1      30.987  29.611  22.231  1.00  0.00    -0.270 NA
ATOM     14  C   UNL A   1      29.583  26.332  23.413  1.00  0.00     0.109 C 
ATOM     15  C   UNL A   1      28.863  28.657  22.746  1.00  0.00     0.002 A 
ATOM     16  C   UNL A   1      29.696  29.808  22.359  1.00  0.00     0.066 A 
ATOM     17  C   UNL A   1      27.584  28.827  23.384  1.00  0.00     0.010 A 
ATOM     18  C   UNL A   1      28.979  31.123  22.365  1.00  0.00     0.028 A 
ATOM     19  C   UNL A   1      27.132  30.074  23.604  1.00  0.00     0.001 A 
ATOM     20  C   UNL A   1      27.820  31.225  23.047  1.00  0.00     0.002 A 
BRANCH   7  21
ATOM     21  C   UNL A   1      33.218  28.043  24.610  1.00  0.00     0.012 A 
ATOM     22  C   UNL A   1      34.423  29.062  27.046  1.00  0.00     0.123 A 
ATOM     23  C   UNL A   1      34.725  27.780  26.508  1.00  0.00     0.047 A 
ATOM     24  C   UNL A   1      33.584  29.960  26.383  1.00  0.00     0.016 A 
ATOM     25  C   UNL A   1      34.155  27.288  25.305  1.00  0.00     0.014 A 
ATOM     26  C   UNL A   1      33.004  29.298  25.211  1.00  0.00     0.019 A 
BRANCH  22  27
ATOM     27  O   UNL A   1      35.020  29.369  28.241  1.00  0.00    -0.496 OA
ATOM     28  C   UNL A   1      36.407  29.679  28.061  1.00  0.00     0.278 C 
ENDBRANCH  22  27
BRANCH  24  29
ATOM     29  C   UNL A   1      33.251  31.415  27.113  1.00  0.00     0.183 C 
BRANCH  29  30
ATOM     30  N   UNL A   1      33.878  32.424  28.170  1.00  0.00    -0.261 N 
ATOM     31  C   UNL A   1      34.291  32.455  29.480  1.00  0.00     0.194 A 
ATOM     32  N   UNL A   1      34.329  33.610  27.636  1.00  0.00    -0.174 NA
ATOM     33  C   UNL A   1      34.699  33.701  29.873  1.00  0.00     0.307 A 
ATOM     34  C   UNL A   1      34.710  34.381  28.677  1.00  0.00     0.220 A 
BRANCH  33  35
ATOM     35  N   UNL A   1      34.976  34.096  31.226  1.00  0.00     0.066 N 
ATOM     36  O   UNL A   1      34.006  34.256  31.975  1.00  0.00    -0.258 OA
ATOM     37  O   UNL A   1      36.168  34.230  31.546  1.00  0.00    -0.258 OA
ENDBRANCH  33  35
ENDBRANCH  29  30
ENDBRANCH  24  29
ENDBRANCH   7  21
ENDBRANCH   3   6
ENDBRANCH   1   2
BRANCH   1  38
ATOM     38  C   UNL A   1      33.458  24.080  26.235  1.00  0.00     0.023 C 
BRANCH  38  39
ATOM     39  C   UNL A   1      33.975  22.674  25.437  1.00  0.00     0.023 C 
BRANCH  39  40
ATOM     40  C   UNL A   1      35.103  21.343  25.929  1.00  0.00     0.116 C 
BRANCH  40  41
ATOM     41  N   UNL A   1      36.306  20.798  25.239  1.00  0.00    -0.352 N 
ATOM     42  C   UNL A   1      37.696  20.967  25.480  1.00  0.00     0.251 C 
ATOM     43  H   UNL A   1      36.099  20.213  24.476  1.00  0.00     0.163 HD
ATOM     44  O   UNL A   1      38.432  20.042  25.103  1.00  0.00    -0.269 OA
BRANCH  42  45
ATOM     45  C   UNL A   1      38.426  22.228  25.950  1.00  0.00     0.039 A 
ATOM     46  C   UNL A   1      39.664  22.044  26.606  1.00  0.00     0.014 A 
ATOM     47  C   UNL A   1      37.995  23.554  25.851  1.00  0.00     0.014 A 
ATOM     48  C   UNL A   1      40.522  23.125  26.963  1.00  0.00     0.010 A 
ATOM     49  C   UNL A   1      38.863  24.648  26.207  1.00  0.00     0.010 A 
ATOM     50  C   UNL A   1      40.167  24.459  26.716  1.00  0.00    -0.014 A 
BRANCH  50  51
ATOM     51  C   UNL A   1      41.087  25.600  27.137  1.00  0.00     0.031 A 
ATOM     52  C   UNL A   1      40.582  26.612  28.138  1.00  0.00     0.074 A 
ATOM     53  C   UNL A   1      42.371  25.771  26.727  1.00  0.00     0.049 A 
ATOM     54  N   UNL A   1      41.209  27.616  28.706  1.00  0.00    -0.248 NA
ATOM     55  C   UNL A   1      39.180  26.469  28.548  1.00  0.00     0.031 C 
ATOM     56  C   UNL A   1      43.071  24.939  25.769  1.00  0.00     0.029 A 
ATOM     57  N   UNL A   1      43.337  26.708  27.066  1.00  0.00    -0.354 N 
ATOM     58  C   UNL A   1      40.285  28.212  29.550  1.00  0.00     0.074 A 
ATOM     59  C   UNL A   1      39.040  27.489  29.380  1.00  0.00     0.031 C 
ATOM     60  C   UNL A   1      44.335  25.357  25.602  1.00  0.00     0.029 A 
ATOM     61  C   UNL A   1      44.555  26.530  26.435  1.00  0.00     0.049 A 
ATOM     62  H   UNL A   1      43.171  27.439  27.704  1.00  0.00     0.167 HD
ATOM     63  C   UNL A   1      40.442  29.249  30.410  1.00  0.00     0.037 A 
ATOM     64  C   UNL A   1      45.721  27.211  26.498  1.00  0.00     0.037 A 
ATOM     65  C   UNL A   1      41.650  30.008  30.605  1.00  0.00     0.049 A 
ATOM     66  C   UNL A   1      45.855  28.399  27.413  1.00  0.00     0.074 A 
ATOM     67  C   UNL A   1      41.869  31.070  31.467  1.00  0.00     0.029 A 
ATOM     68  N   UNL A   1      42.838  29.798  29.926  1.00  0.00    -0.354 N 
ATOM     69  N   UNL A   1      44.980  28.900  28.247  1.00  0.00    -0.248 NA
ATOM     70  C   UNL A   1      47.147  29.111  27.406  1.00  0.00     0.031 C 
ATOM     71  C   UNL A   1      43.179  31.525  31.287  1.00  0.00     0.029 A 
ATOM     72  C   UNL A   1      43.788  30.721  30.339  1.00  0.00     0.049 A 
ATOM     73  H   UNL A   1      42.986  29.098  29.250  1.00  0.00     0.167 HD
ATOM     74  C   UNL A   1      45.624  29.953  28.888  1.00  0.00     0.074 A 
ATOM     75  C   UNL A   1      46.966  30.019  28.354  1.00  0.00     0.031 C 
ATOM     76  C   UNL A   1      45.135  30.785  29.836  1.00  0.00     0.037 A 
BRANCH  63  77
ATOM     77  C   UNL A   1      39.238  29.627  31.218  1.00  0.00     0.057 A 
ATOM     78  C   UNL A   1      38.877  28.911  32.367  1.00  0.00     0.134 A 
ATOM     79  C   UNL A   1      38.424  30.700  30.836  1.00  0.00     0.134 A 
ATOM     80  F   UNL A   1      39.610  27.863  32.773  1.00  0.00    -0.206 F 
ATOM     81  C   UNL A   1      37.725  29.225  33.087  1.00  0.00     0.040 A 
ATOM     82  C   UNL A   1      37.283  31.040  31.563  1.00  0.00     0.040 A 
ATOM     83  F   UNL A   1      38.723  31.429  29.750  1.00  0.00    -0.206 F 
ATOM     84  C   UNL A   1      36.926  30.295  32.686  1.00  0.00     0.006 A 
ENDBRANCH  63  77
BRANCH  64  85
ATOM     85  C   UNL A   1      46.902  26.803  25.678  1.00  0.00     0.057 A 
ATOM     86  C   UNL A   1      47.883  25.946  26.199  1.00  0.00     0.134 A 
ATOM     87  C   UNL A   1      47.132  27.338  24.405  1.00  0.00     0.134 A 
ATOM     88  F   UNL A   1      47.745  25.432  27.429  1.00  0.00    -0.206 F 
ATOM     89  C   UNL A   1      49.058  25.659  25.496  1.00  0.00     0.040 A 
ATOM     90  C   UNL A   1      48.292  27.041  23.682  1.00  0.00     0.040 A 
ATOM     91  F   UNL A   1      46.243  28.175  23.852  1.00  0.00    -0.206 F 
ATOM     92  C   UNL A   1      49.265  26.207  24.233  1.00  0.00     0.006 A 
ENDBRANCH  64  85
BRANCH  76  93
ATOM     93  C   UNL A   1      46.061  31.817  30.410  1.00  0.00     0.057 A 
ATOM     94  C   UNL A   1      46.160  33.108  29.873  1.00  0.00     0.134 A 
ATOM     95  C   UNL A   1      46.830  31.532  31.545  1.00  0.00     0.134 A 
ATOM     96  F   UNL A   1      45.462  33.444  28.778  1.00  0.00    -0.206 F 
ATOM     97  C   UNL A   1      46.998  34.072  30.438  1.00  0.00     0.040 A 
ATOM     98  C   UNL A   1      47.655  32.493  32.132  1.00  0.00     0.040 A 
ATOM     99  F   UNL A   1      46.782  30.317  32.112  1.00  0.00    -0.206 F 
ATOM    100  C   UNL A   1      47.743  33.767  31.577  1.00  0.00     0.006 A 
ENDBRANCH  76  93
ENDBRANCH  50  51
ENDBRANCH  42  45
ENDBRANCH  40  41
ENDBRANCH  39  40
ENDBRANCH  38  39
ENDBRANCH   1  38
TORSDOF 16
ENDMDL
