MODEL 1
REMARK VINA RESULT:      -9.9      0.000      0.000
REMARK SMILES [NH3+][C@@H](Cc1ccc(F)cc1C(F)(F)F)C(=O)NCCCCNC(=O)c1ccc(-c2c3nc(c(-c4c(F)cccc4F)c4ccc([nH]4)c(-c4c(F)cccc4F)c4nc(c(-c5c(F)cccc5F)c5ccc2[nH]5)C=C4)C=C3)cc1
REMARK SMILES IDX 19 1 18 2 17 3 15 4 16 5 2 7 1 8 3 12 4 13 5 14 10 15 6 16
REMARK SMILES IDX 9 17 7 18 8 19 11 20 12 21 13 22 14 23 20 24 21 25 22 26
REMARK SMILES IDX 23 27 24 29 25 30 26 31 78 32 27 33 77 34 28 35 29 36 30 37
REMARK SMILES IDX 71 38 31 39 76 40 70 41 72 42 32 43 75 44 69 45 68 46 33 48
REMARK SMILES IDX 59 49 42 50 58 51 43 52 46 53 57 54 73 55 44 56 45 57 56 59
REMARK SMILES IDX 74 60 47 61 34 62 35 63 40 64 36 65 37 66 39 67 41 68 38 69
REMARK SMILES IDX 60 70 61 71 66 72 62 73 63 74 65 75 67 76 64 77 48 78 49 79
REMARK SMILES IDX 54 80 50 81 51 82 53 83 55 84 52 85
REMARK H PARENT 17 6 1 9 1 10 1 11 22 28 72 47 46 58
REMARK Flexibility Score: inf
ROOT
ATOM      1  C   UNL A   1      33.366  35.030  28.996  1.00  0.00     0.023 C 
ENDROOT
BRANCH   1   2
ATOM      2  C   UNL A   1      33.879  34.522  30.334  1.00  0.00     0.116 C 
BRANCH   2   3
ATOM      3  N   UNL A   1      34.041  35.536  31.349  1.00  0.00    -0.351 N 
ATOM      4  C   UNL A   1      34.478  35.433  32.641  1.00  0.00     0.278 C 
ATOM      5  O   UNL A   1      34.778  36.491  33.206  1.00  0.00    -0.268 OA
ATOM      6  H   UNL A   1      33.800  36.447  31.066  1.00  0.00     0.163 HD
BRANCH   4   7
ATOM      7  C   UNL A   1      34.604  34.084  33.393  1.00  0.00     0.275 C 
BRANCH   7   8
ATOM      8  N   UNL A   1      33.286  33.453  33.626  1.00  0.00    -0.347 N 
ATOM      9  H   UNL A   1      33.228  33.135  34.593  1.00  0.00     0.345 HD
ATOM     10  H   UNL A   1      33.175  32.657  32.998  1.00  0.00     0.345 HD
ATOM     11  H   UNL A   1      32.547  34.133  33.447  1.00  0.00     0.345 HD
ENDBRANCH   7   8
BRANCH   7  12
ATOM     12  C   UNL A   1      35.746  33.138  32.938  1.00  0.00     0.111 C 
BRANCH  12  13
ATOM     13  C   UNL A   1      37.154  33.685  32.818  1.00  0.00    -0.029 A 
ATOM     14  C   UNL A   1      37.766  34.149  34.005  1.00  0.00     0.007 A 
ATOM     15  C   UNL A   1      37.890  33.740  31.606  1.00  0.00     0.062 A 
ATOM     16  C   UNL A   1      39.096  34.570  34.023  1.00  0.00     0.039 A 
ATOM     17  C   UNL A   1      39.230  34.189  31.650  1.00  0.00     0.052 A 
ATOM     18  C   UNL A   1      39.820  34.576  32.845  1.00  0.00     0.123 A 
ATOM     19  F   UNL A   1      41.104  34.950  32.857  1.00  0.00    -0.207 F 
BRANCH  15  20
ATOM     20  C   UNL A   1      37.375  33.378  30.223  1.00  0.00     0.416 C 
ATOM     21  F   UNL A   1      38.353  32.817  29.457  1.00  0.00    -0.166 F 
ATOM     22  F   UNL A   1      36.378  32.450  30.285  1.00  0.00    -0.166 F 
ATOM     23  F   UNL A   1      36.871  34.401  29.491  1.00  0.00    -0.166 F 
ENDBRANCH  15  20
ENDBRANCH  12  13
ENDBRANCH   7  12
ENDBRANCH   4   7
ENDBRANCH   2   3
ENDBRANCH   1   2
BRANCH   1  24
ATOM     24  C   UNL A   1      33.243  33.978  27.898  1.00  0.00     0.023 C 
BRANCH  24  25
ATOM     25  C   UNL A   1      34.215  32.804  27.978  1.00  0.00     0.116 C 
BRANCH  25  26
ATOM     26  N   UNL A   1      33.733  31.584  27.346  1.00  0.00    -0.352 N 
ATOM     27  C   UNL A   1      34.319  30.338  27.295  1.00  0.00     0.251 C 
ATOM     28  H   UNL A   1      32.863  31.660  26.890  1.00  0.00     0.163 HD
ATOM     29  O   UNL A   1      33.805  29.435  26.646  1.00  0.00    -0.269 OA
BRANCH  27  30
ATOM     30  C   UNL A   1      35.608  30.110  27.983  1.00  0.00     0.039 A 
ATOM     31  C   UNL A   1      35.591  29.621  29.292  1.00  0.00     0.014 A 
ATOM     32  C   UNL A   1      36.820  30.315  27.322  1.00  0.00     0.014 A 
ATOM     33  C   UNL A   1      36.789  29.232  29.896  1.00  0.00     0.010 A 
ATOM     34  C   UNL A   1      38.002  29.854  27.894  1.00  0.00     0.010 A 
ATOM     35  C   UNL A   1      37.995  29.290  29.180  1.00  0.00    -0.014 A 
BRANCH  35  36
ATOM     36  C   UNL A   1      39.253  28.732  29.738  1.00  0.00     0.031 A 
ATOM     37  C   UNL A   1      39.883  29.351  30.953  1.00  0.00     0.074 A 
ATOM     38  C   UNL A   1      39.871  27.717  29.101  1.00  0.00     0.049 A 
ATOM     39  N   UNL A   1      41.024  29.066  31.525  1.00  0.00    -0.248 NA
ATOM     40  C   UNL A   1      39.148  30.455  31.592  1.00  0.00     0.031 C 
ATOM     41  C   UNL A   1      39.389  27.061  27.883  1.00  0.00     0.029 A 
ATOM     42  N   UNL A   1      41.044  27.064  29.386  1.00  0.00    -0.354 N 
ATOM     43  C   UNL A   1      41.152  29.963  32.577  1.00  0.00     0.074 A 
ATOM     44  C   UNL A   1      39.996  30.832  32.538  1.00  0.00     0.031 C 
ATOM     45  C   UNL A   1      40.242  26.079  27.546  1.00  0.00     0.029 A 
ATOM     46  C   UNL A   1      41.348  26.061  28.497  1.00  0.00     0.049 A 
ATOM     47  H   UNL A   1      41.615  27.291  30.156  1.00  0.00     0.167 HD
ATOM     48  C   UNL A   1      42.133  30.041  33.506  1.00  0.00     0.037 A 
ATOM     49  C   UNL A   1      42.401  25.222  28.449  1.00  0.00     0.037 A 
ATOM     50  C   UNL A   1      43.262  29.152  33.570  1.00  0.00     0.049 A 
ATOM     51  C   UNL A   1      43.472  25.324  29.498  1.00  0.00     0.074 A 
ATOM     52  C   UNL A   1      44.276  29.116  34.513  1.00  0.00     0.029 A 
ATOM     53  N   UNL A   1      43.524  28.141  32.660  1.00  0.00    -0.354 N 
ATOM     54  N   UNL A   1      43.555  26.147  30.514  1.00  0.00    -0.248 NA
ATOM     55  C   UNL A   1      44.596  24.381  29.394  1.00  0.00     0.031 C 
ATOM     56  C   UNL A   1      45.167  28.100  34.157  1.00  0.00     0.029 A 
ATOM     57  C   UNL A   1      44.690  27.481  33.013  1.00  0.00     0.049 A 
ATOM     58  H   UNL A   1      42.965  27.923  31.880  1.00  0.00     0.167 HD
ATOM     59  C   UNL A   1      44.725  25.810  31.183  1.00  0.00     0.074 A 
ATOM     60  C   UNL A   1      45.315  24.700  30.463  1.00  0.00     0.031 C 
ATOM     61  C   UNL A   1      45.259  26.372  32.293  1.00  0.00     0.037 A 
BRANCH  48  62
ATOM     62  C   UNL A   1      42.022  31.114  34.547  1.00  0.00     0.057 A 
ATOM     63  C   UNL A   1      41.233  30.925  35.688  1.00  0.00     0.134 A 
ATOM     64  C   UNL A   1      42.650  32.356  34.390  1.00  0.00     0.134 A 
ATOM     65  F   UNL A   1      40.601  29.760  35.895  1.00  0.00    -0.206 F 
ATOM     66  C   UNL A   1      41.066  31.939  36.633  1.00  0.00     0.040 A 
ATOM     67  C   UNL A   1      42.509  33.369  35.339  1.00  0.00     0.040 A 
ATOM     68  F   UNL A   1      43.429  32.593  33.324  1.00  0.00    -0.206 F 
ATOM     69  C   UNL A   1      41.706  33.165  36.460  1.00  0.00     0.006 A 
ENDBRANCH  48  62
BRANCH  49  70
ATOM     70  C   UNL A   1      42.474  24.188  27.389  1.00  0.00     0.057 A 
ATOM     71  C   UNL A   1      41.988  22.892  27.590  1.00  0.00     0.134 A 
ATOM     72  C   UNL A   1      43.052  24.477  26.147  1.00  0.00     0.134 A 
ATOM     73  F   UNL A   1      41.430  22.551  28.760  1.00  0.00    -0.206 F 
ATOM     74  C   UNL A   1      42.084  21.914  26.597  1.00  0.00     0.040 A 
ATOM     75  C   UNL A   1      43.136  23.516  25.139  1.00  0.00     0.040 A 
ATOM     76  F   UNL A   1      43.519  25.708  25.891  1.00  0.00    -0.206 F 
ATOM     77  C   UNL A   1      42.655  22.227  25.365  1.00  0.00     0.006 A 
ENDBRANCH  49  70
BRANCH  61  78
ATOM     78  C   UNL A   1      46.535  25.788  32.820  1.00  0.00     0.057 A 
ATOM     79  C   UNL A   1      46.508  24.785  33.798  1.00  0.00     0.134 A 
ATOM     80  C   UNL A   1      47.785  26.272  32.421  1.00  0.00     0.134 A 
ATOM     81  F   UNL A   1      45.340  24.285  34.230  1.00  0.00    -0.206 F 
ATOM     82  C   UNL A   1      47.682  24.296  34.371  1.00  0.00     0.040 A 
ATOM     83  C   UNL A   1      48.967  25.776  32.971  1.00  0.00     0.040 A 
ATOM     84  F   UNL A   1      47.875  27.225  31.479  1.00  0.00    -0.206 F 
ATOM     85  C   UNL A   1      48.917  24.791  33.956  1.00  0.00     0.006 A 
ENDBRANCH  61  78
ENDBRANCH  35  36
ENDBRANCH  27  30
ENDBRANCH  25  26
ENDBRANCH  24  25
ENDBRANCH   1  24
TORSDOF 15
ENDMDL
MODEL 2
REMARK VINA RESULT:      -9.9      5.388     10.407
REMARK SMILES [NH3+][C@@H](Cc1ccc(F)cc1C(F)(F)F)C(=O)NCCCCNC(=O)c1ccc(-c2c3nc(c(-c4c(F)cccc4F)c4ccc([nH]4)c(-c4c(F)cccc4F)c4nc(c(-c5c(F)cccc5F)c5ccc2[nH]5)C=C4)C=C3)cc1
REMARK SMILES IDX 19 1 18 2 17 3 15 4 16 5 2 7 1 8 3 12 4 13 5 14 10 15 6 16
REMARK SMILES IDX 9 17 7 18 8 19 11 20 12 21 13 22 14 23 20 24 21 25 22 26
REMARK SMILES IDX 23 27 24 29 25 30 26 31 78 32 27 33 77 34 28 35 29 36 30 37
REMARK SMILES IDX 71 38 31 39 76 40 70 41 72 42 32 43 75 44 69 45 68 46 33 48
REMARK SMILES IDX 59 49 42 50 58 51 43 52 46 53 57 54 73 55 44 56 45 57 56 59
REMARK SMILES IDX 74 60 47 61 34 62 35 63 40 64 36 65 37 66 39 67 41 68 38 69
REMARK SMILES IDX 60 70 61 71 66 72 62 73 63 74 65 75 67 76 64 77 48 78 49 79
REMARK SMILES IDX 54 80 50 81 51 82 53 83 55 84 52 85
REMARK H PARENT 17 6 1 9 1 10 1 11 22 28 72 47 46 58
REMARK Flexibility Score: inf
ROOT
ATOM      1  C   UNL A   1      36.802  22.195  24.096  1.00  0.00     0.023 C 
ENDROOT
BRANCH   1   2
ATOM      2  C   UNL A   1      36.809  23.486  24.900  1.00  0.00     0.116 C 
BRANCH   2   3
ATOM      3  N   UNL A   1      35.551  24.194  24.925  1.00  0.00    -0.351 N 
ATOM      4  C   UNL A   1      34.403  23.935  25.623  1.00  0.00     0.278 C 
ATOM      5  O   UNL A   1      33.571  24.847  25.671  1.00  0.00    -0.268 OA
ATOM      6  H   UNL A   1      35.513  24.991  24.349  1.00  0.00     0.163 HD
BRANCH   4   7
ATOM      7  C   UNL A   1      34.122  22.585  26.330  1.00  0.00     0.275 C 
BRANCH   7   8
ATOM      8  N   UNL A   1      34.486  22.622  27.763  1.00  0.00    -0.347 N 
ATOM      9  H   UNL A   1      33.982  21.888  28.261  1.00  0.00     0.345 HD
ATOM     10  H   UNL A   1      34.237  23.531  28.154  1.00  0.00     0.345 HD
ATOM     11  H   UNL A   1      35.490  22.472  27.863  1.00  0.00     0.345 HD
ENDBRANCH   7   8
BRANCH   7  12
ATOM     12  C   UNL A   1      32.784  21.883  25.981  1.00  0.00     0.111 C 
BRANCH  12  13
ATOM     13  C   UNL A   1      32.809  20.619  25.144  1.00  0.00    -0.029 A 
ATOM     14  C   UNL A   1      33.051  19.403  25.825  1.00  0.00     0.007 A 
ATOM     15  C   UNL A   1      32.587  20.583  23.744  1.00  0.00     0.062 A 
ATOM     16  C   UNL A   1      32.988  18.174  25.167  1.00  0.00     0.039 A 
ATOM     17  C   UNL A   1      32.547  19.325  23.099  1.00  0.00     0.052 A 
ATOM     18  C   UNL A   1      32.725  18.147  23.810  1.00  0.00     0.123 A 
ATOM     19  F   UNL A   1      32.633  16.973  23.175  1.00  0.00    -0.207 F 
BRANCH  15  20
ATOM     20  C   UNL A   1      32.404  21.783  22.830  1.00  0.00     0.416 C 
ATOM     21  F   UNL A   1      32.141  21.401  21.549  1.00  0.00    -0.166 F 
ATOM     22  F   UNL A   1      31.340  22.547  23.211  1.00  0.00    -0.166 F 
ATOM     23  F   UNL A   1      33.453  22.638  22.755  1.00  0.00    -0.166 F 
ENDBRANCH  15  20
ENDBRANCH  12  13
ENDBRANCH   7  12
ENDBRANCH   4   7
ENDBRANCH   2   3
ENDBRANCH   1   2
BRANCH   1  24
ATOM     24  C   UNL A   1      37.274  20.953  24.845  1.00  0.00     0.023 C 
BRANCH  24  25
ATOM     25  C   UNL A   1      38.558  21.103  25.657  1.00  0.00     0.116 C 
BRANCH  25  26
ATOM     26  N   UNL A   1      39.443  19.948  25.595  1.00  0.00    -0.352 N 
ATOM     27  C   UNL A   1      40.764  19.841  25.974  1.00  0.00     0.251 C 
ATOM     28  H   UNL A   1      39.041  19.126  25.230  1.00  0.00     0.163 HD
ATOM     29  O   UNL A   1      41.385  18.803  25.777  1.00  0.00    -0.269 OA
BRANCH  27  30
ATOM     30  C   UNL A   1      41.448  21.008  26.571  1.00  0.00     0.039 A 
ATOM     31  C   UNL A   1      41.999  21.970  25.720  1.00  0.00     0.014 A 
ATOM     32  C   UNL A   1      41.489  21.184  27.955  1.00  0.00     0.014 A 
ATOM     33  C   UNL A   1      42.490  23.163  26.257  1.00  0.00     0.010 A 
ATOM     34  C   UNL A   1      41.906  22.403  28.481  1.00  0.00     0.010 A 
ATOM     35  C   UNL A   1      42.392  23.412  27.635  1.00  0.00    -0.014 A 
BRANCH  35  36
ATOM     36  C   UNL A   1      42.756  24.732  28.208  1.00  0.00     0.031 A 
ATOM     37  C   UNL A   1      41.704  25.783  28.419  1.00  0.00     0.074 A 
ATOM     38  C   UNL A   1      44.050  25.014  28.463  1.00  0.00     0.049 A 
ATOM     39  N   UNL A   1      41.844  27.022  28.816  1.00  0.00    -0.248 NA
ATOM     40  C   UNL A   1      40.315  25.401  28.119  1.00  0.00     0.031 C 
ATOM     41  C   UNL A   1      45.175  24.098  28.254  1.00  0.00     0.029 A 
ATOM     42  N   UNL A   1      44.639  26.155  28.947  1.00  0.00    -0.354 N 
ATOM     43  C   UNL A   1      40.568  27.570  28.795  1.00  0.00     0.074 A 
ATOM     44  C   UNL A   1      39.673  26.545  28.304  1.00  0.00     0.031 C 
ATOM     45  C   UNL A   1      46.311  24.703  28.637  1.00  0.00     0.029 A 
ATOM     46  C   UNL A   1      46.004  26.058  29.081  1.00  0.00     0.049 A 
ATOM     47  H   UNL A   1      44.133  26.968  29.176  1.00  0.00     0.167 HD
ATOM     48  C   UNL A   1      40.175  28.809  29.173  1.00  0.00     0.037 A 
ATOM     49  C   UNL A   1      46.908  26.960  29.510  1.00  0.00     0.037 A 
ATOM     50  C   UNL A   1      41.058  29.815  29.699  1.00  0.00     0.049 A 
ATOM     51  C   UNL A   1      46.444  28.325  29.932  1.00  0.00     0.074 A 
ATOM     52  C   UNL A   1      40.740  31.079  30.167  1.00  0.00     0.029 A 
ATOM     53  N   UNL A   1      42.429  29.671  29.834  1.00  0.00    -0.354 N 
ATOM     54  N   UNL A   1      45.228  28.813  29.951  1.00  0.00    -0.248 NA
ATOM     55  C   UNL A   1      47.477  29.266  30.392  1.00  0.00     0.031 C 
ATOM     56  C   UNL A   1      41.924  31.711  30.557  1.00  0.00     0.029 A 
ATOM     57  C   UNL A   1      42.974  30.827  30.366  1.00  0.00     0.049 A 
ATOM     58  H   UNL A   1      42.940  28.866  29.588  1.00  0.00     0.167 HD
ATOM     59  C   UNL A   1      45.344  30.106  30.444  1.00  0.00     0.074 A 
ATOM     60  C   UNL A   1      46.748  30.325  30.721  1.00  0.00     0.031 C 
ATOM     61  C   UNL A   1      44.372  31.027  30.646  1.00  0.00     0.037 A 
BRANCH  48  62
ATOM     62  C   UNL A   1      38.719  29.143  29.052  1.00  0.00     0.057 A 
ATOM     63  C   UNL A   1      38.179  29.562  27.830  1.00  0.00     0.134 A 
ATOM     64  C   UNL A   1      37.864  29.106  30.160  1.00  0.00     0.134 A 
ATOM     65  F   UNL A   1      38.947  29.625  26.731  1.00  0.00    -0.206 F 
ATOM     66  C   UNL A   1      36.840  29.941  27.717  1.00  0.00     0.040 A 
ATOM     67  C   UNL A   1      36.518  29.460  30.055  1.00  0.00     0.040 A 
ATOM     68  F   UNL A   1      38.319  28.701  31.356  1.00  0.00    -0.206 F 
ATOM     69  C   UNL A   1      36.006  29.888  28.831  1.00  0.00     0.006 A 
ENDBRANCH  48  62
BRANCH  49  70
ATOM     70  C   UNL A   1      48.341  26.586  29.596  1.00  0.00     0.057 A 
ATOM     71  C   UNL A   1      48.863  25.922  30.711  1.00  0.00     0.134 A 
ATOM     72  C   UNL A   1      49.226  26.904  28.559  1.00  0.00     0.134 A 
ATOM     73  F   UNL A   1      48.067  25.597  31.740  1.00  0.00    -0.206 F 
ATOM     74  C   UNL A   1      50.218  25.596  30.798  1.00  0.00     0.040 A 
ATOM     75  C   UNL A   1      50.578  26.566  28.623  1.00  0.00     0.040 A 
ATOM     76  F   UNL A   1      48.778  27.524  27.458  1.00  0.00    -0.206 F 
ATOM     77  C   UNL A   1      51.079  25.915  29.750  1.00  0.00     0.006 A 
ENDBRANCH  49  70
BRANCH  61  78
ATOM     78  C   UNL A   1      44.780  32.351  31.216  1.00  0.00     0.057 A 
ATOM     79  C   UNL A   1      45.178  33.397  30.373  1.00  0.00     0.134 A 
ATOM     80  C   UNL A   1      44.857  32.565  32.596  1.00  0.00     0.134 A 
ATOM     81  F   UNL A   1      45.135  33.251  29.039  1.00  0.00    -0.206 F 
ATOM     82  C   UNL A   1      45.651  34.605  30.885  1.00  0.00     0.040 A 
ATOM     83  C   UNL A   1      45.310  33.777  33.120  1.00  0.00     0.040 A 
ATOM     84  F   UNL A   1      44.480  31.605  33.455  1.00  0.00    -0.206 F 
ATOM     85  C   UNL A   1      45.718  34.797  32.263  1.00  0.00     0.006 A 
ENDBRANCH  61  78
ENDBRANCH  35  36
ENDBRANCH  27  30
ENDBRANCH  25  26
ENDBRANCH  24  25
ENDBRANCH   1  24
TORSDOF 15
ENDMDL
MODEL 3
REMARK VINA RESULT:      -9.8      4.066      7.041
REMARK SMILES [NH3+][C@@H](Cc1ccc(F)cc1C(F)(F)F)C(=O)NCCCCNC(=O)c1ccc(-c2c3nc(c(-c4c(F)cccc4F)c4ccc([nH]4)c(-c4c(F)cccc4F)c4nc(c(-c5c(F)cccc5F)c5ccc2[nH]5)C=C4)C=C3)cc1
REMARK SMILES IDX 19 1 18 2 17 3 15 4 16 5 2 7 1 8 3 12 4 13 5 14 10 15 6 16
REMARK SMILES IDX 9 17 7 18 8 19 11 20 12 21 13 22 14 23 20 24 21 25 22 26
REMARK SMILES IDX 23 27 24 29 25 30 26 31 78 32 27 33 77 34 28 35 29 36 30 37
REMARK SMILES IDX 71 38 31 39 76 40 70 41 72 42 32 43 75 44 69 45 68 46 33 48
REMARK SMILES IDX 59 49 42 50 58 51 43 52 46 53 57 54 73 55 44 56 45 57 56 59
REMARK SMILES IDX 74 60 47 61 34 62 35 63 40 64 36 65 37 66 39 67 41 68 38 69
REMARK SMILES IDX 60 70 61 71 66 72 62 73 63 74 65 75 67 76 64 77 48 78 49 79
REMARK SMILES IDX 54 80 50 81 51 82 53 83 55 84 52 85
REMARK H PARENT 17 6 1 9 1 10 1 11 22 28 72 47 46 58
REMARK Flexibility Score: inf
ROOT
ATOM      1  C   UNL A   1      31.829  29.231  26.999  1.00  0.00     0.023 C 
ENDROOT
BRANCH   1   2
ATOM      2  C   UNL A   1      33.235  28.666  27.131  1.00  0.00     0.116 C 
BRANCH   2   3
ATOM      3  N   UNL A   1      33.454  27.413  26.449  1.00  0.00    -0.351 N 
ATOM      4  C   UNL A   1      33.585  27.143  25.114  1.00  0.00     0.278 C 
ATOM      5  O   UNL A   1      34.034  26.031  24.819  1.00  0.00    -0.268 OA
ATOM      6  H   UNL A   1      33.522  26.627  27.038  1.00  0.00     0.163 HD
BRANCH   4   7
ATOM      7  C   UNL A   1      33.201  28.149  24.000  1.00  0.00     0.275 C 
BRANCH   7   8
ATOM      8  N   UNL A   1      34.375  28.898  23.500  1.00  0.00    -0.347 N 
ATOM      9  H   UNL A   1      35.228  28.481  23.874  1.00  0.00     0.345 HD
ATOM     10  H   UNL A   1      34.312  29.871  23.800  1.00  0.00     0.345 HD
ATOM     11  H   UNL A   1      34.396  28.856  22.481  1.00  0.00     0.345 HD
ENDBRANCH   7   8
BRANCH   7  12
ATOM     12  C   UNL A   1      32.199  27.650  22.927  1.00  0.00     0.111 C 
BRANCH  12  13
ATOM     13  C   UNL A   1      30.838  28.310  22.823  1.00  0.00    -0.029 A 
ATOM     14  C   UNL A   1      30.773  29.542  22.132  1.00  0.00     0.007 A 
ATOM     15  C   UNL A   1      29.642  27.763  23.353  1.00  0.00     0.062 A 
ATOM     16  C   UNL A   1      29.555  30.177  21.886  1.00  0.00     0.039 A 
ATOM     17  C   UNL A   1      28.423  28.437  23.106  1.00  0.00     0.052 A 
ATOM     18  C   UNL A   1      28.389  29.611  22.367  1.00  0.00     0.123 A 
ATOM     19  F   UNL A   1      27.213  30.197  22.112  1.00  0.00    -0.207 F 
BRANCH  15  20
ATOM     20  C   UNL A   1      29.524  26.506  24.199  1.00  0.00     0.416 C 
ATOM     21  F   UNL A   1      30.243  26.612  25.353  1.00  0.00    -0.166 F 
ATOM     22  F   UNL A   1      28.237  26.279  24.587  1.00  0.00    -0.166 F 
ATOM     23  F   UNL A   1      29.933  25.355  23.612  1.00  0.00    -0.166 F 
ENDBRANCH  15  20
ENDBRANCH  12  13
ENDBRANCH   7  12
ENDBRANCH   4   7
ENDBRANCH   2   3
ENDBRANCH   1   2
BRANCH   1  24
ATOM     24  C   UNL A   1      31.746  30.681  26.530  1.00  0.00     0.023 C 
BRANCH  24  25
ATOM     25  C   UNL A   1      32.865  31.606  27.002  1.00  0.00     0.116 C 
BRANCH  25  26
ATOM     26  N   UNL A   1      32.417  32.936  27.391  1.00  0.00    -0.352 N 
ATOM     27  C   UNL A   1      33.038  33.865  28.198  1.00  0.00     0.251 C 
ATOM     28  H   UNL A   1      31.544  33.212  27.025  1.00  0.00     0.163 HD
ATOM     29  O   UNL A   1      32.476  34.914  28.485  1.00  0.00    -0.269 OA
BRANCH  27  30
ATOM     30  C   UNL A   1      34.371  33.562  28.764  1.00  0.00     0.039 A 
ATOM     31  C   UNL A   1      34.442  32.913  29.999  1.00  0.00     0.014 A 
ATOM     32  C   UNL A   1      35.535  33.858  28.053  1.00  0.00     0.014 A 
ATOM     33  C   UNL A   1      35.678  32.460  30.467  1.00  0.00     0.010 A 
ATOM     34  C   UNL A   1      36.753  33.338  28.482  1.00  0.00     0.010 A 
ATOM     35  C   UNL A   1      36.833  32.617  29.684  1.00  0.00    -0.014 A 
BRANCH  35  36
ATOM     36  C   UNL A   1      38.125  32.004  30.082  1.00  0.00     0.031 A 
ATOM     37  C   UNL A   1      39.056  32.731  31.009  1.00  0.00     0.074 A 
ATOM     38  C   UNL A   1      38.496  30.825  29.543  1.00  0.00     0.049 A 
ATOM     39  N   UNL A   1      40.263  32.401  31.392  1.00  0.00    -0.248 NA
ATOM     40  C   UNL A   1      38.580  34.011  31.557  1.00  0.00     0.031 C 
ATOM     41  C   UNL A   1      37.705  30.041  28.590  1.00  0.00     0.029 A 
ATOM     42  N   UNL A   1      39.638  30.083  29.712  1.00  0.00    -0.354 N 
ATOM     43  C   UNL A   1      40.696  33.438  32.207  1.00  0.00     0.074 A 
ATOM     44  C   UNL A   1      39.643  34.429  32.229  1.00  0.00     0.031 C 
ATOM     45  C   UNL A   1      38.372  28.915  28.287  1.00  0.00     0.029 A 
ATOM     46  C   UNL A   1      39.650  28.914  28.989  1.00  0.00     0.049 A 
ATOM     47  H   UNL A   1      40.380  30.361  30.298  1.00  0.00     0.167 HD
ATOM     48  C   UNL A   1      41.857  33.543  32.894  1.00  0.00     0.037 A 
ATOM     49  C   UNL A   1      40.588  27.951  28.898  1.00  0.00     0.037 A 
ATOM     50  C   UNL A   1      42.888  32.540  32.905  1.00  0.00     0.049 A 
ATOM     51  C   UNL A   1      41.865  28.088  29.677  1.00  0.00     0.074 A 
ATOM     52  C   UNL A   1      44.073  32.532  33.621  1.00  0.00     0.029 A 
ATOM     53  N   UNL A   1      42.854  31.365  32.172  1.00  0.00    -0.354 N 
ATOM     54  N   UNL A   1      42.239  29.052  30.482  1.00  0.00    -0.248 NA
ATOM     55  C   UNL A   1      42.849  27.004  29.538  1.00  0.00     0.031 C 
ATOM     56  C   UNL A   1      44.770  31.364  33.298  1.00  0.00     0.029 A 
ATOM     57  C   UNL A   1      44.003  30.629  32.409  1.00  0.00     0.049 A 
ATOM     58  H   UNL A   1      42.122  31.093  31.572  1.00  0.00     0.167 HD
ATOM     59  C   UNL A   1      43.489  28.684  30.961  1.00  0.00     0.074 A 
ATOM     60  C   UNL A   1      43.807  27.403  30.365  1.00  0.00     0.031 C 
ATOM     61  C   UNL A   1      44.300  29.350  31.817  1.00  0.00     0.037 A 
BRANCH  48  62
ATOM     62  C   UNL A   1      42.071  34.781  33.712  1.00  0.00     0.057 A 
ATOM     63  C   UNL A   1      42.733  35.891  33.174  1.00  0.00     0.134 A 
ATOM     64  C   UNL A   1      41.672  34.851  35.053  1.00  0.00     0.134 A 
ATOM     65  F   UNL A   1      43.146  35.885  31.897  1.00  0.00    -0.206 F 
ATOM     66  C   UNL A   1      42.999  37.024  33.944  1.00  0.00     0.040 A 
ATOM     67  C   UNL A   1      41.911  35.988  35.826  1.00  0.00     0.040 A 
ATOM     68  F   UNL A   1      41.022  33.825  35.623  1.00  0.00    -0.206 F 
ATOM     69  C   UNL A   1      42.585  37.075  35.273  1.00  0.00     0.006 A 
ENDBRANCH  48  62
BRANCH  49  70
ATOM     70  C   UNL A   1      40.336  26.752  28.061  1.00  0.00     0.057 A 
ATOM     71  C   UNL A   1      39.535  25.696  28.509  1.00  0.00     0.134 A 
ATOM     72  C   UNL A   1      40.911  26.635  26.790  1.00  0.00     0.134 A 
ATOM     73  F   UNL A   1      38.963  25.747  29.720  1.00  0.00    -0.206 F 
ATOM     74  C   UNL A   1      39.323  24.559  27.727  1.00  0.00     0.040 A 
ATOM     75  C   UNL A   1      40.690  25.513  25.989  1.00  0.00     0.040 A 
ATOM     76  F   UNL A   1      41.672  27.623  26.300  1.00  0.00    -0.206 F 
ATOM     77  C   UNL A   1      39.899  24.467  26.461  1.00  0.00     0.006 A 
ENDBRANCH  49  70
BRANCH  61  78
ATOM     78  C   UNL A   1      45.600  28.704  32.186  1.00  0.00     0.057 A 
ATOM     79  C   UNL A   1      45.686  27.868  33.307  1.00  0.00     0.134 A 
ATOM     80  C   UNL A   1      46.780  28.971  31.483  1.00  0.00     0.134 A 
ATOM     81  F   UNL A   1      44.592  27.580  34.029  1.00  0.00    -0.206 F 
ATOM     82  C   UNL A   1      46.905  27.332  33.724  1.00  0.00     0.040 A 
ATOM     83  C   UNL A   1      48.001  28.425  31.878  1.00  0.00     0.040 A 
ATOM     84  F   UNL A   1      46.758  29.756  30.395  1.00  0.00    -0.206 F 
ATOM     85  C   UNL A   1      48.068  27.611  33.007  1.00  0.00     0.006 A 
ENDBRANCH  61  78
ENDBRANCH  35  36
ENDBRANCH  27  30
ENDBRANCH  25  26
ENDBRANCH  24  25
ENDBRANCH   1  24
TORSDOF 15
ENDMDL
