MODEL 1
REMARK VINA RESULT:     -10.5      0.000      0.000
REMARK SMILES Cc1ccoc1C(=O)N1CCO[C@H](CC(=O)NCCCCNC(=O)c2ccc(-c3c4nc(c(-c5c(F)cccc5F)c5ccc([nH]5)c(-c5c(F)cccc5F)c5nc(c(-c6c(F)cccc6F)c6ccc3[nH]6)C=C5)C=C4)cc2)C1
REMARK SMILES IDX 19 1 18 2 17 3 15 4 16 5 14 7 13 8 9 9 10 10 79 11 11 12
REMARK SMILES IDX 12 13 7 14 8 15 6 16 1 17 2 18 3 19 4 20 5 21 20 22 21 23
REMARK SMILES IDX 22 24 23 25 24 27 25 28 26 29 78 30 27 31 77 32 28 33 29 34
REMARK SMILES IDX 30 35 71 36 31 37 76 38 70 39 72 40 32 41 75 42 69 43 68 44
REMARK SMILES IDX 33 46 59 47 42 48 58 49 43 50 46 51 57 52 73 53 44 54 45 55
REMARK SMILES IDX 56 57 74 58 47 59 34 60 35 61 40 62 36 63 37 64 39 65 41 66
REMARK SMILES IDX 38 67 60 68 61 69 66 70 62 71 63 72 65 73 67 74 64 75 48 76
REMARK SMILES IDX 49 77 54 78 50 79 51 80 53 81 55 82 52 83
REMARK H PARENT 17 6 22 26 72 45 46 56
REMARK Flexibility Score: inf
ROOT
ATOM      1  C   UNL A   1      33.724  35.707  28.556  1.00  0.00     0.023 C 
ENDROOT
BRANCH   1   2
ATOM      2  C   UNL A   1      32.919  35.254  29.770  1.00  0.00     0.116 C 
BRANCH   2   3
ATOM      3  N   UNL A   1      32.659  36.375  30.649  1.00  0.00    -0.356 N 
ATOM      4  C   UNL A   1      33.200  36.619  31.874  1.00  0.00     0.222 C 
ATOM      5  O   UNL A   1      32.700  37.484  32.590  1.00  0.00    -0.275 OA
ATOM      6  H   UNL A   1      32.013  37.041  30.321  1.00  0.00     0.163 HD
BRANCH   4   7
ATOM      7  C   UNL A   1      34.444  35.877  32.286  1.00  0.00     0.133 C 
BRANCH   7   8
ATOM      8  C   UNL A   1      34.244  34.901  33.456  1.00  0.00     0.147 C 
ATOM      9  N   UNL A   1      36.460  34.002  33.131  1.00  0.00    -0.331 N 
ATOM     10  C   UNL A   1      35.974  32.707  32.681  1.00  0.00     0.148 C 
ATOM     11  C   UNL A   1      35.595  34.628  34.127  1.00  0.00     0.152 C 
ATOM     12  C   UNL A   1      34.486  32.762  32.287  1.00  0.00     0.182 C 
ATOM     13  O   UNL A   1      33.655  33.632  33.078  1.00  0.00    -0.374 OA
BRANCH   9  14
ATOM     14  C   UNL A   1      37.772  34.443  33.030  1.00  0.00     0.289 C 
ATOM     15  O   UNL A   1      38.280  34.983  34.016  1.00  0.00    -0.265 OA
BRANCH  14  16
ATOM     16  C   UNL A   1      38.454  34.415  31.733  1.00  0.00     0.194 A 
ATOM     17  C   UNL A   1      41.076  34.483  31.918  1.00  0.00     0.049 C 
ATOM     18  C   UNL A   1      39.764  34.386  31.243  1.00  0.00     0.000 A 
ATOM     19  C   UNL A   1      39.663  34.168  29.833  1.00  0.00     0.046 A 
ATOM     20  C   UNL A   1      38.331  34.088  29.539  1.00  0.00     0.196 A 
ATOM     21  O   UNL A   1      37.600  34.255  30.660  1.00  0.00    -0.459 OA
ENDBRANCH  14  16
ENDBRANCH   9  14
ENDBRANCH   7   8
ENDBRANCH   4   7
ENDBRANCH   2   3
ENDBRANCH   1   2
BRANCH   1  22
ATOM     22  C   UNL A   1      34.629  34.614  27.987  1.00  0.00     0.023 C 
BRANCH  22  23
ATOM     23  C   UNL A   1      34.595  33.300  28.758  1.00  0.00     0.116 C 
BRANCH  23  24
ATOM     24  N   UNL A   1      33.991  32.218  27.997  1.00  0.00    -0.352 N 
ATOM     25  C   UNL A   1      34.509  30.978  27.719  1.00  0.00     0.251 C 
ATOM     26  H   UNL A   1      33.094  32.398  27.634  1.00  0.00     0.163 HD
ATOM     27  O   UNL A   1      33.937  30.225  26.935  1.00  0.00    -0.269 OA
BRANCH  25  28
ATOM     28  C   UNL A   1      35.783  30.570  28.345  1.00  0.00     0.039 A 
ATOM     29  C   UNL A   1      35.748  29.711  29.445  1.00  0.00     0.014 A 
ATOM     30  C   UNL A   1      37.004  31.005  27.823  1.00  0.00     0.014 A 
ATOM     31  C   UNL A   1      36.944  29.240  29.986  1.00  0.00     0.010 A 
ATOM     32  C   UNL A   1      38.192  30.472  28.313  1.00  0.00     0.010 A 
ATOM     33  C   UNL A   1      38.174  29.587  29.402  1.00  0.00    -0.014 A 
BRANCH  33  34
ATOM     34  C   UNL A   1      39.449  29.027  29.915  1.00  0.00     0.031 A 
ATOM     35  C   UNL A   1      40.096  29.615  31.139  1.00  0.00     0.074 A 
ATOM     36  C   UNL A   1      40.050  28.022  29.250  1.00  0.00     0.049 A 
ATOM     37  N   UNL A   1      41.225  29.286  31.715  1.00  0.00    -0.248 NA
ATOM     38  C   UNL A   1      39.396  30.735  31.787  1.00  0.00     0.031 C 
ATOM     39  C   UNL A   1      39.549  27.399  28.023  1.00  0.00     0.029 A 
ATOM     40  N   UNL A   1      41.218  27.349  29.510  1.00  0.00    -0.354 N 
ATOM     41  C   UNL A   1      41.372  30.162  32.784  1.00  0.00     0.074 A 
ATOM     42  C   UNL A   1      40.251  31.074  32.740  1.00  0.00     0.031 C 
ATOM     43  C   UNL A   1      40.387  26.417  27.655  1.00  0.00     0.029 A 
ATOM     44  C   UNL A   1      41.502  26.364  28.595  1.00  0.00     0.049 A 
ATOM     45  H   UNL A   1      41.797  27.552  30.280  1.00  0.00     0.167 HD
ATOM     46  C   UNL A   1      42.339  30.187  33.731  1.00  0.00     0.037 A 
ATOM     47  C   UNL A   1      42.547  25.518  28.520  1.00  0.00     0.037 A 
ATOM     48  C   UNL A   1      43.447  29.268  33.781  1.00  0.00     0.049 A 
ATOM     49  C   UNL A   1      43.617  25.578  29.575  1.00  0.00     0.074 A 
ATOM     50  C   UNL A   1      44.452  29.178  34.729  1.00  0.00     0.029 A 
ATOM     51  N   UNL A   1      43.697  28.281  32.839  1.00  0.00    -0.354 N 
ATOM     52  N   UNL A   1      43.706  26.365  30.620  1.00  0.00    -0.248 NA
ATOM     53  C   UNL A   1      44.727  24.625  29.444  1.00  0.00     0.031 C 
ATOM     54  C   UNL A   1      45.337  28.170  34.334  1.00  0.00     0.029 A 
ATOM     55  C   UNL A   1      44.854  27.594  33.171  1.00  0.00     0.049 A 
ATOM     56  H   UNL A   1      43.137  28.096  32.051  1.00  0.00     0.167 HD
ATOM     57  C   UNL A   1      44.864  25.983  31.286  1.00  0.00     0.074 A 
ATOM     58  C   UNL A   1      45.433  24.883  30.535  1.00  0.00     0.031 C 
ATOM     59  C   UNL A   1      45.406  26.497  32.417  1.00  0.00     0.037 A 
BRANCH  46  60
ATOM     60  C   UNL A   1      42.238  31.241  34.796  1.00  0.00     0.057 A 
ATOM     61  C   UNL A   1      41.532  31.023  35.986  1.00  0.00     0.134 A 
ATOM     62  C   UNL A   1      42.881  32.476  34.644  1.00  0.00     0.134 A 
ATOM     63  F   UNL A   1      40.883  29.866  36.190  1.00  0.00    -0.206 F 
ATOM     64  C   UNL A   1      41.446  32.004  36.976  1.00  0.00     0.040 A 
ATOM     65  C   UNL A   1      42.826  33.455  35.638  1.00  0.00     0.040 A 
ATOM     66  F   UNL A   1      43.579  32.750  33.532  1.00  0.00    -0.206 F 
ATOM     67  C   UNL A   1      42.100  33.222  36.806  1.00  0.00     0.006 A 
ENDBRANCH  46  60
BRANCH  47  68
ATOM     68  C   UNL A   1      42.622  24.523  27.421  1.00  0.00     0.057 A 
ATOM     69  C   UNL A   1      43.189  24.855  26.185  1.00  0.00     0.134 A 
ATOM     70  C   UNL A   1      42.121  23.225  27.571  1.00  0.00     0.134 A 
ATOM     71  F   UNL A   1      43.670  26.089  25.973  1.00  0.00    -0.206 F 
ATOM     72  C   UNL A   1      43.233  23.942  25.130  1.00  0.00     0.040 A 
ATOM     73  C   UNL A   1      42.183  22.292  26.535  1.00  0.00     0.040 A 
ATOM     74  F   UNL A   1      41.573  22.840  28.733  1.00  0.00    -0.206 F 
ATOM     75  C   UNL A   1      42.733  22.654  25.305  1.00  0.00     0.006 A 
ENDBRANCH  47  68
BRANCH  59  76
ATOM     76  C   UNL A   1      46.659  25.849  32.933  1.00  0.00     0.057 A 
ATOM     77  C   UNL A   1      46.624  24.783  33.841  1.00  0.00     0.134 A 
ATOM     78  C   UNL A   1      47.917  26.280  32.491  1.00  0.00     0.134 A 
ATOM     79  F   UNL A   1      45.452  24.330  34.313  1.00  0.00    -0.206 F 
ATOM     80  C   UNL A   1      47.795  24.187  34.313  1.00  0.00     0.040 A 
ATOM     81  C   UNL A   1      49.093  25.673  32.933  1.00  0.00     0.040 A 
ATOM     82  F   UNL A   1      48.022  27.289  31.615  1.00  0.00    -0.206 F 
ATOM     83  C   UNL A   1      49.034  24.629  33.852  1.00  0.00     0.006 A 
ENDBRANCH  59  76
ENDBRANCH  33  34
ENDBRANCH  25  28
ENDBRANCH  23  24
ENDBRANCH  22  23
ENDBRANCH   1  22
TORSDOF 14
ENDMDL
MODEL 2
REMARK VINA RESULT:     -10.3      3.859      9.574
REMARK SMILES Cc1ccoc1C(=O)N1CCO[C@H](CC(=O)NCCCCNC(=O)c2ccc(-c3c4nc(c(-c5c(F)cccc5F)c5ccc([nH]5)c(-c5c(F)cccc5F)c5nc(c(-c6c(F)cccc6F)c6ccc3[nH]6)C=C5)C=C4)cc2)C1
REMARK SMILES IDX 19 1 18 2 17 3 15 4 16 5 14 7 13 8 9 9 10 10 79 11 11 12
REMARK SMILES IDX 12 13 7 14 8 15 6 16 1 17 2 18 3 19 4 20 5 21 20 22 21 23
REMARK SMILES IDX 22 24 23 25 24 27 25 28 26 29 78 30 27 31 77 32 28 33 29 34
REMARK SMILES IDX 30 35 71 36 31 37 76 38 70 39 72 40 32 41 75 42 69 43 68 44
REMARK SMILES IDX 33 46 59 47 42 48 58 49 43 50 46 51 57 52 73 53 44 54 45 55
REMARK SMILES IDX 56 57 74 58 47 59 34 60 35 61 40 62 36 63 37 64 39 65 41 66
REMARK SMILES IDX 38 67 60 68 61 69 66 70 62 71 63 72 65 73 67 74 64 75 48 76
REMARK SMILES IDX 49 77 54 78 50 79 51 80 53 81 55 82 52 83
REMARK H PARENT 17 6 22 26 72 45 46 56
REMARK Flexibility Score: inf
ROOT
ATOM      1  C   UNL A   1      31.670  30.803  25.951  1.00  0.00     0.023 C 
ENDROOT
BRANCH   1   2
ATOM      2  C   UNL A   1      32.977  30.077  26.253  1.00  0.00     0.116 C 
BRANCH   2   3
ATOM      3  N   UNL A   1      33.478  29.425  25.061  1.00  0.00    -0.356 N 
ATOM      4  C   UNL A   1      33.427  28.101  24.750  1.00  0.00     0.222 C 
ATOM      5  O   UNL A   1      34.105  27.677  23.815  1.00  0.00    -0.275 OA
ATOM      6  H   UNL A   1      33.908  30.009  24.396  1.00  0.00     0.163 HD
BRANCH   4   7
ATOM      7  C   UNL A   1      32.482  27.206  25.507  1.00  0.00     0.133 C 
BRANCH   7   8
ATOM      8  C   UNL A   1      31.033  27.234  24.996  1.00  0.00     0.147 C 
ATOM      9  N   UNL A   1      30.808  24.866  25.400  1.00  0.00    -0.331 N 
ATOM     10  C   UNL A   1      30.725  24.533  23.986  1.00  0.00     0.148 C 
ATOM     11  C   UNL A   1      30.216  26.160  25.724  1.00  0.00     0.152 C 
ATOM     12  C   UNL A   1      31.210  25.694  23.098  1.00  0.00     0.182 C 
ATOM     13  O   UNL A   1      30.902  27.020  23.569  1.00  0.00    -0.374 OA
BRANCH   9  14
ATOM     14  C   UNL A   1      30.988  23.949  26.428  1.00  0.00     0.289 C 
ATOM     15  O   UNL A   1      30.041  23.738  27.189  1.00  0.00    -0.265 OA
BRANCH  14  16
ATOM     16  C   UNL A   1      32.319  23.395  26.686  1.00  0.00     0.194 A 
ATOM     17  C   UNL A   1      34.141  24.179  24.960  1.00  0.00     0.049 C 
ATOM     18  C   UNL A   1      33.610  23.490  26.156  1.00  0.00     0.000 A 
ATOM     19  C   UNL A   1      34.472  22.796  27.062  1.00  0.00     0.046 A 
ATOM     20  C   UNL A   1      33.682  22.314  28.068  1.00  0.00     0.196 A 
ATOM     21  O   UNL A   1      32.395  22.646  27.844  1.00  0.00    -0.459 OA
ENDBRANCH  14  16
ENDBRANCH   9  14
ENDBRANCH   7   8
ENDBRANCH   4   7
ENDBRANCH   2   3
ENDBRANCH   1   2
BRANCH   1  22
ATOM     22  C   UNL A   1      31.396  31.976  26.893  1.00  0.00     0.023 C 
BRANCH  22  23
ATOM     23  C   UNL A   1      32.635  32.770  27.290  1.00  0.00     0.116 C 
BRANCH  23  24
ATOM     24  N   UNL A   1      32.341  34.166  27.571  1.00  0.00    -0.352 N 
ATOM     25  C   UNL A   1      32.933  34.995  28.491  1.00  0.00     0.251 C 
ATOM     26  H   UNL A   1      31.624  34.570  27.031  1.00  0.00     0.163 HD
ATOM     27  O   UNL A   1      32.471  36.111  28.712  1.00  0.00    -0.269 OA
BRANCH  25  28
ATOM     28  C   UNL A   1      34.112  34.516  29.240  1.00  0.00     0.039 A 
ATOM     29  C   UNL A   1      33.918  33.890  30.473  1.00  0.00     0.014 A 
ATOM     30  C   UNL A   1      35.397  34.652  28.709  1.00  0.00     0.014 A 
ATOM     31  C   UNL A   1      35.012  33.345  31.146  1.00  0.00     0.010 A 
ATOM     32  C   UNL A   1      36.474  34.041  29.343  1.00  0.00     0.010 A 
ATOM     33  C   UNL A   1      36.292  33.384  30.570  1.00  0.00    -0.014 A 
BRANCH  33  34
ATOM     34  C   UNL A   1      37.450  32.737  31.236  1.00  0.00     0.031 A 
ATOM     35  C   UNL A   1      38.108  31.536  30.613  1.00  0.00     0.074 A 
ATOM     36  C   UNL A   1      37.876  33.198  32.427  1.00  0.00     0.049 A 
ATOM     37  N   UNL A   1      39.104  30.815  31.061  1.00  0.00    -0.248 NA
ATOM     38  C   UNL A   1      37.560  31.071  29.329  1.00  0.00     0.031 C 
ATOM     39  C   UNL A   1      37.290  34.323  33.158  1.00  0.00     0.029 A 
ATOM     40  N   UNL A   1      38.901  32.775  33.236  1.00  0.00    -0.354 N 
ATOM     41  C   UNL A   1      39.294  29.810  30.121  1.00  0.00     0.074 A 
ATOM     42  C   UNL A   1      38.274  29.976  29.111  1.00  0.00     0.031 C 
ATOM     43  C   UNL A   1      37.983  34.519  34.292  1.00  0.00     0.029 A 
ATOM     44  C   UNL A   1      39.036  33.513  34.387  1.00  0.00     0.049 A 
ATOM     45  H   UNL A   1      39.485  32.014  33.013  1.00  0.00     0.167 HD
ATOM     46  C   UNL A   1      40.250  28.850  30.089  1.00  0.00     0.037 A 
ATOM     47  C   UNL A   1      39.908  33.391  35.406  1.00  0.00     0.037 A 
ATOM     48  C   UNL A   1      41.274  28.696  31.089  1.00  0.00     0.049 A 
ATOM     49  C   UNL A   1      40.948  32.306  35.354  1.00  0.00     0.074 A 
ATOM     50  C   UNL A   1      42.318  27.786  31.121  1.00  0.00     0.029 A 
ATOM     51  N   UNL A   1      41.381  29.466  32.237  1.00  0.00    -0.354 N 
ATOM     52  N   UNL A   1      41.160  31.406  34.424  1.00  0.00    -0.248 NA
ATOM     53  C   UNL A   1      41.875  32.225  36.491  1.00  0.00     0.031 C 
ATOM     54  C   UNL A   1      43.027  27.976  32.312  1.00  0.00     0.029 A 
ATOM     55  C   UNL A   1      42.459  29.039  32.995  1.00  0.00     0.049 A 
ATOM     56  H   UNL A   1      40.780  30.208  32.478  1.00  0.00     0.167 HD
ATOM     57  C   UNL A   1      42.262  30.673  34.849  1.00  0.00     0.074 A 
ATOM     58  C   UNL A   1      42.682  31.245  36.111  1.00  0.00     0.031 C 
ATOM     59  C   UNL A   1      42.870  29.622  34.247  1.00  0.00     0.037 A 
BRANCH  46  60
ATOM     60  C   UNL A   1      40.233  27.896  28.930  1.00  0.00     0.057 A 
ATOM     61  C   UNL A   1      40.941  28.156  27.749  1.00  0.00     0.134 A 
ATOM     62  C   UNL A   1      39.529  26.688  29.007  1.00  0.00     0.134 A 
ATOM     63  F   UNL A   1      41.625  29.301  27.604  1.00  0.00    -0.206 F 
ATOM     64  C   UNL A   1      40.926  27.262  26.676  1.00  0.00     0.040 A 
ATOM     65  C   UNL A   1      39.530  25.773  27.952  1.00  0.00     0.040 A 
ATOM     66  F   UNL A   1      38.834  26.372  30.110  1.00  0.00    -0.206 F 
ATOM     67  C   UNL A   1      40.226  26.063  26.779  1.00  0.00     0.006 A 
ENDBRANCH  46  60
BRANCH  47  68
ATOM     68  C   UNL A   1      39.854  34.334  36.551  1.00  0.00     0.057 A 
ATOM     69  C   UNL A   1      40.531  35.559  36.510  1.00  0.00     0.134 A 
ATOM     70  C   UNL A   1      39.139  34.032  37.716  1.00  0.00     0.134 A 
ATOM     71  F   UNL A   1      41.248  35.897  35.428  1.00  0.00    -0.206 F 
ATOM     72  C   UNL A   1      40.520  36.438  37.594  1.00  0.00     0.040 A 
ATOM     73  C   UNL A   1      39.097  34.914  38.797  1.00  0.00     0.040 A 
ATOM     74  F   UNL A   1      38.461  32.879  37.816  1.00  0.00    -0.206 F 
ATOM     75  C   UNL A   1      39.797  36.118  38.740  1.00  0.00     0.006 A 
ENDBRANCH  47  68
BRANCH  59  76
ATOM     76  C   UNL A   1      44.079  29.047  34.928  1.00  0.00     0.057 A 
ATOM     77  C   UNL A   1      43.982  27.998  35.853  1.00  0.00     0.134 A 
ATOM     78  C   UNL A   1      45.360  29.530  34.631  1.00  0.00     0.134 A 
ATOM     79  F   UNL A   1      42.784  27.498  36.191  1.00  0.00    -0.206 F 
ATOM     80  C   UNL A   1      45.113  27.471  36.478  1.00  0.00     0.040 A 
ATOM     81  C   UNL A   1      46.500  28.990  35.227  1.00  0.00     0.040 A 
ATOM     82  F   UNL A   1      45.525  30.525  33.748  1.00  0.00    -0.206 F 
ATOM     83  C   UNL A   1      46.378  27.963  36.159  1.00  0.00     0.006 A 
ENDBRANCH  59  76
ENDBRANCH  33  34
ENDBRANCH  25  28
ENDBRANCH  23  24
ENDBRANCH  22  23
ENDBRANCH   1  22
TORSDOF 14
ENDMDL
MODEL 3
REMARK VINA RESULT:     -10.2      5.588     10.889
REMARK SMILES Cc1ccoc1C(=O)N1CCO[C@H](CC(=O)NCCCCNC(=O)c2ccc(-c3c4nc(c(-c5c(F)cccc5F)c5ccc([nH]5)c(-c5c(F)cccc5F)c5nc(c(-c6c(F)cccc6F)c6ccc3[nH]6)C=C5)C=C4)cc2)C1
REMARK SMILES IDX 19 1 18 2 17 3 15 4 16 5 14 7 13 8 9 9 10 10 79 11 11 12
REMARK SMILES IDX 12 13 7 14 8 15 6 16 1 17 2 18 3 19 4 20 5 21 20 22 21 23
REMARK SMILES IDX 22 24 23 25 24 27 25 28 26 29 78 30 27 31 77 32 28 33 29 34
REMARK SMILES IDX 30 35 71 36 31 37 76 38 70 39 72 40 32 41 75 42 69 43 68 44
REMARK SMILES IDX 33 46 59 47 42 48 58 49 43 50 46 51 57 52 73 53 44 54 45 55
REMARK SMILES IDX 56 57 74 58 47 59 34 60 35 61 40 62 36 63 37 64 39 65 41 66
REMARK SMILES IDX 38 67 60 68 61 69 66 70 62 71 63 72 65 73 67 74 64 75 48 76
REMARK SMILES IDX 49 77 54 78 50 79 51 80 53 81 55 82 52 83
REMARK H PARENT 17 6 22 26 72 45 46 56
REMARK Flexibility Score: inf
ROOT
ATOM      1  C   UNL A   1      36.979  20.773  24.836  1.00  0.00     0.023 C 
ENDROOT
BRANCH   1   2
ATOM      2  C   UNL A   1      35.553  20.252  24.987  1.00  0.00     0.116 C 
BRANCH   2   3
ATOM      3  N   UNL A   1      34.840  21.019  25.986  1.00  0.00    -0.356 N 
ATOM      4  C   UNL A   1      34.313  22.268  25.861  1.00  0.00     0.222 C 
ATOM      5  O   UNL A   1      33.950  22.870  26.870  1.00  0.00    -0.275 OA
ATOM      6  H   UNL A   1      34.721  20.586  26.862  1.00  0.00     0.163 HD
BRANCH   4   7
ATOM      7  C   UNL A   1      34.118  22.847  24.485  1.00  0.00     0.133 C 
BRANCH   7   8
ATOM      8  C   UNL A   1      32.970  22.212  23.685  1.00  0.00     0.147 C 
ATOM      9  N   UNL A   1      32.363  24.364  22.779  1.00  0.00    -0.331 N 
ATOM     10  C   UNL A   1      31.102  24.422  23.502  1.00  0.00     0.148 C 
ATOM     11  C   UNL A   1      32.746  23.009  22.395  1.00  0.00     0.152 C 
ATOM     12  C   UNL A   1      31.056  23.398  24.652  1.00  0.00     0.182 C 
ATOM     13  O   UNL A   1      31.713  22.141  24.404  1.00  0.00    -0.374 OA
BRANCH   9  14
ATOM     14  C   UNL A   1      32.949  25.429  22.107  1.00  0.00     0.289 C 
ATOM     15  O   UNL A   1      33.310  25.250  20.941  1.00  0.00    -0.265 OA
BRANCH  14  16
ATOM     16  C   UNL A   1      33.276  26.659  22.833  1.00  0.00     0.194 A 
ATOM     17  C   UNL A   1      33.683  26.289  25.404  1.00  0.00     0.049 C 
ATOM     18  C   UNL A   1      33.617  27.043  24.134  1.00  0.00     0.000 A 
ATOM     19  C   UNL A   1      33.995  28.421  24.062  1.00  0.00     0.046 A 
ATOM     20  C   UNL A   1      33.859  28.801  22.757  1.00  0.00     0.196 A 
ATOM     21  O   UNL A   1      33.411  27.765  22.019  1.00  0.00    -0.459 OA
ENDBRANCH  14  16
ENDBRANCH   9  14
ENDBRANCH   7   8
ENDBRANCH   4   7
ENDBRANCH   2   3
ENDBRANCH   1   2
BRANCH   1  22
ATOM     22  C   UNL A   1      38.042  19.685  24.992  1.00  0.00     0.023 C 
BRANCH  22  23
ATOM     23  C   UNL A   1      39.231  20.084  25.858  1.00  0.00     0.116 C 
BRANCH  23  24
ATOM     24  N   UNL A   1      40.259  19.057  25.909  1.00  0.00    -0.352 N 
ATOM     25  C   UNL A   1      41.606  19.206  26.127  1.00  0.00     0.251 C 
ATOM     26  H   UNL A   1      39.949  18.133  25.769  1.00  0.00     0.163 HD
ATOM     27  O   UNL A   1      42.368  18.253  25.992  1.00  0.00    -0.269 OA
BRANCH  25  28
ATOM     28  C   UNL A   1      42.135  20.536  26.490  1.00  0.00     0.039 A 
ATOM     29  C   UNL A   1      42.489  21.422  25.471  1.00  0.00     0.014 A 
ATOM     30  C   UNL A   1      42.245  20.917  27.830  1.00  0.00     0.014 A 
ATOM     31  C   UNL A   1      42.897  22.716  25.796  1.00  0.00     0.010 A 
ATOM     32  C   UNL A   1      42.576  22.230  28.149  1.00  0.00     0.010 A 
ATOM     33  C   UNL A   1      42.909  23.141  27.135  1.00  0.00    -0.014 A 
BRANCH  33  34
ATOM     34  C   UNL A   1      43.261  24.539  27.490  1.00  0.00     0.031 A 
ATOM     35  C   UNL A   1      44.696  24.988  27.464  1.00  0.00     0.074 A 
ATOM     36  C   UNL A   1      42.295  25.390  27.884  1.00  0.00     0.049 A 
ATOM     37  N   UNL A   1      45.202  26.155  27.775  1.00  0.00    -0.248 NA
ATOM     38  C   UNL A   1      45.697  23.989  27.058  1.00  0.00     0.031 C 
ATOM     39  C   UNL A   1      40.872  25.061  27.998  1.00  0.00     0.029 A 
ATOM     40  N   UNL A   1      42.361  26.706  28.265  1.00  0.00    -0.354 N 
ATOM     41  C   UNL A   1      46.576  26.026  27.611  1.00  0.00     0.074 A 
ATOM     42  C   UNL A   1      46.830  24.653  27.233  1.00  0.00     0.031 C 
ATOM     43  C   UNL A   1      40.199  26.154  28.392  1.00  0.00     0.029 A 
ATOM     44  C   UNL A   1      41.143  27.248  28.594  1.00  0.00     0.049 A 
ATOM     45  H   UNL A   1      43.204  27.215  28.300  1.00  0.00     0.167 HD
ATOM     46  C   UNL A   1      47.536  26.972  27.738  1.00  0.00     0.037 A 
ATOM     47  C   UNL A   1      40.823  28.487  29.015  1.00  0.00     0.037 A 
ATOM     48  C   UNL A   1      47.279  28.342  28.100  1.00  0.00     0.049 A 
ATOM     49  C   UNL A   1      41.911  29.514  29.165  1.00  0.00     0.074 A 
ATOM     50  C   UNL A   1      48.179  29.389  28.205  1.00  0.00     0.029 A 
ATOM     51  N   UNL A   1      46.031  28.853  28.420  1.00  0.00    -0.354 N 
ATOM     52  N   UNL A   1      43.197  29.397  28.938  1.00  0.00    -0.248 NA
ATOM     53  C   UNL A   1      41.500  30.849  29.621  1.00  0.00     0.031 C 
ATOM     54  C   UNL A   1      47.481  30.522  28.637  1.00  0.00     0.029 A 
ATOM     55  C   UNL A   1      46.140  30.195  28.746  1.00  0.00     0.049 A 
ATOM     56  H   UNL A   1      45.191  28.339  28.416  1.00  0.00     0.167 HD
ATOM     57  C   UNL A   1      43.744  30.648  29.195  1.00  0.00     0.074 A 
ATOM     58  C   UNL A   1      42.647  31.512  29.578  1.00  0.00     0.031 C 
ATOM     59  C   UNL A   1      45.037  31.045  29.120  1.00  0.00     0.037 A 
BRANCH  46  60
ATOM     60  C   UNL A   1      48.956  26.557  27.478  1.00  0.00     0.057 A 
ATOM     61  C   UNL A   1      49.794  26.107  28.506  1.00  0.00     0.134 A 
ATOM     62  C   UNL A   1      49.481  26.576  26.179  1.00  0.00     0.134 A 
ATOM     63  F   UNL A   1      49.358  26.076  29.775  1.00  0.00    -0.206 F 
ATOM     64  C   UNL A   1      51.111  25.716  28.258  1.00  0.00     0.040 A 
ATOM     65  C   UNL A   1      50.788  26.161  25.914  1.00  0.00     0.040 A 
ATOM     66  F   UNL A   1      48.733  26.990  25.146  1.00  0.00    -0.206 F 
ATOM     67  C   UNL A   1      51.610  25.736  26.958  1.00  0.00     0.006 A 
ENDBRANCH  46  60
BRANCH  47  68
ATOM     68  C   UNL A   1      39.408  28.834  29.302  1.00  0.00     0.057 A 
ATOM     69  C   UNL A   1      38.860  28.633  30.575  1.00  0.00     0.134 A 
ATOM     70  C   UNL A   1      38.568  29.362  28.315  1.00  0.00     0.134 A 
ATOM     71  F   UNL A   1      39.610  28.114  31.558  1.00  0.00    -0.206 F 
ATOM     72  C   UNL A   1      37.522  28.920  30.849  1.00  0.00     0.040 A 
ATOM     73  C   UNL A   1      37.235  29.679  28.582  1.00  0.00     0.040 A 
ATOM     74  F   UNL A   1      39.033  29.587  27.078  1.00  0.00    -0.206 F 
ATOM     75  C   UNL A   1      36.707  29.449  29.852  1.00  0.00     0.006 A 
ENDBRANCH  47  68
BRANCH  59  76
ATOM     76  C   UNL A   1      45.331  32.487  29.421  1.00  0.00     0.057 A 
ATOM     77  C   UNL A   1      45.241  33.484  28.441  1.00  0.00     0.134 A 
ATOM     78  C   UNL A   1      45.681  32.886  30.718  1.00  0.00     0.134 A 
ATOM     79  F   UNL A   1      44.923  33.167  27.176  1.00  0.00    -0.206 F 
ATOM     80  C   UNL A   1      45.515  34.821  28.733  1.00  0.00     0.040 A 
ATOM     81  C   UNL A   1      45.928  34.224  31.028  1.00  0.00     0.040 A 
ATOM     82  F   UNL A   1      45.776  31.985  31.706  1.00  0.00    -0.206 F 
ATOM     83  C   UNL A   1      45.853  35.195  30.032  1.00  0.00     0.006 A 
ENDBRANCH  59  76
ENDBRANCH  33  34
ENDBRANCH  25  28
ENDBRANCH  23  24
ENDBRANCH  22  23
ENDBRANCH   1  22
TORSDOF 14
ENDMDL
