MODEL 1
REMARK VINA RESULT:     -11.6      0.000      0.000
REMARK SMILES C#Cc1cc(Cl)c2c(c1)C=C(C(=O)NCCCCNC(=O)c1ccc(-c3c4nc(c(-c5c(F)cccc5F)c5ccc([nH]5)c(-c5c(F)cccc5F)c5nc(c(-c6c(F)cccc6F)c6ccc3[nH]6)C=C5)C=C4)cc1)[C@@H](C(F)(F)F)O2
REMARK SMILES IDX 17 1 16 2 15 3 14 4 12 5 13 6 11 8 3 9 4 10 9 11 5 12 8 13
REMARK SMILES IDX 6 14 7 15 10 16 81 17 76 18 2 19 1 20 77 21 78 22 79 23
REMARK SMILES IDX 80 24 18 25 19 26 20 27 21 29 22 30 23 31 75 32 24 33 74 34
REMARK SMILES IDX 25 35 26 36 27 37 68 38 28 39 73 40 67 41 69 42 29 43 72 44
REMARK SMILES IDX 66 45 65 46 30 48 56 49 39 50 55 51 40 52 43 53 54 54 70 55
REMARK SMILES IDX 41 56 42 57 53 59 71 60 44 61 31 62 32 63 37 64 33 65 34 66
REMARK SMILES IDX 36 67 38 68 35 69 57 70 58 71 63 72 59 73 60 74 62 75 64 76
REMARK SMILES IDX 61 77 45 78 46 79 51 80 47 81 48 82 50 83 52 84 49 85
REMARK H PARENT 14 7 19 28 69 47 43 58
REMARK Flexibility Score: inf
ROOT
ATOM      1  C   UNL A   1      39.250  21.311  25.730  1.00  0.00     0.023 C 
ENDROOT
BRANCH   1   2
ATOM      2  C   UNL A   1      39.273  22.681  26.395  1.00  0.00     0.023 C 
BRANCH   2   3
ATOM      3  C   UNL A   1      38.044  23.520  26.070  1.00  0.00     0.116 C 
BRANCH   3   4
ATOM      4  N   UNL A   1      37.532  23.251  24.737  1.00  0.00    -0.352 N 
ATOM      5  C   UNL A   1      36.340  23.350  24.099  1.00  0.00     0.251 C 
ATOM      6  O   UNL A   1      36.347  23.046  22.903  1.00  0.00    -0.270 OA
ATOM      7  H   UNL A   1      38.235  22.904  24.142  1.00  0.00     0.163 HD
BRANCH   5   8
ATOM      8  C   UNL A   1      35.067  23.786  24.747  1.00  0.00     0.067 C 
ATOM      9  C   UNL A   1      32.253  27.371  26.380  1.00  0.00     0.027 A 
ATOM     10  C   UNL A   1      31.212  26.467  26.595  1.00  0.00     0.041 A 
ATOM     11  C   UNL A   1      33.472  26.933  25.849  1.00  0.00     0.029 A 
ATOM     12  C   UNL A   1      31.388  25.126  26.277  1.00  0.00     0.084 A 
ATOM     13  C   UNL A   1      33.654  25.583  25.528  1.00  0.00     0.020 A 
ATOM     14  Cl  UNL A   1      30.078  24.031  26.542  1.00  0.00    -0.080 Cl
ATOM     15  C   UNL A   1      32.606  24.683  25.753  1.00  0.00     0.146 A 
ATOM     16  C   UNL A   1      34.892  25.110  24.915  1.00  0.00     0.025 C 
ATOM     17  O   UNL A   1      32.703  23.364  25.427  1.00  0.00    -0.474 OA
ATOM     18  C   UNL A   1      34.024  22.822  25.223  1.00  0.00     0.314 C 
BRANCH   9  19
ATOM     19  C   UNL A   1      32.052  28.748  26.696  1.00  0.00    -0.070 C 
ATOM     20  C   UNL A   1      31.901  29.901  26.998  1.00  0.00     0.010 C 
ENDBRANCH   9  19
BRANCH  18  21
ATOM     21  C   UNL A   1      34.462  22.061  26.491  1.00  0.00     0.429 C 
ATOM     22  F   UNL A   1      34.880  22.930  27.445  1.00  0.00    -0.167 F 
ATOM     23  F   UNL A   1      33.455  21.344  27.047  1.00  0.00    -0.167 F 
ATOM     24  F   UNL A   1      35.471  21.195  26.252  1.00  0.00    -0.167 F 
ENDBRANCH  18  21
ENDBRANCH   5   8
ENDBRANCH   3   4
ENDBRANCH   2   3
ENDBRANCH   1   2
BRANCH   1  25
ATOM     25  C   UNL A   1      39.776  20.181  26.606  1.00  0.00     0.116 C 
BRANCH  25  26
ATOM     26  N   UNL A   1      40.844  19.411  25.979  1.00  0.00    -0.352 N 
ATOM     27  C   UNL A   1      42.155  19.782  25.796  1.00  0.00     0.251 C 
ATOM     28  H   UNL A   1      40.596  18.518  25.648  1.00  0.00     0.163 HD
ATOM     29  O   UNL A   1      42.924  19.097  25.134  1.00  0.00    -0.269 OA
BRANCH  27  30
ATOM     30  C   UNL A   1      42.598  21.057  26.386  1.00  0.00     0.039 A 
ATOM     31  C   UNL A   1      42.945  22.109  25.539  1.00  0.00     0.014 A 
ATOM     32  C   UNL A   1      42.544  21.232  27.772  1.00  0.00     0.014 A 
ATOM     33  C   UNL A   1      43.174  23.368  26.086  1.00  0.00     0.010 A 
ATOM     34  C   UNL A   1      42.671  22.508  28.300  1.00  0.00     0.010 A 
ATOM     35  C   UNL A   1      42.999  23.585  27.465  1.00  0.00    -0.014 A 
BRANCH  35  36
ATOM     36  C   UNL A   1      43.187  24.932  28.054  1.00  0.00     0.031 A 
ATOM     37  C   UNL A   1      44.562  25.375  28.465  1.00  0.00     0.074 A 
ATOM     38  C   UNL A   1      42.125  25.739  28.241  1.00  0.00     0.049 A 
ATOM     39  N   UNL A   1      44.935  26.504  29.010  1.00  0.00    -0.248 NA
ATOM     40  C   UNL A   1      45.661  24.417  28.256  1.00  0.00     0.031 C 
ATOM     41  C   UNL A   1      40.739  25.404  27.911  1.00  0.00     0.029 A 
ATOM     42  N   UNL A   1      42.047  27.011  28.749  1.00  0.00    -0.354 N 
ATOM     43  C   UNL A   1      46.305  26.391  29.202  1.00  0.00     0.074 A 
ATOM     44  C   UNL A   1      46.687  25.060  28.792  1.00  0.00     0.031 C 
ATOM     45  C   UNL A   1      39.956  26.460  28.182  1.00  0.00     0.029 A 
ATOM     46  C   UNL A   1      40.775  27.528  28.748  1.00  0.00     0.049 A 
ATOM     47  H   UNL A   1      42.830  27.507  29.082  1.00  0.00     0.167 HD
ATOM     48  C   UNL A   1      47.174  27.328  29.644  1.00  0.00     0.037 A 
ATOM     49  C   UNL A   1      40.320  28.729  29.157  1.00  0.00     0.037 A 
ATOM     50  C   UNL A   1      46.790  28.656  30.039  1.00  0.00     0.049 A 
ATOM     51  C   UNL A   1      41.299  29.735  29.700  1.00  0.00     0.074 A 
ATOM     52  C   UNL A   1      47.599  29.689  30.473  1.00  0.00     0.029 A 
ATOM     53  N   UNL A   1      45.487  29.131  30.054  1.00  0.00    -0.354 N 
ATOM     54  N   UNL A   1      42.601  29.638  29.820  1.00  0.00    -0.248 NA
ATOM     55  C   UNL A   1      40.748  31.015  30.162  1.00  0.00     0.031 C 
ATOM     56  C   UNL A   1      46.781  30.769  30.812  1.00  0.00     0.029 A 
ATOM     57  C   UNL A   1      45.467  30.434  30.522  1.00  0.00     0.049 A 
ATOM     58  H   UNL A   1      44.695  28.619  29.772  1.00  0.00     0.167 HD
ATOM     59  C   UNL A   1      43.029  30.851  30.344  1.00  0.00     0.074 A 
ATOM     60  C   UNL A   1      41.847  31.675  30.502  1.00  0.00     0.031 C 
ATOM     61  C   UNL A   1      44.284  31.245  30.668  1.00  0.00     0.037 A 
BRANCH  48  62
ATOM     62  C   UNL A   1      48.627  26.956  29.710  1.00  0.00     0.057 A 
ATOM     63  C   UNL A   1      49.183  26.351  30.848  1.00  0.00     0.134 A 
ATOM     64  C   UNL A   1      49.468  27.148  28.608  1.00  0.00     0.134 A 
ATOM     65  F   UNL A   1      48.436  26.150  31.945  1.00  0.00    -0.206 F 
ATOM     66  C   UNL A   1      50.524  25.969  30.891  1.00  0.00     0.040 A 
ATOM     67  C   UNL A   1      50.802  26.740  28.627  1.00  0.00     0.040 A 
ATOM     68  F   UNL A   1      49.002  27.719  27.486  1.00  0.00    -0.206 F 
ATOM     69  C   UNL A   1      51.335  26.152  29.773  1.00  0.00     0.006 A 
ENDBRANCH  48  62
BRANCH  49  70
ATOM     70  C   UNL A   1      38.876  29.054  29.033  1.00  0.00     0.057 A 
ATOM     71  C   UNL A   1      38.016  28.957  30.134  1.00  0.00     0.134 A 
ATOM     72  C   UNL A   1      38.320  29.489  27.823  1.00  0.00     0.134 A 
ATOM     73  F   UNL A   1      38.482  28.529  31.317  1.00  0.00    -0.206 F 
ATOM     74  C   UNL A   1      36.660  29.271  30.036  1.00  0.00     0.040 A 
ATOM     75  C   UNL A   1      36.972  29.835  27.717  1.00  0.00     0.040 A 
ATOM     76  F   UNL A   1      39.088  29.610  26.730  1.00  0.00    -0.206 F 
ATOM     77  C   UNL A   1      36.136  29.721  28.826  1.00  0.00     0.006 A 
ENDBRANCH  49  70
BRANCH  61  78
ATOM     78  C   UNL A   1      44.465  32.635  31.210  1.00  0.00     0.057 A 
ATOM     79  C   UNL A   1      44.491  32.892  32.587  1.00  0.00     0.134 A 
ATOM     80  C   UNL A   1      44.706  33.713  30.348  1.00  0.00     0.134 A 
ATOM     81  F   UNL A   1      44.260  31.907  33.467  1.00  0.00    -0.206 F 
ATOM     82  C   UNL A   1      44.737  34.172  33.085  1.00  0.00     0.040 A 
ATOM     83  C   UNL A   1      44.987  34.989  30.833  1.00  0.00     0.040 A 
ATOM     84  F   UNL A   1      44.710  33.533  29.018  1.00  0.00    -0.206 F 
ATOM     85  C   UNL A   1      44.999  35.222  32.207  1.00  0.00     0.006 A 
ENDBRANCH  61  78
ENDBRANCH  35  36
ENDBRANCH  27  30
ENDBRANCH  25  26
ENDBRANCH   1  25
TORSDOF 13
ENDMDL
MODEL 2
REMARK VINA RESULT:     -11.6      2.570      7.545
REMARK SMILES C#Cc1cc(Cl)c2c(c1)C=C(C(=O)NCCCCNC(=O)c1ccc(-c3c4nc(c(-c5c(F)cccc5F)c5ccc([nH]5)c(-c5c(F)cccc5F)c5nc(c(-c6c(F)cccc6F)c6ccc3[nH]6)C=C5)C=C4)cc1)[C@@H](C(F)(F)F)O2
REMARK SMILES IDX 17 1 16 2 15 3 14 4 12 5 13 6 11 8 3 9 4 10 9 11 5 12 8 13
REMARK SMILES IDX 6 14 7 15 10 16 81 17 76 18 2 19 1 20 77 21 78 22 79 23
REMARK SMILES IDX 80 24 18 25 19 26 20 27 21 29 22 30 23 31 75 32 24 33 74 34
REMARK SMILES IDX 25 35 26 36 27 37 68 38 28 39 73 40 67 41 69 42 29 43 72 44
REMARK SMILES IDX 66 45 65 46 30 48 56 49 39 50 55 51 40 52 43 53 54 54 70 55
REMARK SMILES IDX 41 56 42 57 53 59 71 60 44 61 31 62 32 63 37 64 33 65 34 66
REMARK SMILES IDX 36 67 38 68 35 69 57 70 58 71 63 72 59 73 60 74 62 75 64 76
REMARK SMILES IDX 61 77 45 78 46 79 51 80 47 81 48 82 50 83 52 84 49 85
REMARK H PARENT 14 7 19 28 69 47 43 58
REMARK Flexibility Score: inf
ROOT
ATOM      1  C   UNL A   1      34.083  28.463  25.765  1.00  0.00     0.023 C 
ENDROOT
BRANCH   1   2
ATOM      2  C   UNL A   1      32.952  28.896  24.842  1.00  0.00     0.023 C 
BRANCH   2   3
ATOM      3  C   UNL A   1      32.183  27.722  24.251  1.00  0.00     0.116 C 
BRANCH   3   4
ATOM      4  N   UNL A   1      31.278  27.119  25.215  1.00  0.00    -0.352 N 
ATOM      5  C   UNL A   1      31.141  25.913  25.821  1.00  0.00     0.251 C 
ATOM      6  O   UNL A   1      30.224  25.829  26.643  1.00  0.00    -0.270 OA
ATOM      7  H   UNL A   1      30.580  27.751  25.503  1.00  0.00     0.163 HD
BRANCH   5   8
ATOM      8  C   UNL A   1      32.007  24.727  25.550  1.00  0.00     0.067 C 
ATOM      9  C   UNL A   1      36.369  22.638  25.743  1.00  0.00     0.027 A 
ATOM     10  C   UNL A   1      35.813  21.422  25.342  1.00  0.00     0.041 A 
ATOM     11  C   UNL A   1      35.556  23.765  25.913  1.00  0.00     0.029 A 
ATOM     12  C   UNL A   1      34.447  21.333  25.112  1.00  0.00     0.084 A 
ATOM     13  C   UNL A   1      34.180  23.679  25.682  1.00  0.00     0.020 A 
ATOM     14  Cl  UNL A   1      33.784  19.812  24.628  1.00  0.00    -0.080 Cl
ATOM     15  C   UNL A   1      33.633  22.458  25.274  1.00  0.00     0.146 A 
ATOM     16  C   UNL A   1      33.299  24.822  25.911  1.00  0.00     0.025 C 
ATOM     17  O   UNL A   1      32.296  22.295  25.070  1.00  0.00    -0.474 OA
ATOM     18  C   UNL A   1      31.499  23.484  24.886  1.00  0.00     0.314 C 
BRANCH   9  19
ATOM     19  C   UNL A   1      37.772  22.711  25.991  1.00  0.00    -0.070 C 
ATOM     20  C   UNL A   1      38.961  22.764  26.161  1.00  0.00     0.010 C 
ENDBRANCH   9  19
BRANCH  18  21
ATOM     21  C   UNL A   1      31.231  23.689  23.382  1.00  0.00     0.429 C 
ATOM     22  F   UNL A   1      31.434  22.533  22.702  1.00  0.00    -0.167 F 
ATOM     23  F   UNL A   1      29.953  24.060  23.123  1.00  0.00    -0.167 F 
ATOM     24  F   UNL A   1      32.029  24.633  22.837  1.00  0.00    -0.167 F 
ENDBRANCH  18  21
ENDBRANCH   5   8
ENDBRANCH   3   4
ENDBRANCH   2   3
ENDBRANCH   1   2
BRANCH   1  25
ATOM     25  C   UNL A   1      33.759  28.578  27.249  1.00  0.00     0.116 C 
BRANCH  25  26
ATOM     26  N   UNL A   1      33.713  29.956  27.727  1.00  0.00    -0.352 N 
ATOM     27  C   UNL A   1      34.715  30.669  28.340  1.00  0.00     0.251 C 
ATOM     28  H   UNL A   1      32.863  30.431  27.594  1.00  0.00     0.163 HD
ATOM     29  O   UNL A   1      34.509  31.778  28.816  1.00  0.00    -0.269 OA
BRANCH  27  30
ATOM     30  C   UNL A   1      36.042  30.038  28.448  1.00  0.00     0.039 A 
ATOM     31  C   UNL A   1      36.941  30.170  27.391  1.00  0.00     0.014 A 
ATOM     32  C   UNL A   1      36.422  29.431  29.649  1.00  0.00     0.014 A 
ATOM     33  C   UNL A   1      38.256  29.747  27.566  1.00  0.00     0.010 A 
ATOM     34  C   UNL A   1      37.755  29.108  29.855  1.00  0.00     0.010 A 
ATOM     35  C   UNL A   1      38.682  29.251  28.812  1.00  0.00    -0.014 A 
BRANCH  35  36
ATOM     36  C   UNL A   1      40.091  28.847  29.029  1.00  0.00     0.031 A 
ATOM     37  C   UNL A   1      41.030  29.787  29.730  1.00  0.00     0.074 A 
ATOM     38  C   UNL A   1      40.528  27.656  28.578  1.00  0.00     0.049 A 
ATOM     39  N   UNL A   1      42.299  29.631  30.004  1.00  0.00    -0.248 NA
ATOM     40  C   UNL A   1      40.478  31.082  30.161  1.00  0.00     0.031 C 
ATOM     41  C   UNL A   1      39.716  26.675  27.855  1.00  0.00     0.029 A 
ATOM     42  N   UNL A   1      41.762  27.064  28.665  1.00  0.00    -0.354 N 
ATOM     43  C   UNL A   1      42.691  30.800  30.641  1.00  0.00     0.074 A 
ATOM     44  C   UNL A   1      41.552  31.689  30.642  1.00  0.00     0.031 C 
ATOM     45  C   UNL A   1      40.461  25.587  27.606  1.00  0.00     0.029 A 
ATOM     46  C   UNL A   1      41.813  25.810  28.109  1.00  0.00     0.049 A 
ATOM     47  H   UNL A   1      42.539  27.498  29.088  1.00  0.00     0.167 HD
ATOM     48  C   UNL A   1      43.883  31.092  31.209  1.00  0.00     0.037 A 
ATOM     49  C   UNL A   1      42.836  24.938  28.014  1.00  0.00     0.037 A 
ATOM     50  C   UNL A   1      45.009  30.198  31.215  1.00  0.00     0.049 A 
ATOM     51  C   UNL A   1      44.171  25.310  28.603  1.00  0.00     0.074 A 
ATOM     52  C   UNL A   1      46.251  30.389  31.791  1.00  0.00     0.029 A 
ATOM     53  N   UNL A   1      45.031  28.949  30.613  1.00  0.00    -0.354 N 
ATOM     54  N   UNL A   1      44.511  26.394  29.256  1.00  0.00    -0.248 NA
ATOM     55  C   UNL A   1      45.260  24.338  28.445  1.00  0.00     0.031 C 
ATOM     56  C   UNL A   1      47.047  29.283  31.483  1.00  0.00     0.029 A 
ATOM     57  C   UNL A   1      46.279  28.371  30.776  1.00  0.00     0.049 A 
ATOM     58  H   UNL A   1      44.272  28.534  30.142  1.00  0.00     0.167 HD
ATOM     59  C   UNL A   1      45.843  26.225  29.611  1.00  0.00     0.074 A 
ATOM     60  C   UNL A   1      46.243  24.923  29.115  1.00  0.00     0.031 C 
ATOM     61  C   UNL A   1      46.662  27.072  30.282  1.00  0.00     0.037 A 
BRANCH  48  62
ATOM     62  C   UNL A   1      44.026  32.426  31.883  1.00  0.00     0.057 A 
ATOM     63  C   UNL A   1      43.740  32.598  33.245  1.00  0.00     0.134 A 
ATOM     64  C   UNL A   1      44.508  33.536  31.181  1.00  0.00     0.134 A 
ATOM     65  F   UNL A   1      43.260  31.578  33.974  1.00  0.00    -0.206 F 
ATOM     66  C   UNL A   1      43.913  33.829  33.879  1.00  0.00     0.040 A 
ATOM     67  C   UNL A   1      44.717  34.764  31.811  1.00  0.00     0.040 A 
ATOM     68  F   UNL A   1      44.805  33.442  29.876  1.00  0.00    -0.206 F 
ATOM     69  C   UNL A   1      44.414  34.914  33.163  1.00  0.00     0.006 A 
ENDBRANCH  48  62
BRANCH  49  70
ATOM     70  C   UNL A   1      42.625  23.617  27.367  1.00  0.00     0.057 A 
ATOM     71  C   UNL A   1      42.826  23.445  25.992  1.00  0.00     0.134 A 
ATOM     72  C   UNL A   1      42.237  22.490  28.104  1.00  0.00     0.134 A 
ATOM     73  F   UNL A   1      43.180  24.489  25.227  1.00  0.00    -0.206 F 
ATOM     74  C   UNL A   1      42.643  22.208  25.373  1.00  0.00     0.040 A 
ATOM     75  C   UNL A   1      42.080  21.240  27.503  1.00  0.00     0.040 A 
ATOM     76  F   UNL A   1      42.032  22.583  29.426  1.00  0.00    -0.206 F 
ATOM     77  C   UNL A   1      42.278  21.098  26.132  1.00  0.00     0.006 A 
ENDBRANCH  49  70
BRANCH  61  78
ATOM     78  C   UNL A   1      48.071  26.623  30.545  1.00  0.00     0.057 A 
ATOM     79  C   UNL A   1      48.404  25.859  31.670  1.00  0.00     0.134 A 
ATOM     80  C   UNL A   1      49.088  26.881  29.615  1.00  0.00     0.134 A 
ATOM     81  F   UNL A   1      47.480  25.583  32.602  1.00  0.00    -0.206 F 
ATOM     82  C   UNL A   1      49.700  25.378  31.868  1.00  0.00     0.040 A 
ATOM     83  C   UNL A   1      50.378  26.377  29.784  1.00  0.00     0.040 A 
ATOM     84  F   UNL A   1      48.834  27.594  28.508  1.00  0.00    -0.206 F 
ATOM     85  C   UNL A   1      50.687  25.627  30.916  1.00  0.00     0.006 A 
ENDBRANCH  61  78
ENDBRANCH  35  36
ENDBRANCH  27  30
ENDBRANCH  25  26
ENDBRANCH   1  25
TORSDOF 13
ENDMDL
MODEL 3
REMARK VINA RESULT:     -11.6      1.657      2.359
REMARK SMILES C#Cc1cc(Cl)c2c(c1)C=C(C(=O)NCCCCNC(=O)c1ccc(-c3c4nc(c(-c5c(F)cccc5F)c5ccc([nH]5)c(-c5c(F)cccc5F)c5nc(c(-c6c(F)cccc6F)c6ccc3[nH]6)C=C5)C=C4)cc1)[C@@H](C(F)(F)F)O2
REMARK SMILES IDX 17 1 16 2 15 3 14 4 12 5 13 6 11 8 3 9 4 10 9 11 5 12 8 13
REMARK SMILES IDX 6 14 7 15 10 16 81 17 76 18 2 19 1 20 77 21 78 22 79 23
REMARK SMILES IDX 80 24 18 25 19 26 20 27 21 29 22 30 23 31 75 32 24 33 74 34
REMARK SMILES IDX 25 35 26 36 27 37 68 38 28 39 73 40 67 41 69 42 29 43 72 44
REMARK SMILES IDX 66 45 65 46 30 48 56 49 39 50 55 51 40 52 43 53 54 54 70 55
REMARK SMILES IDX 41 56 42 57 53 59 71 60 44 61 31 62 32 63 37 64 33 65 34 66
REMARK SMILES IDX 36 67 38 68 35 69 57 70 58 71 63 72 59 73 60 74 62 75 64 76
REMARK SMILES IDX 61 77 45 78 46 79 51 80 47 81 48 82 50 83 52 84 49 85
REMARK H PARENT 14 7 19 28 69 47 43 58
REMARK Flexibility Score: inf
ROOT
ATOM      1  C   UNL A   1      37.820  20.286  24.936  1.00  0.00     0.023 C 
ENDROOT
BRANCH   1   2
ATOM      2  C   UNL A   1      37.089  21.561  24.537  1.00  0.00     0.023 C 
BRANCH   2   3
ATOM      3  C   UNL A   1      36.549  22.337  25.730  1.00  0.00     0.116 C 
BRANCH   3   4
ATOM      4  N   UNL A   1      35.145  22.054  25.978  1.00  0.00    -0.352 N 
ATOM      5  C   UNL A   1      33.959  22.674  25.760  1.00  0.00     0.251 C 
ATOM      6  O   UNL A   1      32.955  22.042  26.099  1.00  0.00    -0.270 OA
ATOM      7  H   UNL A   1      35.024  21.184  26.423  1.00  0.00     0.163 HD
BRANCH   5   8
ATOM      8  C   UNL A   1      33.813  24.033  25.158  1.00  0.00     0.067 C 
ATOM      9  C   UNL A   1      33.272  28.805  25.758  1.00  0.00     0.027 A 
ATOM     10  C   UNL A   1      33.463  29.007  24.390  1.00  0.00     0.041 A 
ATOM     11  C   UNL A   1      33.329  27.515  26.297  1.00  0.00     0.029 A 
ATOM     12  C   UNL A   1      33.710  27.920  23.562  1.00  0.00     0.084 A 
ATOM     13  C   UNL A   1      33.578  26.417  25.466  1.00  0.00     0.020 A 
ATOM     14  Cl  UNL A   1      33.954  28.200  21.874  1.00  0.00    -0.080 Cl
ATOM     15  C   UNL A   1      33.761  26.628  24.096  1.00  0.00     0.146 A 
ATOM     16  C   UNL A   1      33.705  25.067  26.011  1.00  0.00     0.025 C 
ATOM     17  O   UNL A   1      34.045  25.609  23.237  1.00  0.00    -0.474 OA
ATOM     18  C   UNL A   1      33.761  24.266  23.679  1.00  0.00     0.314 C 
BRANCH   9  19
ATOM     19  C   UNL A   1      33.034  29.933  26.599  1.00  0.00    -0.070 C 
ATOM     20  C   UNL A   1      32.847  30.908  27.277  1.00  0.00     0.010 C 
ENDBRANCH   9  19
BRANCH  18  21
ATOM     21  C   UNL A   1      32.430  23.797  23.057  1.00  0.00     0.429 C 
ATOM     22  F   UNL A   1      32.039  24.649  22.077  1.00  0.00    -0.167 F 
ATOM     23  F   UNL A   1      32.522  22.574  22.481  1.00  0.00    -0.167 F 
ATOM     24  F   UNL A   1      31.431  23.726  23.964  1.00  0.00    -0.167 F 
ENDBRANCH  18  21
ENDBRANCH   5   8
ENDBRANCH   3   4
ENDBRANCH   2   3
ENDBRANCH   1   2
BRANCH   1  25
ATOM     25  C   UNL A   1      39.017  20.511  25.851  1.00  0.00     0.116 C 
BRANCH  25  26
ATOM     26  N   UNL A   1      39.994  19.429  25.804  1.00  0.00    -0.352 N 
ATOM     27  C   UNL A   1      41.338  19.495  26.081  1.00  0.00     0.251 C 
ATOM     28  H   UNL A   1      39.649  18.546  25.542  1.00  0.00     0.163 HD
ATOM     29  O   UNL A   1      42.079  18.542  25.876  1.00  0.00    -0.269 OA
BRANCH  27  30
ATOM     30  C   UNL A   1      41.874  20.767  26.597  1.00  0.00     0.039 A 
ATOM     31  C   UNL A   1      42.278  21.746  25.691  1.00  0.00     0.014 A 
ATOM     32  C   UNL A   1      41.850  21.020  27.972  1.00  0.00     0.014 A 
ATOM     33  C   UNL A   1      42.598  23.016  26.167  1.00  0.00     0.010 A 
ATOM     34  C   UNL A   1      42.068  22.311  28.429  1.00  0.00     0.010 A 
ATOM     35  C   UNL A   1      42.456  23.318  27.533  1.00  0.00    -0.014 A 
BRANCH  35  36
ATOM     36  C   UNL A   1      42.741  24.678  28.046  1.00  0.00     0.031 A 
ATOM     37  C   UNL A   1      44.155  25.065  28.374  1.00  0.00     0.074 A 
ATOM     38  C   UNL A   1      41.733  25.549  28.239  1.00  0.00     0.049 A 
ATOM     39  N   UNL A   1      44.611  26.196  28.846  1.00  0.00    -0.248 NA
ATOM     40  C   UNL A   1      45.192  24.040  28.164  1.00  0.00     0.031 C 
ATOM     41  C   UNL A   1      40.317  25.275  27.987  1.00  0.00     0.029 A 
ATOM     42  N   UNL A   1      41.744  26.847  28.686  1.00  0.00    -0.354 N 
ATOM     43  C   UNL A   1      45.981  26.019  28.983  1.00  0.00     0.074 A 
ATOM     44  C   UNL A   1      46.274  24.651  28.623  1.00  0.00     0.031 C 
ATOM     45  C   UNL A   1      39.603  26.383  28.240  1.00  0.00     0.029 A 
ATOM     46  C   UNL A   1      40.502  27.431  28.716  1.00  0.00     0.049 A 
ATOM     47  H   UNL A   1      42.566  27.314  28.960  1.00  0.00     0.167 HD
ATOM     48  C   UNL A   1      46.917  26.927  29.340  1.00  0.00     0.037 A 
ATOM     49  C   UNL A   1      40.130  28.672  29.085  1.00  0.00     0.037 A 
ATOM     50  C   UNL A   1      46.621  28.291  29.685  1.00  0.00     0.049 A 
ATOM     51  C   UNL A   1      41.184  29.648  29.534  1.00  0.00     0.074 A 
ATOM     52  C   UNL A   1      47.502  29.298  30.032  1.00  0.00     0.029 A 
ATOM     53  N   UNL A   1      45.346  28.836  29.733  1.00  0.00    -0.354 N 
ATOM     54  N   UNL A   1      42.484  29.487  29.601  1.00  0.00    -0.248 NA
ATOM     55  C   UNL A   1      40.722  30.977  29.955  1.00  0.00     0.031 C 
ATOM     56  C   UNL A   1      46.758  30.435  30.352  1.00  0.00     0.029 A 
ATOM     57  C   UNL A   1      45.416  30.159  30.137  1.00  0.00     0.049 A 
ATOM     58  H   UNL A   1      44.516  28.355  29.512  1.00  0.00     0.167 HD
ATOM     59  C   UNL A   1      42.997  30.698  30.045  1.00  0.00     0.074 A 
ATOM     60  C   UNL A   1      41.869  31.592  30.214  1.00  0.00     0.031 C 
ATOM     61  C   UNL A   1      44.285  31.039  30.295  1.00  0.00     0.037 A 
BRANCH  48  62
ATOM     62  C   UNL A   1      48.350  26.480  29.360  1.00  0.00     0.057 A 
ATOM     63  C   UNL A   1      49.201  26.680  28.264  1.00  0.00     0.134 A 
ATOM     64  C   UNL A   1      48.903  25.896  30.506  1.00  0.00     0.134 A 
ATOM     65  F   UNL A   1      48.732  27.221  27.128  1.00  0.00    -0.206 F 
ATOM     66  C   UNL A   1      50.543  26.300  28.300  1.00  0.00     0.040 A 
ATOM     67  C   UNL A   1      50.252  25.543  30.567  1.00  0.00     0.040 A 
ATOM     68  F   UNL A   1      48.147  25.678  31.593  1.00  0.00    -0.206 F 
ATOM     69  C   UNL A   1      51.075  25.740  29.460  1.00  0.00     0.006 A 
ENDBRANCH  48  62
BRANCH  49  70
ATOM     70  C   UNL A   1      38.700  29.069  29.008  1.00  0.00     0.057 A 
ATOM     71  C   UNL A   1      38.139  29.523  27.809  1.00  0.00     0.134 A 
ATOM     72  C   UNL A   1      37.853  28.986  30.121  1.00  0.00     0.134 A 
ATOM     73  F   UNL A   1      38.901  29.643  26.712  1.00  0.00    -0.206 F 
ATOM     74  C   UNL A   1      36.795  29.887  27.719  1.00  0.00     0.040 A 
ATOM     75  C   UNL A   1      36.499  29.319  30.039  1.00  0.00     0.040 A 
ATOM     76  F   UNL A   1      38.324  28.554  31.301  1.00  0.00    -0.206 F 
ATOM     77  C   UNL A   1      35.968  29.776  28.835  1.00  0.00     0.006 A 
ENDBRANCH  49  70
BRANCH  61  78
ATOM     78  C   UNL A   1      44.563  32.440  30.759  1.00  0.00     0.057 A 
ATOM     79  C   UNL A   1      44.667  32.760  32.118  1.00  0.00     0.134 A 
ATOM     80  C   UNL A   1      44.818  33.462  29.834  1.00  0.00     0.134 A 
ATOM     81  F   UNL A   1      44.428  31.831  33.056  1.00  0.00    -0.206 F 
ATOM     82  C   UNL A   1      45.003  34.047  32.541  1.00  0.00     0.040 A 
ATOM     83  C   UNL A   1      45.188  34.743  30.243  1.00  0.00     0.040 A 
ATOM     84  F   UNL A   1      44.749  33.221  28.516  1.00  0.00    -0.206 F 
ATOM     85  C   UNL A   1      45.276  35.039  31.601  1.00  0.00     0.006 A 
ENDBRANCH  61  78
ENDBRANCH  35  36
ENDBRANCH  27  30
ENDBRANCH  25  26
ENDBRANCH   1  25
TORSDOF 13
ENDMDL
