MODEL 1
REMARK VINA RESULT:     -11.1      0.000      0.000
REMARK SMILES CCCCOC(=O)c1ccc(N2C[C@H](C(=O)NCCCCNC(=O)c3ccc(-c4c5nc(c(-c6c(F)cccc6F)c6ccc([nH]6)c(-c6c(F)cccc6F)c6nc(c(-c7c(F)cccc7F)c7ccc4[nH]7)C=C6)C=C5)cc3)CC2=O)cc1
REMARK SMILES IDX 15 1 16 2 17 3 14 5 12 6 13 7 80 8 79 9 81 10 11 11 8 12
REMARK SMILES IDX 9 13 83 14 10 15 82 16 6 17 7 18 5 19 4 20 3 21 2 22 1 23
REMARK SMILES IDX 18 24 19 25 20 26 21 27 22 28 23 29 24 31 25 32 26 33 78 34
REMARK SMILES IDX 27 35 77 36 28 37 29 38 30 39 71 40 31 41 76 42 70 43 72 44
REMARK SMILES IDX 32 45 75 46 69 47 68 48 33 50 59 51 42 52 58 53 43 54 46 55
REMARK SMILES IDX 57 56 73 57 44 58 45 59 56 61 74 62 47 63 34 64 35 65 40 66
REMARK SMILES IDX 36 67 37 68 39 69 41 70 38 71 60 72 61 73 66 74 62 75 63 76
REMARK SMILES IDX 65 77 67 78 64 79 48 80 49 81 54 82 50 83 51 84 53 85 55 86
REMARK SMILES IDX 52 87
REMARK H PARENT 17 4 22 30 72 49 46 60
REMARK Flexibility Score: inf
ROOT
ATOM      1  C   UNL A   1      31.734  29.016  23.888  1.00  0.00     0.225 C 
ATOM      2  O   UNL A   1      30.807  28.735  23.130  1.00  0.00    -0.275 OA
ATOM      3  N   UNL A   1      31.498  29.922  24.878  1.00  0.00    -0.356 N 
ATOM      4  H   UNL A   1      30.609  30.344  24.853  1.00  0.00     0.163 HD
ENDROOT
BRANCH   1   5
ATOM      5  C   UNL A   1      33.118  28.413  23.745  1.00  0.00     0.107 C 
ATOM      6  N   UNL A   1      33.080  26.114  23.212  1.00  0.00    -0.312 N 
ATOM      7  C   UNL A   1      33.167  27.015  24.333  1.00  0.00     0.139 C 
ATOM      8  C   UNL A   1      33.303  26.770  22.002  1.00  0.00     0.227 C 
ATOM      9  C   UNL A   1      33.486  28.243  22.279  1.00  0.00     0.116 C 
ATOM     10  O   UNL A   1      33.363  26.300  20.875  1.00  0.00    -0.274 OA
BRANCH   6  11
ATOM     11  C   UNL A   1      32.883  24.721  23.374  1.00  0.00     0.044 A 
ATOM     12  C   UNL A   1      32.465  21.958  23.647  1.00  0.00     0.060 A 
ATOM     13  C   UNL A   1      31.477  22.848  24.067  1.00  0.00     0.018 A 
ATOM     14  C   UNL A   1      33.659  22.429  23.104  1.00  0.00     0.018 A 
ATOM     15  C   UNL A   1      31.696  24.224  23.940  1.00  0.00     0.027 A 
ATOM     16  C   UNL A   1      33.861  23.804  22.963  1.00  0.00     0.027 A 
BRANCH  12  17
ATOM     17  C   UNL A   1      32.241  20.511  23.695  1.00  0.00     0.338 C 
ATOM     18  O   UNL A   1      32.236  19.801  22.700  1.00  0.00    -0.246 OA
BRANCH  17  19
ATOM     19  O   UNL A   1      32.124  20.134  24.987  1.00  0.00    -0.462 OA
BRANCH  19  20
ATOM     20  C   UNL A   1      33.352  20.055  25.729  1.00  0.00     0.233 C 
BRANCH  20  21
ATOM     21  C   UNL A   1      33.335  21.058  26.879  1.00  0.00     0.041 C 
BRANCH  21  22
ATOM     22  C   UNL A   1      34.546  21.994  26.922  1.00  0.00     0.000 C 
ATOM     23  C   UNL A   1      34.193  23.449  26.656  1.00  0.00     0.004 C 
ENDBRANCH  21  22
ENDBRANCH  20  21
ENDBRANCH  19  20
ENDBRANCH  17  19
ENDBRANCH  12  17
ENDBRANCH   6  11
ENDBRANCH   1   5
BRANCH   3  24
ATOM     24  C   UNL A   1      32.357  30.356  25.963  1.00  0.00     0.116 C 
BRANCH  24  25
ATOM     25  C   UNL A   1      32.322  29.398  27.152  1.00  0.00     0.023 C 
BRANCH  25  26
ATOM     26  C   UNL A   1      33.621  28.637  27.430  1.00  0.00     0.023 C 
BRANCH  26  27
ATOM     27  C   UNL A   1      34.884  29.488  27.525  1.00  0.00     0.116 C 
BRANCH  27  28
ATOM     28  N   UNL A   1      34.950  30.273  28.746  1.00  0.00    -0.352 N 
ATOM     29  C   UNL A   1      36.002  30.459  29.611  1.00  0.00     0.251 C 
ATOM     30  H   UNL A   1      34.118  30.740  28.990  1.00  0.00     0.163 HD
ATOM     31  O   UNL A   1      35.825  31.065  30.664  1.00  0.00    -0.269 OA
BRANCH  29  32
ATOM     32  C   UNL A   1      37.338  29.904  29.299  1.00  0.00     0.039 A 
ATOM     33  C   UNL A   1      37.807  29.988  27.984  1.00  0.00     0.014 A 
ATOM     34  C   UNL A   1      38.122  29.294  30.282  1.00  0.00     0.014 A 
ATOM     35  C   UNL A   1      39.088  29.528  27.671  1.00  0.00     0.010 A 
ATOM     36  C   UNL A   1      39.421  28.889  29.982  1.00  0.00     0.010 A 
ATOM     37  C   UNL A   1      39.920  29.009  28.676  1.00  0.00    -0.014 A 
BRANCH  37  38
ATOM     38  C   UNL A   1      41.316  28.595  28.382  1.00  0.00     0.031 A 
ATOM     39  C   UNL A   1      41.627  27.166  28.035  1.00  0.00     0.074 A 
ATOM     40  C   UNL A   1      42.313  29.493  28.490  1.00  0.00     0.049 A 
ATOM     41  N   UNL A   1      42.790  26.600  27.833  1.00  0.00    -0.248 NA
ATOM     42  C   UNL A   1      40.482  26.249  27.923  1.00  0.00     0.031 C 
ATOM     43  C   UNL A   1      42.151  30.902  28.852  1.00  0.00     0.029 A 
ATOM     44  N   UNL A   1      43.667  29.350  28.315  1.00  0.00    -0.354 N 
ATOM     45  C   UNL A   1      42.519  25.260  27.586  1.00  0.00     0.074 A 
ATOM     46  C   UNL A   1      41.087  25.090  27.702  1.00  0.00     0.031 C 
ATOM     47  C   UNL A   1      43.355  31.497  28.855  1.00  0.00     0.029 A 
ATOM     48  C   UNL A   1      44.376  30.507  28.528  1.00  0.00     0.049 A 
ATOM     49  H   UNL A   1      44.091  28.498  28.060  1.00  0.00     0.167 HD
ATOM     50  C   UNL A   1      43.384  24.265  27.271  1.00  0.00     0.037 A 
ATOM     51  C   UNL A   1      45.700  30.742  28.474  1.00  0.00     0.037 A 
ATOM     52  C   UNL A   1      44.805  24.435  27.128  1.00  0.00     0.049 A 
ATOM     53  C   UNL A   1      46.638  29.621  28.126  1.00  0.00     0.074 A 
ATOM     54  C   UNL A   1      45.754  23.495  26.766  1.00  0.00     0.029 A 
ATOM     55  N   UNL A   1      45.481  25.627  27.336  1.00  0.00    -0.354 N 
ATOM     56  N   UNL A   1      46.362  28.369  27.852  1.00  0.00    -0.248 NA
ATOM     57  C   UNL A   1      48.070  29.945  28.080  1.00  0.00     0.031 C 
ATOM     58  C   UNL A   1      47.010  24.113  26.779  1.00  0.00     0.029 A 
ATOM     59  C   UNL A   1      46.837  25.445  27.120  1.00  0.00     0.049 A 
ATOM     60  H   UNL A   1      45.060  26.478  27.598  1.00  0.00     0.167 HD
ATOM     61  C   UNL A   1      47.581  27.764  27.575  1.00  0.00     0.074 A 
ATOM     62  C   UNL A   1      48.598  28.787  27.706  1.00  0.00     0.031 C 
ATOM     63  C   UNL A   1      47.835  26.475  27.243  1.00  0.00     0.037 A 
BRANCH  50  64
ATOM     64  C   UNL A   1      42.807  22.899  27.053  1.00  0.00     0.057 A 
ATOM     65  C   UNL A   1      42.395  22.096  28.124  1.00  0.00     0.134 A 
ATOM     66  C   UNL A   1      42.630  22.394  25.759  1.00  0.00     0.134 A 
ATOM     67  F   UNL A   1      42.551  22.518  29.388  1.00  0.00    -0.206 F 
ATOM     68  C   UNL A   1      41.847  20.829  27.918  1.00  0.00     0.040 A 
ATOM     69  C   UNL A   1      42.063  21.138  25.539  1.00  0.00     0.040 A 
ATOM     70  F   UNL A   1      42.998  23.115  24.689  1.00  0.00    -0.206 F 
ATOM     71  C   UNL A   1      41.675  20.349  26.621  1.00  0.00     0.006 A 
ENDBRANCH  50  64
BRANCH  51  72
ATOM     72  C   UNL A   1      46.224  32.105  28.733  1.00  0.00     0.057 A 
ATOM     73  C   UNL A   1      46.331  33.041  27.697  1.00  0.00     0.134 A 
ATOM     74  C   UNL A   1      46.638  32.501  30.009  1.00  0.00     0.134 A 
ATOM     75  F   UNL A   1      45.967  32.710  26.450  1.00  0.00    -0.206 F 
ATOM     76  C   UNL A   1      46.848  34.317  27.918  1.00  0.00     0.040 A 
ATOM     77  C   UNL A   1      47.140  33.781  30.249  1.00  0.00     0.040 A 
ATOM     78  F   UNL A   1      46.556  31.650  31.043  1.00  0.00    -0.206 F 
ATOM     79  C   UNL A   1      47.251  34.691  29.198  1.00  0.00     0.006 A 
ENDBRANCH  51  72
BRANCH  63  80
ATOM     80  C   UNL A   1      49.261  26.110  26.963  1.00  0.00     0.057 A 
ATOM     81  C   UNL A   1      49.815  26.238  25.683  1.00  0.00     0.134 A 
ATOM     82  C   UNL A   1      50.096  25.658  27.991  1.00  0.00     0.134 A 
ATOM     83  F   UNL A   1      49.060  26.653  24.655  1.00  0.00    -0.206 F 
ATOM     84  C   UNL A   1      51.148  25.910  25.433  1.00  0.00     0.040 A 
ATOM     85  C   UNL A   1      51.436  25.346  27.758  1.00  0.00     0.040 A 
ATOM     86  F   UNL A   1      49.625  25.520  29.240  1.00  0.00    -0.206 F 
ATOM     87  C   UNL A   1      51.964  25.468  26.473  1.00  0.00     0.006 A 
ENDBRANCH  63  80
ENDBRANCH  37  38
ENDBRANCH  29  32
ENDBRANCH  27  28
ENDBRANCH  26  27
ENDBRANCH  25  26
ENDBRANCH  24  25
ENDBRANCH   3  24
TORSDOF 17
ENDMDL
MODEL 2
REMARK VINA RESULT:     -11.0      4.900      7.180
REMARK SMILES CCCCOC(=O)c1ccc(N2C[C@H](C(=O)NCCCCNC(=O)c3ccc(-c4c5nc(c(-c6c(F)cccc6F)c6ccc([nH]6)c(-c6c(F)cccc6F)c6nc(c(-c7c(F)cccc7F)c7ccc4[nH]7)C=C6)C=C5)cc3)CC2=O)cc1
REMARK SMILES IDX 15 1 16 2 17 3 14 5 12 6 13 7 80 8 79 9 81 10 11 11 8 12
REMARK SMILES IDX 9 13 83 14 10 15 82 16 6 17 7 18 5 19 4 20 3 21 2 22 1 23
REMARK SMILES IDX 18 24 19 25 20 26 21 27 22 28 23 29 24 31 25 32 26 33 78 34
REMARK SMILES IDX 27 35 77 36 28 37 29 38 30 39 71 40 31 41 76 42 70 43 72 44
REMARK SMILES IDX 32 45 75 46 69 47 68 48 33 50 59 51 42 52 58 53 43 54 46 55
REMARK SMILES IDX 57 56 73 57 44 58 45 59 56 61 74 62 47 63 34 64 35 65 40 66
REMARK SMILES IDX 36 67 37 68 39 69 41 70 38 71 60 72 61 73 66 74 62 75 63 76
REMARK SMILES IDX 65 77 67 78 64 79 48 80 49 81 54 82 50 83 51 84 53 85 55 86
REMARK SMILES IDX 52 87
REMARK H PARENT 17 4 22 30 72 49 46 60
REMARK Flexibility Score: inf
ROOT
ATOM      1  C   UNL A   1      31.249  27.612  24.363  1.00  0.00     0.225 C 
ATOM      2  O   UNL A   1      30.582  26.579  24.391  1.00  0.00    -0.275 OA
ATOM      3  N   UNL A   1      30.601  28.797  24.540  1.00  0.00    -0.356 N 
ATOM      4  H   UNL A   1      29.619  28.731  24.596  1.00  0.00     0.163 HD
ENDROOT
BRANCH   1   5
ATOM      5  C   UNL A   1      32.746  27.611  24.120  1.00  0.00     0.107 C 
ATOM      6  N   UNL A   1      33.622  25.459  23.707  1.00  0.00    -0.312 N 
ATOM      7  C   UNL A   1      33.404  26.408  24.769  1.00  0.00     0.139 C 
ATOM      8  C   UNL A   1      33.475  26.046  22.450  1.00  0.00     0.227 C 
ATOM      9  C   UNL A   1      33.053  27.484  22.636  1.00  0.00     0.116 C 
ATOM     10  O   UNL A   1      33.648  25.548  21.347  1.00  0.00    -0.274 OA
BRANCH   6  11
ATOM     11  C   UNL A   1      34.026  24.125  23.955  1.00  0.00     0.044 A 
ATOM     12  C   UNL A   1      34.841  21.494  24.498  1.00  0.00     0.060 A 
ATOM     13  C   UNL A   1      35.785  22.437  24.096  1.00  0.00     0.018 A 
ATOM     14  C   UNL A   1      33.497  21.844  24.623  1.00  0.00     0.018 A 
ATOM     15  C   UNL A   1      35.371  23.743  23.814  1.00  0.00     0.027 A 
ATOM     16  C   UNL A   1      33.097  23.155  24.358  1.00  0.00     0.027 A 
BRANCH  12  17
ATOM     17  C   UNL A   1      35.248  20.137  24.873  1.00  0.00     0.338 C 
ATOM     18  O   UNL A   1      36.415  19.800  25.001  1.00  0.00    -0.246 OA
BRANCH  17  19
ATOM     19  O   UNL A   1      34.138  19.401  25.107  1.00  0.00    -0.462 OA
BRANCH  19  20
ATOM     20  C   UNL A   1      34.010  18.199  24.331  1.00  0.00     0.233 C 
BRANCH  20  21
ATOM     21  C   UNL A   1      32.880  17.335  24.885  1.00  0.00     0.041 C 
BRANCH  21  22
ATOM     22  C   UNL A   1      33.234  15.854  25.044  1.00  0.00     0.000 C 
ATOM     23  C   UNL A   1      32.154  15.048  25.749  1.00  0.00     0.004 C 
ENDBRANCH  21  22
ENDBRANCH  20  21
ENDBRANCH  19  20
ENDBRANCH  17  19
ENDBRANCH  12  17
ENDBRANCH   6  11
ENDBRANCH   1   5
BRANCH   3  24
ATOM     24  C   UNL A   1      31.135  30.140  24.659  1.00  0.00     0.116 C 
BRANCH  24  25
ATOM     25  C   UNL A   1      31.536  30.480  26.093  1.00  0.00     0.023 C 
BRANCH  25  26
ATOM     26  C   UNL A   1      31.402  31.953  26.488  1.00  0.00     0.023 C 
BRANCH  26  27
ATOM     27  C   UNL A   1      32.592  32.555  27.230  1.00  0.00     0.116 C 
BRANCH  27  28
ATOM     28  N   UNL A   1      32.391  33.948  27.590  1.00  0.00    -0.352 N 
ATOM     29  C   UNL A   1      33.060  34.719  28.511  1.00  0.00     0.251 C 
ATOM     30  H   UNL A   1      31.670  34.408  27.102  1.00  0.00     0.163 HD
ATOM     31  O   UNL A   1      32.661  35.852  28.762  1.00  0.00    -0.269 OA
BRANCH  29  32
ATOM     32  C   UNL A   1      34.237  34.179  29.228  1.00  0.00     0.039 A 
ATOM     33  C   UNL A   1      34.029  33.436  30.394  1.00  0.00     0.014 A 
ATOM     34  C   UNL A   1      35.538  34.408  28.768  1.00  0.00     0.014 A 
ATOM     35  C   UNL A   1      35.115  32.862  31.057  1.00  0.00     0.010 A 
ATOM     36  C   UNL A   1      36.615  33.787  29.397  1.00  0.00     0.010 A 
ATOM     37  C   UNL A   1      36.414  33.002  30.543  1.00  0.00    -0.014 A 
BRANCH  37  38
ATOM     38  C   UNL A   1      37.572  32.328  31.184  1.00  0.00     0.031 A 
ATOM     39  C   UNL A   1      38.305  31.230  30.464  1.00  0.00     0.074 A 
ATOM     40  C   UNL A   1      37.927  32.662  32.439  1.00  0.00     0.049 A 
ATOM     41  N   UNL A   1      39.280  30.469  30.893  1.00  0.00    -0.248 NA
ATOM     42  C   UNL A   1      37.868  30.934  29.091  1.00  0.00     0.031 C 
ATOM     43  C   UNL A   1      37.278  33.685  33.260  1.00  0.00     0.029 A 
ATOM     44  N   UNL A   1      38.917  32.165  33.250  1.00  0.00    -0.354 N 
ATOM     45  C   UNL A   1      39.562  29.595  29.851  1.00  0.00     0.074 A 
ATOM     46  C   UNL A   1      38.630  29.894  28.785  1.00  0.00     0.031 C 
ATOM     47  C   UNL A   1      37.897  33.752  34.450  1.00  0.00     0.029 A 
ATOM     48  C   UNL A   1      38.963  32.757  34.489  1.00  0.00     0.049 A 
ATOM     49  H   UNL A   1      39.536  31.452  32.970  1.00  0.00     0.167 HD
ATOM     50  C   UNL A   1      40.525  28.644  29.781  1.00  0.00     0.037 A 
ATOM     51  C   UNL A   1      39.770  32.519  35.540  1.00  0.00     0.037 A 
ATOM     52  C   UNL A   1      41.470  28.362  30.827  1.00  0.00     0.049 A 
ATOM     53  C   UNL A   1      40.826  31.456  35.437  1.00  0.00     0.074 A 
ATOM     54  C   UNL A   1      42.511  27.448  30.827  1.00  0.00     0.029 A 
ATOM     55  N   UNL A   1      41.495  28.996  32.059  1.00  0.00    -0.354 N 
ATOM     56  N   UNL A   1      41.109  30.668  34.429  1.00  0.00    -0.248 NA
ATOM     57  C   UNL A   1      41.675  31.249  36.619  1.00  0.00     0.031 C 
ATOM     58  C   UNL A   1      43.149  27.511  32.071  1.00  0.00     0.029 A 
ATOM     59  C   UNL A   1      42.525  28.486  32.833  1.00  0.00     0.049 A 
ATOM     60  H   UNL A   1      40.872  29.704  32.343  1.00  0.00     0.167 HD
ATOM     61  C   UNL A   1      42.183  29.892  34.844  1.00  0.00     0.074 A 
ATOM     62  C   UNL A   1      42.507  30.309  36.193  1.00  0.00     0.031 C 
ATOM     63  C   UNL A   1      42.842  28.920  34.168  1.00  0.00     0.037 A 
BRANCH  50  64
ATOM     64  C   UNL A   1      40.603  27.840  28.518  1.00  0.00     0.057 A 
ATOM     65  C   UNL A   1      41.373  28.260  27.427  1.00  0.00     0.134 A 
ATOM     66  C   UNL A   1      39.929  26.618  28.403  1.00  0.00     0.134 A 
ATOM     67  F   UNL A   1      42.032  29.428  27.470  1.00  0.00    -0.206 F 
ATOM     68  C   UNL A   1      41.454  27.504  26.256  1.00  0.00     0.040 A 
ATOM     69  C   UNL A   1      40.019  25.842  27.246  1.00  0.00     0.040 A 
ATOM     70  F   UNL A   1      39.178  26.156  29.414  1.00  0.00    -0.206 F 
ATOM     71  C   UNL A   1      40.780  26.287  26.166  1.00  0.00     0.006 A 
ENDBRANCH  50  64
BRANCH  51  72
ATOM     72  C   UNL A   1      39.628  33.319  36.780  1.00  0.00     0.057 A 
ATOM     73  C   UNL A   1      38.745  32.924  37.792  1.00  0.00     0.134 A 
ATOM     74  C   UNL A   1      40.359  34.495  36.981  1.00  0.00     0.134 A 
ATOM     75  F   UNL A   1      38.005  31.816  37.645  1.00  0.00    -0.206 F 
ATOM     76  C   UNL A   1      38.579  33.681  38.952  1.00  0.00     0.040 A 
ATOM     77  C   UNL A   1      40.218  35.252  38.146  1.00  0.00     0.040 A 
ATOM     78  F   UNL A   1      41.225  34.922  36.050  1.00  0.00    -0.206 F 
ATOM     79  C   UNL A   1      39.320  34.847  39.133  1.00  0.00     0.006 A 
ENDBRANCH  51  72
BRANCH  63  80
ATOM     80  C   UNL A   1      43.999  28.269  34.863  1.00  0.00     0.057 A 
ATOM     81  C   UNL A   1      43.856  27.059  35.555  1.00  0.00     0.134 A 
ATOM     82  C   UNL A   1      45.276  28.841  34.811  1.00  0.00     0.134 A 
ATOM     83  F   UNL A   1      42.655  26.470  35.651  1.00  0.00    -0.206 F 
ATOM     84  C   UNL A   1      44.941  26.451  36.186  1.00  0.00     0.040 A 
ATOM     85  C   UNL A   1      46.372  28.232  35.421  1.00  0.00     0.040 A 
ATOM     86  F   UNL A   1      45.477  29.997  34.159  1.00  0.00    -0.206 F 
ATOM     87  C   UNL A   1      46.205  27.035  36.116  1.00  0.00     0.006 A 
ENDBRANCH  63  80
ENDBRANCH  37  38
ENDBRANCH  29  32
ENDBRANCH  27  28
ENDBRANCH  26  27
ENDBRANCH  25  26
ENDBRANCH  24  25
ENDBRANCH   3  24
TORSDOF 17
ENDMDL
MODEL 3
REMARK VINA RESULT:     -10.9      4.769      7.032
REMARK SMILES CCCCOC(=O)c1ccc(N2C[C@H](C(=O)NCCCCNC(=O)c3ccc(-c4c5nc(c(-c6c(F)cccc6F)c6ccc([nH]6)c(-c6c(F)cccc6F)c6nc(c(-c7c(F)cccc7F)c7ccc4[nH]7)C=C6)C=C5)cc3)CC2=O)cc1
REMARK SMILES IDX 15 1 16 2 17 3 14 5 12 6 13 7 80 8 79 9 81 10 11 11 8 12
REMARK SMILES IDX 9 13 83 14 10 15 82 16 6 17 7 18 5 19 4 20 3 21 2 22 1 23
REMARK SMILES IDX 18 24 19 25 20 26 21 27 22 28 23 29 24 31 25 32 26 33 78 34
REMARK SMILES IDX 27 35 77 36 28 37 29 38 30 39 71 40 31 41 76 42 70 43 72 44
REMARK SMILES IDX 32 45 75 46 69 47 68 48 33 50 59 51 42 52 58 53 43 54 46 55
REMARK SMILES IDX 57 56 73 57 44 58 45 59 56 61 74 62 47 63 34 64 35 65 40 66
REMARK SMILES IDX 36 67 37 68 39 69 41 70 38 71 60 72 61 73 66 74 62 75 63 76
REMARK SMILES IDX 65 77 67 78 64 79 48 80 49 81 54 82 50 83 51 84 53 85 55 86
REMARK SMILES IDX 52 87
REMARK H PARENT 17 4 22 30 72 49 46 60
REMARK Flexibility Score: inf
ROOT
ATOM      1  C   UNL A   1      31.331  26.875  24.212  1.00  0.00     0.225 C 
ATOM      2  O   UNL A   1      30.884  25.766  24.499  1.00  0.00    -0.275 OA
ATOM      3  N   UNL A   1      30.661  27.972  24.664  1.00  0.00    -0.356 N 
ATOM      4  H   UNL A   1      29.811  27.781  25.124  1.00  0.00     0.163 HD
ENDROOT
BRANCH   1   5
ATOM      5  C   UNL A   1      32.575  27.060  23.365  1.00  0.00     0.107 C 
ATOM      6  N   UNL A   1      34.005  25.182  23.388  1.00  0.00    -0.312 N 
ATOM      7  C   UNL A   1      33.790  26.449  24.038  1.00  0.00     0.139 C 
ATOM      8  C   UNL A   1      33.280  25.080  22.201  1.00  0.00     0.227 C 
ATOM      9  C   UNL A   1      32.442  26.325  22.040  1.00  0.00     0.116 C 
ATOM     10  O   UNL A   1      33.279  24.175  21.379  1.00  0.00    -0.274 OA
BRANCH   6  11
ATOM     11  C   UNL A   1      34.922  24.223  23.883  1.00  0.00     0.044 A 
ATOM     12  C   UNL A   1      36.781  22.358  24.855  1.00  0.00     0.060 A 
ATOM     13  C   UNL A   1      36.552  22.449  23.483  1.00  0.00     0.018 A 
ATOM     14  C   UNL A   1      36.089  23.176  25.746  1.00  0.00     0.018 A 
ATOM     15  C   UNL A   1      35.614  23.371  23.005  1.00  0.00     0.027 A 
ATOM     16  C   UNL A   1      35.170  24.107  25.258  1.00  0.00     0.027 A 
BRANCH  12  17
ATOM     17  C   UNL A   1      37.808  21.456  25.386  1.00  0.00     0.338 C 
ATOM     18  O   UNL A   1      37.850  20.263  25.125  1.00  0.00    -0.246 OA
BRANCH  17  19
ATOM     19  O   UNL A   1      38.685  22.181  26.114  1.00  0.00    -0.462 OA
BRANCH  19  20
ATOM     20  C   UNL A   1      40.012  21.641  26.213  1.00  0.00     0.233 C 
BRANCH  20  21
ATOM     21  C   UNL A   1      40.561  21.851  27.621  1.00  0.00     0.041 C 
BRANCH  21  22
ATOM     22  C   UNL A   1      42.076  22.063  27.687  1.00  0.00     0.000 C 
ATOM     23  C   UNL A   1      42.499  23.066  28.749  1.00  0.00     0.004 C 
ENDBRANCH  21  22
ENDBRANCH  20  21
ENDBRANCH  19  20
ENDBRANCH  17  19
ENDBRANCH  12  17
ENDBRANCH   6  11
ENDBRANCH   1   5
BRANCH   3  24
ATOM     24  C   UNL A   1      31.009  29.377  24.571  1.00  0.00     0.116 C 
BRANCH  24  25
ATOM     25  C   UNL A   1      31.712  29.886  25.827  1.00  0.00     0.023 C 
BRANCH  25  26
ATOM     26  C   UNL A   1      31.468  31.356  26.176  1.00  0.00     0.023 C 
BRANCH  26  27
ATOM     27  C   UNL A   1      32.601  32.062  26.915  1.00  0.00     0.116 C 
BRANCH  27  28
ATOM     28  N   UNL A   1      32.288  33.440  27.251  1.00  0.00    -0.352 N 
ATOM     29  C   UNL A   1      32.908  34.287  28.140  1.00  0.00     0.251 C 
ATOM     30  H   UNL A   1      31.519  33.825  26.772  1.00  0.00     0.163 HD
ATOM     31  O   UNL A   1      32.417  35.387  28.377  1.00  0.00    -0.269 OA
BRANCH  29  32
ATOM     32  C   UNL A   1      34.144  33.867  28.839  1.00  0.00     0.039 A 
ATOM     33  C   UNL A   1      34.028  33.231  30.079  1.00  0.00     0.014 A 
ATOM     34  C   UNL A   1      35.407  34.104  28.290  1.00  0.00     0.014 A 
ATOM     35  C   UNL A   1      35.172  32.769  30.733  1.00  0.00     0.010 A 
ATOM     36  C   UNL A   1      36.543  33.591  28.914  1.00  0.00     0.010 A 
ATOM     37  C   UNL A   1      36.436  32.912  30.138  1.00  0.00    -0.014 A 
BRANCH  37  38
ATOM     38  C   UNL A   1      37.655  32.351  30.775  1.00  0.00     0.031 A 
ATOM     39  C   UNL A   1      38.329  31.142  30.189  1.00  0.00     0.074 A 
ATOM     40  C   UNL A   1      38.119  32.893  31.916  1.00  0.00     0.049 A 
ATOM     41  N   UNL A   1      39.347  30.460  30.650  1.00  0.00    -0.248 NA
ATOM     42  C   UNL A   1      37.771  30.617  28.934  1.00  0.00     0.031 C 
ATOM     43  C   UNL A   1      37.538  34.045  32.607  1.00  0.00     0.029 A 
ATOM     44  N   UNL A   1      39.185  32.536  32.706  1.00  0.00    -0.354 N 
ATOM     45  C   UNL A   1      39.541  29.419  29.751  1.00  0.00     0.074 A 
ATOM     46  C   UNL A   1      38.512  29.536  28.741  1.00  0.00     0.031 C 
ATOM     47  C   UNL A   1      38.263  34.312  33.706  1.00  0.00     0.029 A 
ATOM     48  C   UNL A   1      39.338  33.331  33.816  1.00  0.00     0.049 A 
ATOM     49  H   UNL A   1      39.782  31.782  32.496  1.00  0.00     0.167 HD
ATOM     50  C   UNL A   1      40.502  28.464  29.757  1.00  0.00     0.037 A 
ATOM     51  C   UNL A   1      40.240  33.272  34.813  1.00  0.00     0.037 A 
ATOM     52  C   UNL A   1      41.543  28.360  30.744  1.00  0.00     0.049 A 
ATOM     53  C   UNL A   1      41.294  32.201  34.797  1.00  0.00     0.074 A 
ATOM     54  C   UNL A   1      42.588  27.454  30.805  1.00  0.00     0.029 A 
ATOM     55  N   UNL A   1      41.674  29.195  31.842  1.00  0.00    -0.354 N 
ATOM     56  N   UNL A   1      41.491  31.251  33.917  1.00  0.00    -0.248 NA
ATOM     57  C   UNL A   1      42.249  32.194  35.913  1.00  0.00     0.031 C 
ATOM     58  C   UNL A   1      43.338  27.725  31.955  1.00  0.00     0.029 A 
ATOM     59  C   UNL A   1      42.776  28.820  32.593  1.00  0.00     0.049 A 
ATOM     60  H   UNL A   1      41.073  29.945  32.057  1.00  0.00     0.167 HD
ATOM     61  C   UNL A   1      42.606  30.551  34.357  1.00  0.00     0.074 A 
ATOM     62  C   UNL A   1      43.049  31.191  35.579  1.00  0.00     0.031 C 
ATOM     63  C   UNL A   1      43.210  29.473  33.800  1.00  0.00     0.037 A 
BRANCH  50  64
ATOM     64  C   UNL A   1      40.472  27.455  28.648  1.00  0.00     0.057 A 
ATOM     65  C   UNL A   1      41.258  27.604  27.499  1.00  0.00     0.134 A 
ATOM     66  C   UNL A   1      39.677  26.307  28.745  1.00  0.00     0.134 A 
ATOM     67  F   UNL A   1      42.032  28.689  27.340  1.00  0.00    -0.206 F 
ATOM     68  C   UNL A   1      41.237  26.657  26.472  1.00  0.00     0.040 A 
ATOM     69  C   UNL A   1      39.664  25.342  27.736  1.00  0.00     0.040 A 
ATOM     70  F   UNL A   1      38.905  26.101  29.823  1.00  0.00    -0.206 F 
ATOM     71  C   UNL A   1      40.442  25.519  26.593  1.00  0.00     0.006 A 
ENDBRANCH  50  64
BRANCH  51  72
ATOM     72  C   UNL A   1      40.206  34.274  35.906  1.00  0.00     0.057 A 
ATOM     73  C   UNL A   1      39.509  34.017  37.092  1.00  0.00     0.134 A 
ATOM     74  C   UNL A   1      40.854  35.508  35.790  1.00  0.00     0.134 A 
ATOM     75  F   UNL A   1      38.852  32.858  37.251  1.00  0.00    -0.206 F 
ATOM     76  C   UNL A   1      39.442  34.959  38.119  1.00  0.00     0.040 A 
ATOM     77  C   UNL A   1      40.813  36.453  36.817  1.00  0.00     0.040 A 
ATOM     78  F   UNL A   1      41.543  35.810  34.679  1.00  0.00    -0.206 F 
ATOM     79  C   UNL A   1      40.099  36.181  37.983  1.00  0.00     0.006 A 
ENDBRANCH  51  72
BRANCH  63  80
ATOM     80  C   UNL A   1      44.432  28.944  34.486  1.00  0.00     0.057 A 
ATOM     81  C   UNL A   1      44.355  27.929  35.448  1.00  0.00     0.134 A 
ATOM     82  C   UNL A   1      45.702  29.432  34.157  1.00  0.00     0.134 A 
ATOM     83  F   UNL A   1      43.164  27.431  35.815  1.00  0.00    -0.206 F 
ATOM     84  C   UNL A   1      45.499  27.430  36.071  1.00  0.00     0.040 A 
ATOM     85  C   UNL A   1      46.855  28.928  34.759  1.00  0.00     0.040 A 
ATOM     86  F   UNL A   1      45.842  30.402  33.239  1.00  0.00    -0.206 F 
ATOM     87  C   UNL A   1      46.754  27.927  35.723  1.00  0.00     0.006 A 
ENDBRANCH  63  80
ENDBRANCH  37  38
ENDBRANCH  29  32
ENDBRANCH  27  28
ENDBRANCH  26  27
ENDBRANCH  25  26
ENDBRANCH  24  25
ENDBRANCH   3  24
TORSDOF 17
ENDMDL
