MODEL 1
REMARK VINA RESULT:     -11.7      0.000      0.000
REMARK SMILES O=C(CCSC1=[NH+][C@@H]2C=Cc3nsnc3[C@@H]2N1)NCCCCNC(=O)c1ccc(-c2c3nc(c(-c4c(F)cccc4F)c4ccc([nH]4)c(-c4c(F)cccc4F)c4nc(c(-c5c(F)cccc5F)c5ccc2[nH]5)C=C4)C=C3)cc1
REMARK SMILES IDX 20 1 19 2 18 3 1 4 2 5 3 7 4 8 5 9 6 10 7 11 17 12 8 13
REMARK SMILES IDX 16 15 9 17 15 18 10 19 11 20 14 21 12 22 13 23 21 24 22 25
REMARK SMILES IDX 23 26 24 27 25 29 26 30 27 31 79 32 28 33 78 34 29 35 30 36
REMARK SMILES IDX 31 37 72 38 32 39 77 40 71 41 73 42 33 43 76 44 70 45 69 46
REMARK SMILES IDX 34 48 60 49 43 50 59 51 44 52 47 53 58 54 74 55 45 56 46 57
REMARK SMILES IDX 57 59 75 60 48 61 35 62 36 63 41 64 37 65 38 66 40 67 42 68
REMARK SMILES IDX 39 69 61 70 62 71 67 72 63 73 64 74 66 75 68 76 65 77 49 78
REMARK SMILES IDX 50 79 55 80 51 81 52 82 54 83 56 84 53 85
REMARK H PARENT 18 6 7 14 17 16 23 28 73 47 47 58
REMARK Flexibility Score: inf
ROOT
ATOM      1  C   UNL A   1      36.722  23.005  23.662  1.00  0.00     0.023 C 
ENDROOT
BRANCH   1   2
ATOM      2  C   UNL A   1      35.426  23.785  23.421  1.00  0.00     0.116 C 
BRANCH   2   3
ATOM      3  N   UNL A   1      34.222  23.033  23.684  1.00  0.00    -0.356 N 
ATOM      4  O   UNL A   1      33.380  23.327  21.567  1.00  0.00    -0.275 OA
ATOM      5  C   UNL A   1      33.289  22.845  22.692  1.00  0.00     0.220 C 
ATOM      6  H   UNL A   1      34.069  22.653  24.578  1.00  0.00     0.163 HD
BRANCH   5   7
ATOM      7  C   UNL A   1      32.173  21.914  23.067  1.00  0.00     0.111 C 
BRANCH   7   8
ATOM      8  C   UNL A   1      32.446  21.320  24.445  1.00  0.00     0.092 C 
BRANCH   8   9
ATOM      9  S   UNL A   1      31.392  21.931  25.768  1.00  0.00    -0.039 SA
BRANCH   9  10
ATOM     10  C   UNL A   1      31.306  23.671  25.744  1.00  0.00     0.305 C 
ATOM     11  N   UNL A   1      30.096  24.104  25.496  1.00  0.00    -0.258 N 
ATOM     12  N   UNL A   1      32.387  24.522  25.918  1.00  0.00    -0.256 N 
ATOM     13  C   UNL A   1      30.098  25.592  25.566  1.00  0.00     0.248 C 
ATOM     14  H   UNL A   1      29.314  23.539  25.297  1.00  0.00     0.306 HD
ATOM     15  C   UNL A   1      32.028  25.970  25.794  1.00  0.00     0.274 C 
ATOM     16  H   UNL A   1      33.300  24.205  26.105  1.00  0.00     0.306 HD
ATOM     17  C   UNL A   1      29.129  26.428  24.081  1.00  0.00     0.029 C 
ATOM     18  C   UNL A   1      32.728  27.174  24.418  1.00  0.00     0.131 A 
ATOM     19  C   UNL A   1      29.793  27.473  23.123  1.00  0.00     0.032 C 
ATOM     20  C   UNL A   1      31.537  27.997  23.231  1.00  0.00     0.105 A 
ATOM     21  N   UNL A   1      33.872  27.847  24.481  1.00  0.00    -0.173 NA
ATOM     22  N   UNL A   1      32.141  28.990  22.586  1.00  0.00    -0.173 NA
ATOM     23  S   UNL A   1      33.700  29.095  23.301  1.00  0.00     0.069 S 
ENDBRANCH   9  10
ENDBRANCH   8   9
ENDBRANCH   7   8
ENDBRANCH   5   7
ENDBRANCH   2   3
ENDBRANCH   1   2
BRANCH   1  24
ATOM     24  C   UNL A   1      36.710  21.722  24.549  1.00  0.00     0.023 C 
BRANCH  24  25
ATOM     25  C   UNL A   1      38.178  21.024  25.053  1.00  0.00     0.116 C 
BRANCH  25  26
ATOM     26  N   UNL A   1      39.391  21.249  26.707  1.00  0.00    -0.352 N 
ATOM     27  C   UNL A   1      40.420  21.932  27.487  1.00  0.00     0.251 C 
ATOM     28  H   UNL A   1      39.143  20.486  27.277  1.00  0.00     0.163 HD
ATOM     29  O   UNL A   1      40.907  21.196  28.361  1.00  0.00    -0.269 OA
BRANCH  27  30
ATOM     30  C   UNL A   1      40.966  23.331  27.503  1.00  0.00     0.039 A 
ATOM     31  C   UNL A   1      42.167  23.656  28.161  1.00  0.00     0.014 A 
ATOM     32  C   UNL A   1      40.115  24.391  27.175  1.00  0.00     0.014 A 
ATOM     33  C   UNL A   1      42.544  25.009  28.378  1.00  0.00     0.010 A 
ATOM     34  C   UNL A   1      40.491  25.729  27.383  1.00  0.00     0.010 A 
ATOM     35  C   UNL A   1      41.718  26.068  27.965  1.00  0.00    -0.014 A 
BRANCH  35  36
ATOM     36  C   UNL A   1      42.195  27.494  28.002  1.00  0.00     0.031 A 
ATOM     37  C   UNL A   1      41.067  28.476  27.760  1.00  0.00     0.074 A 
ATOM     38  C   UNL A   1      43.207  27.957  28.784  1.00  0.00     0.049 A 
ATOM     39  N   UNL A   1      40.169  28.748  28.667  1.00  0.00    -0.248 NA
ATOM     40  C   UNL A   1      40.711  28.978  26.433  1.00  0.00     0.031 C 
ATOM     41  C   UNL A   1      43.604  27.344  30.057  1.00  0.00     0.029 A 
ATOM     42  N   UNL A   1      43.938  29.138  28.752  1.00  0.00    -0.354 N 
ATOM     43  C   UNL A   1      39.109  29.386  28.043  1.00  0.00     0.074 A 
ATOM     44  C   UNL A   1      39.501  29.522  26.657  1.00  0.00     0.031 C 
ATOM     45  C   UNL A   1      44.364  28.218  30.749  1.00  0.00     0.029 A 
ATOM     46  C   UNL A   1      44.637  29.408  29.937  1.00  0.00     0.049 A 
ATOM     47  H   UNL A   1      43.962  29.734  27.969  1.00  0.00     0.167 HD
ATOM     48  C   UNL A   1      37.981  29.752  28.715  1.00  0.00     0.037 A 
ATOM     49  C   UNL A   1      44.834  30.647  30.485  1.00  0.00     0.037 A 
ATOM     50  C   UNL A   1      37.978  29.448  30.117  1.00  0.00     0.049 A 
ATOM     51  C   UNL A   1      43.450  30.987  30.968  1.00  0.00     0.074 A 
ATOM     52  C   UNL A   1      37.447  28.511  30.975  1.00  0.00     0.029 A 
ATOM     53  N   UNL A   1      38.665  30.303  30.942  1.00  0.00    -0.354 N 
ATOM     54  N   UNL A   1      42.863  30.519  32.037  1.00  0.00    -0.248 NA
ATOM     55  C   UNL A   1      42.555  31.601  29.990  1.00  0.00     0.031 C 
ATOM     56  C   UNL A   1      38.258  28.579  32.155  1.00  0.00     0.029 A 
ATOM     57  C   UNL A   1      39.239  29.540  31.921  1.00  0.00     0.049 A 
ATOM     58  H   UNL A   1      38.733  31.281  30.848  1.00  0.00     0.167 HD
ATOM     59  C   UNL A   1      41.500  30.523  31.734  1.00  0.00     0.074 A 
ATOM     60  C   UNL A   1      41.382  31.215  30.465  1.00  0.00     0.031 C 
ATOM     61  C   UNL A   1      40.566  29.805  32.425  1.00  0.00     0.037 A 
BRANCH  48  62
ATOM     62  C   UNL A   1      36.870  30.587  28.204  1.00  0.00     0.057 A 
ATOM     63  C   UNL A   1      36.947  31.970  28.438  1.00  0.00     0.134 A 
ATOM     64  C   UNL A   1      35.638  30.067  27.806  1.00  0.00     0.134 A 
ATOM     65  F   UNL A   1      38.106  32.521  28.838  1.00  0.00    -0.206 F 
ATOM     66  C   UNL A   1      35.830  32.797  28.351  1.00  0.00     0.040 A 
ATOM     67  C   UNL A   1      34.512  30.893  27.693  1.00  0.00     0.040 A 
ATOM     68  F   UNL A   1      35.487  28.753  27.588  1.00  0.00    -0.206 F 
ATOM     69  C   UNL A   1      34.601  32.254  27.991  1.00  0.00     0.006 A 
ENDBRANCH  48  62
BRANCH  49  70
ATOM     70  C   UNL A   1      45.693  31.649  29.770  1.00  0.00     0.057 A 
ATOM     71  C   UNL A   1      46.723  32.286  30.483  1.00  0.00     0.134 A 
ATOM     72  C   UNL A   1      45.542  32.067  28.437  1.00  0.00     0.134 A 
ATOM     73  F   UNL A   1      46.860  32.079  31.802  1.00  0.00    -0.206 F 
ATOM     74  C   UNL A   1      47.631  33.162  29.877  1.00  0.00     0.040 A 
ATOM     75  C   UNL A   1      46.463  32.916  27.806  1.00  0.00     0.040 A 
ATOM     76  F   UNL A   1      44.499  31.676  27.692  1.00  0.00    -0.206 F 
ATOM     77  C   UNL A   1      47.528  33.447  28.521  1.00  0.00     0.006 A 
ENDBRANCH  49  70
BRANCH  61  78
ATOM     78  C   UNL A   1      41.055  29.081  33.632  1.00  0.00     0.057 A 
ATOM     79  C   UNL A   1      41.610  27.802  33.523  1.00  0.00     0.134 A 
ATOM     80  C   UNL A   1      41.026  29.667  34.905  1.00  0.00     0.134 A 
ATOM     81  F   UNL A   1      41.680  27.188  32.331  1.00  0.00    -0.206 F 
ATOM     82  C   UNL A   1      42.134  27.140  34.634  1.00  0.00     0.040 A 
ATOM     83  C   UNL A   1      41.573  29.027  36.018  1.00  0.00     0.040 A 
ATOM     84  F   UNL A   1      40.488  30.883  35.094  1.00  0.00    -0.206 F 
ATOM     85  C   UNL A   1      42.131  27.759  35.883  1.00  0.00     0.006 A 
ENDBRANCH  61  78
ENDBRANCH  35  36
ENDBRANCH  27  30
ENDBRANCH  25  26
ENDBRANCH  24  25
ENDBRANCH   1  24
TORSDOF 14
ENDMDL
MODEL 2
REMARK VINA RESULT:     -11.6      5.550      9.749
REMARK SMILES O=C(CCSC1=[NH+][C@@H]2C=Cc3nsnc3[C@@H]2N1)NCCCCNC(=O)c1ccc(-c2c3nc(c(-c4c(F)cccc4F)c4ccc([nH]4)c(-c4c(F)cccc4F)c4nc(c(-c5c(F)cccc5F)c5ccc2[nH]5)C=C4)C=C3)cc1
REMARK SMILES IDX 20 1 19 2 18 3 1 4 2 5 3 7 4 8 5 9 6 10 7 11 17 12 8 13
REMARK SMILES IDX 16 15 9 17 15 18 10 19 11 20 14 21 12 22 13 23 21 24 22 25
REMARK SMILES IDX 23 26 24 27 25 29 26 30 27 31 79 32 28 33 78 34 29 35 30 36
REMARK SMILES IDX 31 37 72 38 32 39 77 40 71 41 73 42 33 43 76 44 70 45 69 46
REMARK SMILES IDX 34 48 60 49 43 50 59 51 44 52 47 53 58 54 74 55 45 56 46 57
REMARK SMILES IDX 57 59 75 60 48 61 35 62 36 63 41 64 37 65 38 66 40 67 42 68
REMARK SMILES IDX 39 69 61 70 62 71 67 72 63 73 64 74 66 75 68 76 65 77 49 78
REMARK SMILES IDX 50 79 55 80 51 81 52 82 54 83 56 84 53 85
REMARK H PARENT 18 6 7 14 17 16 23 28 73 47 47 58
REMARK Flexibility Score: inf
ROOT
ATOM      1  C   UNL A   1      33.695  34.311  28.000  1.00  0.00     0.023 C 
ENDROOT
BRANCH   1   2
ATOM      2  C   UNL A   1      33.255  35.569  28.758  1.00  0.00     0.116 C 
BRANCH   2   3
ATOM      3  N   UNL A   1      33.079  35.375  30.177  1.00  0.00    -0.356 N 
ATOM      4  O   UNL A   1      32.922  37.621  30.631  1.00  0.00    -0.275 OA
ATOM      5  C   UNL A   1      32.897  36.455  31.009  1.00  0.00     0.220 C 
ATOM      6  H   UNL A   1      33.089  34.466  30.552  1.00  0.00     0.163 HD
BRANCH   5   7
ATOM      7  C   UNL A   1      32.571  36.089  32.428  1.00  0.00     0.111 C 
BRANCH   7   8
ATOM      8  C   UNL A   1      33.863  35.892  33.214  1.00  0.00     0.092 C 
BRANCH   8   9
ATOM      9  S   UNL A   1      34.466  34.199  33.290  1.00  0.00    -0.039 SA
BRANCH   9  10
ATOM     10  C   UNL A   1      36.186  34.138  33.015  1.00  0.00     0.305 C 
ATOM     11  N   UNL A   1      36.498  34.410  31.774  1.00  0.00    -0.258 N 
ATOM     12  N   UNL A   1      37.131  33.798  33.971  1.00  0.00    -0.256 N 
ATOM     13  C   UNL A   1      37.983  34.407  31.645  1.00  0.00     0.248 C 
ATOM     14  H   UNL A   1      35.859  34.587  31.046  1.00  0.00     0.306 HD
ATOM     15  C   UNL A   1      38.530  33.776  33.439  1.00  0.00     0.274 C 
ATOM     16  H   UNL A   1      36.904  33.593  34.907  1.00  0.00     0.306 HD
ATOM     17  C   UNL A   1      38.610  33.440  30.059  1.00  0.00     0.029 C 
ATOM     18  C   UNL A   1      39.664  32.181  33.364  1.00  0.00     0.131 A 
ATOM     19  C   UNL A   1      39.619  32.246  30.143  1.00  0.00     0.032 C 
ATOM     20  C   UNL A   1      40.287  31.579  31.704  1.00  0.00     0.105 A 
ATOM     21  N   UNL A   1      40.428  31.723  34.350  1.00  0.00    -0.173 NA
ATOM     22  N   UNL A   1      41.265  30.696  31.872  1.00  0.00    -0.173 NA
ATOM     23  S   UNL A   1      41.553  30.674  33.565  1.00  0.00     0.069 S 
ENDBRANCH   9  10
ENDBRANCH   8   9
ENDBRANCH   7   8
ENDBRANCH   5   7
ENDBRANCH   2   3
ENDBRANCH   1   2
BRANCH   1  24
ATOM     24  C   UNL A   1      34.926  33.490  28.493  1.00  0.00     0.023 C 
BRANCH  24  25
ATOM     25  C   UNL A   1      34.704  31.931  29.138  1.00  0.00     0.116 C 
BRANCH  25  26
ATOM     26  N   UNL A   1      35.784  30.734  30.425  1.00  0.00    -0.352 N 
ATOM     27  C   UNL A   1      36.735  29.666  30.726  1.00  0.00     0.251 C 
ATOM     28  H   UNL A   1      35.513  31.054  31.315  1.00  0.00     0.163 HD
ATOM     29  O   UNL A   1      36.622  29.258  31.894  1.00  0.00    -0.269 OA
BRANCH  27  30
ATOM     30  C   UNL A   1      37.847  29.008  29.960  1.00  0.00     0.039 A 
ATOM     31  C   UNL A   1      38.843  28.246  30.599  1.00  0.00     0.014 A 
ATOM     32  C   UNL A   1      38.113  29.435  28.656  1.00  0.00     0.014 A 
ATOM     33  C   UNL A   1      40.015  27.837  29.906  1.00  0.00     0.010 A 
ATOM     34  C   UNL A   1      39.268  29.026  27.968  1.00  0.00     0.010 A 
ATOM     35  C   UNL A   1      40.229  28.201  28.565  1.00  0.00    -0.014 A 
BRANCH  35  36
ATOM     36  C   UNL A   1      41.354  27.610  27.763  1.00  0.00     0.031 A 
ATOM     37  C   UNL A   1      42.379  28.652  27.367  1.00  0.00     0.074 A 
ATOM     38  C   UNL A   1      41.842  26.349  27.917  1.00  0.00     0.049 A 
ATOM     39  N   UNL A   1      43.238  29.147  28.215  1.00  0.00    -0.248 NA
ATOM     40  C   UNL A   1      42.318  29.400  26.111  1.00  0.00     0.031 C 
ATOM     41  C   UNL A   1      41.773  25.593  29.173  1.00  0.00     0.029 A 
ATOM     42  N   UNL A   1      42.662  25.567  27.112  1.00  0.00    -0.354 N 
ATOM     43  C   UNL A   1      43.781  30.293  27.656  1.00  0.00     0.074 A 
ATOM     44  C   UNL A   1      43.191  30.398  26.340  1.00  0.00     0.031 C 
ATOM     45  C   UNL A   1      42.639  24.559  29.113  1.00  0.00     0.029 A 
ATOM     46  C   UNL A   1      43.240  24.476  27.778  1.00  0.00     0.049 A 
ATOM     47  H   UNL A   1      42.826  25.761  26.161  1.00  0.00     0.167 HD
ATOM     48  C   UNL A   1      44.677  31.075  28.322  1.00  0.00     0.037 A 
ATOM     49  C   UNL A   1      44.499  23.983  27.563  1.00  0.00     0.037 A 
ATOM     50  C   UNL A   1      45.032  30.617  29.635  1.00  0.00     0.049 A 
ATOM     51  C   UNL A   1      45.353  25.073  28.154  1.00  0.00     0.074 A 
ATOM     52  C   UNL A   1      44.735  30.901  30.950  1.00  0.00     0.029 A 
ATOM     53  N   UNL A   1      45.959  29.607  29.714  1.00  0.00    -0.354 N 
ATOM     54  N   UNL A   1      45.568  25.291  29.423  1.00  0.00    -0.248 NA
ATOM     55  C   UNL A   1      45.678  26.191  27.270  1.00  0.00     0.031 C 
ATOM     56  C   UNL A   1      45.108  29.727  31.682  1.00  0.00     0.029 A 
ATOM     57  C   UNL A   1      45.586  28.803  30.755  1.00  0.00     0.049 A 
ATOM     58  H   UNL A   1      46.743  29.485  29.132  1.00  0.00     0.167 HD
ATOM     59  C   UNL A   1      45.782  26.668  29.524  1.00  0.00     0.074 A 
ATOM     60  C   UNL A   1      45.850  27.155  28.160  1.00  0.00     0.031 C 
ATOM     61  C   UNL A   1      45.701  27.365  30.695  1.00  0.00     0.037 A 
BRANCH  48  62
ATOM     62  C   UNL A   1      45.452  32.210  27.772  1.00  0.00     0.057 A 
ATOM     63  C   UNL A   1      46.665  31.908  27.132  1.00  0.00     0.134 A 
ATOM     64  C   UNL A   1      45.222  33.541  28.124  1.00  0.00     0.134 A 
ATOM     65  F   UNL A   1      46.945  30.640  26.786  1.00  0.00    -0.206 F 
ATOM     66  C   UNL A   1      47.645  32.873  26.913  1.00  0.00     0.040 A 
ATOM     67  C   UNL A   1      46.191  34.525  27.888  1.00  0.00     0.040 A 
ATOM     68  F   UNL A   1      44.096  33.896  28.758  1.00  0.00    -0.206 F 
ATOM     69  C   UNL A   1      47.414  34.187  27.305  1.00  0.00     0.006 A 
ENDBRANCH  48  62
BRANCH  49  70
ATOM     70  C   UNL A   1      44.832  23.337  26.250  1.00  0.00     0.057 A 
ATOM     71  C   UNL A   1      43.818  22.656  25.557  1.00  0.00     0.134 A 
ATOM     72  C   UNL A   1      46.100  23.297  25.646  1.00  0.00     0.134 A 
ATOM     73  F   UNL A   1      42.607  22.497  26.114  1.00  0.00    -0.206 F 
ATOM     74  C   UNL A   1      44.012  22.104  24.285  1.00  0.00     0.040 A 
ATOM     75  C   UNL A   1      46.304  22.780  24.358  1.00  0.00     0.040 A 
ATOM     76  F   UNL A   1      47.193  23.751  26.274  1.00  0.00    -0.206 F 
ATOM     77  C   UNL A   1      45.250  22.204  23.662  1.00  0.00     0.006 A 
ENDBRANCH  49  70
BRANCH  61  78
ATOM     78  C   UNL A   1      45.484  26.556  31.928  1.00  0.00     0.057 A 
ATOM     79  C   UNL A   1      44.198  26.366  32.442  1.00  0.00     0.134 A 
ATOM     80  C   UNL A   1      46.545  25.917  32.586  1.00  0.00     0.134 A 
ATOM     81  F   UNL A   1      43.136  26.939  31.852  1.00  0.00    -0.206 F 
ATOM     82  C   UNL A   1      43.972  25.554  33.555  1.00  0.00     0.040 A 
ATOM     83  C   UNL A   1      46.327  25.081  33.683  1.00  0.00     0.040 A 
ATOM     84  F   UNL A   1      47.811  26.070  32.167  1.00  0.00    -0.206 F 
ATOM     85  C   UNL A   1      45.036  24.897  34.168  1.00  0.00     0.006 A 
ENDBRANCH  61  78
ENDBRANCH  35  36
ENDBRANCH  27  30
ENDBRANCH  25  26
ENDBRANCH  24  25
ENDBRANCH   1  24
TORSDOF 14
ENDMDL
MODEL 3
REMARK VINA RESULT:     -11.5      8.674     13.517
REMARK SMILES O=C(CCSC1=[NH+][C@@H]2C=Cc3nsnc3[C@@H]2N1)NCCCCNC(=O)c1ccc(-c2c3nc(c(-c4c(F)cccc4F)c4ccc([nH]4)c(-c4c(F)cccc4F)c4nc(c(-c5c(F)cccc5F)c5ccc2[nH]5)C=C4)C=C3)cc1
REMARK SMILES IDX 20 1 19 2 18 3 1 4 2 5 3 7 4 8 5 9 6 10 7 11 17 12 8 13
REMARK SMILES IDX 16 15 9 17 15 18 10 19 11 20 14 21 12 22 13 23 21 24 22 25
REMARK SMILES IDX 23 26 24 27 25 29 26 30 27 31 79 32 28 33 78 34 29 35 30 36
REMARK SMILES IDX 31 37 72 38 32 39 77 40 71 41 73 42 33 43 76 44 70 45 69 46
REMARK SMILES IDX 34 48 60 49 43 50 59 51 44 52 47 53 58 54 74 55 45 56 46 57
REMARK SMILES IDX 57 59 75 60 48 61 35 62 36 63 41 64 37 65 38 66 40 67 42 68
REMARK SMILES IDX 39 69 61 70 62 71 67 72 63 73 64 74 66 75 68 76 65 77 49 78
REMARK SMILES IDX 50 79 55 80 51 81 52 82 54 83 56 84 53 85
REMARK H PARENT 18 6 7 14 17 16 23 28 73 47 47 58
REMARK Flexibility Score: inf
ROOT
ATOM      1  C   UNL A   1      46.359  40.740  25.040  1.00  0.00     0.023 C 
ENDROOT
BRANCH   1   2
ATOM      2  C   UNL A   1      45.423  41.781  25.662  1.00  0.00     0.116 C 
BRANCH   2   3
ATOM      3  N   UNL A   1      44.273  42.106  24.851  1.00  0.00    -0.356 N 
ATOM      4  O   UNL A   1      42.892  40.614  25.920  1.00  0.00    -0.275 OA
ATOM      5  C   UNL A   1      43.066  41.490  25.079  1.00  0.00     0.220 C 
ATOM      6  H   UNL A   1      44.355  42.771  24.132  1.00  0.00     0.163 HD
BRANCH   5   7
ATOM      7  C   UNL A   1      41.931  42.042  24.265  1.00  0.00     0.111 C 
BRANCH   7   8
ATOM      8  C   UNL A   1      42.486  42.883  23.121  1.00  0.00     0.092 C 
BRANCH   8   9
ATOM      9  S   UNL A   1      42.361  42.137  21.489  1.00  0.00    -0.039 SA
BRANCH   9  10
ATOM     10  C   UNL A   1      43.054  43.177  20.274  1.00  0.00     0.305 C 
ATOM     11  N   UNL A   1      44.190  43.700  20.660  1.00  0.00    -0.258 N 
ATOM     12  N   UNL A   1      42.469  43.470  19.051  1.00  0.00    -0.256 N 
ATOM     13  C   UNL A   1      44.745  44.512  19.541  1.00  0.00     0.248 C 
ATOM     14  H   UNL A   1      44.608  43.578  21.543  1.00  0.00     0.306 HD
ATOM     15  C   UNL A   1      43.264  44.436  18.230  1.00  0.00     0.274 C 
ATOM     16  H   UNL A   1      41.615  43.080  18.753  1.00  0.00     0.306 HD
ATOM     17  C   UNL A   1      45.417  46.259  20.124  1.00  0.00     0.029 C 
ATOM     18  C   UNL A   1      42.641  46.213  17.692  1.00  0.00     0.131 A 
ATOM     19  C   UNL A   1      44.903  47.606  19.515  1.00  0.00     0.032 C 
ATOM     20  C   UNL A   1      43.599  47.723  18.245  1.00  0.00     0.105 A 
ATOM     21  N   UNL A   1      41.901  46.487  16.624  1.00  0.00    -0.173 NA
ATOM     22  N   UNL A   1      43.219  48.790  17.549  1.00  0.00    -0.173 NA
ATOM     23  S   UNL A   1      42.121  48.181  16.376  1.00  0.00     0.069 S 
ENDBRANCH   9  10
ENDBRANCH   8   9
ENDBRANCH   7   8
ENDBRANCH   5   7
ENDBRANCH   2   3
ENDBRANCH   1   2
BRANCH   1  24
ATOM     24  C   UNL A   1      46.995  39.627  25.929  1.00  0.00     0.023 C 
BRANCH  24  25
ATOM     25  C   UNL A   1      46.083  38.255  26.354  1.00  0.00     0.116 C 
BRANCH  25  26
ATOM     26  N   UNL A   1      44.069  37.879  26.598  1.00  0.00    -0.352 N 
ATOM     27  C   UNL A   1      42.938  37.129  27.139  1.00  0.00     0.251 C 
ATOM     28  H   UNL A   1      43.639  38.582  26.060  1.00  0.00     0.163 HD
ATOM     29  O   UNL A   1      41.893  37.338  26.501  1.00  0.00    -0.269 OA
BRANCH  27  30
ATOM     30  C   UNL A   1      42.752  36.222  28.322  1.00  0.00     0.039 A 
ATOM     31  C   UNL A   1      43.844  35.632  28.987  1.00  0.00     0.014 A 
ATOM     32  C   UNL A   1      41.491  35.668  28.557  1.00  0.00     0.014 A 
ATOM     33  C   UNL A   1      43.651  34.594  29.939  1.00  0.00     0.010 A 
ATOM     34  C   UNL A   1      41.299  34.646  29.502  1.00  0.00     0.010 A 
ATOM     35  C   UNL A   1      42.366  34.105  30.230  1.00  0.00    -0.014 A 
BRANCH  35  36
ATOM     36  C   UNL A   1      42.128  33.159  31.374  1.00  0.00     0.031 A 
ATOM     37  C   UNL A   1      40.694  33.203  31.859  1.00  0.00     0.074 A 
ATOM     38  C   UNL A   1      42.759  31.965  31.541  1.00  0.00     0.049 A 
ATOM     39  N   UNL A   1      39.713  32.654  31.194  1.00  0.00    -0.248 NA
ATOM     40  C   UNL A   1      40.235  34.088  32.929  1.00  0.00     0.031 C 
ATOM     41  C   UNL A   1      43.308  31.168  30.438  1.00  0.00     0.029 A 
ATOM     42  N   UNL A   1      42.864  31.117  32.637  1.00  0.00    -0.354 N 
ATOM     43  C   UNL A   1      38.523  33.156  31.696  1.00  0.00     0.074 A 
ATOM     44  C   UNL A   1      38.899  34.030  32.785  1.00  0.00     0.031 C 
ATOM     45  C   UNL A   1      43.532  29.910  30.872  1.00  0.00     0.029 A 
ATOM     46  C   UNL A   1      43.279  29.817  32.314  1.00  0.00     0.049 A 
ATOM     47  H   UNL A   1      42.662  31.401  33.558  1.00  0.00     0.167 HD
ATOM     48  C   UNL A   1      37.311  32.817  31.171  1.00  0.00     0.037 A 
ATOM     49  C   UNL A   1      42.846  28.666  32.916  1.00  0.00     0.037 A 
ATOM     50  C   UNL A   1      37.355  31.888  30.078  1.00  0.00     0.049 A 
ATOM     51  C   UNL A   1      41.432  28.574  32.408  1.00  0.00     0.074 A 
ATOM     52  C   UNL A   1      37.261  31.897  28.704  1.00  0.00     0.029 A 
ATOM     53  N   UNL A   1      37.514  30.562  30.392  1.00  0.00    -0.354 N 
ATOM     54  N   UNL A   1      41.057  28.188  31.218  1.00  0.00    -0.248 NA
ATOM     55  C   UNL A   1      40.422  29.309  33.166  1.00  0.00     0.031 C 
ATOM     56  C   UNL A   1      37.868  30.671  28.277  1.00  0.00     0.029 A 
ATOM     57  C   UNL A   1      38.309  30.013  29.424  1.00  0.00     0.049 A 
ATOM     58  H   UNL A   1      37.130  30.093  31.168  1.00  0.00     0.167 HD
ATOM     59  C   UNL A   1      39.869  28.878  30.969  1.00  0.00     0.074 A 
ATOM     60  C   UNL A   1      39.530  29.537  32.216  1.00  0.00     0.031 C 
ATOM     61  C   UNL A   1      39.328  29.036  29.726  1.00  0.00     0.037 A 
BRANCH  48  62
ATOM     62  C   UNL A   1      35.978  33.143  31.725  1.00  0.00     0.057 A 
ATOM     63  C   UNL A   1      35.213  34.098  31.036  1.00  0.00     0.134 A 
ATOM     64  C   UNL A   1      35.582  32.814  33.022  1.00  0.00     0.134 A 
ATOM     65  F   UNL A   1      35.558  34.464  29.789  1.00  0.00    -0.206 F 
ATOM     66  C   UNL A   1      34.140  34.756  31.632  1.00  0.00     0.040 A 
ATOM     67  C   UNL A   1      34.491  33.453  33.626  1.00  0.00     0.040 A 
ATOM     68  F   UNL A   1      36.281  31.928  33.746  1.00  0.00    -0.206 F 
ATOM     69  C   UNL A   1      33.785  34.443  32.940  1.00  0.00     0.006 A 
ENDBRANCH  48  62
BRANCH  49  70
ATOM     70  C   UNL A   1      43.192  28.402  34.352  1.00  0.00     0.057 A 
ATOM     71  C   UNL A   1      43.582  27.104  34.725  1.00  0.00     0.134 A 
ATOM     72  C   UNL A   1      43.118  29.329  35.406  1.00  0.00     0.134 A 
ATOM     73  F   UNL A   1      43.538  26.103  33.832  1.00  0.00    -0.206 F 
ATOM     74  C   UNL A   1      44.011  26.787  36.018  1.00  0.00     0.040 A 
ATOM     75  C   UNL A   1      43.578  29.038  36.698  1.00  0.00     0.040 A 
ATOM     76  F   UNL A   1      42.597  30.551  35.230  1.00  0.00    -0.206 F 
ATOM     77  C   UNL A   1      44.051  27.768  37.002  1.00  0.00     0.006 A 
ENDBRANCH  49  70
BRANCH  61  78
ATOM     78  C   UNL A   1      40.014  28.318  28.615  1.00  0.00     0.057 A 
ATOM     79  C   UNL A   1      39.684  26.995  28.306  1.00  0.00     0.134 A 
ATOM     80  C   UNL A   1      40.971  28.951  27.809  1.00  0.00     0.134 A 
ATOM     81  F   UNL A   1      38.765  26.334  29.030  1.00  0.00    -0.206 F 
ATOM     82  C   UNL A   1      40.268  26.334  27.225  1.00  0.00     0.040 A 
ATOM     83  C   UNL A   1      41.541  28.309  26.709  1.00  0.00     0.040 A 
ATOM     84  F   UNL A   1      41.357  30.213  28.057  1.00  0.00    -0.206 F 
ATOM     85  C   UNL A   1      41.188  26.996  26.414  1.00  0.00     0.006 A 
ENDBRANCH  61  78
ENDBRANCH  35  36
ENDBRANCH  27  30
ENDBRANCH  25  26
ENDBRANCH  24  25
ENDBRANCH   1  24
TORSDOF 14
ENDMDL
