MODEL 1
REMARK VINA RESULT:     -11.6      0.000      0.000
REMARK SMILES Cc1cc(C(=O)Nc2c(Cl)cc(Cl)cc2C(=O)NCCCCNC(=O)c2ccc(-c3c4nc(c(-c5c(F)cccc5F)c5ccc([nH]5)c(-c5c(F)cccc5F)c5nc(c(-c6c(F)cccc6F)c6ccc3[nH]6)C=C5)C=C4)cc2)c(C)s1
REMARK SMILES IDX 20 1 19 2 18 3 16 4 17 5 15 7 8 8 9 9 10 10 11 11 14 12
REMARK SMILES IDX 12 13 13 14 7 15 5 16 6 17 4 19 1 20 2 21 3 22 82 23 80 24
REMARK SMILES IDX 81 25 21 26 22 27 23 28 24 29 25 31 26 32 27 33 79 34 28 35
REMARK SMILES IDX 78 36 29 37 30 38 31 39 72 40 32 41 77 42 71 43 73 44 33 45
REMARK SMILES IDX 76 46 70 47 69 48 34 50 60 51 43 52 59 53 44 54 47 55 58 56
REMARK SMILES IDX 74 57 45 58 46 59 57 61 75 62 48 63 35 64 36 65 41 66 37 67
REMARK SMILES IDX 38 68 40 69 42 70 39 71 61 72 62 73 67 74 63 75 64 76 66 77
REMARK SMILES IDX 68 78 65 79 49 80 50 81 55 82 51 83 52 84 54 85 56 86 53 87
REMARK H PARENT 18 6 7 18 23 30 73 49 47 60
REMARK Flexibility Score: inf
ROOT
ATOM      1  C   UNL A   1      38.799  22.754  26.504  1.00  0.00     0.023 C 
ENDROOT
BRANCH   1   2
ATOM      2  C   UNL A   1      37.780  23.728  25.935  1.00  0.00     0.116 C 
BRANCH   2   3
ATOM      3  N   UNL A   1      37.405  23.574  24.554  1.00  0.00    -0.352 N 
ATOM      4  C   UNL A   1      36.227  23.143  23.988  1.00  0.00     0.253 C 
ATOM      5  O   UNL A   1      36.162  23.181  22.757  1.00  0.00    -0.269 OA
ATOM      6  H   UNL A   1      38.106  23.818  23.907  1.00  0.00     0.163 HD
BRANCH   4   7
ATOM      7  C   UNL A   1      35.044  22.575  24.717  1.00  0.00     0.066 A 
ATOM      8  C   UNL A   1      34.109  23.230  25.549  1.00  0.00     0.073 A 
ATOM      9  C   UNL A   1      32.956  22.529  25.988  1.00  0.00     0.066 A 
ATOM     10  Cl  UNL A   1      31.675  23.316  26.855  1.00  0.00    -0.082 Cl
ATOM     11  C   UNL A   1      32.795  21.169  25.732  1.00  0.00     0.043 A 
ATOM     12  C   UNL A   1      34.850  21.196  24.469  1.00  0.00     0.036 A 
ATOM     13  C   UNL A   1      33.759  20.503  24.995  1.00  0.00     0.043 A 
ATOM     14  Cl  UNL A   1      33.600  18.814  24.718  1.00  0.00    -0.084 Cl
BRANCH   8  15
ATOM     15  N   UNL A   1      34.277  24.565  25.943  1.00  0.00    -0.320 N 
ATOM     16  C   UNL A   1      33.869  25.732  25.297  1.00  0.00     0.256 C 
ATOM     17  O   UNL A   1      34.166  26.781  25.873  1.00  0.00    -0.269 OA
ATOM     18  H   UNL A   1      34.750  24.697  26.795  1.00  0.00     0.170 HD
BRANCH  16  19
ATOM     19  C   UNL A   1      33.013  25.726  24.082  1.00  0.00     0.054 A 
ATOM     20  C   UNL A   1      32.611  25.576  20.319  1.00  0.00     0.056 C 
ATOM     21  C   UNL A   1      32.435  25.654  21.795  1.00  0.00     0.003 A 
ATOM     22  C   UNL A   1      33.290  25.198  22.771  1.00  0.00     0.029 A 
ATOM     23  S   UNL A   1      31.060  26.360  22.488  1.00  0.00    -0.145 S 
ATOM     24  C   UNL A   1      31.687  26.169  24.080  1.00  0.00     0.014 A 
ATOM     25  C   UNL A   1      30.778  26.526  25.216  1.00  0.00     0.057 C 
ENDBRANCH  16  19
ENDBRANCH   8  15
ENDBRANCH   4   7
ENDBRANCH   2   3
ENDBRANCH   1   2
BRANCH   1  26
ATOM     26  C   UNL A   1      39.261  21.618  25.595  1.00  0.00     0.023 C 
BRANCH  26  27
ATOM     27  C   UNL A   1      39.186  20.197  26.147  1.00  0.00     0.116 C 
BRANCH  27  28
ATOM     28  N   UNL A   1      40.332  19.355  25.835  1.00  0.00    -0.352 N 
ATOM     29  C   UNL A   1      41.683  19.572  25.993  1.00  0.00     0.251 C 
ATOM     30  H   UNL A   1      40.101  18.482  25.443  1.00  0.00     0.163 HD
ATOM     31  O   UNL A   1      42.482  18.721  25.609  1.00  0.00    -0.269 OA
BRANCH  29  32
ATOM     32  C   UNL A   1      42.200  20.837  26.566  1.00  0.00     0.039 A 
ATOM     33  C   UNL A   1      42.733  21.792  25.693  1.00  0.00     0.014 A 
ATOM     34  C   UNL A   1      42.173  21.102  27.936  1.00  0.00     0.014 A 
ATOM     35  C   UNL A   1      43.127  23.043  26.179  1.00  0.00     0.010 A 
ATOM     36  C   UNL A   1      42.472  22.381  28.406  1.00  0.00     0.010 A 
ATOM     37  C   UNL A   1      42.940  23.372  27.531  1.00  0.00    -0.014 A 
BRANCH  37  38
ATOM     38  C   UNL A   1      43.200  24.754  28.024  1.00  0.00     0.031 A 
ATOM     39  C   UNL A   1      44.599  25.211  28.339  1.00  0.00     0.074 A 
ATOM     40  C   UNL A   1      42.162  25.588  28.235  1.00  0.00     0.049 A 
ATOM     41  N   UNL A   1      45.005  26.367  28.805  1.00  0.00    -0.248 NA
ATOM     42  C   UNL A   1      45.682  24.238  28.132  1.00  0.00     0.031 C 
ATOM     43  C   UNL A   1      40.749  25.251  28.038  1.00  0.00     0.029 A 
ATOM     44  N   UNL A   1      42.129  26.892  28.667  1.00  0.00    -0.354 N 
ATOM     45  C   UNL A   1      46.383  26.258  28.941  1.00  0.00     0.074 A 
ATOM     46  C   UNL A   1      46.737  24.904  28.577  1.00  0.00     0.031 C 
ATOM     47  C   UNL A   1      39.994  26.326  28.317  1.00  0.00     0.029 A 
ATOM     48  C   UNL A   1      40.861  27.418  28.748  1.00  0.00     0.049 A 
ATOM     49  H   UNL A   1      42.939  27.402  28.899  1.00  0.00     0.167 HD
ATOM     50  C   UNL A   1      47.278  27.208  29.305  1.00  0.00     0.037 A 
ATOM     51  C   UNL A   1      40.441  28.640  29.126  1.00  0.00     0.037 A 
ATOM     52  C   UNL A   1      46.933  28.562  29.655  1.00  0.00     0.049 A 
ATOM     53  C   UNL A   1      41.458  29.675  29.523  1.00  0.00     0.074 A 
ATOM     54  C   UNL A   1      47.775  29.604  30.004  1.00  0.00     0.029 A 
ATOM     55  N   UNL A   1      45.641  29.062  29.696  1.00  0.00    -0.354 N 
ATOM     56  N   UNL A   1      42.764  29.574  29.581  1.00  0.00    -0.248 NA
ATOM     57  C   UNL A   1      40.942  31.001  29.894  1.00  0.00     0.031 C 
ATOM     58  C   UNL A   1      46.990  30.726  30.289  1.00  0.00     0.029 A 
ATOM     59  C   UNL A   1      45.662  30.394  30.074  1.00  0.00     0.049 A 
ATOM     60  H   UNL A   1      44.828  28.546  29.487  1.00  0.00     0.167 HD
ATOM     61  C   UNL A   1      43.226  30.825  29.971  1.00  0.00     0.074 A 
ATOM     62  C   UNL A   1      42.062  31.675  30.108  1.00  0.00     0.031 C 
ATOM     63  C   UNL A   1      44.497  31.231  30.201  1.00  0.00     0.037 A 
BRANCH  50  64
ATOM     64  C   UNL A   1      48.730  26.823  29.318  1.00  0.00     0.057 A 
ATOM     65  C   UNL A   1      49.549  27.023  28.198  1.00  0.00     0.134 A 
ATOM     66  C   UNL A   1      49.330  26.303  30.471  1.00  0.00     0.134 A 
ATOM     67  F   UNL A   1      49.033  27.509  27.057  1.00  0.00    -0.206 F 
ATOM     68  C   UNL A   1      50.906  26.701  28.217  1.00  0.00     0.040 A 
ATOM     69  C   UNL A   1      50.693  26.002  30.511  1.00  0.00     0.040 A 
ATOM     70  F   UNL A   1      48.607  26.093  31.580  1.00  0.00    -0.206 F 
ATOM     71  C   UNL A   1      51.484  26.197  29.381  1.00  0.00     0.006 A 
ENDBRANCH  50  64
BRANCH  51  72
ATOM     72  C   UNL A   1      38.992  28.966  29.139  1.00  0.00     0.057 A 
ATOM     73  C   UNL A   1      38.340  29.418  27.984  1.00  0.00     0.134 A 
ATOM     74  C   UNL A   1      38.233  28.874  30.311  1.00  0.00     0.134 A 
ATOM     75  F   UNL A   1      39.017  29.546  26.833  1.00  0.00    -0.206 F 
ATOM     76  C   UNL A   1      36.996  29.796  28.002  1.00  0.00     0.040 A 
ATOM     77  C   UNL A   1      36.881  29.221  30.338  1.00  0.00     0.040 A 
ATOM     78  F   UNL A   1      38.795  28.442  31.449  1.00  0.00    -0.206 F 
ATOM     79  C   UNL A   1      36.262  29.695  29.183  1.00  0.00     0.006 A 
ENDBRANCH  51  72
BRANCH  63  80
ATOM     80  C   UNL A   1      44.694  32.666  30.594  1.00  0.00     0.057 A 
ATOM     81  C   UNL A   1      44.712  33.070  31.935  1.00  0.00     0.134 A 
ATOM     82  C   UNL A   1      44.882  33.654  29.619  1.00  0.00     0.134 A 
ATOM     83  F   UNL A   1      44.524  32.176  32.917  1.00  0.00    -0.206 F 
ATOM     84  C   UNL A   1      44.876  34.410  32.292  1.00  0.00     0.040 A 
ATOM     85  C   UNL A   1      45.076  34.992  29.963  1.00  0.00     0.040 A 
ATOM     86  F   UNL A   1      44.887  33.334  28.316  1.00  0.00    -0.206 F 
ATOM     87  C   UNL A   1      45.064  35.374  31.304  1.00  0.00     0.006 A 
ENDBRANCH  63  80
ENDBRANCH  37  38
ENDBRANCH  29  32
ENDBRANCH  27  28
ENDBRANCH  26  27
ENDBRANCH   1  26
TORSDOF 13
ENDMDL
MODEL 2
REMARK VINA RESULT:     -11.6      3.779      8.954
REMARK SMILES Cc1cc(C(=O)Nc2c(Cl)cc(Cl)cc2C(=O)NCCCCNC(=O)c2ccc(-c3c4nc(c(-c5c(F)cccc5F)c5ccc([nH]5)c(-c5c(F)cccc5F)c5nc(c(-c6c(F)cccc6F)c6ccc3[nH]6)C=C5)C=C4)cc2)c(C)s1
REMARK SMILES IDX 20 1 19 2 18 3 16 4 17 5 15 7 8 8 9 9 10 10 11 11 14 12
REMARK SMILES IDX 12 13 13 14 7 15 5 16 6 17 4 19 1 20 2 21 3 22 82 23 80 24
REMARK SMILES IDX 81 25 21 26 22 27 23 28 24 29 25 31 26 32 27 33 79 34 28 35
REMARK SMILES IDX 78 36 29 37 30 38 31 39 72 40 32 41 77 42 71 43 73 44 33 45
REMARK SMILES IDX 76 46 70 47 69 48 34 50 60 51 43 52 59 53 44 54 47 55 58 56
REMARK SMILES IDX 74 57 45 58 46 59 57 61 75 62 48 63 35 64 36 65 41 66 37 67
REMARK SMILES IDX 38 68 40 69 42 70 39 71 61 72 62 73 67 74 63 75 64 76 66 77
REMARK SMILES IDX 68 78 65 79 49 80 50 81 55 82 51 83 52 84 54 85 56 86 53 87
REMARK H PARENT 18 6 7 18 23 30 73 49 47 60
REMARK Flexibility Score: inf
ROOT
ATOM      1  C   UNL A   1      34.593  30.716  27.501  1.00  0.00     0.023 C 
ENDROOT
BRANCH   1   2
ATOM      2  C   UNL A   1      34.441  29.222  27.262  1.00  0.00     0.116 C 
BRANCH   2   3
ATOM      3  N   UNL A   1      33.219  28.596  27.692  1.00  0.00    -0.352 N 
ATOM      4  C   UNL A   1      32.224  27.982  26.967  1.00  0.00     0.253 C 
ATOM      5  O   UNL A   1      31.312  27.461  27.615  1.00  0.00    -0.269 OA
ATOM      6  H   UNL A   1      33.070  28.608  28.665  1.00  0.00     0.163 HD
BRANCH   4   7
ATOM      7  C   UNL A   1      32.110  27.937  25.471  1.00  0.00     0.066 A 
ATOM      8  C   UNL A   1      32.859  27.183  24.540  1.00  0.00     0.073 A 
ATOM      9  C   UNL A   1      32.455  27.156  23.179  1.00  0.00     0.066 A 
ATOM     10  Cl  UNL A   1      33.208  26.112  22.017  1.00  0.00    -0.082 Cl
ATOM     11  C   UNL A   1      31.419  27.966  22.716  1.00  0.00     0.043 A 
ATOM     12  C   UNL A   1      31.061  28.743  24.971  1.00  0.00     0.036 A 
ATOM     13  C   UNL A   1      30.745  28.776  23.613  1.00  0.00     0.043 A 
ATOM     14  Cl  UNL A   1      29.502  29.820  23.045  1.00  0.00    -0.084 Cl
BRANCH   8  15
ATOM     15  N   UNL A   1      33.985  26.442  24.923  1.00  0.00    -0.320 N 
ATOM     16  C   UNL A   1      34.061  25.129  25.385  1.00  0.00     0.256 C 
ATOM     17  O   UNL A   1      35.196  24.735  25.664  1.00  0.00    -0.269 OA
ATOM     18  H   UNL A   1      34.844  26.918  24.858  1.00  0.00     0.170 HD
BRANCH  16  19
ATOM     19  C   UNL A   1      32.891  24.210  25.405  1.00  0.00     0.054 A 
ATOM     20  C   UNL A   1      29.817  22.807  27.113  1.00  0.00     0.056 C 
ATOM     21  C   UNL A   1      30.942  23.145  26.198  1.00  0.00     0.003 A 
ATOM     22  C   UNL A   1      31.659  24.317  26.142  1.00  0.00     0.029 A 
ATOM     23  S   UNL A   1      31.502  22.045  25.038  1.00  0.00    -0.145 S 
ATOM     24  C   UNL A   1      32.781  23.096  24.567  1.00  0.00     0.014 A 
ATOM     25  C   UNL A   1      33.605  22.679  23.388  1.00  0.00     0.057 C 
ENDBRANCH  16  19
ENDBRANCH   8  15
ENDBRANCH   4   7
ENDBRANCH   2   3
ENDBRANCH   1   2
BRANCH   1  26
ATOM     26  C   UNL A   1      33.338  31.490  27.896  1.00  0.00     0.023 C 
BRANCH  26  27
ATOM     27  C   UNL A   1      32.932  32.671  27.018  1.00  0.00     0.116 C 
BRANCH  27  28
ATOM     28  N   UNL A   1      32.544  33.871  27.743  1.00  0.00    -0.352 N 
ATOM     29  C   UNL A   1      33.191  34.577  28.734  1.00  0.00     0.251 C 
ATOM     30  H   UNL A   1      31.670  34.241  27.482  1.00  0.00     0.163 HD
ATOM     31  O   UNL A   1      32.640  35.552  29.240  1.00  0.00    -0.269 OA
BRANCH  29  32
ATOM     32  C   UNL A   1      34.515  34.154  29.246  1.00  0.00     0.039 A 
ATOM     33  C   UNL A   1      34.570  33.495  30.479  1.00  0.00     0.014 A 
ATOM     34  C   UNL A   1      35.698  34.390  28.543  1.00  0.00     0.014 A 
ATOM     35  C   UNL A   1      35.784  32.979  30.944  1.00  0.00     0.010 A 
ATOM     36  C   UNL A   1      36.888  33.791  28.957  1.00  0.00     0.010 A 
ATOM     37  C   UNL A   1      36.943  33.066  30.156  1.00  0.00    -0.014 A 
BRANCH  37  38
ATOM     38  C   UNL A   1      38.199  32.376  30.565  1.00  0.00     0.031 A 
ATOM     39  C   UNL A   1      39.104  32.974  31.609  1.00  0.00     0.074 A 
ATOM     40  C   UNL A   1      38.551  31.226  29.955  1.00  0.00     0.049 A 
ATOM     41  N   UNL A   1      40.248  32.526  32.064  1.00  0.00    -0.248 NA
ATOM     42  C   UNL A   1      38.686  34.253  32.201  1.00  0.00     0.031 C 
ATOM     43  C   UNL A   1      37.802  30.573  28.878  1.00  0.00     0.029 A 
ATOM     44  N   UNL A   1      39.632  30.400  30.149  1.00  0.00    -0.354 N 
ATOM     45  C   UNL A   1      40.681  33.464  32.992  1.00  0.00     0.074 A 
ATOM     46  C   UNL A   1      39.714  34.539  32.987  1.00  0.00     0.031 C 
ATOM     47  C   UNL A   1      38.427  29.436  28.530  1.00  0.00     0.029 A 
ATOM     48  C   UNL A   1      39.639  29.295  29.330  1.00  0.00     0.049 A 
ATOM     49  H   UNL A   1      40.336  30.583  30.812  1.00  0.00     0.167 HD
ATOM     50  C   UNL A   1      41.767  33.420  33.800  1.00  0.00     0.037 A 
ATOM     51  C   UNL A   1      40.521  28.282  29.232  1.00  0.00     0.037 A 
ATOM     52  C   UNL A   1      42.725  32.345  33.821  1.00  0.00     0.049 A 
ATOM     53  C   UNL A   1      41.717  28.259  30.145  1.00  0.00     0.074 A 
ATOM     54  C   UNL A   1      43.838  32.198  34.630  1.00  0.00     0.029 A 
ATOM     55  N   UNL A   1      42.681  31.232  32.997  1.00  0.00    -0.354 N 
ATOM     56  N   UNL A   1      42.073  29.123  31.065  1.00  0.00    -0.248 NA
ATOM     57  C   UNL A   1      42.626  27.112  30.014  1.00  0.00     0.031 C 
ATOM     58  C   UNL A   1      44.487  31.012  34.272  1.00  0.00     0.029 A 
ATOM     59  C   UNL A   1      43.752  30.398  33.271  1.00  0.00     0.049 A 
ATOM     60  H   UNL A   1      41.989  31.060  32.317  1.00  0.00     0.167 HD
ATOM     61  C   UNL A   1      43.232  28.613  31.636  1.00  0.00     0.074 A 
ATOM     62  C   UNL A   1      43.502  27.351  30.979  1.00  0.00     0.031 C 
ATOM     63  C   UNL A   1      44.006  29.143  32.613  1.00  0.00     0.037 A 
BRANCH  50  64
ATOM     64  C   UNL A   1      41.965  34.562  34.757  1.00  0.00     0.057 A 
ATOM     65  C   UNL A   1      41.442  34.526  36.057  1.00  0.00     0.134 A 
ATOM     66  C   UNL A   1      42.729  35.679  34.400  1.00  0.00     0.134 A 
ATOM     67  F   UNL A   1      40.691  33.488  36.458  1.00  0.00    -0.206 F 
ATOM     68  C   UNL A   1      41.655  35.567  36.960  1.00  0.00     0.040 A 
ATOM     69  C   UNL A   1      42.972  36.716  35.304  1.00  0.00     0.040 A 
ATOM     70  F   UNL A   1      43.266  35.775  33.175  1.00  0.00    -0.206 F 
ATOM     71  C   UNL A   1      42.430  36.663  36.587  1.00  0.00     0.006 A 
ENDBRANCH  50  64
BRANCH  51  72
ATOM     72  C   UNL A   1      40.309  27.194  28.244  1.00  0.00     0.057 A 
ATOM     73  C   UNL A   1      39.531  26.072  28.556  1.00  0.00     0.134 A 
ATOM     74  C   UNL A   1      40.908  27.229  26.979  1.00  0.00     0.134 A 
ATOM     75  F   UNL A   1      38.946  25.970  29.759  1.00  0.00    -0.206 F 
ATOM     76  C   UNL A   1      39.385  25.010  27.662  1.00  0.00     0.040 A 
ATOM     77  C   UNL A   1      40.747  26.188  26.064  1.00  0.00     0.040 A 
ATOM     78  F   UNL A   1      41.659  28.278  26.615  1.00  0.00    -0.206 F 
ATOM     79  C   UNL A   1      39.992  25.068  26.408  1.00  0.00     0.006 A 
ENDBRANCH  51  72
BRANCH  63  80
ATOM     80  C   UNL A   1      45.200  28.343  33.048  1.00  0.00     0.057 A 
ATOM     81  C   UNL A   1      45.120  27.396  34.078  1.00  0.00     0.134 A 
ATOM     82  C   UNL A   1      46.440  28.513  32.420  1.00  0.00     0.134 A 
ATOM     83  F   UNL A   1      43.965  27.196  34.730  1.00  0.00    -0.206 F 
ATOM     84  C   UNL A   1      46.240  26.672  34.490  1.00  0.00     0.040 A 
ATOM     85  C   UNL A   1      47.560  27.773  32.803  1.00  0.00     0.040 A 
ATOM     86  F   UNL A   1      46.583  29.395  31.420  1.00  0.00    -0.206 F 
ATOM     87  C   UNL A   1      47.463  26.856  33.848  1.00  0.00     0.006 A 
ENDBRANCH  63  80
ENDBRANCH  37  38
ENDBRANCH  29  32
ENDBRANCH  27  28
ENDBRANCH  26  27
ENDBRANCH   1  26
TORSDOF 13
ENDMDL
MODEL 3
REMARK VINA RESULT:     -11.5      1.133      1.542
REMARK SMILES Cc1cc(C(=O)Nc2c(Cl)cc(Cl)cc2C(=O)NCCCCNC(=O)c2ccc(-c3c4nc(c(-c5c(F)cccc5F)c5ccc([nH]5)c(-c5c(F)cccc5F)c5nc(c(-c6c(F)cccc6F)c6ccc3[nH]6)C=C5)C=C4)cc2)c(C)s1
REMARK SMILES IDX 20 1 19 2 18 3 16 4 17 5 15 7 8 8 9 9 10 10 11 11 14 12
REMARK SMILES IDX 12 13 13 14 7 15 5 16 6 17 4 19 1 20 2 21 3 22 82 23 80 24
REMARK SMILES IDX 81 25 21 26 22 27 23 28 24 29 25 31 26 32 27 33 79 34 28 35
REMARK SMILES IDX 78 36 29 37 30 38 31 39 72 40 32 41 77 42 71 43 73 44 33 45
REMARK SMILES IDX 76 46 70 47 69 48 34 50 60 51 43 52 59 53 44 54 47 55 58 56
REMARK SMILES IDX 74 57 45 58 46 59 57 61 75 62 48 63 35 64 36 65 41 66 37 67
REMARK SMILES IDX 38 68 40 69 42 70 39 71 61 72 62 73 67 74 63 75 64 76 66 77
REMARK SMILES IDX 68 78 65 79 49 80 50 81 55 82 51 83 52 84 54 85 56 86 53 87
REMARK H PARENT 18 6 7 18 23 30 73 49 47 60
REMARK Flexibility Score: inf
ROOT
ATOM      1  C   UNL A   1      38.485  22.810  26.477  1.00  0.00     0.023 C 
ENDROOT
BRANCH   1   2
ATOM      2  C   UNL A   1      37.525  23.696  25.699  1.00  0.00     0.116 C 
BRANCH   2   3
ATOM      3  N   UNL A   1      37.282  23.369  24.319  1.00  0.00    -0.352 N 
ATOM      4  C   UNL A   1      36.101  23.214  23.630  1.00  0.00     0.253 C 
ATOM      5  O   UNL A   1      36.195  23.002  22.418  1.00  0.00    -0.269 OA
ATOM      6  H   UNL A   1      38.093  23.236  23.778  1.00  0.00     0.163 HD
BRANCH   4   7
ATOM      7  C   UNL A   1      34.719  23.217  24.218  1.00  0.00     0.066 A 
ATOM      8  C   UNL A   1      33.505  23.652  23.642  1.00  0.00     0.073 A 
ATOM      9  C   UNL A   1      32.282  23.389  24.314  1.00  0.00     0.066 A 
ATOM     10  Cl  UNL A   1      30.743  23.725  23.588  1.00  0.00    -0.082 Cl
ATOM     11  C   UNL A   1      32.264  22.836  25.593  1.00  0.00     0.043 A 
ATOM     12  C   UNL A   1      34.668  22.653  25.514  1.00  0.00     0.036 A 
ATOM     13  C   UNL A   1      33.462  22.495  26.197  1.00  0.00     0.043 A 
ATOM     14  Cl  UNL A   1      33.457  21.862  27.796  1.00  0.00    -0.084 Cl
BRANCH   8  15
ATOM     15  N   UNL A   1      33.467  24.324  22.413  1.00  0.00    -0.320 N 
ATOM     16  C   UNL A   1      33.156  25.656  22.146  1.00  0.00     0.256 C 
ATOM     17  O   UNL A   1      33.190  25.975  20.955  1.00  0.00    -0.269 OA
ATOM     18  H   UNL A   1      33.691  23.776  21.626  1.00  0.00     0.170 HD
BRANCH  16  19
ATOM     19  C   UNL A   1      32.941  26.666  23.216  1.00  0.00     0.054 A 
ATOM     20  C   UNL A   1      33.921  28.250  26.513  1.00  0.00     0.056 C 
ATOM     21  C   UNL A   1      33.293  27.858  25.222  1.00  0.00     0.003 A 
ATOM     22  C   UNL A   1      33.882  27.209  24.161  1.00  0.00     0.029 A 
ATOM     23  S   UNL A   1      31.667  28.195  24.887  1.00  0.00    -0.145 S 
ATOM     24  C   UNL A   1      31.735  27.352  23.388  1.00  0.00     0.014 A 
ATOM     25  C   UNL A   1      30.523  27.425  22.511  1.00  0.00     0.057 C 
ENDBRANCH  16  19
ENDBRANCH   8  15
ENDBRANCH   4   7
ENDBRANCH   2   3
ENDBRANCH   1   2
BRANCH   1  26
ATOM     26  C   UNL A   1      39.256  21.756  25.687  1.00  0.00     0.023 C 
BRANCH  26  27
ATOM     27  C   UNL A   1      39.035  20.292  26.060  1.00  0.00     0.116 C 
BRANCH  27  28
ATOM     28  N   UNL A   1      40.170  19.416  25.811  1.00  0.00    -0.352 N 
ATOM     29  C   UNL A   1      41.517  19.599  26.030  1.00  0.00     0.251 C 
ATOM     30  H   UNL A   1      39.934  18.544  25.420  1.00  0.00     0.163 HD
ATOM     31  O   UNL A   1      42.310  18.722  25.693  1.00  0.00    -0.269 OA
BRANCH  29  32
ATOM     32  C   UNL A   1      42.042  20.857  26.611  1.00  0.00     0.039 A 
ATOM     33  C   UNL A   1      42.590  21.810  25.745  1.00  0.00     0.014 A 
ATOM     34  C   UNL A   1      42.007  21.118  27.981  1.00  0.00     0.014 A 
ATOM     35  C   UNL A   1      42.992  23.055  26.237  1.00  0.00     0.010 A 
ATOM     36  C   UNL A   1      42.314  22.393  28.458  1.00  0.00     0.010 A 
ATOM     37  C   UNL A   1      42.798  23.382  27.590  1.00  0.00    -0.014 A 
BRANCH  37  38
ATOM     38  C   UNL A   1      43.067  24.760  28.089  1.00  0.00     0.031 A 
ATOM     39  C   UNL A   1      44.466  25.199  28.428  1.00  0.00     0.074 A 
ATOM     40  C   UNL A   1      42.035  25.607  28.284  1.00  0.00     0.049 A 
ATOM     41  N   UNL A   1      44.879  26.349  28.902  1.00  0.00    -0.248 NA
ATOM     42  C   UNL A   1      45.540  24.213  28.237  1.00  0.00     0.031 C 
ATOM     43  C   UNL A   1      40.622  25.288  28.062  1.00  0.00     0.029 A 
ATOM     44  N   UNL A   1      42.012  26.910  28.717  1.00  0.00    -0.354 N 
ATOM     45  C   UNL A   1      46.253  26.223  29.062  1.00  0.00     0.074 A 
ATOM     46  C   UNL A   1      46.596  24.865  28.701  1.00  0.00     0.031 C 
ATOM     47  C   UNL A   1      39.876  26.372  28.330  1.00  0.00     0.029 A 
ATOM     48  C   UNL A   1      40.749  27.452  28.777  1.00  0.00     0.049 A 
ATOM     49  H   UNL A   1      42.824  27.410  28.963  1.00  0.00     0.167 HD
ATOM     50  C   UNL A   1      47.153  27.161  29.442  1.00  0.00     0.037 A 
ATOM     51  C   UNL A   1      40.339  28.679  29.150  1.00  0.00     0.037 A 
ATOM     52  C   UNL A   1      46.819  28.519  29.788  1.00  0.00     0.049 A 
ATOM     53  C   UNL A   1      41.361  29.701  29.565  1.00  0.00     0.074 A 
ATOM     54  C   UNL A   1      47.668  29.549  30.152  1.00  0.00     0.029 A 
ATOM     55  N   UNL A   1      45.533  29.035  29.808  1.00  0.00    -0.354 N 
ATOM     56  N   UNL A   1      42.665  29.583  29.645  1.00  0.00    -0.248 NA
ATOM     57  C   UNL A   1      40.856  31.032  29.930  1.00  0.00     0.031 C 
ATOM     58  C   UNL A   1      46.892  30.681  30.426  1.00  0.00     0.029 A 
ATOM     59  C   UNL A   1      45.564  30.367  30.188  1.00  0.00     0.049 A 
ATOM     60  H   UNL A   1      44.717  28.529  29.585  1.00  0.00     0.167 HD
ATOM     61  C   UNL A   1      43.135  30.827  30.045  1.00  0.00     0.074 A 
ATOM     62  C   UNL A   1      41.980  31.692  30.164  1.00  0.00     0.031 C 
ATOM     63  C   UNL A   1      44.407  31.218  30.297  1.00  0.00     0.037 A 
BRANCH  50  64
ATOM     64  C   UNL A   1      48.600  26.758  29.479  1.00  0.00     0.057 A 
ATOM     65  C   UNL A   1      49.447  26.976  28.383  1.00  0.00     0.134 A 
ATOM     66  C   UNL A   1      49.166  26.202  30.631  1.00  0.00     0.134 A 
ATOM     67  F   UNL A   1      48.964  27.496  27.244  1.00  0.00    -0.206 F 
ATOM     68  C   UNL A   1      50.799  26.637  28.426  1.00  0.00     0.040 A 
ATOM     69  C   UNL A   1      50.524  25.883  30.696  1.00  0.00     0.040 A 
ATOM     70  F   UNL A   1      48.415  25.974  31.719  1.00  0.00    -0.206 F 
ATOM     71  C   UNL A   1      51.344  26.097  29.589  1.00  0.00     0.006 A 
ENDBRANCH  50  64
BRANCH  51  72
ATOM     72  C   UNL A   1      38.893  29.023  29.139  1.00  0.00     0.057 A 
ATOM     73  C   UNL A   1      38.269  29.496  27.977  1.00  0.00     0.134 A 
ATOM     74  C   UNL A   1      38.111  28.927  30.295  1.00  0.00     0.134 A 
ATOM     75  F   UNL A   1      38.970  29.629  26.841  1.00  0.00    -0.206 F 
ATOM     76  C   UNL A   1      36.930  29.891  27.974  1.00  0.00     0.040 A 
ATOM     77  C   UNL A   1      36.763  29.291  30.300  1.00  0.00     0.040 A 
ATOM     78  F   UNL A   1      38.645  28.475  31.439  1.00  0.00    -0.206 F 
ATOM     79  C   UNL A   1      36.172  29.786  29.139  1.00  0.00     0.006 A 
ENDBRANCH  51  72
BRANCH  63  80
ATOM     80  C   UNL A   1      44.616  32.650  30.696  1.00  0.00     0.057 A 
ATOM     81  C   UNL A   1      44.615  33.052  32.038  1.00  0.00     0.134 A 
ATOM     82  C   UNL A   1      44.835  33.636  29.725  1.00  0.00     0.134 A 
ATOM     83  F   UNL A   1      44.397  32.159  33.015  1.00  0.00    -0.206 F 
ATOM     84  C   UNL A   1      44.790  34.389  32.398  1.00  0.00     0.040 A 
ATOM     85  C   UNL A   1      45.040  34.971  30.075  1.00  0.00     0.040 A 
ATOM     86  F   UNL A   1      44.859  33.318  28.422  1.00  0.00    -0.206 F 
ATOM     87  C   UNL A   1      45.008  35.352  31.415  1.00  0.00     0.006 A 
ENDBRANCH  63  80
ENDBRANCH  37  38
ENDBRANCH  29  32
ENDBRANCH  27  28
ENDBRANCH  26  27
ENDBRANCH   1  26
TORSDOF 13
ENDMDL
