MODEL 1
REMARK VINA RESULT:     -12.3      0.000      0.000
REMARK SMILES Nc1oc2ccc(F)cc2c(=O)c1[C@@H]1[NH2+][C@H](C(=O)NCCCCNC(=O)c2ccc(-c3c4nc(c(-c5c(F)cccc5F)c5ccc([nH]5)c(-c5c(F)cccc5F)c5nc(c(-c6c(F)cccc6F)c6ccc3[nH]6)C=C5)C=C4)cc2)CS1
REMARK SMILES IDX 21 1 20 2 19 3 17 4 18 5 16 7 14 8 15 9 82 10 81 13 13 14
REMARK SMILES IDX 2 15 3 16 4 17 11 18 5 19 10 20 12 21 6 22 9 23 7 24 8 25
REMARK SMILES IDX 1 26 22 29 23 30 24 31 25 32 26 34 27 35 28 36 80 37 29 38
REMARK SMILES IDX 79 39 30 40 31 41 32 42 73 43 33 44 78 45 72 46 74 47 34 48
REMARK SMILES IDX 77 49 71 50 70 51 35 53 61 54 44 55 60 56 45 57 48 58 59 59
REMARK SMILES IDX 75 60 46 61 47 62 58 64 76 65 49 66 36 67 37 68 42 69 38 70
REMARK SMILES IDX 39 71 41 72 43 73 40 74 62 75 63 76 68 77 64 78 65 79 67 80
REMARK SMILES IDX 69 81 66 82 50 83 51 84 56 85 52 86 53 87 55 88 57 89 54 90
REMARK H PARENT 19 6 15 11 15 12 1 27 1 28 24 33 74 52 48 63
REMARK Flexibility Score: inf
ROOT
ATOM      1  C   UNL A   1      34.277  33.364  29.131  1.00  0.00     0.023 C 
ENDROOT
BRANCH   1   2
ATOM      2  C   UNL A   1      34.803  32.571  27.931  1.00  0.00     0.116 C 
BRANCH   2   3
ATOM      3  N   UNL A   1      35.169  31.202  28.227  1.00  0.00    -0.351 N 
ATOM      4  C   UNL A   1      34.804  30.045  27.598  1.00  0.00     0.279 C 
ATOM      5  O   UNL A   1      35.514  29.052  27.784  1.00  0.00    -0.268 OA
ATOM      6  H   UNL A   1      35.771  31.087  28.998  1.00  0.00     0.163 HD
BRANCH   4   7
ATOM      7  C   UNL A   1      33.586  29.964  26.659  1.00  0.00     0.283 C 
ATOM      8  C   UNL A   1      32.884  28.817  24.636  1.00  0.00     0.283 C 
ATOM      9  N   UNL A   1      33.993  29.490  25.324  1.00  0.00    -0.320 N 
ATOM     10  S   UNL A   1      31.514  28.597  25.809  1.00  0.00    -0.087 SA
ATOM     11  H   UNL A   1      34.296  30.288  24.767  1.00  0.00     0.348 HD
ATOM     12  H   UNL A   1      34.754  28.821  25.438  1.00  0.00     0.348 HD
ATOM     13  C   UNL A   1      32.493  29.090  27.245  1.00  0.00     0.151 C 
BRANCH   8  14
ATOM     14  C   UNL A   1      33.434  27.546  24.030  1.00  0.00     0.128 A 
ATOM     15  C   UNL A   1      33.566  27.194  22.729  1.00  0.00     0.205 A 
ATOM     16  O   UNL A   1      33.857  25.902  22.315  1.00  0.00    -0.440 OA
ATOM     17  C   UNL A   1      33.868  24.891  23.234  1.00  0.00     0.140 A 
ATOM     18  C   UNL A   1      33.805  26.521  25.051  1.00  0.00     0.205 A 
ATOM     19  C   UNL A   1      33.839  23.577  22.767  1.00  0.00     0.051 A 
ATOM     20  C   UNL A   1      33.946  25.136  24.594  1.00  0.00     0.068 A 
ATOM     21  O   UNL A   1      33.941  26.795  26.239  1.00  0.00    -0.288 OA
ATOM     22  C   UNL A   1      33.935  22.514  23.660  1.00  0.00     0.043 A 
ATOM     23  C   UNL A   1      34.102  24.081  25.497  1.00  0.00     0.055 A 
ATOM     24  C   UNL A   1      34.098  22.777  25.015  1.00  0.00     0.124 A 
ATOM     25  F   UNL A   1      34.246  21.755  25.866  1.00  0.00    -0.207 F 
BRANCH  15  26
ATOM     26  N   UNL A   1      33.376  28.027  21.661  1.00  0.00    -0.369 N 
ATOM     27  H   UNL A   1      32.852  28.854  21.768  1.00  0.00     0.159 HD
ATOM     28  H   UNL A   1      33.762  27.800  20.784  1.00  0.00     0.159 HD
ENDBRANCH  15  26
ENDBRANCH   8  14
ENDBRANCH   4   7
ENDBRANCH   2   3
ENDBRANCH   1   2
BRANCH   1  29
ATOM     29  C   UNL A   1      33.289  34.493  28.787  1.00  0.00     0.023 C 
BRANCH  29  30
ATOM     30  C   UNL A   1      33.546  35.872  29.401  1.00  0.00     0.116 C 
BRANCH  30  31
ATOM     31  N   UNL A   1      32.624  36.274  30.448  1.00  0.00    -0.352 N 
ATOM     32  C   UNL A   1      32.667  36.106  31.817  1.00  0.00     0.251 C 
ATOM     33  H   UNL A   1      31.827  36.752  30.125  1.00  0.00     0.163 HD
ATOM     34  O   UNL A   1      31.808  36.587  32.533  1.00  0.00    -0.269 OA
BRANCH  32  35
ATOM     35  C   UNL A   1      33.712  35.247  32.408  1.00  0.00     0.039 A 
ATOM     36  C   UNL A   1      35.028  35.685  32.462  1.00  0.00     0.014 A 
ATOM     37  C   UNL A   1      33.369  33.976  32.886  1.00  0.00     0.014 A 
ATOM     38  C   UNL A   1      36.026  34.784  32.777  1.00  0.00     0.010 A 
ATOM     39  C   UNL A   1      34.370  33.108  33.336  1.00  0.00     0.010 A 
ATOM     40  C   UNL A   1      35.712  33.494  33.242  1.00  0.00    -0.014 A 
BRANCH  40  41
ATOM     41  C   UNL A   1      36.844  32.648  33.692  1.00  0.00     0.031 A 
ATOM     42  C   UNL A   1      37.530  31.693  32.760  1.00  0.00     0.074 A 
ATOM     43  C   UNL A   1      37.350  32.907  34.914  1.00  0.00     0.049 A 
ATOM     44  N   UNL A   1      38.672  31.074  32.922  1.00  0.00    -0.248 NA
ATOM     45  C   UNL A   1      36.858  31.389  31.488  1.00  0.00     0.031 C 
ATOM     46  C   UNL A   1      36.743  33.816  35.893  1.00  0.00     0.029 A 
ATOM     47  N   UNL A   1      38.519  32.513  35.508  1.00  0.00    -0.354 N 
ATOM     48  C   UNL A   1      38.863  30.319  31.773  1.00  0.00     0.074 A 
ATOM     49  C   UNL A   1      37.700  30.523  30.937  1.00  0.00     0.031 C 
ATOM     50  C   UNL A   1      37.596  34.003  36.907  1.00  0.00     0.029 A 
ATOM     51  C   UNL A   1      38.770  33.168  36.691  1.00  0.00     0.049 A 
ATOM     52  H   UNL A   1      39.117  31.832  35.127  1.00  0.00     0.167 HD
ATOM     53  C   UNL A   1      39.921  29.539  31.445  1.00  0.00     0.037 A 
ATOM     54  C   UNL A   1      39.834  33.106  37.509  1.00  0.00     0.037 A 
ATOM     55  C   UNL A   1      41.066  29.333  32.297  1.00  0.00     0.049 A 
ATOM     56  C   UNL A   1      40.973  32.208  37.131  1.00  0.00     0.074 A 
ATOM     57  C   UNL A   1      42.175  28.533  32.080  1.00  0.00     0.029 A 
ATOM     58  N   UNL A   1      41.247  29.939  33.532  1.00  0.00    -0.354 N 
ATOM     59  N   UNL A   1      41.140  31.505  36.037  1.00  0.00    -0.248 NA
ATOM     60  C   UNL A   1      42.063  32.083  38.105  1.00  0.00     0.031 C 
ATOM     61  C   UNL A   1      43.010  28.630  33.200  1.00  0.00     0.029 A 
ATOM     62  C   UNL A   1      42.442  29.521  34.095  1.00  0.00     0.049 A 
ATOM     63  H   UNL A   1      40.618  30.572  33.949  1.00  0.00     0.167 HD
ATOM     64  C   UNL A   1      42.352  30.850  36.192  1.00  0.00     0.074 A 
ATOM     65  C   UNL A   1      42.898  31.278  37.466  1.00  0.00     0.031 C 
ATOM     66  C   UNL A   1      42.955  29.960  35.368  1.00  0.00     0.037 A 
BRANCH  53  67
ATOM     67  C   UNL A   1      39.888  28.844  30.115  1.00  0.00     0.057 A 
ATOM     68  C   UNL A   1      40.477  29.425  28.983  1.00  0.00     0.134 A 
ATOM     69  C   UNL A   1      39.231  27.619  29.942  1.00  0.00     0.134 A 
ATOM     70  F   UNL A   1      41.118  30.599  29.076  1.00  0.00    -0.206 F 
ATOM     71  C   UNL A   1      40.407  28.815  27.729  1.00  0.00     0.040 A 
ATOM     72  C   UNL A   1      39.172  26.989  28.697  1.00  0.00     0.040 A 
ATOM     73  F   UNL A   1      38.658  27.002  30.987  1.00  0.00    -0.206 F 
ATOM     74  C   UNL A   1      39.755  27.592  27.584  1.00  0.00     0.006 A 
ENDBRANCH  53  67
BRANCH  54  75
ATOM     75  C   UNL A   1      39.859  33.890  38.771  1.00  0.00     0.057 A 
ATOM     76  C   UNL A   1      40.483  35.143  38.828  1.00  0.00     0.134 A 
ATOM     77  C   UNL A   1      39.247  33.422  39.938  1.00  0.00     0.134 A 
ATOM     78  F   UNL A   1      41.096  35.646  37.747  1.00  0.00    -0.206 F 
ATOM     79  C   UNL A   1      40.502  35.900  40.000  1.00  0.00     0.040 A 
ATOM     80  C   UNL A   1      39.229  34.183  41.109  1.00  0.00     0.040 A 
ATOM     81  F   UNL A   1      38.621  32.236  39.945  1.00  0.00    -0.206 F 
ATOM     82  C   UNL A   1      39.862  35.424  41.142  1.00  0.00     0.006 A 
ENDBRANCH  54  75
BRANCH  66  83
ATOM     83  C   UNL A   1      44.268  29.408  35.833  1.00  0.00     0.057 A 
ATOM     84  C   UNL A   1      44.321  28.238  36.600  1.00  0.00     0.134 A 
ATOM     85  C   UNL A   1      45.481  30.028  35.506  1.00  0.00     0.134 A 
ATOM     86  F   UNL A   1      43.194  27.600  36.949  1.00  0.00    -0.206 F 
ATOM     87  C   UNL A   1      45.537  27.700  37.021  1.00  0.00     0.040 A 
ATOM     88  C   UNL A   1      46.704  29.485  35.899  1.00  0.00     0.040 A 
ATOM     89  F   UNL A   1      45.495  31.140  34.755  1.00  0.00    -0.206 F 
ATOM     90  C   UNL A   1      46.734  28.319  36.662  1.00  0.00     0.006 A 
ENDBRANCH  66  83
ENDBRANCH  40  41
ENDBRANCH  32  35
ENDBRANCH  30  31
ENDBRANCH  29  30
ENDBRANCH   1  29
TORSDOF 13
ENDMDL
MODEL 2
REMARK VINA RESULT:     -12.2      6.133      8.710
REMARK SMILES Nc1oc2ccc(F)cc2c(=O)c1[C@@H]1[NH2+][C@H](C(=O)NCCCCNC(=O)c2ccc(-c3c4nc(c(-c5c(F)cccc5F)c5ccc([nH]5)c(-c5c(F)cccc5F)c5nc(c(-c6c(F)cccc6F)c6ccc3[nH]6)C=C5)C=C4)cc2)CS1
REMARK SMILES IDX 21 1 20 2 19 3 17 4 18 5 16 7 14 8 15 9 82 10 81 13 13 14
REMARK SMILES IDX 2 15 3 16 4 17 11 18 5 19 10 20 12 21 6 22 9 23 7 24 8 25
REMARK SMILES IDX 1 26 22 29 23 30 24 31 25 32 26 34 27 35 28 36 80 37 29 38
REMARK SMILES IDX 79 39 30 40 31 41 32 42 73 43 33 44 78 45 72 46 74 47 34 48
REMARK SMILES IDX 77 49 71 50 70 51 35 53 61 54 44 55 60 56 45 57 48 58 59 59
REMARK SMILES IDX 75 60 46 61 47 62 58 64 76 65 49 66 36 67 37 68 42 69 38 70
REMARK SMILES IDX 39 71 41 72 43 73 40 74 62 75 63 76 68 77 64 78 65 79 67 80
REMARK SMILES IDX 69 81 66 82 50 83 51 84 56 85 52 86 53 87 55 88 57 89 54 90
REMARK H PARENT 19 6 15 11 15 12 1 27 1 28 24 33 74 52 48 63
REMARK Flexibility Score: inf
ROOT
ATOM      1  C   UNL A   1      32.172  28.847  26.221  1.00  0.00     0.023 C 
ENDROOT
BRANCH   1   2
ATOM      2  C   UNL A   1      31.875  27.783  27.281  1.00  0.00     0.116 C 
BRANCH   2   3
ATOM      3  N   UNL A   1      31.076  26.670  26.812  1.00  0.00    -0.351 N 
ATOM      4  C   UNL A   1      31.454  25.394  26.501  1.00  0.00     0.279 C 
ATOM      5  O   UNL A   1      30.570  24.532  26.481  1.00  0.00    -0.268 OA
ATOM      6  H   UNL A   1      30.117  26.863  26.698  1.00  0.00     0.163 HD
BRANCH   4   7
ATOM      7  C   UNL A   1      32.919  25.011  26.223  1.00  0.00     0.283 C 
ATOM      8  C   UNL A   1      34.228  23.082  25.537  1.00  0.00     0.283 C 
ATOM      9  N   UNL A   1      33.108  23.556  26.361  1.00  0.00    -0.320 N 
ATOM     10  S   UNL A   1      34.777  24.439  24.460  1.00  0.00    -0.087 SA
ATOM     11  H   UNL A   1      33.299  23.338  27.339  1.00  0.00     0.348 HD
ATOM     12  H   UNL A   1      32.257  23.089  26.046  1.00  0.00     0.348 HD
ATOM     13  C   UNL A   1      33.369  25.497  24.857  1.00  0.00     0.151 C 
BRANCH   8  14
ATOM     14  C   UNL A   1      33.766  21.830  24.826  1.00  0.00     0.128 A 
ATOM     15  C   UNL A   1      32.574  21.553  24.247  1.00  0.00     0.205 A 
ATOM     16  O   UNL A   1      32.199  20.278  23.848  1.00  0.00    -0.440 OA
ATOM     17  C   UNL A   1      32.989  19.214  24.179  1.00  0.00     0.140 A 
ATOM     18  C   UNL A   1      34.777  20.731  24.857  1.00  0.00     0.205 A 
ATOM     19  C   UNL A   1      32.450  17.933  24.060  1.00  0.00     0.051 A 
ATOM     20  C   UNL A   1      34.303  19.372  24.584  1.00  0.00     0.068 A 
ATOM     21  O   UNL A   1      35.953  20.927  25.146  1.00  0.00    -0.288 OA
ATOM     22  C   UNL A   1      33.242  16.814  24.303  1.00  0.00     0.043 A 
ATOM     23  C   UNL A   1      35.125  18.259  24.773  1.00  0.00     0.055 A 
ATOM     24  C   UNL A   1      34.582  16.988  24.626  1.00  0.00     0.124 A 
ATOM     25  F   UNL A   1      35.356  15.911  24.805  1.00  0.00    -0.207 F 
BRANCH  15  26
ATOM     26  N   UNL A   1      31.569  22.456  24.034  1.00  0.00    -0.369 N 
ATOM     27  H   UNL A   1      31.580  23.324  24.500  1.00  0.00     0.159 HD
ATOM     28  H   UNL A   1      30.833  22.240  23.417  1.00  0.00     0.159 HD
ENDBRANCH  15  26
ENDBRANCH   8  14
ENDBRANCH   4   7
ENDBRANCH   2   3
ENDBRANCH   1   2
BRANCH   1  29
ATOM     29  C   UNL A   1      33.654  29.238  26.083  1.00  0.00     0.023 C 
BRANCH  29  30
ATOM     30  C   UNL A   1      34.579  28.942  27.267  1.00  0.00     0.116 C 
BRANCH  30  31
ATOM     31  N   UNL A   1      34.642  29.974  28.286  1.00  0.00    -0.352 N 
ATOM     32  C   UNL A   1      35.708  30.503  28.984  1.00  0.00     0.251 C 
ATOM     33  H   UNL A   1      33.771  30.367  28.520  1.00  0.00     0.163 HD
ATOM     34  O   UNL A   1      35.550  31.426  29.762  1.00  0.00    -0.269 OA
BRANCH  32  35
ATOM     35  C   UNL A   1      37.038  29.873  28.861  1.00  0.00     0.039 A 
ATOM     36  C   UNL A   1      37.639  29.290  29.967  1.00  0.00     0.014 A 
ATOM     37  C   UNL A   1      37.699  29.897  27.626  1.00  0.00     0.014 A 
ATOM     38  C   UNL A   1      38.973  28.938  29.903  1.00  0.00     0.010 A 
ATOM     39  C   UNL A   1      39.007  29.412  27.528  1.00  0.00     0.010 A 
ATOM     40  C   UNL A   1      39.668  28.969  28.679  1.00  0.00    -0.014 A 
BRANCH  40  41
ATOM     41  C   UNL A   1      41.052  28.438  28.680  1.00  0.00     0.031 A 
ATOM     42  C   UNL A   1      41.346  27.009  28.330  1.00  0.00     0.074 A 
ATOM     43  C   UNL A   1      42.049  29.334  28.828  1.00  0.00     0.049 A 
ATOM     44  N   UNL A   1      42.500  26.459  28.047  1.00  0.00    -0.248 NA
ATOM     45  C   UNL A   1      40.211  26.075  28.290  1.00  0.00     0.031 C 
ATOM     46  C   UNL A   1      41.857  30.745  29.179  1.00  0.00     0.029 A 
ATOM     47  N   UNL A   1      43.397  29.226  28.616  1.00  0.00    -0.354 N 
ATOM     48  C   UNL A   1      42.231  25.122  27.784  1.00  0.00     0.074 A 
ATOM     49  C   UNL A   1      40.811  24.932  27.980  1.00  0.00     0.031 C 
ATOM     50  C   UNL A   1      43.019  31.394  29.043  1.00  0.00     0.029 A 
ATOM     51  C   UNL A   1      44.050  30.434  28.674  1.00  0.00     0.049 A 
ATOM     52  H   UNL A   1      43.851  28.371  28.441  1.00  0.00     0.167 HD
ATOM     53  C   UNL A   1      43.095  24.151  27.401  1.00  0.00     0.037 A 
ATOM     54  C   UNL A   1      45.341  30.736  28.449  1.00  0.00     0.037 A 
ATOM     55  C   UNL A   1      44.512  24.354  27.226  1.00  0.00     0.049 A 
ATOM     56  C   UNL A   1      46.274  29.630  28.058  1.00  0.00     0.074 A 
ATOM     57  C   UNL A   1      45.482  23.430  26.878  1.00  0.00     0.029 A 
ATOM     58  N   UNL A   1      45.158  25.572  27.383  1.00  0.00    -0.354 N 
ATOM     59  N   UNL A   1      46.002  28.372  27.807  1.00  0.00    -0.248 NA
ATOM     60  C   UNL A   1      47.693  29.982  27.932  1.00  0.00     0.031 C 
ATOM     61  C   UNL A   1      46.721  24.083  26.858  1.00  0.00     0.029 A 
ATOM     62  C   UNL A   1      46.516  25.421  27.153  1.00  0.00     0.049 A 
ATOM     63  H   UNL A   1      44.717  26.418  27.625  1.00  0.00     0.167 HD
ATOM     64  C   UNL A   1      47.216  27.779  27.499  1.00  0.00     0.074 A 
ATOM     65  C   UNL A   1      48.217  28.827  27.548  1.00  0.00     0.031 C 
ATOM     66  C   UNL A   1      47.488  26.482  27.216  1.00  0.00     0.037 A 
BRANCH  53  67
ATOM     67  C   UNL A   1      42.534  22.781  27.152  1.00  0.00     0.057 A 
ATOM     68  C   UNL A   1      42.202  21.933  28.218  1.00  0.00     0.134 A 
ATOM     69  C   UNL A   1      42.367  22.279  25.854  1.00  0.00     0.134 A 
ATOM     70  F   UNL A   1      42.341  22.347  29.485  1.00  0.00    -0.206 F 
ATOM     71  C   UNL A   1      41.730  20.637  28.001  1.00  0.00     0.040 A 
ATOM     72  C   UNL A   1      41.877  20.992  25.625  1.00  0.00     0.040 A 
ATOM     73  F   UNL A   1      42.654  23.044  24.789  1.00  0.00    -0.206 F 
ATOM     74  C   UNL A   1      41.565  20.164  26.701  1.00  0.00     0.006 A 
ENDBRANCH  53  67
BRANCH  54  75
ATOM     75  C   UNL A   1      45.826  32.130  28.616  1.00  0.00     0.057 A 
ATOM     76  C   UNL A   1      46.275  32.593  29.860  1.00  0.00     0.134 A 
ATOM     77  C   UNL A   1      45.875  33.024  27.541  1.00  0.00     0.134 A 
ATOM     78  F   UNL A   1      46.246  31.789  30.933  1.00  0.00    -0.206 F 
ATOM     79  C   UNL A   1      46.748  33.893  30.031  1.00  0.00     0.040 A 
ATOM     80  C   UNL A   1      46.377  34.318  27.691  1.00  0.00     0.040 A 
ATOM     81  F   UNL A   1      45.473  32.638  26.322  1.00  0.00    -0.206 F 
ATOM     82  C   UNL A   1      46.812  34.757  28.940  1.00  0.00     0.006 A 
ENDBRANCH  54  75
BRANCH  66  83
ATOM     83  C   UNL A   1      48.922  26.149  26.940  1.00  0.00     0.057 A 
ATOM     84  C   UNL A   1      49.440  26.238  25.643  1.00  0.00     0.134 A 
ATOM     85  C   UNL A   1      49.794  25.755  27.964  1.00  0.00     0.134 A 
ATOM     86  F   UNL A   1      48.655  26.605  24.619  1.00  0.00    -0.206 F 
ATOM     87  C   UNL A   1      50.779  25.953  25.374  1.00  0.00     0.040 A 
ATOM     88  C   UNL A   1      51.140  25.493  27.712  1.00  0.00     0.040 A 
ATOM     89  F   UNL A   1      49.360  25.671  29.231  1.00  0.00    -0.206 F 
ATOM     90  C   UNL A   1      51.635  25.588  26.412  1.00  0.00     0.006 A 
ENDBRANCH  66  83
ENDBRANCH  40  41
ENDBRANCH  32  35
ENDBRANCH  30  31
ENDBRANCH  29  30
ENDBRANCH   1  29
TORSDOF 13
ENDMDL
MODEL 3
REMARK VINA RESULT:     -12.1      3.295      7.611
REMARK SMILES Nc1oc2ccc(F)cc2c(=O)c1[C@@H]1[NH2+][C@H](C(=O)NCCCCNC(=O)c2ccc(-c3c4nc(c(-c5c(F)cccc5F)c5ccc([nH]5)c(-c5c(F)cccc5F)c5nc(c(-c6c(F)cccc6F)c6ccc3[nH]6)C=C5)C=C4)cc2)CS1
REMARK SMILES IDX 21 1 20 2 19 3 17 4 18 5 16 7 14 8 15 9 82 10 81 13 13 14
REMARK SMILES IDX 2 15 3 16 4 17 11 18 5 19 10 20 12 21 6 22 9 23 7 24 8 25
REMARK SMILES IDX 1 26 22 29 23 30 24 31 25 32 26 34 27 35 28 36 80 37 29 38
REMARK SMILES IDX 79 39 30 40 31 41 32 42 73 43 33 44 78 45 72 46 74 47 34 48
REMARK SMILES IDX 77 49 71 50 70 51 35 53 61 54 44 55 60 56 45 57 48 58 59 59
REMARK SMILES IDX 75 60 46 61 47 62 58 64 76 65 49 66 36 67 37 68 42 69 38 70
REMARK SMILES IDX 39 71 41 72 43 73 40 74 62 75 63 76 68 77 64 78 65 79 67 80
REMARK SMILES IDX 69 81 66 82 50 83 51 84 56 85 52 86 53 87 55 88 57 89 54 90
REMARK H PARENT 19 6 15 11 15 12 1 27 1 28 24 33 74 52 48 63
REMARK Flexibility Score: inf
ROOT
ATOM      1  C   UNL A   1      31.773  28.812  27.434  1.00  0.00     0.023 C 
ENDROOT
BRANCH   1   2
ATOM      2  C   UNL A   1      32.295  27.613  26.636  1.00  0.00     0.116 C 
BRANCH   2   3
ATOM      3  N   UNL A   1      31.475  26.423  26.731  1.00  0.00    -0.351 N 
ATOM      4  C   UNL A   1      31.837  25.107  26.674  1.00  0.00     0.279 C 
ATOM      5  O   UNL A   1      31.045  24.282  27.140  1.00  0.00    -0.268 OA
ATOM      6  H   UNL A   1      30.512  26.588  26.854  1.00  0.00     0.163 HD
BRANCH   4   7
ATOM      7  C   UNL A   1      33.187  24.646  26.094  1.00  0.00     0.283 C 
ATOM      8  C   UNL A   1      34.310  22.598  25.425  1.00  0.00     0.283 C 
ATOM      9  N   UNL A   1      33.433  23.230  26.420  1.00  0.00    -0.320 N 
ATOM     10  S   UNL A   1      34.536  23.743  24.032  1.00  0.00    -0.087 SA
ATOM     11  H   UNL A   1      33.874  23.171  27.337  1.00  0.00     0.348 HD
ATOM     12  H   UNL A   1      32.538  22.739  26.418  1.00  0.00     0.348 HD
ATOM     13  C   UNL A   1      33.259  24.888  24.598  1.00  0.00     0.151 C 
BRANCH   8  14
ATOM     14  C   UNL A   1      33.703  21.257  25.076  1.00  0.00     0.128 A 
ATOM     15  C   UNL A   1      32.405  20.874  25.053  1.00  0.00     0.205 A 
ATOM     16  O   UNL A   1      32.003  19.550  24.955  1.00  0.00    -0.440 OA
ATOM     17  C   UNL A   1      32.939  18.559  25.036  1.00  0.00     0.140 A 
ATOM     18  C   UNL A   1      34.726  20.205  24.799  1.00  0.00     0.205 A 
ATOM     19  C   UNL A   1      32.498  17.255  25.260  1.00  0.00     0.051 A 
ATOM     20  C   UNL A   1      34.290  18.808  24.863  1.00  0.00     0.068 A 
ATOM     21  O   UNL A   1      35.902  20.474  24.572  1.00  0.00    -0.288 OA
ATOM     22  C   UNL A   1      33.406  16.199  25.266  1.00  0.00     0.043 A 
ATOM     23  C   UNL A   1      35.204  17.753  24.807  1.00  0.00     0.055 A 
ATOM     24  C   UNL A   1      34.747  16.455  25.006  1.00  0.00     0.124 A 
ATOM     25  F   UNL A   1      35.610  15.433  24.956  1.00  0.00    -0.207 F 
BRANCH  15  26
ATOM     26  N   UNL A   1      31.331  21.712  25.180  1.00  0.00    -0.369 N 
ATOM     27  H   UNL A   1      30.757  21.900  24.402  1.00  0.00     0.159 HD
ATOM     28  H   UNL A   1      31.131  22.129  26.050  1.00  0.00     0.159 HD
ENDBRANCH  15  26
ENDBRANCH   8  14
ENDBRANCH   4   7
ENDBRANCH   2   3
ENDBRANCH   1   2
BRANCH   1  29
ATOM     29  C   UNL A   1      31.668  30.128  26.643  1.00  0.00     0.023 C 
BRANCH  29  30
ATOM     30  C   UNL A   1      32.784  31.160  26.832  1.00  0.00     0.116 C 
BRANCH  30  31
ATOM     31  N   UNL A   1      32.356  32.467  27.297  1.00  0.00    -0.352 N 
ATOM     32  C   UNL A   1      33.019  33.443  28.011  1.00  0.00     0.251 C 
ATOM     33  H   UNL A   1      31.430  32.700  27.060  1.00  0.00     0.163 HD
ATOM     34  O   UNL A   1      32.491  34.515  28.245  1.00  0.00    -0.269 OA
BRANCH  32  35
ATOM     35  C   UNL A   1      34.346  33.145  28.586  1.00  0.00     0.039 A 
ATOM     36  C   UNL A   1      35.496  33.608  27.964  1.00  0.00     0.014 A 
ATOM     37  C   UNL A   1      34.434  32.366  29.747  1.00  0.00     0.014 A 
ATOM     38  C   UNL A   1      36.723  33.112  28.359  1.00  0.00     0.010 A 
ATOM     39  C   UNL A   1      35.687  31.977  30.231  1.00  0.00     0.010 A 
ATOM     40  C   UNL A   1      36.840  32.313  29.512  1.00  0.00    -0.014 A 
BRANCH  40  41
ATOM     41  C   UNL A   1      38.212  31.948  29.939  1.00  0.00     0.031 A 
ATOM     42  C   UNL A   1      38.884  32.633  31.092  1.00  0.00     0.074 A 
ATOM     43  C   UNL A   1      38.756  30.854  29.371  1.00  0.00     0.049 A 
ATOM     44  N   UNL A   1      39.963  32.272  31.739  1.00  0.00    -0.248 NA
ATOM     45  C   UNL A   1      38.278  33.879  31.586  1.00  0.00     0.031 C 
ATOM     46  C   UNL A   1      38.177  30.126  28.236  1.00  0.00     0.029 A 
ATOM     47  N   UNL A   1      39.853  30.110  29.715  1.00  0.00    -0.354 N 
ATOM     48  C   UNL A   1      40.159  33.233  32.721  1.00  0.00     0.074 A 
ATOM     49  C   UNL A   1      39.111  34.218  32.561  1.00  0.00     0.031 C 
ATOM     50  C   UNL A   1      38.851  28.985  28.055  1.00  0.00     0.029 A 
ATOM     51  C   UNL A   1      39.954  28.937  29.005  1.00  0.00     0.049 A 
ATOM     52  H   UNL A   1      40.502  30.388  30.400  1.00  0.00     0.167 HD
ATOM     53  C   UNL A   1      41.120  33.277  33.676  1.00  0.00     0.037 A 
ATOM     54  C   UNL A   1      40.838  27.930  29.111  1.00  0.00     0.037 A 
ATOM     55  C   UNL A   1      42.168  32.296  33.811  1.00  0.00     0.049 A 
ATOM     56  C   UNL A   1      41.907  28.027  30.157  1.00  0.00     0.074 A 
ATOM     57  C   UNL A   1      43.214  32.265  34.717  1.00  0.00     0.029 A 
ATOM     58  N   UNL A   1      42.296  31.166  33.015  1.00  0.00    -0.354 N 
ATOM     59  N   UNL A   1      42.075  28.941  31.082  1.00  0.00    -0.248 NA
ATOM     60  C   UNL A   1      42.917  26.963  30.165  1.00  0.00     0.031 C 
ATOM     61  C   UNL A   1      43.994  31.134  34.447  1.00  0.00     0.029 A 
ATOM     62  C   UNL A   1      43.411  30.439  33.400  1.00  0.00     0.049 A 
ATOM     63  H   UNL A   1      41.686  30.919  32.283  1.00  0.00     0.167 HD
ATOM     64  C   UNL A   1      43.211  28.566  31.780  1.00  0.00     0.074 A 
ATOM     65  C   UNL A   1      43.664  27.316  31.201  1.00  0.00     0.031 C 
ATOM     66  C   UNL A   1      43.840  29.202  32.799  1.00  0.00     0.037 A 
BRANCH  53  67
ATOM     67  C   UNL A   1      41.089  34.425  34.642  1.00  0.00     0.057 A 
ATOM     68  C   UNL A   1      41.769  35.619  34.366  1.00  0.00     0.134 A 
ATOM     69  C   UNL A   1      40.423  34.333  35.872  1.00  0.00     0.134 A 
ATOM     70  F   UNL A   1      42.431  35.774  33.210  1.00  0.00    -0.206 F 
ATOM     71  C   UNL A   1      41.793  36.675  35.280  1.00  0.00     0.040 A 
ATOM     72  C   UNL A   1      40.423  35.390  36.785  1.00  0.00     0.040 A 
ATOM     73  F   UNL A   1      39.742  33.222  36.193  1.00  0.00    -0.206 F 
ATOM     74  C   UNL A   1      41.117  36.562  36.493  1.00  0.00     0.006 A 
ENDBRANCH  53  67
BRANCH  54  75
ATOM     75  C   UNL A   1      40.766  26.767  28.190  1.00  0.00     0.057 A 
ATOM     76  C   UNL A   1      39.868  25.717  28.423  1.00  0.00     0.134 A 
ATOM     77  C   UNL A   1      41.571  26.683  27.049  1.00  0.00     0.134 A 
ATOM     78  F   UNL A   1      39.074  25.732  29.503  1.00  0.00    -0.206 F 
ATOM     79  C   UNL A   1      39.776  24.626  27.561  1.00  0.00     0.040 A 
ATOM     80  C   UNL A   1      41.467  25.612  26.159  1.00  0.00     0.040 A 
ATOM     81  F   UNL A   1      42.442  27.662  26.762  1.00  0.00    -0.206 F 
ATOM     82  C   UNL A   1      40.570  24.577  26.416  1.00  0.00     0.006 A 
ENDBRANCH  54  75
BRANCH  66  83
ATOM     83  C   UNL A   1      45.073  28.541  33.335  1.00  0.00     0.057 A 
ATOM     84  C   UNL A   1      46.335  28.856  32.819  1.00  0.00     0.134 A 
ATOM     85  C   UNL A   1      45.009  27.604  34.374  1.00  0.00     0.134 A 
ATOM     86  F   UNL A   1      46.462  29.743  31.821  1.00  0.00    -0.206 F 
ATOM     87  C   UNL A   1      47.493  28.266  33.324  1.00  0.00     0.040 A 
ATOM     88  C   UNL A   1      46.162  27.027  34.905  1.00  0.00     0.040 A 
ATOM     89  F   UNL A   1      43.829  27.277  34.924  1.00  0.00    -0.206 F 
ATOM     90  C   UNL A   1      47.410  27.356  34.376  1.00  0.00     0.006 A 
ENDBRANCH  66  83
ENDBRANCH  40  41
ENDBRANCH  32  35
ENDBRANCH  30  31
ENDBRANCH  29  30
ENDBRANCH   1  29
TORSDOF 13
ENDMDL
