MODEL 1
REMARK VINA RESULT:     -11.8      0.000      0.000
REMARK SMILES C[C@@H](C(=O)NCCCCNC(=O)c1ccc(-c2c3nc(c(-c4c(F)cccc4F)c4ccc([nH]4)c(-c4c(F)cccc4F)c4nc(c(-c5c(F)cccc5F)c5ccc2[nH]5)C=C4)C=C3)cc1)c1cc(/C=C/S(C)(=O)=O)cc(C(=O)c2ccccc2)c1
REMARK SMILES IDX 7 1 6 2 5 3 3 4 4 5 2 7 1 8 67 9 68 10 86 11 69 12 77 13
REMARK SMILES IDX 76 14 70 15 71 16 72 17 73 18 74 19 75 20 78 21 79 22 80 23
REMARK SMILES IDX 81 24 85 25 82 26 84 27 83 28 8 29 9 30 10 31 11 32 12 34
REMARK SMILES IDX 13 35 14 36 66 37 15 38 65 39 16 40 17 41 18 42 59 43 19 44
REMARK SMILES IDX 64 45 58 46 60 47 20 48 63 49 57 50 56 51 21 53 47 54 30 55
REMARK SMILES IDX 46 56 31 57 34 58 45 59 61 60 32 61 33 62 44 64 62 65 35 66
REMARK SMILES IDX 22 67 23 68 28 69 24 70 25 71 27 72 29 73 26 74 48 75 49 76
REMARK SMILES IDX 54 77 50 78 51 79 53 80 55 81 52 82 36 83 37 84 42 85 38 86
REMARK SMILES IDX 39 87 41 88 43 89 40 90
REMARK H PARENT 5 6 10 33 60 52 34 63
REMARK Flexibility Score: inf
ROOT
ATOM      1  C   UNL A   1      32.003  27.591  25.760  1.00  0.00     0.023 C 
ENDROOT
BRANCH   1   2
ATOM      2  C   UNL A   1      31.217  26.281  25.829  1.00  0.00     0.116 C 
BRANCH   2   3
ATOM      3  N   UNL A   1      31.754  25.414  26.855  1.00  0.00    -0.356 N 
ATOM      4  C   UNL A   1      31.709  24.052  26.949  1.00  0.00     0.227 C 
ATOM      5  O   UNL A   1      32.123  23.548  27.994  1.00  0.00    -0.274 OA
ATOM      6  H   UNL A   1      32.217  25.871  27.593  1.00  0.00     0.163 HD
BRANCH   4   7
ATOM      7  C   UNL A   1      31.197  23.230  25.760  1.00  0.00     0.105 C 
ATOM      8  C   UNL A   1      30.009  22.328  26.126  1.00  0.00     0.023 C 
BRANCH   7   9
ATOM      9  C   UNL A   1      32.288  22.372  25.131  1.00  0.00    -0.035 A 
ATOM     10  C   UNL A   1      32.167  20.977  25.085  1.00  0.00     0.012 A 
ATOM     11  C   UNL A   1      33.465  22.961  24.657  1.00  0.00     0.016 A 
ATOM     12  C   UNL A   1      33.220  20.165  24.635  1.00  0.00    -0.024 A 
ATOM     13  C   UNL A   1      34.557  22.180  24.282  1.00  0.00     0.023 A 
ATOM     14  C   UNL A   1      34.425  20.784  24.253  1.00  0.00     0.020 A 
BRANCH  12  15
ATOM     15  C   UNL A   1      33.132  18.690  24.609  1.00  0.00     0.020 C 
ATOM     16  C   UNL A   1      34.164  17.851  24.797  1.00  0.00     0.106 C 
BRANCH  16  17
ATOM     17  S   UNL A   1      33.940  16.133  24.683  1.00  0.00     0.168 S 
ATOM     18  C   UNL A   1      32.462  15.915  25.644  1.00  0.00     0.163 C 
ATOM     19  O   UNL A   1      33.601  15.812  23.308  1.00  0.00    -0.225 OA
ATOM     20  O   UNL A   1      35.004  15.430  25.368  1.00  0.00    -0.225 OA
ENDBRANCH  16  17
ENDBRANCH  12  15
BRANCH  13  21
ATOM     21  C   UNL A   1      35.862  22.818  23.942  1.00  0.00     0.193 C 
ATOM     22  O   UNL A   1      36.003  23.426  22.886  1.00  0.00    -0.289 OA
BRANCH  21  23
ATOM     23  C   UNL A   1      37.009  22.734  24.886  1.00  0.00     0.022 A 
ATOM     24  C   UNL A   1      37.757  21.554  24.927  1.00  0.00     0.012 A 
ATOM     25  C   UNL A   1      37.371  23.823  25.692  1.00  0.00     0.012 A 
ATOM     26  C   UNL A   1      38.895  21.482  25.732  1.00  0.00     0.001 A 
ATOM     27  C   UNL A   1      38.514  23.749  26.490  1.00  0.00     0.001 A 
ATOM     28  C   UNL A   1      39.278  22.582  26.503  1.00  0.00     0.000 A 
ENDBRANCH  21  23
ENDBRANCH  13  21
ENDBRANCH   7   9
ENDBRANCH   4   7
ENDBRANCH   2   3
ENDBRANCH   1   2
BRANCH   1  29
ATOM     29  C   UNL A   1      32.765  27.933  27.041  1.00  0.00     0.023 C 
BRANCH  29  30
ATOM     30  C   UNL A   1      33.986  28.821  26.839  1.00  0.00     0.116 C 
BRANCH  30  31
ATOM     31  N   UNL A   1      33.873  30.098  27.528  1.00  0.00    -0.352 N 
ATOM     32  C   UNL A   1      34.783  30.708  28.355  1.00  0.00     0.251 C 
ATOM     33  H   UNL A   1      33.032  30.588  27.382  1.00  0.00     0.163 HD
ATOM     34  O   UNL A   1      34.479  31.720  28.976  1.00  0.00    -0.269 OA
BRANCH  32  35
ATOM     35  C   UNL A   1      36.123  30.108  28.517  1.00  0.00     0.039 A 
ATOM     36  C   UNL A   1      37.024  30.171  27.453  1.00  0.00     0.014 A 
ATOM     37  C   UNL A   1      36.499  29.533  29.735  1.00  0.00     0.014 A 
ATOM     38  C   UNL A   1      38.333  29.722  27.636  1.00  0.00     0.010 A 
ATOM     39  C   UNL A   1      37.822  29.157  29.936  1.00  0.00     0.010 A 
ATOM     40  C   UNL A   1      38.754  29.253  28.891  1.00  0.00    -0.014 A 
BRANCH  40  41
ATOM     41  C   UNL A   1      40.167  28.877  29.141  1.00  0.00     0.031 A 
ATOM     42  C   UNL A   1      41.112  29.863  29.768  1.00  0.00     0.074 A 
ATOM     43  C   UNL A   1      40.619  27.676  28.729  1.00  0.00     0.049 A 
ATOM     44  N   UNL A   1      42.398  29.756  29.980  1.00  0.00    -0.248 NA
ATOM     45  C   UNL A   1      40.539  31.153  30.187  1.00  0.00     0.031 C 
ATOM     46  C   UNL A   1      39.813  26.649  28.066  1.00  0.00     0.029 A 
ATOM     47  N   UNL A   1      41.873  27.122  28.791  1.00  0.00    -0.354 N 
ATOM     48  C   UNL A   1      42.790  30.964  30.542  1.00  0.00     0.074 A 
ATOM     49  C   UNL A   1      41.617  31.810  30.590  1.00  0.00     0.031 C 
ATOM     50  C   UNL A   1      40.587  25.585  27.799  1.00  0.00     0.029 A 
ATOM     51  C   UNL A   1      41.953  25.870  28.227  1.00  0.00     0.049 A 
ATOM     52  H   UNL A   1      42.645  27.577  29.201  1.00  0.00     0.167 HD
ATOM     53  C   UNL A   1      44.013  31.329  30.994  1.00  0.00     0.037 A 
ATOM     54  C   UNL A   1      43.009  25.053  28.057  1.00  0.00     0.037 A 
ATOM     55  C   UNL A   1      45.173  30.476  30.962  1.00  0.00     0.049 A 
ATOM     56  C   UNL A   1      44.362  25.493  28.549  1.00  0.00     0.074 A 
ATOM     57  C   UNL A   1      46.439  30.729  31.460  1.00  0.00     0.029 A 
ATOM     58  N   UNL A   1      45.209  29.212  30.395  1.00  0.00    -0.354 N 
ATOM     59  N   UNL A   1      44.703  26.607  29.150  1.00  0.00    -0.248 NA
ATOM     60  C   UNL A   1      45.479  24.560  28.338  1.00  0.00     0.031 C 
ATOM     61  C   UNL A   1      47.257  29.640  31.142  1.00  0.00     0.029 A 
ATOM     62  C   UNL A   1      46.487  28.686  30.499  1.00  0.00     0.049 A 
ATOM     63  H   UNL A   1      44.443  28.757  29.979  1.00  0.00     0.167 HD
ATOM     64  C   UNL A   1      46.062  26.498  29.414  1.00  0.00     0.074 A 
ATOM     65  C   UNL A   1      46.481  25.202  28.920  1.00  0.00     0.031 C 
ATOM     66  C   UNL A   1      46.888  27.391  30.009  1.00  0.00     0.037 A 
BRANCH  53  67
ATOM     67  C   UNL A   1      44.162  32.711  31.559  1.00  0.00     0.057 A 
ATOM     68  C   UNL A   1      44.514  33.806  30.758  1.00  0.00     0.134 A 
ATOM     69  C   UNL A   1      43.908  32.960  32.914  1.00  0.00     0.134 A 
ATOM     70  F   UNL A   1      44.781  33.637  29.454  1.00  0.00    -0.206 F 
ATOM     71  C   UNL A   1      44.633  35.092  31.289  1.00  0.00     0.040 A 
ATOM     72  C   UNL A   1      43.995  34.246  33.451  1.00  0.00     0.040 A 
ATOM     73  F   UNL A   1      43.560  31.959  33.737  1.00  0.00    -0.206 F 
ATOM     74  C   UNL A   1      44.366  35.315  32.638  1.00  0.00     0.006 A 
ENDBRANCH  53  67
BRANCH  54  75
ATOM     75  C   UNL A   1      42.835  23.735  27.396  1.00  0.00     0.057 A 
ATOM     76  C   UNL A   1      42.567  22.581  28.143  1.00  0.00     0.134 A 
ATOM     77  C   UNL A   1      42.947  23.592  26.008  1.00  0.00     0.134 A 
ATOM     78  F   UNL A   1      42.466  22.650  29.478  1.00  0.00    -0.206 F 
ATOM     79  C   UNL A   1      42.441  21.330  27.536  1.00  0.00     0.040 A 
ATOM     80  C   UNL A   1      42.795  22.351  25.386  1.00  0.00     0.040 A 
ATOM     81  F   UNL A   1      43.194  24.659  25.234  1.00  0.00    -0.206 F 
ATOM     82  C   UNL A   1      42.549  21.214  26.152  1.00  0.00     0.006 A 
ENDBRANCH  54  75
BRANCH  66  83
ATOM     83  C   UNL A   1      48.323  26.989  30.195  1.00  0.00     0.057 A 
ATOM     84  C   UNL A   1      49.315  27.341  29.271  1.00  0.00     0.134 A 
ATOM     85  C   UNL A   1      48.723  26.287  31.339  1.00  0.00     0.134 A 
ATOM     86  F   UNL A   1      48.996  28.001  28.148  1.00  0.00    -0.206 F 
ATOM     87  C   UNL A   1      50.653  26.993  29.472  1.00  0.00     0.040 A 
ATOM     88  C   UNL A   1      50.061  25.960  31.565  1.00  0.00     0.040 A 
ATOM     89  F   UNL A   1      47.824  25.927  32.267  1.00  0.00    -0.206 F 
ATOM     90  C   UNL A   1      51.029  26.309  30.626  1.00  0.00     0.006 A 
ENDBRANCH  66  83
ENDBRANCH  40  41
ENDBRANCH  32  35
ENDBRANCH  30  31
ENDBRANCH  29  30
ENDBRANCH   1  29
TORSDOF 16
ENDMDL
MODEL 2
REMARK VINA RESULT:     -11.7      2.853      6.558
REMARK SMILES C[C@@H](C(=O)NCCCCNC(=O)c1ccc(-c2c3nc(c(-c4c(F)cccc4F)c4ccc([nH]4)c(-c4c(F)cccc4F)c4nc(c(-c5c(F)cccc5F)c5ccc2[nH]5)C=C4)C=C3)cc1)c1cc(/C=C/S(C)(=O)=O)cc(C(=O)c2ccccc2)c1
REMARK SMILES IDX 7 1 6 2 5 3 3 4 4 5 2 7 1 8 67 9 68 10 86 11 69 12 77 13
REMARK SMILES IDX 76 14 70 15 71 16 72 17 73 18 74 19 75 20 78 21 79 22 80 23
REMARK SMILES IDX 81 24 85 25 82 26 84 27 83 28 8 29 9 30 10 31 11 32 12 34
REMARK SMILES IDX 13 35 14 36 66 37 15 38 65 39 16 40 17 41 18 42 59 43 19 44
REMARK SMILES IDX 64 45 58 46 60 47 20 48 63 49 57 50 56 51 21 53 47 54 30 55
REMARK SMILES IDX 46 56 31 57 34 58 45 59 61 60 32 61 33 62 44 64 62 65 35 66
REMARK SMILES IDX 22 67 23 68 28 69 24 70 25 71 27 72 29 73 26 74 48 75 49 76
REMARK SMILES IDX 54 77 50 78 51 79 53 80 55 81 52 82 36 83 37 84 42 85 38 86
REMARK SMILES IDX 39 87 41 88 43 89 40 90
REMARK H PARENT 5 6 10 33 60 52 34 63
REMARK Flexibility Score: inf
ROOT
ATOM      1  C   UNL A   1      31.646  27.628  25.707  1.00  0.00     0.023 C 
ENDROOT
BRANCH   1   2
ATOM      2  C   UNL A   1      31.036  26.226  25.747  1.00  0.00     0.116 C 
BRANCH   2   3
ATOM      3  N   UNL A   1      31.660  25.424  26.778  1.00  0.00    -0.356 N 
ATOM      4  C   UNL A   1      31.735  24.065  26.893  1.00  0.00     0.227 C 
ATOM      5  O   UNL A   1      32.204  23.615  27.939  1.00  0.00    -0.274 OA
ATOM      6  H   UNL A   1      32.092  25.931  27.503  1.00  0.00     0.163 HD
BRANCH   4   7
ATOM      7  C   UNL A   1      31.280  23.183  25.724  1.00  0.00     0.105 C 
ATOM      8  C   UNL A   1      30.135  22.233  26.103  1.00  0.00     0.023 C 
BRANCH   7   9
ATOM      9  C   UNL A   1      32.421  22.364  25.133  1.00  0.00    -0.035 A 
ATOM     10  C   UNL A   1      32.353  20.966  25.089  1.00  0.00     0.012 A 
ATOM     11  C   UNL A   1      33.589  22.995  24.693  1.00  0.00     0.016 A 
ATOM     12  C   UNL A   1      33.449  20.192  24.676  1.00  0.00    -0.024 A 
ATOM     13  C   UNL A   1      34.720  22.254  24.355  1.00  0.00     0.023 A 
ATOM     14  C   UNL A   1      34.641  20.854  24.328  1.00  0.00     0.020 A 
BRANCH  12  15
ATOM     15  C   UNL A   1      33.416  18.715  24.654  1.00  0.00     0.020 C 
ATOM     16  C   UNL A   1      34.498  17.919  24.632  1.00  0.00     0.106 C 
BRANCH  16  17
ATOM     17  S   UNL A   1      34.325  16.193  24.547  1.00  0.00     0.168 S 
ATOM     18  C   UNL A   1      32.776  15.961  25.388  1.00  0.00     0.163 C 
ATOM     19  O   UNL A   1      34.110  15.827  23.158  1.00  0.00    -0.225 OA
ATOM     20  O   UNL A   1      35.344  15.536  25.339  1.00  0.00    -0.225 OA
ENDBRANCH  16  17
ENDBRANCH  12  15
BRANCH  13  21
ATOM     21  C   UNL A   1      36.011  22.939  24.053  1.00  0.00     0.193 C 
ATOM     22  O   UNL A   1      36.171  23.525  22.987  1.00  0.00    -0.289 OA
BRANCH  21  23
ATOM     23  C   UNL A   1      37.119  22.929  25.046  1.00  0.00     0.022 A 
ATOM     24  C   UNL A   1      37.911  21.782  25.154  1.00  0.00     0.012 A 
ATOM     25  C   UNL A   1      37.402  24.054  25.833  1.00  0.00     0.012 A 
ATOM     26  C   UNL A   1      39.015  21.781  26.008  1.00  0.00     0.001 A 
ATOM     27  C   UNL A   1      38.512  24.050  26.680  1.00  0.00     0.001 A 
ATOM     28  C   UNL A   1      39.321  22.916  26.761  1.00  0.00     0.000 A 
ENDBRANCH  21  23
ENDBRANCH  13  21
ENDBRANCH   7   9
ENDBRANCH   4   7
ENDBRANCH   2   3
ENDBRANCH   1   2
BRANCH   1  29
ATOM     29  C   UNL A   1      32.973  27.713  24.952  1.00  0.00     0.023 C 
BRANCH  29  30
ATOM     30  C   UNL A   1      33.694  29.049  25.079  1.00  0.00     0.116 C 
BRANCH  30  31
ATOM     31  N   UNL A   1      32.801  30.136  25.452  1.00  0.00    -0.352 N 
ATOM     32  C   UNL A   1      32.859  30.951  26.556  1.00  0.00     0.251 C 
ATOM     33  H   UNL A   1      32.057  30.310  24.831  1.00  0.00     0.163 HD
ATOM     34  O   UNL A   1      31.945  31.730  26.803  1.00  0.00    -0.269 OA
BRANCH  32  35
ATOM     35  C   UNL A   1      34.018  30.849  27.465  1.00  0.00     0.039 A 
ATOM     36  C   UNL A   1      34.312  29.615  28.049  1.00  0.00     0.014 A 
ATOM     37  C   UNL A   1      34.838  31.958  27.695  1.00  0.00     0.014 A 
ATOM     38  C   UNL A   1      35.475  29.475  28.807  1.00  0.00     0.010 A 
ATOM     39  C   UNL A   1      36.034  31.795  28.387  1.00  0.00     0.010 A 
ATOM     40  C   UNL A   1      36.367  30.551  28.944  1.00  0.00    -0.014 A 
BRANCH  40  41
ATOM     41  C   UNL A   1      37.663  30.395  29.649  1.00  0.00     0.031 A 
ATOM     42  C   UNL A   1      38.772  29.598  29.022  1.00  0.00     0.074 A 
ATOM     43  C   UNL A   1      37.812  30.903  30.889  1.00  0.00     0.049 A 
ATOM     44  N   UNL A   1      39.938  29.271  29.519  1.00  0.00    -0.248 NA
ATOM     45  C   UNL A   1      38.528  29.076  27.668  1.00  0.00     0.031 C 
ATOM     46  C   UNL A   1      36.794  31.656  31.624  1.00  0.00     0.029 A 
ATOM     47  N   UNL A   1      38.873  30.847  31.758  1.00  0.00    -0.354 N 
ATOM     48  C   UNL A   1      40.557  28.496  28.548  1.00  0.00     0.074 A 
ATOM     49  C   UNL A   1      39.619  28.357  27.455  1.00  0.00     0.031 C 
ATOM     50  C   UNL A   1      37.286  32.006  32.823  1.00  0.00     0.029 A 
ATOM     51  C   UNL A   1      38.634  31.464  32.963  1.00  0.00     0.049 A 
ATOM     52  H   UNL A   1      39.727  30.407  31.539  1.00  0.00     0.167 HD
ATOM     53  C   UNL A   1      41.802  27.964  28.558  1.00  0.00     0.037 A 
ATOM     54  C   UNL A   1      39.405  31.565  34.062  1.00  0.00     0.037 A 
ATOM     55  C   UNL A   1      42.739  28.122  29.640  1.00  0.00     0.049 A 
ATOM     56  C   UNL A   1      40.775  30.945  34.055  1.00  0.00     0.074 A 
ATOM     57  C   UNL A   1      44.048  27.680  29.715  1.00  0.00     0.029 A 
ATOM     58  N   UNL A   1      42.462  28.764  30.838  1.00  0.00    -0.354 N 
ATOM     59  N   UNL A   1      41.379  30.282  33.099  1.00  0.00    -0.248 NA
ATOM     60  C   UNL A   1      41.573  31.088  35.281  1.00  0.00     0.031 C 
ATOM     61  C   UNL A   1      44.546  28.005  30.981  1.00  0.00     0.029 A 
ATOM     62  C   UNL A   1      43.566  28.700  31.672  1.00  0.00     0.049 A 
ATOM     63  H   UNL A   1      41.609  29.199  31.062  1.00  0.00     0.167 HD
ATOM     64  C   UNL A   1      42.634  29.954  33.596  1.00  0.00     0.074 A 
ATOM     65  C   UNL A   1      42.710  30.503  34.934  1.00  0.00     0.031 C 
ATOM     66  C   UNL A   1      43.631  29.258  32.999  1.00  0.00     0.037 A 
BRANCH  53  67
ATOM     67  C   UNL A   1      42.224  27.157  27.365  1.00  0.00     0.057 A 
ATOM     68  C   UNL A   1      42.042  25.769  27.307  1.00  0.00     0.134 A 
ATOM     69  C   UNL A   1      42.780  27.781  26.241  1.00  0.00     0.134 A 
ATOM     70  F   UNL A   1      41.524  25.106  28.352  1.00  0.00    -0.206 F 
ATOM     71  C   UNL A   1      42.421  25.028  26.185  1.00  0.00     0.040 A 
ATOM     72  C   UNL A   1      43.136  27.056  25.102  1.00  0.00     0.040 A 
ATOM     73  F   UNL A   1      42.976  29.108  26.226  1.00  0.00    -0.206 F 
ATOM     74  C   UNL A   1      42.963  25.674  25.076  1.00  0.00     0.006 A 
ENDBRANCH  53  67
BRANCH  54  75
ATOM     75  C   UNL A   1      38.904  32.285  35.261  1.00  0.00     0.057 A 
ATOM     76  C   UNL A   1      38.296  31.595  36.317  1.00  0.00     0.134 A 
ATOM     77  C   UNL A   1      39.004  33.677  35.374  1.00  0.00     0.134 A 
ATOM     78  F   UNL A   1      38.154  30.263  36.260  1.00  0.00    -0.206 F 
ATOM     79  C   UNL A   1      37.785  32.264  37.431  1.00  0.00     0.040 A 
ATOM     80  C   UNL A   1      38.523  34.356  36.495  1.00  0.00     0.040 A 
ATOM     81  F   UNL A   1      39.583  34.396  34.402  1.00  0.00    -0.206 F 
ATOM     82  C   UNL A   1      37.904  33.649  37.524  1.00  0.00     0.006 A 
ENDBRANCH  54  75
BRANCH  66  83
ATOM     83  C   UNL A   1      44.907  29.079  33.770  1.00  0.00     0.057 A 
ATOM     84  C   UNL A   1      45.148  27.940  34.548  1.00  0.00     0.134 A 
ATOM     85  C   UNL A   1      45.928  30.035  33.688  1.00  0.00     0.134 A 
ATOM     86  F   UNL A   1      44.206  26.994  34.679  1.00  0.00    -0.206 F 
ATOM     87  C   UNL A   1      46.354  27.767  35.231  1.00  0.00     0.040 A 
ATOM     88  C   UNL A   1      47.148  29.859  34.343  1.00  0.00     0.040 A 
ATOM     89  F   UNL A   1      45.765  31.145  32.953  1.00  0.00    -0.206 F 
ATOM     90  C   UNL A   1      47.361  28.724  35.122  1.00  0.00     0.006 A 
ENDBRANCH  66  83
ENDBRANCH  40  41
ENDBRANCH  32  35
ENDBRANCH  30  31
ENDBRANCH  29  30
ENDBRANCH   1  29
TORSDOF 16
ENDMDL
MODEL 3
REMARK VINA RESULT:     -11.7      3.224      8.166
REMARK SMILES C[C@@H](C(=O)NCCCCNC(=O)c1ccc(-c2c3nc(c(-c4c(F)cccc4F)c4ccc([nH]4)c(-c4c(F)cccc4F)c4nc(c(-c5c(F)cccc5F)c5ccc2[nH]5)C=C4)C=C3)cc1)c1cc(/C=C/S(C)(=O)=O)cc(C(=O)c2ccccc2)c1
REMARK SMILES IDX 7 1 6 2 5 3 3 4 4 5 2 7 1 8 67 9 68 10 86 11 69 12 77 13
REMARK SMILES IDX 76 14 70 15 71 16 72 17 73 18 74 19 75 20 78 21 79 22 80 23
REMARK SMILES IDX 81 24 85 25 82 26 84 27 83 28 8 29 9 30 10 31 11 32 12 34
REMARK SMILES IDX 13 35 14 36 66 37 15 38 65 39 16 40 17 41 18 42 59 43 19 44
REMARK SMILES IDX 64 45 58 46 60 47 20 48 63 49 57 50 56 51 21 53 47 54 30 55
REMARK SMILES IDX 46 56 31 57 34 58 45 59 61 60 32 61 33 62 44 64 62 65 35 66
REMARK SMILES IDX 22 67 23 68 28 69 24 70 25 71 27 72 29 73 26 74 48 75 49 76
REMARK SMILES IDX 54 77 50 78 51 79 53 80 55 81 52 82 36 83 37 84 42 85 38 86
REMARK SMILES IDX 39 87 41 88 43 89 40 90
REMARK H PARENT 5 6 10 33 60 52 34 63
REMARK Flexibility Score: inf
ROOT
ATOM      1  C   UNL A   1      36.889  20.250  25.007  1.00  0.00     0.023 C 
ENDROOT
BRANCH   1   2
ATOM      2  C   UNL A   1      36.997  21.629  25.659  1.00  0.00     0.116 C 
BRANCH   2   3
ATOM      3  N   UNL A   1      35.848  21.891  26.500  1.00  0.00    -0.356 N 
ATOM      4  C   UNL A   1      34.975  22.940  26.472  1.00  0.00     0.227 C 
ATOM      5  O   UNL A   1      34.151  23.009  27.384  1.00  0.00    -0.274 OA
ATOM      6  H   UNL A   1      35.670  21.215  27.192  1.00  0.00     0.163 HD
BRANCH   4   7
ATOM      7  C   UNL A   1      35.032  23.939  25.310  1.00  0.00     0.105 C 
ATOM      8  C   UNL A   1      35.053  25.402  25.780  1.00  0.00     0.023 C 
BRANCH   7   9
ATOM      9  C   UNL A   1      33.882  23.758  24.327  1.00  0.00    -0.035 A 
ATOM     10  C   UNL A   1      33.000  24.811  24.052  1.00  0.00     0.012 A 
ATOM     11  C   UNL A   1      33.645  22.510  23.741  1.00  0.00     0.016 A 
ATOM     12  C   UNL A   1      31.858  24.620  23.257  1.00  0.00    -0.024 A 
ATOM     13  C   UNL A   1      32.479  22.269  23.016  1.00  0.00     0.023 A 
ATOM     14  C   UNL A   1      31.598  23.330  22.759  1.00  0.00     0.020 A 
BRANCH  12  15
ATOM     15  C   UNL A   1      30.893  25.704  22.980  1.00  0.00     0.020 C 
ATOM     16  C   UNL A   1      31.050  26.989  23.338  1.00  0.00     0.106 C 
BRANCH  16  17
ATOM     17  S   UNL A   1      29.812  28.159  23.003  1.00  0.00     0.168 S 
ATOM     18  C   UNL A   1      30.329  29.511  24.035  1.00  0.00     0.163 C 
ATOM     19  O   UNL A   1      29.964  28.597  21.627  1.00  0.00    -0.225 OA
ATOM     20  O   UNL A   1      28.530  27.707  23.501  1.00  0.00    -0.225 OA
ENDBRANCH  16  17
ENDBRANCH  12  15
BRANCH  13  21
ATOM     21  C   UNL A   1      32.153  20.892  22.542  1.00  0.00     0.193 C 
ATOM     22  O   UNL A   1      31.675  20.714  21.426  1.00  0.00    -0.289 OA
BRANCH  21  23
ATOM     23  C   UNL A   1      32.414  19.714  23.413  1.00  0.00     0.022 A 
ATOM     24  C   UNL A   1      32.564  18.460  22.815  1.00  0.00     0.012 A 
ATOM     25  C   UNL A   1      32.554  19.852  24.802  1.00  0.00     0.012 A 
ATOM     26  C   UNL A   1      32.904  17.355  23.598  1.00  0.00     0.001 A 
ATOM     27  C   UNL A   1      32.902  18.745  25.579  1.00  0.00     0.001 A 
ATOM     28  C   UNL A   1      33.084  17.501  24.975  1.00  0.00     0.000 A 
ENDBRANCH  21  23
ENDBRANCH  13  21
ENDBRANCH   7   9
ENDBRANCH   4   7
ENDBRANCH   2   3
ENDBRANCH   1   2
BRANCH   1  29
ATOM     29  C   UNL A   1      38.236  19.579  24.735  1.00  0.00     0.023 C 
BRANCH  29  30
ATOM     30  C   UNL A   1      39.332  19.916  25.738  1.00  0.00     0.116 C 
BRANCH  30  31
ATOM     31  N   UNL A   1      40.308  18.847  25.884  1.00  0.00    -0.352 N 
ATOM     32  C   UNL A   1      41.655  18.946  26.134  1.00  0.00     0.251 C 
ATOM     33  H   UNL A   1      39.957  17.932  25.790  1.00  0.00     0.163 HD
ATOM     34  O   UNL A   1      42.371  17.952  26.086  1.00  0.00    -0.269 OA
BRANCH  32  35
ATOM     35  C   UNL A   1      42.237  20.271  26.424  1.00  0.00     0.039 A 
ATOM     36  C   UNL A   1      42.775  21.017  25.373  1.00  0.00     0.014 A 
ATOM     37  C   UNL A   1      42.202  20.793  27.721  1.00  0.00     0.014 A 
ATOM     38  C   UNL A   1      43.212  22.321  25.611  1.00  0.00     0.010 A 
ATOM     39  C   UNL A   1      42.567  22.117  27.938  1.00  0.00     0.010 A 
ATOM     40  C   UNL A   1      43.070  22.896  26.885  1.00  0.00    -0.014 A 
BRANCH  40  41
ATOM     41  C   UNL A   1      43.422  24.315  27.135  1.00  0.00     0.031 A 
ATOM     42  C   UNL A   1      44.853  24.765  27.044  1.00  0.00     0.074 A 
ATOM     43  C   UNL A   1      42.464  25.180  27.523  1.00  0.00     0.049 A 
ATOM     44  N   UNL A   1      45.370  25.936  27.317  1.00  0.00    -0.248 NA
ATOM     45  C   UNL A   1      45.838  23.758  26.617  1.00  0.00     0.031 C 
ATOM     46  C   UNL A   1      41.047  24.855  27.693  1.00  0.00     0.029 A 
ATOM     47  N   UNL A   1      42.541  26.508  27.862  1.00  0.00    -0.354 N 
ATOM     48  C   UNL A   1      46.737  25.802  27.109  1.00  0.00     0.074 A 
ATOM     49  C   UNL A   1      46.976  24.424  26.738  1.00  0.00     0.031 C 
ATOM     50  C   UNL A   1      40.386  25.955  28.087  1.00  0.00     0.029 A 
ATOM     51  C   UNL A   1      41.337  27.051  28.243  1.00  0.00     0.049 A 
ATOM     52  H   UNL A   1      43.380  27.024  27.835  1.00  0.00     0.167 HD
ATOM     53  C   UNL A   1      47.702  26.747  27.201  1.00  0.00     0.037 A 
ATOM     54  C   UNL A   1      41.036  28.287  28.686  1.00  0.00     0.037 A 
ATOM     55  C   UNL A   1      47.456  28.122  27.551  1.00  0.00     0.049 A 
ATOM     56  C   UNL A   1      42.132  29.311  28.800  1.00  0.00     0.074 A 
ATOM     57  C   UNL A   1      48.357  29.170  27.602  1.00  0.00     0.029 A 
ATOM     58  N   UNL A   1      46.221  28.635  27.918  1.00  0.00    -0.354 N 
ATOM     59  N   UNL A   1      43.408  29.193  28.524  1.00  0.00    -0.248 NA
ATOM     60  C   UNL A   1      41.745  30.643  29.288  1.00  0.00     0.031 C 
ATOM     61  C   UNL A   1      47.679  30.306  28.055  1.00  0.00     0.029 A 
ATOM     62  C   UNL A   1      46.344  29.979  28.230  1.00  0.00     0.049 A 
ATOM     63  H   UNL A   1      45.383  28.121  27.952  1.00  0.00     0.167 HD
ATOM     64  C   UNL A   1      43.970  30.438  28.777  1.00  0.00     0.074 A 
ATOM     65  C   UNL A   1      42.893  31.302  29.214  1.00  0.00     0.031 C 
ATOM     66  C   UNL A   1      45.261  30.829  28.658  1.00  0.00     0.037 A 
BRANCH  53  67
ATOM     67  C   UNL A   1      49.116  26.327  26.921  1.00  0.00     0.057 A 
ATOM     68  C   UNL A   1      49.658  26.361  25.630  1.00  0.00     0.134 A 
ATOM     69  C   UNL A   1      49.961  25.926  27.964  1.00  0.00     0.134 A 
ATOM     70  F   UNL A   1      48.900  26.725  24.583  1.00  0.00    -0.206 F 
ATOM     71  C   UNL A   1      50.980  25.987  25.382  1.00  0.00     0.040 A 
ATOM     72  C   UNL A   1      51.293  25.578  27.733  1.00  0.00     0.040 A 
ATOM     73  F   UNL A   1      49.510  25.878  29.226  1.00  0.00    -0.206 F 
ATOM     74  C   UNL A   1      51.803  25.601  26.437  1.00  0.00     0.006 A 
ENDBRANCH  53  67
BRANCH  54  75
ATOM     75  C   UNL A   1      39.638  28.628  29.052  1.00  0.00     0.057 A 
ATOM     76  C   UNL A   1      38.761  29.190  28.116  1.00  0.00     0.134 A 
ATOM     77  C   UNL A   1      39.148  28.418  30.347  1.00  0.00     0.134 A 
ATOM     78  F   UNL A   1      39.177  29.432  26.864  1.00  0.00    -0.206 F 
ATOM     79  C   UNL A   1      37.457  29.552  28.459  1.00  0.00     0.040 A 
ATOM     80  C   UNL A   1      37.838  28.749  30.696  1.00  0.00     0.040 A 
ATOM     81  F   UNL A   1      39.933  27.875  31.289  1.00  0.00    -0.206 F 
ATOM     82  C   UNL A   1      36.991  29.327  29.753  1.00  0.00     0.006 A 
ENDBRANCH  54  75
BRANCH  66  83
ATOM     83  C   UNL A   1      45.582  32.262  28.972  1.00  0.00     0.057 A 
ATOM     84  C   UNL A   1      46.014  32.663  30.242  1.00  0.00     0.134 A 
ATOM     85  C   UNL A   1      45.507  33.243  27.974  1.00  0.00     0.134 A 
ATOM     86  F   UNL A   1      46.094  31.775  31.245  1.00  0.00    -0.206 F 
ATOM     87  C   UNL A   1      46.344  33.992  30.513  1.00  0.00     0.040 A 
ATOM     88  C   UNL A   1      45.863  34.569  28.226  1.00  0.00     0.040 A 
ATOM     89  F   UNL A   1      45.108  32.924  26.734  1.00  0.00    -0.206 F 
ATOM     90  C   UNL A   1      46.278  34.947  29.501  1.00  0.00     0.006 A 
ENDBRANCH  66  83
ENDBRANCH  40  41
ENDBRANCH  32  35
ENDBRANCH  30  31
ENDBRANCH  29  30
ENDBRANCH   1  29
TORSDOF 16
ENDMDL
