MODEL 1
REMARK VINA RESULT:     -12.2      0.000      0.000
REMARK SMILES CC(C)CSc1cc2c(cc1Cl)C=C(C(=O)NCCCCNC(=O)c1ccc(-c3c4nc(c(-c5c(F)cccc5F)c5ccc([nH]5)c(-c5c(F)cccc5F)c5nc(c(-c6c(F)cccc6F)c6ccc3[nH]6)C=C5)C=C4)cc1)[C@H](C(F)(F)F)O2
REMARK SMILES IDX 19 1 18 2 17 3 15 4 16 5 14 7 6 8 7 9 11 10 8 11 10 12 12 13
REMARK SMILES IDX 9 14 84 15 13 16 79 17 5 18 4 19 2 20 1 21 3 22 80 23 81 24
REMARK SMILES IDX 82 25 83 26 20 27 21 28 22 29 23 30 24 32 25 33 26 34 78 35
REMARK SMILES IDX 27 36 77 37 28 38 29 39 30 40 71 41 31 42 76 43 70 44 72 45
REMARK SMILES IDX 32 46 75 47 69 48 68 49 33 51 59 52 42 53 58 54 43 55 46 56
REMARK SMILES IDX 57 57 73 58 44 59 45 60 56 62 74 63 47 64 34 65 35 66 40 67
REMARK SMILES IDX 36 68 37 69 39 70 41 71 38 72 60 73 61 74 66 75 62 76 63 77
REMARK SMILES IDX 65 78 67 79 64 80 48 81 49 82 54 83 50 84 51 85 53 86 55 87
REMARK SMILES IDX 52 88
REMARK H PARENT 17 6 22 31 72 50 46 61
REMARK Flexibility Score: inf
ROOT
ATOM      1  C   UNL A   1      36.221  20.888  25.252  1.00  0.00     0.023 C 
ENDROOT
BRANCH   1   2
ATOM      2  C   UNL A   1      35.087  21.877  25.512  1.00  0.00     0.116 C 
BRANCH   2   3
ATOM      3  N   UNL A   1      33.787  21.230  25.495  1.00  0.00    -0.352 N 
ATOM      4  C   UNL A   1      32.519  21.569  25.165  1.00  0.00     0.251 C 
ATOM      5  O   UNL A   1      31.701  20.645  25.235  1.00  0.00    -0.270 OA
ATOM      6  H   UNL A   1      33.844  20.299  25.806  1.00  0.00     0.163 HD
BRANCH   4   7
ATOM      7  C   UNL A   1      32.058  22.926  24.751  1.00  0.00     0.067 C 
ATOM      8  C   UNL A   1      30.858  27.821  24.622  1.00  0.00     0.030 A 
ATOM      9  C   UNL A   1      30.655  26.737  23.761  1.00  0.00     0.063 A 
ATOM     10  C   UNL A   1      31.344  27.545  25.920  1.00  0.00     0.055 A 
ATOM     11  C   UNL A   1      31.037  25.452  24.135  1.00  0.00     0.129 A 
ATOM     12  C   UNL A   1      31.659  26.235  26.314  1.00  0.00     0.033 A 
ATOM     13  Cl  UNL A   1      31.597  28.785  27.106  1.00  0.00    -0.083 Cl
ATOM     14  C   UNL A   1      31.528  25.185  25.410  1.00  0.00     0.019 A 
ATOM     15  O   UNL A   1      30.918  24.471  23.186  1.00  0.00    -0.475 OA
ATOM     16  C   UNL A   1      31.884  23.812  25.753  1.00  0.00     0.025 C 
ATOM     17  C   UNL A   1      31.883  23.388  23.330  1.00  0.00     0.314 C 
BRANCH   8  18
ATOM     18  S   UNL A   1      30.516  29.507  24.099  1.00  0.00    -0.124 SA
BRANCH  18  19
ATOM     19  C   UNL A   1      29.558  29.361  22.540  1.00  0.00     0.078 C 
BRANCH  19  20
ATOM     20  C   UNL A   1      28.067  29.744  22.615  1.00  0.00    -0.007 C 
ATOM     21  C   UNL A   1      27.164  28.666  23.214  1.00  0.00     0.008 C 
ATOM     22  C   UNL A   1      27.927  31.023  23.451  1.00  0.00     0.008 C 
ENDBRANCH  19  20
ENDBRANCH  18  19
ENDBRANCH   8  18
BRANCH  17  23
ATOM     23  C   UNL A   1      33.211  23.741  22.632  1.00  0.00     0.429 C 
ATOM     24  F   UNL A   1      34.040  24.457  23.425  1.00  0.00    -0.167 F 
ATOM     25  F   UNL A   1      33.877  22.606  22.295  1.00  0.00    -0.167 F 
ATOM     26  F   UNL A   1      33.043  24.456  21.498  1.00  0.00    -0.167 F 
ENDBRANCH  17  23
ENDBRANCH   4   7
ENDBRANCH   2   3
ENDBRANCH   1   2
BRANCH   1  27
ATOM     27  C   UNL A   1      37.535  21.530  24.800  1.00  0.00     0.023 C 
BRANCH  27  28
ATOM     28  C   UNL A   1      38.687  21.395  25.787  1.00  0.00     0.116 C 
BRANCH  28  29
ATOM     29  N   UNL A   1      39.432  20.151  25.664  1.00  0.00    -0.352 N 
ATOM     30  C   UNL A   1      40.748  19.933  26.005  1.00  0.00     0.251 C 
ATOM     31  H   UNL A   1      38.941  19.381  25.296  1.00  0.00     0.163 HD
ATOM     32  O   UNL A   1      41.291  18.853  25.803  1.00  0.00    -0.269 OA
BRANCH  30  33
ATOM     33  C   UNL A   1      41.509  21.066  26.562  1.00  0.00     0.039 A 
ATOM     34  C   UNL A   1      41.514  21.286  27.941  1.00  0.00     0.014 A 
ATOM     35  C   UNL A   1      42.081  21.988  25.682  1.00  0.00     0.014 A 
ATOM     36  C   UNL A   1      41.948  22.511  28.429  1.00  0.00     0.010 A 
ATOM     37  C   UNL A   1      42.576  23.192  26.185  1.00  0.00     0.010 A 
ATOM     38  C   UNL A   1      42.458  23.483  27.553  1.00  0.00    -0.014 A 
BRANCH  38  39
ATOM     39  C   UNL A   1      42.819  24.821  28.078  1.00  0.00     0.031 A 
ATOM     40  C   UNL A   1      41.754  25.853  28.332  1.00  0.00     0.074 A 
ATOM     41  C   UNL A   1      44.103  25.085  28.382  1.00  0.00     0.049 A 
ATOM     42  N   UNL A   1      41.883  27.085  28.756  1.00  0.00    -0.248 NA
ATOM     43  C   UNL A   1      40.361  25.451  28.080  1.00  0.00     0.031 C 
ATOM     44  C   UNL A   1      45.217  24.151  28.212  1.00  0.00     0.029 A 
ATOM     45  N   UNL A   1      44.680  26.206  28.915  1.00  0.00    -0.354 N 
ATOM     46  C   UNL A   1      40.599  27.611  28.794  1.00  0.00     0.074 A 
ATOM     47  C   UNL A   1      39.701  26.571  28.342  1.00  0.00     0.031 C 
ATOM     48  C   UNL A   1      46.339  24.722  28.679  1.00  0.00     0.029 A 
ATOM     49  C   UNL A   1      46.031  26.079  29.118  1.00  0.00     0.049 A 
ATOM     50  H   UNL A   1      44.176  27.024  29.132  1.00  0.00     0.167 HD
ATOM     51  C   UNL A   1      40.205  28.850  29.178  1.00  0.00     0.037 A 
ATOM     52  C   UNL A   1      46.927  26.965  29.587  1.00  0.00     0.037 A 
ATOM     53  C   UNL A   1      41.093  29.871  29.663  1.00  0.00     0.049 A 
ATOM     54  C   UNL A   1      46.474  28.348  29.942  1.00  0.00     0.074 A 
ATOM     55  C   UNL A   1      40.785  31.141  30.120  1.00  0.00     0.029 A 
ATOM     56  N   UNL A   1      42.470  29.737  29.756  1.00  0.00    -0.354 N 
ATOM     57  N   UNL A   1      45.260  28.842  29.945  1.00  0.00    -0.248 NA
ATOM     58  C   UNL A   1      47.519  29.307  30.325  1.00  0.00     0.031 C 
ATOM     59  C   UNL A   1      41.980  31.786  30.462  1.00  0.00     0.029 A 
ATOM     60  C   UNL A   1      43.027  30.909  30.237  1.00  0.00     0.049 A 
ATOM     61  H   UNL A   1      42.975  28.927  29.515  1.00  0.00     0.167 HD
ATOM     62  C   UNL A   1      45.395  30.173  30.313  1.00  0.00     0.074 A 
ATOM     63  C   UNL A   1      46.805  30.401  30.553  1.00  0.00     0.031 C 
ATOM     64  C   UNL A   1      44.438  31.123  30.432  1.00  0.00     0.037 A 
BRANCH  51  65
ATOM     65  C   UNL A   1      38.745  29.172  29.072  1.00  0.00     0.057 A 
ATOM     66  C   UNL A   1      38.195  29.580  27.850  1.00  0.00     0.134 A 
ATOM     67  C   UNL A   1      37.894  29.117  30.182  1.00  0.00     0.134 A 
ATOM     68  F   UNL A   1      38.960  29.653  26.750  1.00  0.00    -0.206 F 
ATOM     69  C   UNL A   1      36.847  29.924  27.737  1.00  0.00     0.040 A 
ATOM     70  C   UNL A   1      36.541  29.445  30.078  1.00  0.00     0.040 A 
ATOM     71  F   UNL A   1      38.359  28.719  31.375  1.00  0.00    -0.206 F 
ATOM     72  C   UNL A   1      36.015  29.855  28.853  1.00  0.00     0.006 A 
ENDBRANCH  51  65
BRANCH  52  73
ATOM     73  C   UNL A   1      48.349  26.573  29.705  1.00  0.00     0.057 A 
ATOM     74  C   UNL A   1      48.836  25.939  30.853  1.00  0.00     0.134 A 
ATOM     75  C   UNL A   1      49.258  26.851  28.679  1.00  0.00     0.134 A 
ATOM     76  F   UNL A   1      48.009  25.651  31.868  1.00  0.00    -0.206 F 
ATOM     77  C   UNL A   1      50.184  25.612  30.988  1.00  0.00     0.040 A 
ATOM     78  C   UNL A   1      50.607  26.514  28.793  1.00  0.00     0.040 A 
ATOM     79  F   UNL A   1      48.842  27.442  27.549  1.00  0.00    -0.206 F 
ATOM     80  C   UNL A   1      51.074  25.898  29.954  1.00  0.00     0.006 A 
ENDBRANCH  52  73
BRANCH  64  81
ATOM     81  C   UNL A   1      44.899  32.496  30.804  1.00  0.00     0.057 A 
ATOM     82  C   UNL A   1      45.196  33.449  29.825  1.00  0.00     0.134 A 
ATOM     83  C   UNL A   1      45.050  32.867  32.146  1.00  0.00     0.134 A 
ATOM     84  F   UNL A   1      45.069  33.151  28.524  1.00  0.00    -0.206 F 
ATOM     85  C   UNL A   1      45.629  34.730  30.168  1.00  0.00     0.040 A 
ATOM     86  C   UNL A   1      45.468  34.149  32.502  1.00  0.00     0.040 A 
ATOM     87  F   UNL A   1      44.763  31.999  33.128  1.00  0.00    -0.206 F 
ATOM     88  C   UNL A   1      45.763  35.084  31.511  1.00  0.00     0.006 A 
ENDBRANCH  64  81
ENDBRANCH  38  39
ENDBRANCH  30  33
ENDBRANCH  28  29
ENDBRANCH  27  28
ENDBRANCH   1  27
TORSDOF 15
ENDMDL
MODEL 2
REMARK VINA RESULT:     -12.2      2.874      7.561
REMARK SMILES CC(C)CSc1cc2c(cc1Cl)C=C(C(=O)NCCCCNC(=O)c1ccc(-c3c4nc(c(-c5c(F)cccc5F)c5ccc([nH]5)c(-c5c(F)cccc5F)c5nc(c(-c6c(F)cccc6F)c6ccc3[nH]6)C=C5)C=C4)cc1)[C@H](C(F)(F)F)O2
REMARK SMILES IDX 19 1 18 2 17 3 15 4 16 5 14 7 6 8 7 9 11 10 8 11 10 12 12 13
REMARK SMILES IDX 9 14 84 15 13 16 79 17 5 18 4 19 2 20 1 21 3 22 80 23 81 24
REMARK SMILES IDX 82 25 83 26 20 27 21 28 22 29 23 30 24 32 25 33 26 34 78 35
REMARK SMILES IDX 27 36 77 37 28 38 29 39 30 40 71 41 31 42 76 43 70 44 72 45
REMARK SMILES IDX 32 46 75 47 69 48 68 49 33 51 59 52 42 53 58 54 43 55 46 56
REMARK SMILES IDX 57 57 73 58 44 59 45 60 56 62 74 63 47 64 34 65 35 66 40 67
REMARK SMILES IDX 36 68 37 69 39 70 41 71 38 72 60 73 61 74 66 75 62 76 63 77
REMARK SMILES IDX 65 78 67 79 64 80 48 81 49 82 54 83 50 84 51 85 53 86 55 87
REMARK SMILES IDX 52 88
REMARK H PARENT 17 6 22 31 72 50 46 61
REMARK Flexibility Score: inf
ROOT
ATOM      1  C   UNL A   1      31.661  29.586  25.999  1.00  0.00     0.023 C 
ENDROOT
BRANCH   1   2
ATOM      2  C   UNL A   1      31.454  29.090  24.569  1.00  0.00     0.116 C 
BRANCH   2   3
ATOM      3  N   UNL A   1      32.659  29.221  23.769  1.00  0.00    -0.352 N 
ATOM      4  C   UNL A   1      33.571  28.390  23.214  1.00  0.00     0.251 C 
ATOM      5  O   UNL A   1      34.428  28.949  22.521  1.00  0.00    -0.270 OA
ATOM      6  H   UNL A   1      32.866  30.164  23.580  1.00  0.00     0.163 HD
BRANCH   4   7
ATOM      7  C   UNL A   1      33.618  26.908  23.381  1.00  0.00     0.067 C 
ATOM      8  C   UNL A   1      33.738  22.232  25.262  1.00  0.00     0.030 A 
ATOM      9  C   UNL A   1      33.901  22.782  23.986  1.00  0.00     0.063 A 
ATOM     10  C   UNL A   1      33.703  23.122  26.360  1.00  0.00     0.055 A 
ATOM     11  C   UNL A   1      33.902  24.162  23.802  1.00  0.00     0.129 A 
ATOM     12  C   UNL A   1      33.778  24.511  26.171  1.00  0.00     0.033 A 
ATOM     13  Cl  UNL A   1      33.553  22.578  27.999  1.00  0.00    -0.083 Cl
ATOM     14  C   UNL A   1      33.854  25.036  24.883  1.00  0.00     0.019 A 
ATOM     15  O   UNL A   1      33.941  24.612  22.510  1.00  0.00    -0.475 OA
ATOM     16  C   UNL A   1      33.889  26.473  24.629  1.00  0.00     0.025 C 
ATOM     17  C   UNL A   1      33.290  25.902  22.312  1.00  0.00     0.314 C 
BRANCH   8  18
ATOM     18  S   UNL A   1      33.578  20.458  25.502  1.00  0.00    -0.124 SA
BRANCH  18  19
ATOM     19  C   UNL A   1      32.676  19.835  24.030  1.00  0.00     0.078 C 
BRANCH  19  20
ATOM     20  C   UNL A   1      32.752  18.318  23.772  1.00  0.00    -0.007 C 
ATOM     21  C   UNL A   1      32.525  17.909  22.317  1.00  0.00     0.008 C 
ATOM     22  C   UNL A   1      34.131  17.809  24.216  1.00  0.00     0.008 C 
ENDBRANCH  19  20
ENDBRANCH  18  19
ENDBRANCH   8  18
BRANCH  17  23
ATOM     23  C   UNL A   1      31.777  25.723  22.082  1.00  0.00     0.429 C 
ATOM     24  F   UNL A   1      31.404  26.036  20.820  1.00  0.00    -0.167 F 
ATOM     25  F   UNL A   1      31.425  24.427  22.283  1.00  0.00    -0.167 F 
ATOM     26  F   UNL A   1      31.020  26.475  22.911  1.00  0.00    -0.167 F 
ENDBRANCH  17  23
ENDBRANCH   4   7
ENDBRANCH   2   3
ENDBRANCH   1   2
BRANCH   1  27
ATOM     27  C   UNL A   1      32.407  28.609  26.910  1.00  0.00     0.023 C 
BRANCH  27  28
ATOM     28  C   UNL A   1      33.820  29.035  27.287  1.00  0.00     0.116 C 
BRANCH  28  29
ATOM     29  N   UNL A   1      33.888  30.301  28.002  1.00  0.00    -0.352 N 
ATOM     30  C   UNL A   1      34.987  30.841  28.632  1.00  0.00     0.251 C 
ATOM     31  H   UNL A   1      33.059  30.829  28.039  1.00  0.00     0.163 HD
ATOM     32  O   UNL A   1      34.914  31.894  29.256  1.00  0.00    -0.269 OA
BRANCH  30  33
ATOM     33  C   UNL A   1      36.246  30.076  28.590  1.00  0.00     0.039 A 
ATOM     34  C   UNL A   1      36.687  29.404  29.733  1.00  0.00     0.014 A 
ATOM     35  C   UNL A   1      37.050  30.168  27.452  1.00  0.00     0.014 A 
ATOM     36  C   UNL A   1      38.003  28.964  29.794  1.00  0.00     0.010 A 
ATOM     37  C   UNL A   1      38.352  29.666  27.496  1.00  0.00     0.010 A 
ATOM     38  C   UNL A   1      38.853  29.114  28.686  1.00  0.00    -0.014 A 
BRANCH  38  39
ATOM     39  C   UNL A   1      40.280  28.734  28.804  1.00  0.00     0.031 A 
ATOM     40  C   UNL A   1      41.271  29.679  29.427  1.00  0.00     0.074 A 
ATOM     41  C   UNL A   1      40.671  27.511  28.402  1.00  0.00     0.049 A 
ATOM     42  N   UNL A   1      42.562  29.533  29.585  1.00  0.00    -0.248 NA
ATOM     43  C   UNL A   1      40.746  30.953  29.943  1.00  0.00     0.031 C 
ATOM     44  C   UNL A   1      39.794  26.497  27.817  1.00  0.00     0.029 A 
ATOM     45  N   UNL A   1      41.900  26.909  28.447  1.00  0.00    -0.354 N 
ATOM     46  C   UNL A   1      43.006  30.702  30.189  1.00  0.00     0.074 A 
ATOM     47  C   UNL A   1      41.850  31.554  30.363  1.00  0.00     0.031 C 
ATOM     48  C   UNL A   1      40.504  25.379  27.600  1.00  0.00     0.029 A 
ATOM     49  C   UNL A   1      41.894  25.622  27.972  1.00  0.00     0.049 A 
ATOM     50  H   UNL A   1      42.709  27.356  28.787  1.00  0.00     0.167 HD
ATOM     51  C   UNL A   1      44.265  31.031  30.570  1.00  0.00     0.037 A 
ATOM     52  C   UNL A   1      42.900  24.742  27.831  1.00  0.00     0.037 A 
ATOM     53  C   UNL A   1      45.407  30.168  30.431  1.00  0.00     0.049 A 
ATOM     54  C   UNL A   1      44.293  25.156  28.199  1.00  0.00     0.074 A 
ATOM     55  C   UNL A   1      46.714  30.393  30.829  1.00  0.00     0.029 A 
ATOM     56  N   UNL A   1      45.377  28.911  29.849  1.00  0.00    -0.354 N 
ATOM     57  N   UNL A   1      44.703  26.276  28.742  1.00  0.00    -0.248 NA
ATOM     58  C   UNL A   1      45.365  24.198  27.902  1.00  0.00     0.031 C 
ATOM     59  C   UNL A   1      47.481  29.281  30.459  1.00  0.00     0.029 A 
ATOM     60  C   UNL A   1      46.646  28.358  29.851  1.00  0.00     0.049 A 
ATOM     61  H   UNL A   1      44.571  28.476  29.486  1.00  0.00     0.167 HD
ATOM     62  C   UNL A   1      46.082  26.166  28.837  1.00  0.00     0.074 A 
ATOM     63  C   UNL A   1      46.436  24.858  28.323  1.00  0.00     0.031 C 
ATOM     64  C   UNL A   1      46.977  27.070  29.300  1.00  0.00     0.037 A 
BRANCH  51  65
ATOM     65  C   UNL A   1      44.473  32.393  31.159  1.00  0.00     0.057 A 
ATOM     66  C   UNL A   1      44.855  33.468  30.347  1.00  0.00     0.134 A 
ATOM     67  C   UNL A   1      44.333  32.633  32.531  1.00  0.00     0.134 A 
ATOM     68  F   UNL A   1      45.005  33.301  29.024  1.00  0.00    -0.206 F 
ATOM     69  C   UNL A   1      45.093  34.735  30.881  1.00  0.00     0.040 A 
ATOM     70  C   UNL A   1      44.555  33.900  33.075  1.00  0.00     0.040 A 
ATOM     71  F   UNL A   1      43.954  31.647  33.358  1.00  0.00    -0.206 F 
ATOM     72  C   UNL A   1      44.941  34.954  32.249  1.00  0.00     0.006 A 
ENDBRANCH  51  65
BRANCH  52  73
ATOM     73  C   UNL A   1      42.624  23.398  27.278  1.00  0.00     0.057 A 
ATOM     74  C   UNL A   1      42.254  22.333  28.106  1.00  0.00     0.134 A 
ATOM     75  C   UNL A   1      42.752  23.145  25.909  1.00  0.00     0.134 A 
ATOM     76  F   UNL A   1      42.119  22.519  29.427  1.00  0.00    -0.206 F 
ATOM     77  C   UNL A   1      42.039  21.053  27.596  1.00  0.00     0.040 A 
ATOM     78  C   UNL A   1      42.523  21.873  25.381  1.00  0.00     0.040 A 
ATOM     79  F   UNL A   1      43.087  24.133  25.067  1.00  0.00    -0.206 F 
ATOM     80  C   UNL A   1      42.172  20.822  26.227  1.00  0.00     0.006 A 
ENDBRANCH  52  73
BRANCH  64  81
ATOM     81  C   UNL A   1      48.419  26.681  29.233  1.00  0.00     0.057 A 
ATOM     82  C   UNL A   1      49.214  27.032  28.136  1.00  0.00     0.134 A 
ATOM     83  C   UNL A   1      49.018  25.949  30.267  1.00  0.00     0.134 A 
ATOM     84  F   UNL A   1      48.696  27.733  27.118  1.00  0.00    -0.206 F 
ATOM     85  C   UNL A   1      50.559  26.668  28.070  1.00  0.00     0.040 A 
ATOM     86  C   UNL A   1      50.365  25.592  30.218  1.00  0.00     0.040 A 
ATOM     87  F   UNL A   1      48.309  25.600  31.351  1.00  0.00    -0.206 F 
ATOM     88  C   UNL A   1      51.139  25.949  29.115  1.00  0.00     0.006 A 
ENDBRANCH  64  81
ENDBRANCH  38  39
ENDBRANCH  30  33
ENDBRANCH  28  29
ENDBRANCH  27  28
ENDBRANCH   1  27
TORSDOF 15
ENDMDL
MODEL 3
REMARK VINA RESULT:     -12.2      0.879      6.145
REMARK SMILES CC(C)CSc1cc2c(cc1Cl)C=C(C(=O)NCCCCNC(=O)c1ccc(-c3c4nc(c(-c5c(F)cccc5F)c5ccc([nH]5)c(-c5c(F)cccc5F)c5nc(c(-c6c(F)cccc6F)c6ccc3[nH]6)C=C5)C=C4)cc1)[C@H](C(F)(F)F)O2
REMARK SMILES IDX 19 1 18 2 17 3 15 4 16 5 14 7 6 8 7 9 11 10 8 11 10 12 12 13
REMARK SMILES IDX 9 14 84 15 13 16 79 17 5 18 4 19 2 20 1 21 3 22 80 23 81 24
REMARK SMILES IDX 82 25 83 26 20 27 21 28 22 29 23 30 24 32 25 33 26 34 78 35
REMARK SMILES IDX 27 36 77 37 28 38 29 39 30 40 71 41 31 42 76 43 70 44 72 45
REMARK SMILES IDX 32 46 75 47 69 48 68 49 33 51 59 52 42 53 58 54 43 55 46 56
REMARK SMILES IDX 57 57 73 58 44 59 45 60 56 62 74 63 47 64 34 65 35 66 40 67
REMARK SMILES IDX 36 68 37 69 39 70 41 71 38 72 60 73 61 74 66 75 62 76 63 77
REMARK SMILES IDX 65 78 67 79 64 80 48 81 49 82 54 83 50 84 51 85 53 86 55 87
REMARK SMILES IDX 52 88
REMARK H PARENT 17 6 22 31 72 50 46 61
REMARK Flexibility Score: inf
ROOT
ATOM      1  C   UNL A   1      37.251  22.501  24.670  1.00  0.00     0.023 C 
ENDROOT
BRANCH   1   2
ATOM      2  C   UNL A   1      36.647  23.346  25.790  1.00  0.00     0.116 C 
BRANCH   2   3
ATOM      3  N   UNL A   1      35.538  22.673  26.441  1.00  0.00    -0.352 N 
ATOM      4  C   UNL A   1      34.187  22.734  26.406  1.00  0.00     0.251 C 
ATOM      5  O   UNL A   1      33.610  21.889  27.098  1.00  0.00    -0.270 OA
ATOM      6  H   UNL A   1      35.853  21.991  27.077  1.00  0.00     0.163 HD
BRANCH   4   7
ATOM      7  C   UNL A   1      33.378  23.718  25.628  1.00  0.00     0.067 C 
ATOM      8  C   UNL A   1      31.183  27.911  23.891  1.00  0.00     0.030 A 
ATOM      9  C   UNL A   1      31.039  26.545  23.625  1.00  0.00     0.063 A 
ATOM     10  C   UNL A   1      31.970  28.283  25.005  1.00  0.00     0.055 A 
ATOM     11  C   UNL A   1      31.749  25.600  24.361  1.00  0.00     0.129 A 
ATOM     12  C   UNL A   1      32.625  27.318  25.786  1.00  0.00     0.033 A 
ATOM     13  Cl  UNL A   1      32.196  29.936  25.479  1.00  0.00    -0.083 Cl
ATOM     14  C   UNL A   1      32.535  25.970  25.449  1.00  0.00     0.019 A 
ATOM     15  O   UNL A   1      31.646  24.297  23.954  1.00  0.00    -0.475 OA
ATOM     16  C   UNL A   1      33.231  24.931  26.199  1.00  0.00     0.025 C 
ATOM     17  C   UNL A   1      32.825  23.489  24.248  1.00  0.00     0.314 C 
BRANCH   8  18
ATOM     18  S   UNL A   1      30.398  29.153  22.855  1.00  0.00    -0.124 SA
BRANCH  18  19
ATOM     19  C   UNL A   1      28.593  28.853  22.999  1.00  0.00     0.078 C 
BRANCH  19  20
ATOM     20  C   UNL A   1      27.671  30.023  22.605  1.00  0.00    -0.007 C 
ATOM     21  C   UNL A   1      27.663  31.187  23.595  1.00  0.00     0.008 C 
ATOM     22  C   UNL A   1      28.104  30.551  21.229  1.00  0.00     0.008 C 
ENDBRANCH  19  20
ENDBRANCH  18  19
ENDBRANCH   8  18
BRANCH  17  23
ATOM     23  C   UNL A   1      33.879  23.633  23.132  1.00  0.00     0.429 C 
ATOM     24  F   UNL A   1      33.330  23.949  21.937  1.00  0.00    -0.167 F 
ATOM     25  F   UNL A   1      34.749  24.629  23.439  1.00  0.00    -0.167 F 
ATOM     26  F   UNL A   1      34.608  22.511  22.942  1.00  0.00    -0.167 F 
ENDBRANCH  17  23
ENDBRANCH   4   7
ENDBRANCH   2   3
ENDBRANCH   1   2
BRANCH   1  27
ATOM     27  C   UNL A   1      37.677  21.094  25.095  1.00  0.00     0.023 C 
BRANCH  27  28
ATOM     28  C   UNL A   1      38.921  21.038  25.972  1.00  0.00     0.116 C 
BRANCH  28  29
ATOM     29  N   UNL A   1      39.784  19.895  25.708  1.00  0.00    -0.352 N 
ATOM     30  C   UNL A   1      41.133  19.795  25.966  1.00  0.00     0.251 C 
ATOM     31  H   UNL A   1      39.356  19.108  25.300  1.00  0.00     0.163 HD
ATOM     32  O   UNL A   1      41.773  18.800  25.648  1.00  0.00    -0.269 OA
BRANCH  30  33
ATOM     33  C   UNL A   1      41.801  20.956  26.581  1.00  0.00     0.039 A 
ATOM     34  C   UNL A   1      41.690  21.171  27.957  1.00  0.00     0.014 A 
ATOM     35  C   UNL A   1      42.402  21.903  25.749  1.00  0.00     0.014 A 
ATOM     36  C   UNL A   1      42.035  22.411  28.478  1.00  0.00     0.010 A 
ATOM     37  C   UNL A   1      42.807  23.124  26.289  1.00  0.00     0.010 A 
ATOM     38  C   UNL A   1      42.572  23.406  27.644  1.00  0.00    -0.014 A 
BRANCH  38  39
ATOM     39  C   UNL A   1      42.837  24.756  28.196  1.00  0.00     0.031 A 
ATOM     40  C   UNL A   1      44.241  25.181  28.529  1.00  0.00     0.074 A 
ATOM     41  C   UNL A   1      41.816  25.619  28.341  1.00  0.00     0.049 A 
ATOM     42  N   UNL A   1      44.660  26.306  29.049  1.00  0.00    -0.248 NA
ATOM     43  C   UNL A   1      45.317  24.219  28.238  1.00  0.00     0.031 C 
ATOM     44  C   UNL A   1      40.417  25.332  28.018  1.00  0.00     0.029 A 
ATOM     45  N   UNL A   1      41.802  26.918  28.775  1.00  0.00    -0.354 N 
ATOM     46  C   UNL A   1      46.037  26.178  29.174  1.00  0.00     0.074 A 
ATOM     47  C   UNL A   1      46.386  24.863  28.685  1.00  0.00     0.031 C 
ATOM     48  C   UNL A   1      39.687  26.439  28.221  1.00  0.00     0.029 A 
ATOM     49  C   UNL A   1      40.554  27.488  28.746  1.00  0.00     0.049 A 
ATOM     50  H   UNL A   1      42.607  27.395  29.079  1.00  0.00     0.167 HD
ATOM     51  C   UNL A   1      46.930  27.081  29.650  1.00  0.00     0.037 A 
ATOM     52  C   UNL A   1      40.150  28.714  29.122  1.00  0.00     0.037 A 
ATOM     53  C   UNL A   1      46.586  28.402  30.101  1.00  0.00     0.049 A 
ATOM     54  C   UNL A   1      41.147  29.668  29.705  1.00  0.00     0.074 A 
ATOM     55  C   UNL A   1      47.424  29.406  30.557  1.00  0.00     0.029 A 
ATOM     56  N   UNL A   1      45.296  28.906  30.153  1.00  0.00    -0.354 N 
ATOM     57  N   UNL A   1      42.442  29.523  29.844  1.00  0.00    -0.248 NA
ATOM     58  C   UNL A   1      40.621  30.942  30.214  1.00  0.00     0.031 C 
ATOM     59  C   UNL A   1      46.636  30.508  30.912  1.00  0.00     0.029 A 
ATOM     60  C   UNL A   1      45.311  30.194  30.657  1.00  0.00     0.049 A 
ATOM     61  H   UNL A   1      44.488  28.417  29.872  1.00  0.00     0.167 HD
ATOM     62  C   UNL A   1      42.885  30.678  30.472  1.00  0.00     0.074 A 
ATOM     63  C   UNL A   1      41.725  31.526  30.660  1.00  0.00     0.031 C 
ATOM     64  C   UNL A   1      44.139  31.003  30.867  1.00  0.00     0.037 A 
BRANCH  51  65
ATOM     65  C   UNL A   1      48.366  26.659  29.720  1.00  0.00     0.057 A 
ATOM     66  C   UNL A   1      49.243  26.945  28.667  1.00  0.00     0.134 A 
ATOM     67  C   UNL A   1      48.871  25.939  30.809  1.00  0.00     0.134 A 
ATOM     68  F   UNL A   1      48.819  27.633  27.596  1.00  0.00    -0.206 F 
ATOM     69  C   UNL A   1      50.574  26.528  28.694  1.00  0.00     0.040 A 
ATOM     70  C   UNL A   1      50.205  25.527  30.853  1.00  0.00     0.040 A 
ATOM     71  F   UNL A   1      48.083  25.647  31.855  1.00  0.00    -0.206 F 
ATOM     72  C   UNL A   1      51.059  25.817  29.791  1.00  0.00     0.006 A 
ENDBRANCH  51  65
BRANCH  52  73
ATOM     73  C   UNL A   1      38.724  29.085  28.992  1.00  0.00     0.057 A 
ATOM     74  C   UNL A   1      38.205  29.567  27.785  1.00  0.00     0.134 A 
ATOM     75  C   UNL A   1      37.854  28.990  30.083  1.00  0.00     0.134 A 
ATOM     76  F   UNL A   1      38.994  29.681  26.707  1.00  0.00    -0.206 F 
ATOM     77  C   UNL A   1      36.873  29.963  27.671  1.00  0.00     0.040 A 
ATOM     78  C   UNL A   1      36.514  29.366  29.979  1.00  0.00     0.040 A 
ATOM     79  F   UNL A   1      38.295  28.517  31.258  1.00  0.00    -0.206 F 
ATOM     80  C   UNL A   1      36.023  29.860  28.771  1.00  0.00     0.006 A 
ENDBRANCH  52  73
BRANCH  64  81
ATOM     81  C   UNL A   1      44.301  32.314  31.569  1.00  0.00     0.057 A 
ATOM     82  C   UNL A   1      44.532  33.494  30.854  1.00  0.00     0.134 A 
ATOM     83  C   UNL A   1      44.229  32.398  32.966  1.00  0.00     0.134 A 
ATOM     84  F   UNL A   1      44.610  33.474  29.516  1.00  0.00    -0.206 F 
ATOM     85  C   UNL A   1      44.686  34.718  31.506  1.00  0.00     0.040 A 
ATOM     86  C   UNL A   1      44.368  33.618  33.627  1.00  0.00     0.040 A 
ATOM     87  F   UNL A   1      43.993  31.302  33.701  1.00  0.00    -0.206 F 
ATOM     88  C   UNL A   1      44.601  34.782  32.896  1.00  0.00     0.006 A 
ENDBRANCH  64  81
ENDBRANCH  38  39
ENDBRANCH  30  33
ENDBRANCH  28  29
ENDBRANCH  27  28
ENDBRANCH   1  27
TORSDOF 15
ENDMDL
