MODEL 1
REMARK VINA RESULT:     -12.1      0.000      0.000
REMARK SMILES Cc1ccccc1OCC(=O)N1C[C@@H](O)C[C@H]1C(=O)NCCCCNC(=O)c1ccc(-c2c3nc(c(-c4c(F)cccc4F)c4ccc([nH]4)c(-c4c(F)cccc4F)c4nc(c(-c5c(F)cccc5F)c5ccc2[nH]5)C=C4)C=C3)cc1
REMARK SMILES IDX 21 1 20 2 18 3 19 4 17 6 12 7 13 8 14 9 16 10 10 11 11 12
REMARK SMILES IDX 9 13 8 14 7 15 1 16 2 17 3 18 4 19 6 20 5 21 15 22 22 24
REMARK SMILES IDX 23 25 24 26 25 27 26 28 27 30 28 31 29 32 81 33 30 34 80 35
REMARK SMILES IDX 31 36 32 37 33 38 74 39 34 40 79 41 73 42 75 43 35 44 78 45
REMARK SMILES IDX 72 46 71 47 36 49 62 50 45 51 61 52 46 53 49 54 60 55 76 56
REMARK SMILES IDX 47 57 48 58 59 60 77 61 50 62 37 63 38 64 43 65 39 66 40 67
REMARK SMILES IDX 42 68 44 69 41 70 63 71 64 72 69 73 65 74 66 75 68 76 70 77
REMARK SMILES IDX 67 78 51 79 52 80 57 81 53 82 54 83 56 84 58 85 55 86
REMARK H PARENT 20 5 15 23 25 29 75 48 49 59
REMARK Flexibility Score: inf
ROOT
ATOM      1  C   UNL A   1      32.168  29.253  24.874  1.00  0.00     0.116 C 
ENDROOT
BRANCH   1   2
ATOM      2  N   UNL A   1      31.449  29.407  23.625  1.00  0.00    -0.354 N 
ATOM      3  C   UNL A   1      30.772  28.510  22.851  1.00  0.00     0.242 C 
ATOM      4  O   UNL A   1      30.042  28.987  21.974  1.00  0.00    -0.273 OA
ATOM      5  H   UNL A   1      31.449  30.325  23.269  1.00  0.00     0.163 HD
BRANCH   3   6
ATOM      6  C   UNL A   1      30.744  26.994  23.146  1.00  0.00     0.177 C 
ATOM      7  N   UNL A   1      32.043  26.358  23.363  1.00  0.00    -0.325 N 
ATOM      8  C   UNL A   1      32.109  25.673  24.640  1.00  0.00     0.152 C 
ATOM      9  C   UNL A   1      30.662  25.570  25.116  1.00  0.00     0.136 C 
ATOM     10  C   UNL A   1      29.908  26.682  24.389  1.00  0.00     0.069 C 
BRANCH   7  11
ATOM     11  C   UNL A   1      32.910  26.193  22.298  1.00  0.00     0.261 C 
ATOM     12  O   UNL A   1      33.727  27.067  21.999  1.00  0.00    -0.271 OA
BRANCH  11  13
ATOM     13  C   UNL A   1      32.770  24.939  21.423  1.00  0.00     0.329 C 
BRANCH  13  14
ATOM     14  O   UNL A   1      33.720  23.912  21.553  1.00  0.00    -0.484 OA
BRANCH  14  15
ATOM     15  C   UNL A   1      33.757  23.037  22.595  1.00  0.00     0.122 A 
ATOM     16  C   UNL A   1      36.212  23.181  23.425  1.00  0.00     0.048 C 
ATOM     17  C   UNL A   1      34.802  22.663  23.454  1.00  0.00    -0.009 A 
ATOM     18  C   UNL A   1      34.509  21.765  24.508  1.00  0.00     0.007 A 
ATOM     19  C   UNL A   1      33.231  21.245  24.708  1.00  0.00     0.001 A 
ATOM     20  C   UNL A   1      32.480  22.475  22.795  1.00  0.00     0.047 A 
ATOM     21  C   UNL A   1      32.212  21.594  23.840  1.00  0.00     0.004 A 
ENDBRANCH  14  15
ENDBRANCH  13  14
ENDBRANCH  11  13
ENDBRANCH   7  11
BRANCH   9  22
ATOM     22  O   UNL A   1      30.549  25.708  26.524  1.00  0.00    -0.391 OA
ATOM     23  H   UNL A   1      31.230  26.318  26.845  1.00  0.00     0.211 HD
ENDBRANCH   9  22
ENDBRANCH   3   6
ENDBRANCH   1   2
BRANCH   1  24
ATOM     24  C   UNL A   1      31.691  30.200  25.970  1.00  0.00     0.023 C 
BRANCH  24  25
ATOM     25  C   UNL A   1      32.754  31.146  26.524  1.00  0.00     0.023 C 
BRANCH  25  26
ATOM     26  C   UNL A   1      33.586  30.571  27.660  1.00  0.00     0.116 C 
BRANCH  26  27
ATOM     27  N   UNL A   1      34.341  31.551  28.427  1.00  0.00    -0.352 N 
ATOM     28  C   UNL A   1      35.560  31.419  29.080  1.00  0.00     0.251 C 
ATOM     29  H   UNL A   1      33.926  32.442  28.492  1.00  0.00     0.163 HD
ATOM     30  O   UNL A   1      35.999  32.349  29.736  1.00  0.00    -0.269 OA
BRANCH  28  31
ATOM     31  C   UNL A   1      36.401  30.211  28.849  1.00  0.00     0.039 A 
ATOM     32  C   UNL A   1      36.575  29.332  29.928  1.00  0.00     0.014 A 
ATOM     33  C   UNL A   1      37.186  30.066  27.711  1.00  0.00     0.014 A 
ATOM     34  C   UNL A   1      37.712  28.532  29.981  1.00  0.00     0.010 A 
ATOM     35  C   UNL A   1      38.369  29.364  27.806  1.00  0.00     0.010 A 
ATOM     36  C   UNL A   1      38.670  28.670  28.980  1.00  0.00    -0.014 A 
BRANCH  36  37
ATOM     37  C   UNL A   1      40.065  28.283  29.153  1.00  0.00     0.031 A 
ATOM     38  C   UNL A   1      40.559  26.988  28.647  1.00  0.00     0.074 A 
ATOM     39  C   UNL A   1      40.921  29.178  29.697  1.00  0.00     0.049 A 
ATOM     40  N   UNL A   1      41.672  26.452  29.017  1.00  0.00    -0.248 NA
ATOM     41  C   UNL A   1      39.789  26.137  27.744  1.00  0.00     0.031 C 
ATOM     42  C   UNL A   1      42.381  29.144  29.675  1.00  0.00     0.029 A 
ATOM     43  N   UNL A   1      40.611  30.224  30.580  1.00  0.00    -0.354 N 
ATOM     44  C   UNL A   1      41.902  25.359  28.215  1.00  0.00     0.074 A 
ATOM     45  C   UNL A   1      40.648  25.130  27.547  1.00  0.00     0.031 C 
ATOM     46  C   UNL A   1      42.848  29.907  30.675  1.00  0.00     0.029 A 
ATOM     47  C   UNL A   1      41.705  30.330  31.465  1.00  0.00     0.049 A 
ATOM     48  H   UNL A   1      39.795  30.774  30.581  1.00  0.00     0.167 HD
ATOM     49  C   UNL A   1      43.171  24.871  28.130  1.00  0.00     0.037 A 
ATOM     50  C   UNL A   1      41.561  30.098  32.802  1.00  0.00     0.037 A 
ATOM     51  C   UNL A   1      44.012  25.441  29.187  1.00  0.00     0.049 A 
ATOM     52  C   UNL A   1      42.401  28.954  33.323  1.00  0.00     0.074 A 
ATOM     53  C   UNL A   1      44.998  26.412  29.199  1.00  0.00     0.029 A 
ATOM     54  N   UNL A   1      43.693  25.185  30.518  1.00  0.00    -0.354 N 
ATOM     55  N   UNL A   1      42.941  28.043  32.560  1.00  0.00    -0.248 NA
ATOM     56  C   UNL A   1      42.673  28.726  34.739  1.00  0.00     0.031 C 
ATOM     57  C   UNL A   1      45.197  26.811  30.548  1.00  0.00     0.029 A 
ATOM     58  C   UNL A   1      44.368  26.049  31.357  1.00  0.00     0.049 A 
ATOM     59  H   UNL A   1      43.071  24.484  30.820  1.00  0.00     0.167 HD
ATOM     60  C   UNL A   1      43.572  27.110  33.339  1.00  0.00     0.074 A 
ATOM     61  C   UNL A   1      43.401  27.597  34.695  1.00  0.00     0.031 C 
ATOM     62  C   UNL A   1      44.161  26.002  32.799  1.00  0.00     0.037 A 
BRANCH  49  63
ATOM     63  C   UNL A   1      43.735  24.041  26.987  1.00  0.00     0.057 A 
ATOM     64  C   UNL A   1      44.377  24.678  25.902  1.00  0.00     0.134 A 
ATOM     65  C   UNL A   1      43.578  22.651  26.812  1.00  0.00     0.134 A 
ATOM     66  F   UNL A   1      44.618  25.996  25.906  1.00  0.00    -0.206 F 
ATOM     67  C   UNL A   1      44.788  24.000  24.742  1.00  0.00     0.040 A 
ATOM     68  C   UNL A   1      44.019  21.956  25.675  1.00  0.00     0.040 A 
ATOM     69  F   UNL A   1      42.948  21.876  27.696  1.00  0.00    -0.206 F 
ATOM     70  C   UNL A   1      44.611  22.631  24.624  1.00  0.00     0.006 A 
ENDBRANCH  49  63
BRANCH  50  71
ATOM     71  C   UNL A   1      40.230  30.490  33.328  1.00  0.00     0.057 A 
ATOM     72  C   UNL A   1      39.985  31.850  33.587  1.00  0.00     0.134 A 
ATOM     73  C   UNL A   1      39.116  29.653  33.214  1.00  0.00     0.134 A 
ATOM     74  F   UNL A   1      41.010  32.708  33.704  1.00  0.00    -0.206 F 
ATOM     75  C   UNL A   1      38.690  32.375  33.618  1.00  0.00     0.040 A 
ATOM     76  C   UNL A   1      37.813  30.167  33.251  1.00  0.00     0.040 A 
ATOM     77  F   UNL A   1      39.268  28.349  32.942  1.00  0.00    -0.206 F 
ATOM     78  C   UNL A   1      37.600  31.536  33.413  1.00  0.00     0.006 A 
ENDBRANCH  50  71
BRANCH  62  79
ATOM     79  C   UNL A   1      44.653  24.802  33.573  1.00  0.00     0.057 A 
ATOM     80  C   UNL A   1      46.001  24.425  33.677  1.00  0.00     0.134 A 
ATOM     81  C   UNL A   1      43.764  24.062  34.384  1.00  0.00     0.134 A 
ATOM     82  F   UNL A   1      46.971  25.108  33.054  1.00  0.00    -0.206 F 
ATOM     83  C   UNL A   1      46.425  23.357  34.480  1.00  0.00     0.040 A 
ATOM     84  C   UNL A   1      44.182  23.029  35.229  1.00  0.00     0.040 A 
ATOM     85  F   UNL A   1      42.449  24.326  34.408  1.00  0.00    -0.206 F 
ATOM     86  C   UNL A   1      45.518  22.662  35.268  1.00  0.00     0.006 A 
ENDBRANCH  62  79
ENDBRANCH  36  37
ENDBRANCH  28  31
ENDBRANCH  26  27
ENDBRANCH  25  26
ENDBRANCH  24  25
ENDBRANCH   1  24
TORSDOF 16
ENDMDL
MODEL 2
REMARK VINA RESULT:     -12.1      3.473      8.928
REMARK SMILES Cc1ccccc1OCC(=O)N1C[C@@H](O)C[C@H]1C(=O)NCCCCNC(=O)c1ccc(-c2c3nc(c(-c4c(F)cccc4F)c4ccc([nH]4)c(-c4c(F)cccc4F)c4nc(c(-c5c(F)cccc5F)c5ccc2[nH]5)C=C4)C=C3)cc1
REMARK SMILES IDX 21 1 20 2 18 3 19 4 17 6 12 7 13 8 14 9 16 10 10 11 11 12
REMARK SMILES IDX 9 13 8 14 7 15 1 16 2 17 3 18 4 19 6 20 5 21 15 22 22 24
REMARK SMILES IDX 23 25 24 26 25 27 26 28 27 30 28 31 29 32 81 33 30 34 80 35
REMARK SMILES IDX 31 36 32 37 33 38 74 39 34 40 79 41 73 42 75 43 35 44 78 45
REMARK SMILES IDX 72 46 71 47 36 49 62 50 45 51 61 52 46 53 49 54 60 55 76 56
REMARK SMILES IDX 47 57 48 58 59 60 77 61 50 62 37 63 38 64 43 65 39 66 40 67
REMARK SMILES IDX 42 68 44 69 41 70 63 71 64 72 69 73 65 74 66 75 68 76 70 77
REMARK SMILES IDX 67 78 51 79 52 80 57 81 53 82 54 83 56 84 58 85 55 86
REMARK H PARENT 20 5 15 23 25 29 75 48 49 59
REMARK Flexibility Score: inf
ROOT
ATOM      1  C   UNL A   1      35.196  21.361  25.890  1.00  0.00     0.116 C 
ENDROOT
BRANCH   1   2
ATOM      2  N   UNL A   1      34.083  20.432  25.879  1.00  0.00    -0.354 N 
ATOM      3  C   UNL A   1      32.840  20.511  25.321  1.00  0.00     0.242 C 
ATOM      4  O   UNL A   1      32.201  19.454  25.259  1.00  0.00    -0.273 OA
ATOM      5  H   UNL A   1      34.255  19.590  26.361  1.00  0.00     0.163 HD
BRANCH   3   6
ATOM      6  C   UNL A   1      32.308  21.783  24.627  1.00  0.00     0.177 C 
ATOM      7  N   UNL A   1      32.486  23.037  25.359  1.00  0.00    -0.325 N 
ATOM      8  C   UNL A   1      33.208  24.025  24.581  1.00  0.00     0.152 C 
ATOM      9  C   UNL A   1      33.189  23.500  23.148  1.00  0.00     0.136 C 
ATOM     10  C   UNL A   1      32.967  21.993  23.263  1.00  0.00     0.069 C 
BRANCH   7  11
ATOM     11  C   UNL A   1      31.738  23.276  26.497  1.00  0.00     0.261 C 
ATOM     12  O   UNL A   1      32.111  22.875  27.602  1.00  0.00    -0.271 OA
BRANCH  11  13
ATOM     13  C   UNL A   1      30.374  23.966  26.351  1.00  0.00     0.329 C 
BRANCH  13  14
ATOM     14  O   UNL A   1      30.248  25.310  26.739  1.00  0.00    -0.484 OA
BRANCH  14  15
ATOM     15  C   UNL A   1      30.687  26.361  25.994  1.00  0.00     0.122 A 
ATOM     16  C   UNL A   1      29.054  26.402  23.976  1.00  0.00     0.048 C 
ATOM     17  C   UNL A   1      30.223  26.895  24.781  1.00  0.00    -0.009 A 
ATOM     18  C   UNL A   1      30.854  28.059  24.281  1.00  0.00     0.007 A 
ATOM     19  C   UNL A   1      31.913  28.675  24.947  1.00  0.00     0.001 A 
ATOM     20  C   UNL A   1      31.778  26.981  26.634  1.00  0.00     0.047 A 
ATOM     21  C   UNL A   1      32.385  28.127  26.126  1.00  0.00     0.004 A 
ENDBRANCH  14  15
ENDBRANCH  13  14
ENDBRANCH  11  13
ENDBRANCH   7  11
BRANCH   9  22
ATOM     22  O   UNL A   1      34.393  23.790  22.454  1.00  0.00    -0.391 OA
ATOM     23  H   UNL A   1      34.871  22.965  22.274  1.00  0.00     0.211 HD
ENDBRANCH   9  22
ENDBRANCH   3   6
ENDBRANCH   1   2
BRANCH   1  24
ATOM     24  C   UNL A   1      36.181  21.142  24.747  1.00  0.00     0.023 C 
BRANCH  24  25
ATOM     25  C   UNL A   1      37.647  21.030  25.161  1.00  0.00     0.023 C 
BRANCH  25  26
ATOM     26  C   UNL A   1      38.238  22.299  25.756  1.00  0.00     0.116 C 
BRANCH  26  27
ATOM     27  N   UNL A   1      39.641  22.207  26.133  1.00  0.00    -0.352 N 
ATOM     28  C   UNL A   1      40.509  23.199  26.571  1.00  0.00     0.251 C 
ATOM     29  H   UNL A   1      40.033  21.306  26.070  1.00  0.00     0.163 HD
ATOM     30  O   UNL A   1      41.682  22.931  26.772  1.00  0.00    -0.269 OA
BRANCH  28  31
ATOM     31  C   UNL A   1      39.979  24.540  26.945  1.00  0.00     0.039 A 
ATOM     32  C   UNL A   1      40.409  25.638  26.187  1.00  0.00     0.014 A 
ATOM     33  C   UNL A   1      39.289  24.753  28.134  1.00  0.00     0.014 A 
ATOM     34  C   UNL A   1      40.417  26.905  26.762  1.00  0.00     0.010 A 
ATOM     35  C   UNL A   1      39.397  25.981  28.752  1.00  0.00     0.010 A 
ATOM     36  C   UNL A   1      40.043  27.032  28.097  1.00  0.00    -0.014 A 
BRANCH  36  37
ATOM     37  C   UNL A   1      40.451  28.152  28.936  1.00  0.00     0.031 A 
ATOM     38  C   UNL A   1      39.517  29.256  29.230  1.00  0.00     0.074 A 
ATOM     39  C   UNL A   1      41.670  28.110  29.522  1.00  0.00     0.049 A 
ATOM     40  N   UNL A   1      39.885  30.401  29.697  1.00  0.00    -0.248 NA
ATOM     41  C   UNL A   1      38.089  29.195  28.934  1.00  0.00     0.031 C 
ATOM     42  C   UNL A   1      42.157  28.931  30.628  1.00  0.00     0.029 A 
ATOM     43  N   UNL A   1      42.807  27.422  29.073  1.00  0.00    -0.354 N 
ATOM     44  C   UNL A   1      38.753  31.108  30.025  1.00  0.00     0.074 A 
ATOM     45  C   UNL A   1      37.678  30.378  29.405  1.00  0.00     0.031 C 
ATOM     46  C   UNL A   1      43.498  28.925  30.614  1.00  0.00     0.029 A 
ATOM     47  C   UNL A   1      43.915  28.229  29.409  1.00  0.00     0.049 A 
ATOM     48  H   UNL A   1      42.828  26.551  28.616  1.00  0.00     0.167 HD
ATOM     49  C   UNL A   1      38.867  32.153  30.892  1.00  0.00     0.037 A 
ATOM     50  C   UNL A   1      44.722  28.763  28.447  1.00  0.00     0.037 A 
ATOM     51  C   UNL A   1      40.275  32.519  31.071  1.00  0.00     0.049 A 
ATOM     52  C   UNL A   1      44.758  30.274  28.442  1.00  0.00     0.074 A 
ATOM     53  C   UNL A   1      41.190  32.317  32.090  1.00  0.00     0.029 A 
ATOM     54  N   UNL A   1      41.001  32.974  29.972  1.00  0.00    -0.354 N 
ATOM     55  N   UNL A   1      43.869  31.024  29.034  1.00  0.00    -0.248 NA
ATOM     56  C   UNL A   1      45.775  31.059  27.748  1.00  0.00     0.031 C 
ATOM     57  C   UNL A   1      42.487  32.558  31.562  1.00  0.00     0.029 A 
ATOM     58  C   UNL A   1      42.356  32.952  30.240  1.00  0.00     0.049 A 
ATOM     59  H   UNL A   1      40.604  33.269  29.122  1.00  0.00     0.167 HD
ATOM     60  C   UNL A   1      44.141  32.342  28.781  1.00  0.00     0.074 A 
ATOM     61  C   UNL A   1      45.361  32.314  27.997  1.00  0.00     0.031 C 
ATOM     62  C   UNL A   1      43.323  33.343  29.222  1.00  0.00     0.037 A 
BRANCH  49  63
ATOM     63  C   UNL A   1      37.751  32.730  31.749  1.00  0.00     0.057 A 
ATOM     64  C   UNL A   1      37.589  34.130  31.846  1.00  0.00     0.134 A 
ATOM     65  C   UNL A   1      36.894  32.004  32.599  1.00  0.00     0.134 A 
ATOM     66  F   UNL A   1      38.316  34.974  31.101  1.00  0.00    -0.206 F 
ATOM     67  C   UNL A   1      36.686  34.743  32.730  1.00  0.00     0.040 A 
ATOM     68  C   UNL A   1      35.960  32.602  33.458  1.00  0.00     0.040 A 
ATOM     69  F   UNL A   1      36.928  30.673  32.697  1.00  0.00    -0.206 F 
ATOM     70  C   UNL A   1      35.863  33.979  33.541  1.00  0.00     0.006 A 
ENDBRANCH  49  63
BRANCH  50  71
ATOM     71  C   UNL A   1      44.857  27.900  27.246  1.00  0.00     0.057 A 
ATOM     72  C   UNL A   1      45.710  26.785  27.314  1.00  0.00     0.134 A 
ATOM     73  C   UNL A   1      43.912  27.918  26.215  1.00  0.00     0.134 A 
ATOM     74  F   UNL A   1      46.637  26.705  28.282  1.00  0.00    -0.206 F 
ATOM     75  C   UNL A   1      45.558  25.685  26.466  1.00  0.00     0.040 A 
ATOM     76  C   UNL A   1      43.755  26.823  25.355  1.00  0.00     0.040 A 
ATOM     77  F   UNL A   1      43.046  28.935  26.101  1.00  0.00    -0.206 F 
ATOM     78  C   UNL A   1      44.552  25.688  25.505  1.00  0.00     0.006 A 
ENDBRANCH  50  71
BRANCH  62  79
ATOM     79  C   UNL A   1      43.391  34.789  28.789  1.00  0.00     0.057 A 
ATOM     80  C   UNL A   1      43.193  35.232  27.473  1.00  0.00     0.134 A 
ATOM     81  C   UNL A   1      43.513  35.816  29.752  1.00  0.00     0.134 A 
ATOM     82  F   UNL A   1      42.948  34.375  26.473  1.00  0.00    -0.206 F 
ATOM     83  C   UNL A   1      43.175  36.591  27.130  1.00  0.00     0.040 A 
ATOM     84  C   UNL A   1      43.444  37.175  29.429  1.00  0.00     0.040 A 
ATOM     85  F   UNL A   1      43.682  35.544  31.055  1.00  0.00    -0.206 F 
ATOM     86  C   UNL A   1      43.289  37.568  28.109  1.00  0.00     0.006 A 
ENDBRANCH  62  79
ENDBRANCH  36  37
ENDBRANCH  28  31
ENDBRANCH  26  27
ENDBRANCH  25  26
ENDBRANCH  24  25
ENDBRANCH   1  24
TORSDOF 16
ENDMDL
MODEL 3
REMARK VINA RESULT:     -11.9      3.743      9.028
REMARK SMILES Cc1ccccc1OCC(=O)N1C[C@@H](O)C[C@H]1C(=O)NCCCCNC(=O)c1ccc(-c2c3nc(c(-c4c(F)cccc4F)c4ccc([nH]4)c(-c4c(F)cccc4F)c4nc(c(-c5c(F)cccc5F)c5ccc2[nH]5)C=C4)C=C3)cc1
REMARK SMILES IDX 21 1 20 2 18 3 19 4 17 6 12 7 13 8 14 9 16 10 10 11 11 12
REMARK SMILES IDX 9 13 8 14 7 15 1 16 2 17 3 18 4 19 6 20 5 21 15 22 22 24
REMARK SMILES IDX 23 25 24 26 25 27 26 28 27 30 28 31 29 32 81 33 30 34 80 35
REMARK SMILES IDX 31 36 32 37 33 38 74 39 34 40 79 41 73 42 75 43 35 44 78 45
REMARK SMILES IDX 72 46 71 47 36 49 62 50 45 51 61 52 46 53 49 54 60 55 76 56
REMARK SMILES IDX 47 57 48 58 59 60 77 61 50 62 37 63 38 64 43 65 39 66 40 67
REMARK SMILES IDX 42 68 44 69 41 70 63 71 64 72 69 73 65 74 66 75 68 76 70 77
REMARK SMILES IDX 67 78 51 79 52 80 57 81 53 82 54 83 56 84 58 85 55 86
REMARK H PARENT 20 5 15 23 25 29 75 48 49 59
REMARK Flexibility Score: inf
ROOT
ATOM      1  C   UNL A   1      36.426  21.418  25.458  1.00  0.00     0.116 C 
ENDROOT
BRANCH   1   2
ATOM      2  N   UNL A   1      35.295  20.538  25.242  1.00  0.00    -0.354 N 
ATOM      3  C   UNL A   1      33.956  20.788  25.149  1.00  0.00     0.242 C 
ATOM      4  O   UNL A   1      33.260  19.869  24.703  1.00  0.00    -0.273 OA
ATOM      5  H   UNL A   1      35.534  19.588  25.144  1.00  0.00     0.163 HD
BRANCH   3   6
ATOM      6  C   UNL A   1      33.340  22.181  25.395  1.00  0.00     0.177 C 
ATOM      7  N   UNL A   1      32.217  22.549  24.532  1.00  0.00    -0.325 N 
ATOM      8  C   UNL A   1      31.036  22.905  25.296  1.00  0.00     0.152 C 
ATOM      9  C   UNL A   1      31.530  23.113  26.725  1.00  0.00     0.136 C 
ATOM     10  C   UNL A   1      32.833  22.324  26.831  1.00  0.00     0.069 C 
BRANCH   7  11
ATOM     11  C   UNL A   1      32.442  22.821  23.195  1.00  0.00     0.261 C 
ATOM     12  O   UNL A   1      32.223  21.973  22.326  1.00  0.00    -0.271 OA
BRANCH  11  13
ATOM     13  C   UNL A   1      33.070  24.169  22.814  1.00  0.00     0.329 C 
BRANCH  13  14
ATOM     14  O   UNL A   1      32.290  25.332  22.912  1.00  0.00    -0.484 OA
BRANCH  14  15
ATOM     15  C   UNL A   1      32.246  26.129  24.015  1.00  0.00     0.122 A 
ATOM     16  C   UNL A   1      29.923  27.275  23.849  1.00  0.00     0.048 C 
ATOM     17  C   UNL A   1      31.255  27.003  24.487  1.00  0.00    -0.009 A 
ATOM     18  C   UNL A   1      31.475  27.652  25.726  1.00  0.00     0.007 A 
ATOM     19  C   UNL A   1      32.636  27.454  26.473  1.00  0.00     0.001 A 
ATOM     20  C   UNL A   1      33.425  25.968  24.769  1.00  0.00     0.047 A 
ATOM     21  C   UNL A   1      33.622  26.614  25.987  1.00  0.00     0.004 A 
ENDBRANCH  14  15
ENDBRANCH  13  14
ENDBRANCH  11  13
ENDBRANCH   7  11
BRANCH   9  22
ATOM     22  O   UNL A   1      30.584  22.675  27.689  1.00  0.00    -0.391 OA
ATOM     23  H   UNL A   1      30.982  21.986  28.243  1.00  0.00     0.211 HD
ENDBRANCH   9  22
ENDBRANCH   3   6
ENDBRANCH   1   2
BRANCH   1  24
ATOM     24  C   UNL A   1      37.740  20.861  24.920  1.00  0.00     0.023 C 
BRANCH  24  25
ATOM     25  C   UNL A   1      38.953  21.060  25.827  1.00  0.00     0.023 C 
BRANCH  25  26
ATOM     26  C   UNL A   1      39.293  22.512  26.125  1.00  0.00     0.116 C 
BRANCH  26  27
ATOM     27  N   UNL A   1      40.712  22.790  26.290  1.00  0.00    -0.352 N 
ATOM     28  C   UNL A   1      41.358  23.996  26.534  1.00  0.00     0.251 C 
ATOM     29  H   UNL A   1      41.304  22.005  26.221  1.00  0.00     0.163 HD
ATOM     30  O   UNL A   1      42.576  24.033  26.571  1.00  0.00    -0.269 OA
BRANCH  28  31
ATOM     31  C   UNL A   1      40.566  25.202  26.905  1.00  0.00     0.039 A 
ATOM     32  C   UNL A   1      40.797  26.375  26.173  1.00  0.00     0.014 A 
ATOM     33  C   UNL A   1      39.812  25.257  28.072  1.00  0.00     0.014 A 
ATOM     34  C   UNL A   1      40.542  27.610  26.762  1.00  0.00     0.010 A 
ATOM     35  C   UNL A   1      39.661  26.472  28.707  1.00  0.00     0.010 A 
ATOM     36  C   UNL A   1      40.110  27.639  28.085  1.00  0.00    -0.014 A 
BRANCH  36  37
ATOM     37  C   UNL A   1      40.267  28.803  28.949  1.00  0.00     0.031 A 
ATOM     38  C   UNL A   1      39.189  29.802  29.075  1.00  0.00     0.074 A 
ATOM     39  C   UNL A   1      41.382  28.896  29.710  1.00  0.00     0.049 A 
ATOM     40  N   UNL A   1      39.360  30.983  29.565  1.00  0.00    -0.248 NA
ATOM     41  C   UNL A   1      37.836  29.585  28.572  1.00  0.00     0.031 C 
ATOM     42  C   UNL A   1      41.608  29.773  30.856  1.00  0.00     0.029 A 
ATOM     43  N   UNL A   1      42.639  28.331  29.451  1.00  0.00    -0.354 N 
ATOM     44  C   UNL A   1      38.123  31.566  29.705  1.00  0.00     0.074 A 
ATOM     45  C   UNL A   1      37.236  30.720  28.949  1.00  0.00     0.031 C 
ATOM     46  C   UNL A   1      42.930  29.912  31.042  1.00  0.00     0.029 A 
ATOM     47  C   UNL A   1      43.593  29.256  29.929  1.00  0.00     0.049 A 
ATOM     48  H   UNL A   1      42.821  27.464  29.023  1.00  0.00     0.167 HD
ATOM     49  C   UNL A   1      37.995  32.624  30.555  1.00  0.00     0.037 A 
ATOM     50  C   UNL A   1      44.475  29.866  29.085  1.00  0.00     0.037 A 
ATOM     51  C   UNL A   1      39.314  33.141  30.932  1.00  0.00     0.049 A 
ATOM     52  C   UNL A   1      44.352  31.372  29.051  1.00  0.00     0.074 A 
ATOM     53  C   UNL A   1      40.081  33.045  32.080  1.00  0.00     0.029 A 
ATOM     54  N   UNL A   1      40.145  33.663  29.943  1.00  0.00    -0.354 N 
ATOM     55  N   UNL A   1      43.310  32.026  29.486  1.00  0.00    -0.248 NA
ATOM     56  C   UNL A   1      45.373  32.257  28.497  1.00  0.00     0.031 C 
ATOM     57  C   UNL A   1      41.410  33.421  31.745  1.00  0.00     0.029 A 
ATOM     58  C   UNL A   1      41.439  33.789  30.409  1.00  0.00     0.049 A 
ATOM     59  H   UNL A   1      39.850  33.908  29.036  1.00  0.00     0.167 HD
ATOM     60  C   UNL A   1      43.477  33.365  29.247  1.00  0.00     0.074 A 
ATOM     61  C   UNL A   1      44.796  33.462  28.652  1.00  0.00     0.031 C 
ATOM     62  C   UNL A   1      42.500  34.275  29.537  1.00  0.00     0.037 A 
BRANCH  49  63
ATOM     63  C   UNL A   1      36.709  33.084  31.222  1.00  0.00     0.057 A 
ATOM     64  C   UNL A   1      35.776  33.859  30.499  1.00  0.00     0.134 A 
ATOM     65  C   UNL A   1      36.376  32.928  32.583  1.00  0.00     0.134 A 
ATOM     66  F   UNL A   1      35.931  34.100  29.189  1.00  0.00    -0.206 F 
ATOM     67  C   UNL A   1      34.643  34.448  31.083  1.00  0.00     0.040 A 
ATOM     68  C   UNL A   1      35.227  33.479  33.171  1.00  0.00     0.040 A 
ATOM     69  F   UNL A   1      37.155  32.277  33.450  1.00  0.00    -0.206 F 
ATOM     70  C   UNL A   1      34.361  34.258  32.426  1.00  0.00     0.006 A 
ENDBRANCH  49  63
BRANCH  50  71
ATOM     71  C   UNL A   1      44.879  29.015  27.938  1.00  0.00     0.057 A 
ATOM     72  C   UNL A   1      45.852  28.022  28.149  1.00  0.00     0.134 A 
ATOM     73  C   UNL A   1      44.086  28.896  26.792  1.00  0.00     0.134 A 
ATOM     74  F   UNL A   1      46.643  28.076  29.232  1.00  0.00    -0.206 F 
ATOM     75  C   UNL A   1      45.956  26.901  27.322  1.00  0.00     0.040 A 
ATOM     76  C   UNL A   1      44.187  27.780  25.952  1.00  0.00     0.040 A 
ATOM     77  F   UNL A   1      43.119  29.788  26.536  1.00  0.00    -0.206 F 
ATOM     78  C   UNL A   1      45.096  26.761  26.238  1.00  0.00     0.006 A 
ENDBRANCH  50  71
BRANCH  62  79
ATOM     79  C   UNL A   1      42.480  35.716  29.086  1.00  0.00     0.057 A 
ATOM     80  C   UNL A   1      43.252  36.737  29.661  1.00  0.00     0.134 A 
ATOM     81  C   UNL A   1      41.769  36.090  27.924  1.00  0.00     0.134 A 
ATOM     82  F   UNL A   1      44.067  36.501  30.699  1.00  0.00    -0.206 F 
ATOM     83  C   UNL A   1      43.272  38.044  29.155  1.00  0.00     0.040 A 
ATOM     84  C   UNL A   1      41.822  37.377  27.379  1.00  0.00     0.040 A 
ATOM     85  F   UNL A   1      41.007  35.214  27.252  1.00  0.00    -0.206 F 
ATOM     86  C   UNL A   1      42.565  38.366  28.004  1.00  0.00     0.006 A 
ENDBRANCH  62  79
ENDBRANCH  36  37
ENDBRANCH  28  31
ENDBRANCH  26  27
ENDBRANCH  25  26
ENDBRANCH  24  25
ENDBRANCH   1  24
TORSDOF 16
ENDMDL
