MODEL 1
REMARK VINA RESULT:     -12.1      0.000      0.000
REMARK SMILES CCC[N@@H+]1CC2(CCN(C(=O)Cn3nnnc3C)CC2)C[C@H]1C(=O)NCCCCNC(=O)c1ccc(-c2c3nc(c(-c4c(F)cccc4F)c4ccc([nH]4)c(-c4c(F)cccc4F)c4nc(c(-c5c(F)cccc5F)c5ccc2[nH]5)C=C4)C=C3)cc1
REMARK SMILES IDX 27 1 26 2 25 3 23 4 24 5 22 7 4 8 5 9 6 11 21 12 7 13 20 14
REMARK SMILES IDX 8 15 19 16 9 17 10 18 11 19 3 20 2 21 1 22 12 23 13 24 14 25
REMARK SMILES IDX 17 26 15 27 16 28 18 29 28 30 29 31 30 32 31 33 32 35 33 36
REMARK SMILES IDX 34 37 86 38 35 39 85 40 36 41 37 42 38 43 79 44 39 45 84 46
REMARK SMILES IDX 78 47 80 48 40 49 83 50 77 51 76 52 41 54 67 55 50 56 66 57
REMARK SMILES IDX 51 58 54 59 65 60 81 61 52 62 53 63 64 65 82 66 55 67 42 68
REMARK SMILES IDX 43 69 48 70 44 71 45 72 47 73 49 74 46 75 68 76 69 77 74 78
REMARK SMILES IDX 70 79 71 80 73 81 75 82 72 83 56 84 57 85 62 86 58 87 59 88
REMARK SMILES IDX 61 89 63 90 60 91
REMARK H PARENT 25 6 4 10 30 34 80 53 54 64
REMARK Flexibility Score: inf
ROOT
ATOM      1  C   UNL A   1      40.649  20.652  26.710  1.00  0.00     0.023 C 
ENDROOT
BRANCH   1   2
ATOM      2  C   UNL A   1      39.490  21.156  25.861  1.00  0.00     0.116 C 
BRANCH   2   3
ATOM      3  N   UNL A   1      39.043  22.498  26.105  1.00  0.00    -0.351 N 
ATOM      4  C   UNL A   1      37.865  23.104  25.781  1.00  0.00     0.278 C 
ATOM      5  O   UNL A   1      37.693  24.223  26.289  1.00  0.00    -0.268 OA
ATOM      6  H   UNL A   1      39.688  23.071  26.580  1.00  0.00     0.163 HD
BRANCH   4   7
ATOM      7  C   UNL A   1      36.749  22.518  24.851  1.00  0.00     0.274 C 
ATOM      8  N   UNL A   1      35.789  21.691  25.588  1.00  0.00    -0.324 N 
ATOM      9  C   UNL A   1      34.492  22.381  25.614  1.00  0.00     0.270 C 
ATOM     10  H   UNL A   1      36.102  21.587  26.553  1.00  0.00     0.348 HD
ATOM     11  C   UNL A   1      34.492  23.500  24.532  1.00  0.00     0.029 C 
ATOM     12  C   UNL A   1      35.919  23.437  23.947  1.00  0.00     0.088 C 
ATOM     13  C   UNL A   1      34.250  24.980  24.941  1.00  0.00     0.034 C 
ATOM     14  C   UNL A   1      33.311  23.212  23.558  1.00  0.00     0.034 C 
ATOM     15  C   UNL A   1      32.949  25.177  25.685  1.00  0.00     0.120 C 
ATOM     16  C   UNL A   1      31.954  23.414  24.277  1.00  0.00     0.120 C 
ATOM     17  N   UNL A   1      31.849  24.773  24.815  1.00  0.00    -0.341 N 
ATOM     18  C   UNL A   1      30.789  25.581  24.431  1.00  0.00     0.244 C 
ATOM     19  O   UNL A   1      29.914  25.173  23.660  1.00  0.00    -0.273 OA
BRANCH   8  20
ATOM     20  C   UNL A   1      35.741  20.287  25.122  1.00  0.00     0.262 C 
BRANCH  20  21
ATOM     21  C   UNL A   1      34.422  19.681  24.594  1.00  0.00     0.058 C 
ATOM     22  C   UNL A   1      34.335  18.164  24.468  1.00  0.00     0.010 C 
ENDBRANCH  20  21
ENDBRANCH   8  20
BRANCH  18  23
ATOM     23  C   UNL A   1      30.719  27.010  24.925  1.00  0.00     0.248 C 
BRANCH  23  24
ATOM     24  N   UNL A   1      31.641  27.894  24.255  1.00  0.00    -0.220 N 
ATOM     25  N   UNL A   1      31.887  27.715  22.944  1.00  0.00    -0.044 NA
ATOM     26  C   UNL A   1      32.403  28.925  24.732  1.00  0.00     0.148 A 
ATOM     27  N   UNL A   1      32.834  28.591  22.646  1.00  0.00    -0.024 NA
ATOM     28  N   UNL A   1      33.168  29.343  23.742  1.00  0.00    -0.114 NA
ATOM     29  C   UNL A   1      32.388  29.464  26.105  1.00  0.00     0.091 C 
ENDBRANCH  23  24
ENDBRANCH  18  23
ENDBRANCH   4   7
ENDBRANCH   2   3
ENDBRANCH   1   2
BRANCH   1  30
ATOM     30  C   UNL A   1      41.535  19.595  26.050  1.00  0.00     0.023 C 
BRANCH  30  31
ATOM     31  C   UNL A   1      42.963  19.528  26.584  1.00  0.00     0.116 C 
BRANCH  31  32
ATOM     32  N   UNL A   1      43.984  19.406  25.542  1.00  0.00    -0.352 N 
ATOM     33  C   UNL A   1      44.366  20.405  24.653  1.00  0.00     0.251 C 
ATOM     34  H   UNL A   1      44.442  18.538  25.463  1.00  0.00     0.163 HD
ATOM     35  O   UNL A   1      44.743  20.143  23.526  1.00  0.00    -0.269 OA
BRANCH  33  36
ATOM     36  C   UNL A   1      44.287  21.803  25.122  1.00  0.00     0.039 A 
ATOM     37  C   UNL A   1      43.248  22.660  24.740  1.00  0.00     0.014 A 
ATOM     38  C   UNL A   1      45.263  22.214  26.026  1.00  0.00     0.014 A 
ATOM     39  C   UNL A   1      43.157  23.912  25.346  1.00  0.00     0.010 A 
ATOM     40  C   UNL A   1      45.074  23.362  26.741  1.00  0.00     0.010 A 
ATOM     41  C   UNL A   1      44.069  24.244  26.358  1.00  0.00    -0.014 A 
BRANCH  41  42
ATOM     42  C   UNL A   1      43.938  25.457  27.154  1.00  0.00     0.031 A 
ATOM     43  C   UNL A   1      44.960  26.494  26.844  1.00  0.00     0.074 A 
ATOM     44  C   UNL A   1      42.806  25.708  27.850  1.00  0.00     0.049 A 
ATOM     45  N   UNL A   1      45.903  26.936  27.608  1.00  0.00    -0.248 NA
ATOM     46  C   UNL A   1      45.049  26.985  25.456  1.00  0.00     0.031 C 
ATOM     47  C   UNL A   1      41.590  24.886  27.925  1.00  0.00     0.029 A 
ATOM     48  N   UNL A   1      42.446  26.824  28.542  1.00  0.00    -0.354 N 
ATOM     49  C   UNL A   1      46.544  27.935  26.876  1.00  0.00     0.074 A 
ATOM     50  C   UNL A   1      46.144  27.745  25.509  1.00  0.00     0.031 C 
ATOM     51  C   UNL A   1      40.568  25.622  28.416  1.00  0.00     0.029 A 
ATOM     52  C   UNL A   1      41.086  26.907  28.841  1.00  0.00     0.049 A 
ATOM     53  H   UNL A   1      43.094  27.515  28.811  1.00  0.00     0.167 HD
ATOM     54  C   UNL A   1      47.096  29.013  27.500  1.00  0.00     0.037 A 
ATOM     55  C   UNL A   1      40.444  27.983  29.365  1.00  0.00     0.037 A 
ATOM     56  C   UNL A   1      47.240  28.759  28.915  1.00  0.00     0.049 A 
ATOM     57  C   UNL A   1      41.485  28.863  29.957  1.00  0.00     0.074 A 
ATOM     58  C   UNL A   1      47.900  27.815  29.677  1.00  0.00     0.029 A 
ATOM     59  N   UNL A   1      46.307  29.326  29.749  1.00  0.00    -0.354 N 
ATOM     60  N   UNL A   1      42.197  28.536  30.998  1.00  0.00    -0.248 NA
ATOM     61  C   UNL A   1      42.068  29.877  29.091  1.00  0.00     0.031 C 
ATOM     62  C   UNL A   1      47.007  27.524  30.753  1.00  0.00     0.029 A 
ATOM     63  C   UNL A   1      45.902  28.367  30.639  1.00  0.00     0.049 A 
ATOM     64  H   UNL A   1      45.986  30.256  29.714  1.00  0.00     0.167 HD
ATOM     65  C   UNL A   1      43.483  28.957  30.690  1.00  0.00     0.074 A 
ATOM     66  C   UNL A   1      43.328  29.837  29.532  1.00  0.00     0.031 C 
ATOM     67  C   UNL A   1      44.573  28.314  31.204  1.00  0.00     0.037 A 
BRANCH  54  68
ATOM     68  C   UNL A   1      47.093  30.428  26.950  1.00  0.00     0.057 A 
ATOM     69  C   UNL A   1      48.277  31.186  27.042  1.00  0.00     0.134 A 
ATOM     70  C   UNL A   1      45.939  31.175  26.633  1.00  0.00     0.134 A 
ATOM     71  F   UNL A   1      49.450  30.601  27.327  1.00  0.00    -0.206 F 
ATOM     72  C   UNL A   1      48.289  32.583  26.944  1.00  0.00     0.040 A 
ATOM     73  C   UNL A   1      45.951  32.565  26.482  1.00  0.00     0.040 A 
ATOM     74  F   UNL A   1      44.721  30.633  26.544  1.00  0.00    -0.206 F 
ATOM     75  C   UNL A   1      47.118  33.280  26.678  1.00  0.00     0.006 A 
ENDBRANCH  54  68
BRANCH  55  76
ATOM     76  C   UNL A   1      39.063  28.465  29.118  1.00  0.00     0.057 A 
ATOM     77  C   UNL A   1      38.120  28.537  30.154  1.00  0.00     0.134 A 
ATOM     78  C   UNL A   1      38.724  29.138  27.931  1.00  0.00     0.134 A 
ATOM     79  F   UNL A   1      38.369  27.963  31.341  1.00  0.00    -0.206 F 
ATOM     80  C   UNL A   1      36.924  29.259  30.030  1.00  0.00     0.040 A 
ATOM     81  C   UNL A   1      37.532  29.859  27.791  1.00  0.00     0.040 A 
ATOM     82  F   UNL A   1      39.579  29.193  26.899  1.00  0.00    -0.206 F 
ATOM     83  C   UNL A   1      36.634  29.935  28.848  1.00  0.00     0.006 A 
ENDBRANCH  55  76
BRANCH  67  84
ATOM     84  C   UNL A   1      44.347  27.306  32.299  1.00  0.00     0.057 A 
ATOM     85  C   UNL A   1      44.220  25.923  32.093  1.00  0.00     0.134 A 
ATOM     86  C   UNL A   1      44.421  27.740  33.625  1.00  0.00     0.134 A 
ATOM     87  F   UNL A   1      44.234  25.400  30.861  1.00  0.00    -0.206 F 
ATOM     88  C   UNL A   1      44.135  25.021  33.158  1.00  0.00     0.040 A 
ATOM     89  C   UNL A   1      44.371  26.848  34.698  1.00  0.00     0.040 A 
ATOM     90  F   UNL A   1      44.598  29.042  33.899  1.00  0.00    -0.206 F 
ATOM     91  C   UNL A   1      44.218  25.484  34.467  1.00  0.00     0.006 A 
ENDBRANCH  67  84
ENDBRANCH  41  42
ENDBRANCH  33  36
ENDBRANCH  31  32
ENDBRANCH  30  31
ENDBRANCH   1  30
TORSDOF 15
ENDMDL
MODEL 2
REMARK VINA RESULT:     -11.9      2.550      6.188
REMARK SMILES CCC[N@@H+]1CC2(CCN(C(=O)Cn3nnnc3C)CC2)C[C@H]1C(=O)NCCCCNC(=O)c1ccc(-c2c3nc(c(-c4c(F)cccc4F)c4ccc([nH]4)c(-c4c(F)cccc4F)c4nc(c(-c5c(F)cccc5F)c5ccc2[nH]5)C=C4)C=C3)cc1
REMARK SMILES IDX 27 1 26 2 25 3 23 4 24 5 22 7 4 8 5 9 6 11 21 12 7 13 20 14
REMARK SMILES IDX 8 15 19 16 9 17 10 18 11 19 3 20 2 21 1 22 12 23 13 24 14 25
REMARK SMILES IDX 17 26 15 27 16 28 18 29 28 30 29 31 30 32 31 33 32 35 33 36
REMARK SMILES IDX 34 37 86 38 35 39 85 40 36 41 37 42 38 43 79 44 39 45 84 46
REMARK SMILES IDX 78 47 80 48 40 49 83 50 77 51 76 52 41 54 67 55 50 56 66 57
REMARK SMILES IDX 51 58 54 59 65 60 81 61 52 62 53 63 64 65 82 66 55 67 42 68
REMARK SMILES IDX 43 69 48 70 44 71 45 72 47 73 49 74 46 75 68 76 69 77 74 78
REMARK SMILES IDX 70 79 71 80 73 81 75 82 72 83 56 84 57 85 62 86 58 87 59 88
REMARK SMILES IDX 61 89 63 90 60 91
REMARK H PARENT 25 6 4 10 30 34 80 53 54 64
REMARK Flexibility Score: inf
ROOT
ATOM      1  C   UNL A   1      36.228  21.140  25.542  1.00  0.00     0.023 C 
ENDROOT
BRANCH   1   2
ATOM      2  C   UNL A   1      35.047  21.411  24.619  1.00  0.00     0.116 C 
BRANCH   2   3
ATOM      3  N   UNL A   1      35.170  22.520  23.717  1.00  0.00    -0.351 N 
ATOM      4  C   UNL A   1      34.282  23.511  23.417  1.00  0.00     0.278 C 
ATOM      5  O   UNL A   1      34.741  24.440  22.735  1.00  0.00    -0.268 OA
ATOM      6  H   UNL A   1      36.029  22.574  23.239  1.00  0.00     0.163 HD
BRANCH   4   7
ATOM      7  C   UNL A   1      32.778  23.567  23.853  1.00  0.00     0.274 C 
ATOM      8  N   UNL A   1      32.600  24.219  25.155  1.00  0.00    -0.324 N 
ATOM      9  C   UNL A   1      31.912  25.500  24.951  1.00  0.00     0.270 C 
ATOM     10  H   UNL A   1      33.515  24.421  25.560  1.00  0.00     0.348 HD
ATOM     11  C   UNL A   1      31.268  25.512  23.534  1.00  0.00     0.029 C 
ATOM     12  C   UNL A   1      31.715  24.165  22.925  1.00  0.00     0.088 C 
ATOM     13  C   UNL A   1      31.662  26.610  22.507  1.00  0.00     0.034 C 
ATOM     14  C   UNL A   1      29.738  25.739  23.715  1.00  0.00     0.034 C 
ATOM     15  C   UNL A   1      31.438  28.010  23.032  1.00  0.00     0.120 C 
ATOM     16  C   UNL A   1      29.461  27.168  24.240  1.00  0.00     0.120 C 
ATOM     17  N   UNL A   1      30.019  28.174  23.332  1.00  0.00    -0.341 N 
ATOM     18  C   UNL A   1      29.188  29.140  22.786  1.00  0.00     0.244 C 
ATOM     19  O   UNL A   1      27.986  29.189  23.066  1.00  0.00    -0.273 OA
BRANCH   8  20
ATOM     20  C   UNL A   1      31.993  23.338  26.177  1.00  0.00     0.262 C 
BRANCH  20  21
ATOM     21  C   UNL A   1      30.622  23.686  26.797  1.00  0.00     0.058 C 
ATOM     22  C   UNL A   1      29.600  22.564  26.944  1.00  0.00     0.010 C 
ENDBRANCH  20  21
ENDBRANCH   8  20
BRANCH  18  23
ATOM     23  C   UNL A   1      29.746  30.132  21.789  1.00  0.00     0.248 C 
BRANCH  23  24
ATOM     24  N   UNL A   1      28.832  31.200  21.467  1.00  0.00    -0.220 N 
ATOM     25  N   UNL A   1      28.052  31.090  20.376  1.00  0.00    -0.044 NA
ATOM     26  C   UNL A   1      28.616  32.409  22.068  1.00  0.00     0.148 A 
ATOM     27  N   UNL A   1      27.414  32.246  20.286  1.00  0.00    -0.024 NA
ATOM     28  N   UNL A   1      27.757  33.075  21.322  1.00  0.00    -0.114 NA
ATOM     29  C   UNL A   1      29.240  32.891  23.316  1.00  0.00     0.091 C 
ENDBRANCH  23  24
ENDBRANCH  18  23
ENDBRANCH   4   7
ENDBRANCH   2   3
ENDBRANCH   1   2
BRANCH   1  30
ATOM     30  C   UNL A   1      37.312  20.227  24.971  1.00  0.00     0.023 C 
BRANCH  30  31
ATOM     31  C   UNL A   1      38.739  20.598  25.366  1.00  0.00     0.116 C 
BRANCH  31  32
ATOM     32  N   UNL A   1      39.578  19.450  25.715  1.00  0.00    -0.352 N 
ATOM     33  C   UNL A   1      40.949  19.484  25.951  1.00  0.00     0.251 C 
ATOM     34  H   UNL A   1      39.133  18.575  25.790  1.00  0.00     0.163 HD
ATOM     35  O   UNL A   1      41.664  18.538  25.679  1.00  0.00    -0.269 OA
BRANCH  33  36
ATOM     36  C   UNL A   1      41.511  20.717  26.535  1.00  0.00     0.039 A 
ATOM     37  C   UNL A   1      42.147  21.690  25.755  1.00  0.00     0.014 A 
ATOM     38  C   UNL A   1      41.316  20.906  27.901  1.00  0.00     0.014 A 
ATOM     39  C   UNL A   1      42.511  22.895  26.353  1.00  0.00     0.010 A 
ATOM     40  C   UNL A   1      41.513  22.145  28.441  1.00  0.00     0.010 A 
ATOM     41  C   UNL A   1      42.173  23.115  27.696  1.00  0.00    -0.014 A 
BRANCH  41  42
ATOM     42  C   UNL A   1      42.365  24.406  28.344  1.00  0.00     0.031 A 
ATOM     43  C   UNL A   1      41.241  25.359  28.131  1.00  0.00     0.074 A 
ATOM     44  C   UNL A   1      43.311  24.568  29.296  1.00  0.00     0.049 A 
ATOM     45  N   UNL A   1      41.255  26.474  27.480  1.00  0.00    -0.248 NA
ATOM     46  C   UNL A   1      39.890  24.942  28.553  1.00  0.00     0.031 C 
ATOM     47  C   UNL A   1      44.243  23.562  29.824  1.00  0.00     0.029 A 
ATOM     48  N   UNL A   1      43.559  25.642  30.095  1.00  0.00    -0.354 N 
ATOM     49  C   UNL A   1      39.977  27.013  27.626  1.00  0.00     0.074 A 
ATOM     50  C   UNL A   1      39.139  25.932  28.069  1.00  0.00     0.031 C 
ATOM     51  C   UNL A   1      44.777  23.997  30.988  1.00  0.00     0.029 A 
ATOM     52  C   UNL A   1      44.358  25.368  31.205  1.00  0.00     0.049 A 
ATOM     53  H   UNL A   1      43.205  26.541  29.903  1.00  0.00     0.167 HD
ATOM     54  C   UNL A   1      39.788  28.361  27.669  1.00  0.00     0.037 A 
ATOM     55  C   UNL A   1      44.612  26.210  32.240  1.00  0.00     0.037 A 
ATOM     56  C   UNL A   1      40.960  29.052  27.183  1.00  0.00     0.049 A 
ATOM     57  C   UNL A   1      44.264  27.579  31.779  1.00  0.00     0.074 A 
ATOM     58  C   UNL A   1      41.670  29.058  25.998  1.00  0.00     0.029 A 
ATOM     59  N   UNL A   1      41.799  29.597  28.124  1.00  0.00    -0.354 N 
ATOM     60  N   UNL A   1      44.920  28.213  30.847  1.00  0.00    -0.248 NA
ATOM     61  C   UNL A   1      42.899  28.029  32.002  1.00  0.00     0.031 C 
ATOM     62  C   UNL A   1      43.040  29.137  26.394  1.00  0.00     0.029 A 
ATOM     63  C   UNL A   1      43.083  29.267  27.782  1.00  0.00     0.049 A 
ATOM     64  H   UNL A   1      41.526  30.129  28.906  1.00  0.00     0.167 HD
ATOM     65  C   UNL A   1      43.938  28.819  30.078  1.00  0.00     0.074 A 
ATOM     66  C   UNL A   1      42.716  28.726  30.878  1.00  0.00     0.031 C 
ATOM     67  C   UNL A   1      44.137  29.060  28.748  1.00  0.00     0.037 A 
BRANCH  54  68
ATOM     68  C   UNL A   1      38.764  29.065  28.542  1.00  0.00     0.057 A 
ATOM     69  C   UNL A   1      38.796  28.836  29.931  1.00  0.00     0.134 A 
ATOM     70  C   UNL A   1      37.587  29.687  28.074  1.00  0.00     0.134 A 
ATOM     71  F   UNL A   1      39.861  28.262  30.511  1.00  0.00    -0.206 F 
ATOM     72  C   UNL A   1      37.700  29.095  30.765  1.00  0.00     0.040 A 
ATOM     73  C   UNL A   1      36.508  29.996  28.908  1.00  0.00     0.040 A 
ATOM     74  F   UNL A   1      37.362  29.946  26.783  1.00  0.00    -0.206 F 
ATOM     75  C   UNL A   1      36.544  29.664  30.250  1.00  0.00     0.006 A 
ENDBRANCH  54  68
BRANCH  55  76
ATOM     76  C   UNL A   1      44.818  25.899  33.675  1.00  0.00     0.057 A 
ATOM     77  C   UNL A   1      46.098  25.927  34.250  1.00  0.00     0.134 A 
ATOM     78  C   UNL A   1      43.741  25.854  34.577  1.00  0.00     0.134 A 
ATOM     79  F   UNL A   1      47.189  26.012  33.474  1.00  0.00    -0.206 F 
ATOM     80  C   UNL A   1      46.296  25.939  35.638  1.00  0.00     0.040 A 
ATOM     81  C   UNL A   1      43.924  25.862  35.965  1.00  0.00     0.040 A 
ATOM     82  F   UNL A   1      42.473  25.892  34.143  1.00  0.00    -0.206 F 
ATOM     83  C   UNL A   1      45.204  25.920  36.501  1.00  0.00     0.006 A 
ENDBRANCH  55  76
BRANCH  67  84
ATOM     84  C   UNL A   1      45.527  28.881  28.199  1.00  0.00     0.057 A 
ATOM     85  C   UNL A   1      46.020  27.685  27.655  1.00  0.00     0.134 A 
ATOM     86  C   UNL A   1      46.341  30.010  28.074  1.00  0.00     0.134 A 
ATOM     87  F   UNL A   1      45.278  26.571  27.642  1.00  0.00    -0.206 F 
ATOM     88  C   UNL A   1      47.277  27.610  27.048  1.00  0.00     0.040 A 
ATOM     89  C   UNL A   1      47.585  29.958  27.442  1.00  0.00     0.040 A 
ATOM     90  F   UNL A   1      45.914  31.202  28.521  1.00  0.00    -0.206 F 
ATOM     91  C   UNL A   1      48.061  28.753  26.933  1.00  0.00     0.006 A 
ENDBRANCH  67  84
ENDBRANCH  41  42
ENDBRANCH  33  36
ENDBRANCH  31  32
ENDBRANCH  30  31
ENDBRANCH   1  30
TORSDOF 15
ENDMDL
MODEL 3
REMARK VINA RESULT:     -11.6      2.768      7.962
REMARK SMILES CCC[N@@H+]1CC2(CCN(C(=O)Cn3nnnc3C)CC2)C[C@H]1C(=O)NCCCCNC(=O)c1ccc(-c2c3nc(c(-c4c(F)cccc4F)c4ccc([nH]4)c(-c4c(F)cccc4F)c4nc(c(-c5c(F)cccc5F)c5ccc2[nH]5)C=C4)C=C3)cc1
REMARK SMILES IDX 27 1 26 2 25 3 23 4 24 5 22 7 4 8 5 9 6 11 21 12 7 13 20 14
REMARK SMILES IDX 8 15 19 16 9 17 10 18 11 19 3 20 2 21 1 22 12 23 13 24 14 25
REMARK SMILES IDX 17 26 15 27 16 28 18 29 28 30 29 31 30 32 31 33 32 35 33 36
REMARK SMILES IDX 34 37 86 38 35 39 85 40 36 41 37 42 38 43 79 44 39 45 84 46
REMARK SMILES IDX 78 47 80 48 40 49 83 50 77 51 76 52 41 54 67 55 50 56 66 57
REMARK SMILES IDX 51 58 54 59 65 60 81 61 52 62 53 63 64 65 82 66 55 67 42 68
REMARK SMILES IDX 43 69 48 70 44 71 45 72 47 73 49 74 46 75 68 76 69 77 74 78
REMARK SMILES IDX 70 79 71 80 73 81 75 82 72 83 56 84 57 85 62 86 58 87 59 88
REMARK SMILES IDX 61 89 63 90 60 91
REMARK H PARENT 25 6 4 10 30 34 80 53 54 64
REMARK Flexibility Score: inf
ROOT
ATOM      1  C   UNL A   1      32.911  29.416  26.449  1.00  0.00     0.023 C 
ENDROOT
BRANCH   1   2
ATOM      2  C   UNL A   1      31.806  28.513  25.916  1.00  0.00     0.116 C 
BRANCH   2   3
ATOM      3  N   UNL A   1      31.502  27.339  26.684  1.00  0.00    -0.351 N 
ATOM      4  C   UNL A   1      31.416  26.034  26.296  1.00  0.00     0.278 C 
ATOM      5  O   UNL A   1      31.316  25.216  27.224  1.00  0.00    -0.268 OA
ATOM      6  H   UNL A   1      31.327  27.502  27.639  1.00  0.00     0.163 HD
BRANCH   4   7
ATOM      7  C   UNL A   1      31.433  25.505  24.822  1.00  0.00     0.274 C 
ATOM      8  N   UNL A   1      32.794  25.370  24.295  1.00  0.00    -0.324 N 
ATOM      9  C   UNL A   1      33.094  23.943  24.121  1.00  0.00     0.270 C 
ATOM     10  H   UNL A   1      33.458  25.744  24.973  1.00  0.00     0.348 HD
ATOM     11  C   UNL A   1      31.763  23.136  24.156  1.00  0.00     0.029 C 
ATOM     12  C   UNL A   1      30.696  24.214  24.444  1.00  0.00     0.088 C 
ATOM     13  C   UNL A   1      31.556  22.021  25.219  1.00  0.00     0.034 C 
ATOM     14  C   UNL A   1      31.647  22.360  22.811  1.00  0.00     0.034 C 
ATOM     15  C   UNL A   1      32.634  20.962  25.174  1.00  0.00     0.120 C 
ATOM     16  C   UNL A   1      32.728  21.255  22.728  1.00  0.00     0.120 C 
ATOM     17  N   UNL A   1      32.613  20.330  23.858  1.00  0.00    -0.341 N 
ATOM     18  C   UNL A   1      32.436  18.976  23.620  1.00  0.00     0.244 C 
ATOM     19  O   UNL A   1      32.394  18.524  22.471  1.00  0.00    -0.273 OA
BRANCH   8  20
ATOM     20  C   UNL A   1      33.053  26.213  23.107  1.00  0.00     0.262 C 
BRANCH  20  21
ATOM     21  C   UNL A   1      32.094  26.179  21.897  1.00  0.00     0.058 C 
ATOM     22  C   UNL A   1      32.589  25.525  20.612  1.00  0.00     0.010 C 
ENDBRANCH  20  21
ENDBRANCH   8  20
BRANCH  18  23
ATOM     23  C   UNL A   1      32.241  18.029  24.784  1.00  0.00     0.248 C 
BRANCH  23  24
ATOM     24  N   UNL A   1      33.341  17.115  24.972  1.00  0.00    -0.220 N 
ATOM     25  N   UNL A   1      34.596  17.541  24.735  1.00  0.00    -0.044 NA
ATOM     26  C   UNL A   1      33.361  15.794  25.325  1.00  0.00     0.148 A 
ATOM     27  N   UNL A   1      35.360  16.471  24.886  1.00  0.00    -0.024 NA
ATOM     28  N   UNL A   1      34.611  15.381  25.246  1.00  0.00    -0.114 NA
ATOM     29  C   UNL A   1      32.197  14.972  25.711  1.00  0.00     0.091 C 
ENDBRANCH  23  24
ENDBRANCH  18  23
ENDBRANCH   4   7
ENDBRANCH   2   3
ENDBRANCH   1   2
BRANCH   1  30
ATOM     30  C   UNL A   1      33.968  28.725  27.309  1.00  0.00     0.023 C 
BRANCH  30  31
ATOM     31  C   UNL A   1      35.269  29.504  27.479  1.00  0.00     0.116 C 
BRANCH  31  32
ATOM     32  N   UNL A   1      35.408  30.155  28.782  1.00  0.00    -0.352 N 
ATOM     33  C   UNL A   1      36.313  29.803  29.778  1.00  0.00     0.251 C 
ATOM     34  H   UNL A   1      34.807  30.911  28.972  1.00  0.00     0.163 HD
ATOM     35  O   UNL A   1      36.048  29.943  30.957  1.00  0.00    -0.269 OA
BRANCH  33  36
ATOM     36  C   UNL A   1      37.611  29.241  29.353  1.00  0.00     0.039 A 
ATOM     37  C   UNL A   1      38.333  29.764  28.274  1.00  0.00     0.014 A 
ATOM     38  C   UNL A   1      38.124  28.202  30.125  1.00  0.00     0.014 A 
ATOM     39  C   UNL A   1      39.618  29.283  28.033  1.00  0.00     0.010 A 
ATOM     40  C   UNL A   1      39.439  27.858  29.997  1.00  0.00     0.010 A 
ATOM     41  C   UNL A   1      40.166  28.339  28.913  1.00  0.00    -0.014 A 
BRANCH  41  42
ATOM     42  C   UNL A   1      41.557  27.915  28.830  1.00  0.00     0.031 A 
ATOM     43  C   UNL A   1      41.759  26.661  28.052  1.00  0.00     0.074 A 
ATOM     44  C   UNL A   1      42.559  28.764  29.151  1.00  0.00     0.049 A 
ATOM     45  N   UNL A   1      42.168  25.515  28.482  1.00  0.00    -0.248 NA
ATOM     46  C   UNL A   1      41.290  26.632  26.653  1.00  0.00     0.031 C 
ATOM     47  C   UNL A   1      42.452  30.160  29.598  1.00  0.00     0.029 A 
ATOM     48  N   UNL A   1      43.904  28.601  29.023  1.00  0.00    -0.354 N 
ATOM     49  C   UNL A   1      42.242  24.694  27.357  1.00  0.00     0.074 A 
ATOM     50  C   UNL A   1      41.470  25.348  26.337  1.00  0.00     0.031 C 
ATOM     51  C   UNL A   1      43.651  30.773  29.477  1.00  0.00     0.029 A 
ATOM     52  C   UNL A   1      44.642  29.783  29.105  1.00  0.00     0.049 A 
ATOM     53  H   UNL A   1      44.323  27.721  28.885  1.00  0.00     0.167 HD
ATOM     54  C   UNL A   1      43.183  23.712  27.269  1.00  0.00     0.037 A 
ATOM     55  C   UNL A   1      45.967  29.922  28.842  1.00  0.00     0.037 A 
ATOM     56  C   UNL A   1      43.753  23.441  28.569  1.00  0.00     0.049 A 
ATOM     57  C   UNL A   1      46.562  28.562  28.884  1.00  0.00     0.074 A 
ATOM     58  C   UNL A   1      43.253  23.034  29.790  1.00  0.00     0.029 A 
ATOM     59  N   UNL A   1      44.991  23.975  28.832  1.00  0.00    -0.354 N 
ATOM     60  N   UNL A   1      46.654  27.849  29.971  1.00  0.00    -0.248 NA
ATOM     61  C   UNL A   1      46.592  27.811  27.638  1.00  0.00     0.031 C 
ATOM     62  C   UNL A   1      43.987  23.788  30.755  1.00  0.00     0.029 A 
ATOM     63  C   UNL A   1      44.949  24.538  30.079  1.00  0.00     0.049 A 
ATOM     64  H   UNL A   1      45.770  23.957  28.231  1.00  0.00     0.167 HD
ATOM     65  C   UNL A   1      46.308  26.564  29.579  1.00  0.00     0.074 A 
ATOM     66  C   UNL A   1      46.347  26.589  28.117  1.00  0.00     0.031 C 
ATOM     67  C   UNL A   1      45.726  25.695  30.458  1.00  0.00     0.037 A 
BRANCH  54  68
ATOM     68  C   UNL A   1      43.905  23.315  25.994  1.00  0.00     0.057 A 
ATOM     69  C   UNL A   1      43.995  21.947  25.674  1.00  0.00     0.134 A 
ATOM     70  C   UNL A   1      44.763  24.153  25.251  1.00  0.00     0.134 A 
ATOM     71  F   UNL A   1      43.227  21.040  26.296  1.00  0.00    -0.206 F 
ATOM     72  C   UNL A   1      44.944  21.443  24.774  1.00  0.00     0.040 A 
ATOM     73  C   UNL A   1      45.678  23.663  24.314  1.00  0.00     0.040 A 
ATOM     74  F   UNL A   1      44.844  25.472  25.446  1.00  0.00    -0.206 F 
ATOM     75  C   UNL A   1      45.801  22.302  24.101  1.00  0.00     0.006 A 
ENDBRANCH  54  68
BRANCH  55  76
ATOM     76  C   UNL A   1      46.691  31.073  28.249  1.00  0.00     0.057 A 
ATOM     77  C   UNL A   1      46.334  31.590  26.994  1.00  0.00     0.134 A 
ATOM     78  C   UNL A   1      47.550  31.874  29.021  1.00  0.00     0.134 A 
ATOM     79  F   UNL A   1      45.485  30.920  26.200  1.00  0.00    -0.206 F 
ATOM     80  C   UNL A   1      46.781  32.840  26.544  1.00  0.00     0.040 A 
ATOM     81  C   UNL A   1      48.007  33.123  28.583  1.00  0.00     0.040 A 
ATOM     82  F   UNL A   1      47.903  31.513  30.263  1.00  0.00    -0.206 F 
ATOM     83  C   UNL A   1      47.611  33.618  27.347  1.00  0.00     0.006 A 
ENDBRANCH  55  76
BRANCH  67  84
ATOM     84  C   UNL A   1      45.699  26.077  31.914  1.00  0.00     0.057 A 
ATOM     85  C   UNL A   1      44.591  26.638  32.569  1.00  0.00     0.134 A 
ATOM     86  C   UNL A   1      46.784  25.712  32.715  1.00  0.00     0.134 A 
ATOM     87  F   UNL A   1      43.469  26.934  31.904  1.00  0.00    -0.206 F 
ATOM     88  C   UNL A   1      44.581  26.858  33.950  1.00  0.00     0.040 A 
ATOM     89  C   UNL A   1      46.775  25.896  34.099  1.00  0.00     0.040 A 
ATOM     90  F   UNL A   1      47.857  25.120  32.169  1.00  0.00    -0.206 F 
ATOM     91  C   UNL A   1      45.675  26.479  34.721  1.00  0.00     0.006 A 
ENDBRANCH  67  84
ENDBRANCH  41  42
ENDBRANCH  33  36
ENDBRANCH  31  32
ENDBRANCH  30  31
ENDBRANCH   1  30
TORSDOF 15
ENDMDL
