MODEL 1
REMARK VINA RESULT:     -14.2      0.000      0.000
REMARK SMILES Cc1c(NC(=O)c2cccc(-c3cc4ccccc4oc3=O)c2)cccc1C(=O)NCCCCNC(=O)c1ccc(-c2c3nc(c(-c4c(F)cccc4F)c4ccc([nH]4)c(-c4c(F)cccc4F)c4nc(c(-c5c(F)cccc5F)c5ccc2[nH]5)C=C4)C=C3)cc1
REMARK SMILES IDX 32 1 31 2 30 3 28 4 29 5 27 7 1 8 2 9 3 10 24 11 26 12 25 13
REMARK SMILES IDX 4 14 5 15 6 17 7 18 8 19 23 20 9 21 11 22 10 23 12 24 13 25
REMARK SMILES IDX 21 26 14 27 20 28 22 29 15 30 19 31 16 32 18 33 17 34 33 35
REMARK SMILES IDX 34 36 35 37 36 38 37 40 38 41 39 42 91 43 40 44 90 45 41 46
REMARK SMILES IDX 42 47 43 48 84 49 44 50 89 51 83 52 85 53 45 54 88 55 82 56
REMARK SMILES IDX 81 57 46 59 72 60 55 61 71 62 56 63 59 64 70 65 86 66 57 67
REMARK SMILES IDX 58 68 69 70 87 71 60 72 47 73 48 74 53 75 49 76 50 77 52 78
REMARK SMILES IDX 54 79 51 80 73 81 74 82 79 83 75 84 76 85 78 86 80 87 77 88
REMARK SMILES IDX 61 89 62 90 67 91 63 92 64 93 66 94 68 95 65 96
REMARK H PARENT 30 6 4 16 35 39 85 58 59 69
REMARK Flexibility Score: inf
ROOT
ATOM      1  C   UNL A   1      37.130  23.525  26.095  1.00  0.00     0.023 C 
ENDROOT
BRANCH   1   2
ATOM      2  C   UNL A   1      36.745  22.088  25.696  1.00  0.00     0.116 C 
BRANCH   2   3
ATOM      3  N   UNL A   1      35.565  21.630  26.403  1.00  0.00    -0.352 N 
ATOM      4  C   UNL A   1      34.204  21.658  26.280  1.00  0.00     0.251 C 
ATOM      5  O   UNL A   1      33.653  21.080  27.231  1.00  0.00    -0.269 OA
ATOM      6  H   UNL A   1      35.823  21.152  27.225  1.00  0.00     0.163 HD
BRANCH   4   7
ATOM      7  C   UNL A   1      33.295  22.270  25.226  1.00  0.00     0.044 A 
ATOM      8  C   UNL A   1      34.930  22.952  23.367  1.00  0.00     0.047 C 
ATOM      9  C   UNL A   1      33.562  22.856  23.963  1.00  0.00    -0.015 A 
ATOM     10  C   UNL A   1      32.501  23.475  23.228  1.00  0.00     0.045 A 
ATOM     11  C   UNL A   1      31.202  23.521  23.731  1.00  0.00     0.026 A 
ATOM     12  C   UNL A   1      31.948  22.340  25.681  1.00  0.00     0.014 A 
ATOM     13  C   UNL A   1      30.925  22.958  24.961  1.00  0.00     0.003 A 
BRANCH  10  14
ATOM     14  N   UNL A   1      32.773  24.021  21.958  1.00  0.00    -0.322 N 
ATOM     15  C   UNL A   1      32.913  25.316  21.517  1.00  0.00     0.255 C 
ATOM     16  H   UNL A   1      32.885  23.345  21.252  1.00  0.00     0.170 HD
ATOM     17  O   UNL A   1      32.896  25.518  20.301  1.00  0.00    -0.269 OA
BRANCH  15  18
ATOM     18  C   UNL A   1      33.217  26.459  22.422  1.00  0.00     0.040 A 
ATOM     19  C   UNL A   1      33.833  27.586  21.865  1.00  0.00     0.014 A 
ATOM     20  C   UNL A   1      33.051  26.394  23.813  1.00  0.00     0.022 A 
ATOM     21  C   UNL A   1      34.232  28.646  22.678  1.00  0.00     0.001 A 
ATOM     22  C   UNL A   1      33.439  27.459  24.644  1.00  0.00    -0.010 A 
ATOM     23  C   UNL A   1      34.028  28.586  24.056  1.00  0.00     0.009 A 
BRANCH  22  24
ATOM     24  C   UNL A   1      33.380  27.403  26.130  1.00  0.00     0.068 A 
ATOM     25  C   UNL A   1      34.168  28.156  26.932  1.00  0.00     0.028 A 
ATOM     26  C   UNL A   1      31.986  27.352  26.678  1.00  0.00     0.344 A 
ATOM     27  C   UNL A   1      33.643  29.528  27.115  1.00  0.00     0.018 A 
ATOM     28  O   UNL A   1      31.404  28.612  26.829  1.00  0.00    -0.422 OA
ATOM     29  O   UNL A   1      31.389  26.302  26.877  1.00  0.00    -0.246 OA
ATOM     30  C   UNL A   1      34.468  30.616  27.380  1.00  0.00     0.012 A 
ATOM     31  C   UNL A   1      32.265  29.723  26.958  1.00  0.00     0.138 A 
ATOM     32  C   UNL A   1      33.907  31.894  27.430  1.00  0.00     0.001 A 
ATOM     33  C   UNL A   1      31.707  30.993  26.959  1.00  0.00     0.048 A 
ATOM     34  C   UNL A   1      32.542  32.084  27.189  1.00  0.00     0.004 A 
ENDBRANCH  22  24
ENDBRANCH  15  18
ENDBRANCH  10  14
ENDBRANCH   4   7
ENDBRANCH   2   3
ENDBRANCH   1   2
BRANCH   1  35
ATOM     35  C   UNL A   1      38.619  23.862  26.048  1.00  0.00     0.023 C 
BRANCH  35  36
ATOM     36  C   UNL A   1      39.469  22.915  26.876  1.00  0.00     0.116 C 
BRANCH  36  37
ATOM     37  N   UNL A   1      40.851  23.333  27.089  1.00  0.00    -0.352 N 
ATOM     38  C   UNL A   1      41.368  24.609  27.262  1.00  0.00     0.251 C 
ATOM     39  H   UNL A   1      41.513  22.605  27.114  1.00  0.00     0.163 HD
ATOM     40  O   UNL A   1      42.585  24.770  27.344  1.00  0.00    -0.269 OA
BRANCH  38  41
ATOM     41  C   UNL A   1      40.454  25.753  27.523  1.00  0.00     0.039 A 
ATOM     42  C   UNL A   1      40.578  26.873  26.691  1.00  0.00     0.014 A 
ATOM     43  C   UNL A   1      39.775  25.859  28.730  1.00  0.00     0.014 A 
ATOM     44  C   UNL A   1      40.344  28.136  27.221  1.00  0.00     0.010 A 
ATOM     45  C   UNL A   1      39.687  27.107  29.308  1.00  0.00     0.010 A 
ATOM     46  C   UNL A   1      40.060  28.241  28.579  1.00  0.00    -0.014 A 
BRANCH  46  47
ATOM     47  C   UNL A   1      40.304  29.456  29.351  1.00  0.00     0.031 A 
ATOM     48  C   UNL A   1      39.233  30.455  29.530  1.00  0.00     0.074 A 
ATOM     49  C   UNL A   1      41.483  29.598  30.000  1.00  0.00     0.049 A 
ATOM     50  N   UNL A   1      39.426  31.680  29.882  1.00  0.00    -0.248 NA
ATOM     51  C   UNL A   1      37.835  30.156  29.254  1.00  0.00     0.031 C 
ATOM     52  C   UNL A   1      41.807  30.554  31.055  1.00  0.00     0.029 A 
ATOM     53  N   UNL A   1      42.714  29.010  29.676  1.00  0.00    -0.354 N 
ATOM     54  C   UNL A   1      38.198  32.238  30.165  1.00  0.00     0.074 A 
ATOM     55  C   UNL A   1      37.244  31.281  29.661  1.00  0.00     0.031 C 
ATOM     56  C   UNL A   1      43.141  30.702  31.113  1.00  0.00     0.029 A 
ATOM     57  C   UNL A   1      43.704  29.962  29.997  1.00  0.00     0.049 A 
ATOM     58  H   UNL A   1      42.858  28.111  29.298  1.00  0.00     0.167 HD
ATOM     59  C   UNL A   1      38.152  33.377  30.919  1.00  0.00     0.037 A 
ATOM     60  C   UNL A   1      44.504  30.502  29.032  1.00  0.00     0.037 A 
ATOM     61  C   UNL A   1      39.500  33.922  31.109  1.00  0.00     0.049 A 
ATOM     62  C   UNL A   1      44.356  31.999  28.878  1.00  0.00     0.074 A 
ATOM     63  C   UNL A   1      40.396  33.878  32.166  1.00  0.00     0.029 A 
ATOM     64  N   UNL A   1      40.222  34.371  30.005  1.00  0.00    -0.354 N 
ATOM     65  N   UNL A   1      43.361  32.685  29.370  1.00  0.00    -0.248 NA
ATOM     66  C   UNL A   1      45.292  32.838  28.132  1.00  0.00     0.031 C 
ATOM     67  C   UNL A   1      41.679  34.226  31.670  1.00  0.00     0.029 A 
ATOM     68  C   UNL A   1      41.560  34.508  30.321  1.00  0.00     0.049 A 
ATOM     69  H   UNL A   1      39.831  34.565  29.122  1.00  0.00     0.167 HD
ATOM     70  C   UNL A   1      43.475  33.998  28.992  1.00  0.00     0.074 A 
ATOM     71  C   UNL A   1      44.716  34.048  28.243  1.00  0.00     0.031 C 
ATOM     72  C   UNL A   1      42.526  34.925  29.312  1.00  0.00     0.037 A 
BRANCH  59  73
ATOM     73  C   UNL A   1      36.947  33.823  31.739  1.00  0.00     0.057 A 
ATOM     74  C   UNL A   1      35.771  34.268  31.097  1.00  0.00     0.134 A 
ATOM     75  C   UNL A   1      36.892  33.939  33.141  1.00  0.00     0.134 A 
ATOM     76  F   UNL A   1      35.591  34.125  29.777  1.00  0.00    -0.206 F 
ATOM     77  C   UNL A   1      34.707  34.885  31.773  1.00  0.00     0.040 A 
ATOM     78  C   UNL A   1      35.854  34.585  33.828  1.00  0.00     0.040 A 
ATOM     79  F   UNL A   1      37.804  33.384  33.939  1.00  0.00    -0.206 F 
ATOM     80  C   UNL A   1      34.761  35.081  33.142  1.00  0.00     0.006 A 
ENDBRANCH  59  73
BRANCH  60  81
ATOM     81  C   UNL A   1      44.816  29.553  27.933  1.00  0.00     0.057 A 
ATOM     82  C   UNL A   1      45.811  28.583  28.150  1.00  0.00     0.134 A 
ATOM     83  C   UNL A   1      43.929  29.329  26.877  1.00  0.00     0.134 A 
ATOM     84  F   UNL A   1      46.693  28.735  29.150  1.00  0.00    -0.206 F 
ATOM     85  C   UNL A   1      45.850  27.389  27.425  1.00  0.00     0.040 A 
ATOM     86  C   UNL A   1      43.964  28.140  26.137  1.00  0.00     0.040 A 
ATOM     87  F   UNL A   1      42.935  30.193  26.625  1.00  0.00    -0.206 F 
ATOM     88  C   UNL A   1      44.900  27.150  26.439  1.00  0.00     0.006 A 
ENDBRANCH  60  81
BRANCH  72  89
ATOM     89  C   UNL A   1      42.449  36.328  28.766  1.00  0.00     0.057 A 
ATOM     90  C   UNL A   1      43.054  37.442  29.367  1.00  0.00     0.134 A 
ATOM     91  C   UNL A   1      41.873  36.569  27.498  1.00  0.00     0.134 A 
ATOM     92  F   UNL A   1      43.727  37.335  30.521  1.00  0.00    -0.206 F 
ATOM     93  C   UNL A   1      43.045  38.712  28.775  1.00  0.00     0.040 A 
ATOM     94  C   UNL A   1      41.903  37.820  26.875  1.00  0.00     0.040 A 
ATOM     95  F   UNL A   1      41.276  35.591  26.802  1.00  0.00    -0.206 F 
ATOM     96  C   UNL A   1      42.481  38.902  27.520  1.00  0.00     0.006 A 
ENDBRANCH  72  89
ENDBRANCH  46  47
ENDBRANCH  38  41
ENDBRANCH  36  37
ENDBRANCH  35  36
ENDBRANCH   1  35
TORSDOF 14
ENDMDL
MODEL 2
REMARK VINA RESULT:     -14.2      3.715      9.232
REMARK SMILES Cc1c(NC(=O)c2cccc(-c3cc4ccccc4oc3=O)c2)cccc1C(=O)NCCCCNC(=O)c1ccc(-c2c3nc(c(-c4c(F)cccc4F)c4ccc([nH]4)c(-c4c(F)cccc4F)c4nc(c(-c5c(F)cccc5F)c5ccc2[nH]5)C=C4)C=C3)cc1
REMARK SMILES IDX 32 1 31 2 30 3 28 4 29 5 27 7 1 8 2 9 3 10 24 11 26 12 25 13
REMARK SMILES IDX 4 14 5 15 6 17 7 18 8 19 23 20 9 21 11 22 10 23 12 24 13 25
REMARK SMILES IDX 21 26 14 27 20 28 22 29 15 30 19 31 16 32 18 33 17 34 33 35
REMARK SMILES IDX 34 36 35 37 36 38 37 40 38 41 39 42 91 43 40 44 90 45 41 46
REMARK SMILES IDX 42 47 43 48 84 49 44 50 89 51 83 52 85 53 45 54 88 55 82 56
REMARK SMILES IDX 81 57 46 59 72 60 55 61 71 62 56 63 59 64 70 65 86 66 57 67
REMARK SMILES IDX 58 68 69 70 87 71 60 72 47 73 48 74 53 75 49 76 50 77 52 78
REMARK SMILES IDX 54 79 51 80 73 81 74 82 79 83 75 84 76 85 78 86 80 87 77 88
REMARK SMILES IDX 61 89 62 90 67 91 63 92 64 93 66 94 68 95 65 96
REMARK H PARENT 30 6 4 16 35 39 85 58 59 69
REMARK Flexibility Score: inf
ROOT
ATOM      1  C   UNL A   1      34.669  29.381  27.417  1.00  0.00     0.023 C 
ENDROOT
BRANCH   1   2
ATOM      2  C   UNL A   1      33.416  28.501  27.246  1.00  0.00     0.116 C 
BRANCH   2   3
ATOM      3  N   UNL A   1      32.475  29.081  26.309  1.00  0.00    -0.352 N 
ATOM      4  C   UNL A   1      31.699  28.703  25.248  1.00  0.00     0.251 C 
ATOM      5  O   UNL A   1      31.057  29.665  24.794  1.00  0.00    -0.269 OA
ATOM      6  H   UNL A   1      32.357  30.042  26.492  1.00  0.00     0.163 HD
BRANCH   4   7
ATOM      7  C   UNL A   1      31.516  27.364  24.552  1.00  0.00     0.044 A 
ATOM      8  C   UNL A   1      32.949  27.606  22.434  1.00  0.00     0.047 C 
ATOM      9  C   UNL A   1      32.021  26.851  23.330  1.00  0.00    -0.015 A 
ATOM     10  C   UNL A   1      31.571  25.577  22.855  1.00  0.00     0.045 A 
ATOM     11  C   UNL A   1      30.638  24.826  23.569  1.00  0.00     0.026 A 
ATOM     12  C   UNL A   1      30.575  26.547  25.238  1.00  0.00     0.014 A 
ATOM     13  C   UNL A   1      30.135  25.312  24.759  1.00  0.00     0.003 A 
BRANCH  10  14
ATOM     14  N   UNL A   1      32.108  25.063  21.659  1.00  0.00    -0.322 N 
ATOM     15  C   UNL A   1      32.791  23.904  21.373  1.00  0.00     0.255 C 
ATOM     16  H   UNL A   1      31.967  25.644  20.878  1.00  0.00     0.170 HD
ATOM     17  O   UNL A   1      33.370  23.825  20.288  1.00  0.00    -0.269 OA
BRANCH  15  18
ATOM     18  C   UNL A   1      32.753  22.697  22.246  1.00  0.00     0.040 A 
ATOM     19  C   UNL A   1      32.040  21.583  21.788  1.00  0.00     0.014 A 
ATOM     20  C   UNL A   1      33.267  22.685  23.551  1.00  0.00     0.022 A 
ATOM     21  C   UNL A   1      31.885  20.461  22.601  1.00  0.00     0.001 A 
ATOM     22  C   UNL A   1      33.127  21.557  24.379  1.00  0.00    -0.010 A 
ATOM     23  C   UNL A   1      32.432  20.445  23.883  1.00  0.00     0.009 A 
BRANCH  22  24
ATOM     24  C   UNL A   1      33.561  21.525  25.802  1.00  0.00     0.068 A 
ATOM     25  C   UNL A   1      34.707  20.935  26.214  1.00  0.00     0.028 A 
ATOM     26  C   UNL A   1      33.359  22.823  26.524  1.00  0.00     0.344 A 
ATOM     27  C   UNL A   1      35.889  21.807  26.032  1.00  0.00     0.018 A 
ATOM     28  O   UNL A   1      34.416  23.719  26.354  1.00  0.00    -0.422 OA
ATOM     29  O   UNL A   1      32.325  23.097  27.119  1.00  0.00    -0.246 OA
ATOM     30  C   UNL A   1      37.168  21.301  25.831  1.00  0.00     0.012 A 
ATOM     31  C   UNL A   1      35.680  23.192  26.013  1.00  0.00     0.138 A 
ATOM     32  C   UNL A   1      38.212  22.187  25.558  1.00  0.00     0.001 A 
ATOM     33  C   UNL A   1      36.700  24.076  25.696  1.00  0.00     0.048 A 
ATOM     34  C   UNL A   1      37.973  23.563  25.459  1.00  0.00     0.004 A 
ENDBRANCH  22  24
ENDBRANCH  15  18
ENDBRANCH  10  14
ENDBRANCH   4   7
ENDBRANCH   2   3
ENDBRANCH   1   2
BRANCH   1  35
ATOM     35  C   UNL A   1      34.424  30.882  27.559  1.00  0.00     0.023 C 
BRANCH  35  36
ATOM     36  C   UNL A   1      34.793  31.416  28.932  1.00  0.00     0.116 C 
BRANCH  36  37
ATOM     37  N   UNL A   1      36.029  32.192  28.993  1.00  0.00    -0.352 N 
ATOM     38  C   UNL A   1      37.342  31.752  29.078  1.00  0.00     0.251 C 
ATOM     39  H   UNL A   1      35.913  33.170  28.969  1.00  0.00     0.163 HD
ATOM     40  O   UNL A   1      38.253  32.568  29.207  1.00  0.00    -0.269 OA
BRANCH  38  41
ATOM     41  C   UNL A   1      37.663  30.319  28.841  1.00  0.00     0.039 A 
ATOM     42  C   UNL A   1      37.736  29.487  29.965  1.00  0.00     0.014 A 
ATOM     43  C   UNL A   1      38.212  29.905  27.636  1.00  0.00     0.014 A 
ATOM     44  C   UNL A   1      38.645  28.435  29.968  1.00  0.00     0.010 A 
ATOM     45  C   UNL A   1      39.220  28.966  27.680  1.00  0.00     0.010 A 
ATOM     46  C   UNL A   1      39.496  28.294  28.876  1.00  0.00    -0.014 A 
BRANCH  46  47
ATOM     47  C   UNL A   1      40.786  27.616  28.955  1.00  0.00     0.031 A 
ATOM     48  C   UNL A   1      40.890  26.173  28.665  1.00  0.00     0.074 A 
ATOM     49  C   UNL A   1      41.902  28.348  29.179  1.00  0.00     0.049 A 
ATOM     50  N   UNL A   1      41.874  25.423  29.028  1.00  0.00    -0.248 NA
ATOM     51  C   UNL A   1      39.834  25.438  27.984  1.00  0.00     0.031 C 
ATOM     52  C   UNL A   1      43.289  27.935  28.987  1.00  0.00     0.029 A 
ATOM     53  N   UNL A   1      41.997  29.584  29.834  1.00  0.00    -0.354 N 
ATOM     54  C   UNL A   1      41.736  24.207  28.391  1.00  0.00     0.074 A 
ATOM     55  C   UNL A   1      40.404  24.239  27.841  1.00  0.00     0.031 C 
ATOM     56  C   UNL A   1      44.084  28.723  29.728  1.00  0.00     0.029 A 
ATOM     57  C   UNL A   1      43.221  29.568  30.536  1.00  0.00     0.049 A 
ATOM     58  H   UNL A   1      41.339  30.317  29.811  1.00  0.00     0.167 HD
ATOM     59  C   UNL A   1      42.826  23.390  28.295  1.00  0.00     0.037 A 
ATOM     60  C   UNL A   1      43.255  29.635  31.898  1.00  0.00     0.037 A 
ATOM     61  C   UNL A   1      43.929  23.904  29.115  1.00  0.00     0.049 A 
ATOM     62  C   UNL A   1      43.865  28.419  32.559  1.00  0.00     0.074 A 
ATOM     63  C   UNL A   1      45.081  24.613  28.811  1.00  0.00     0.029 A 
ATOM     64  N   UNL A   1      43.781  23.977  30.498  1.00  0.00    -0.354 N 
ATOM     65  N   UNL A   1      44.055  27.281  31.951  1.00  0.00    -0.248 NA
ATOM     66  C   UNL A   1      44.274  28.374  33.961  1.00  0.00     0.031 C 
ATOM     67  C   UNL A   1      45.579  25.180  30.011  1.00  0.00     0.029 A 
ATOM     68  C   UNL A   1      44.748  24.795  31.049  1.00  0.00     0.049 A 
ATOM     69  H   UNL A   1      43.083  23.509  31.012  1.00  0.00     0.167 HD
ATOM     70  C   UNL A   1      44.548  26.361  32.839  1.00  0.00     0.074 A 
ATOM     71  C   UNL A   1      44.695  27.102  34.078  1.00  0.00     0.031 C 
ATOM     72  C   UNL A   1      44.772  25.062  32.482  1.00  0.00     0.037 A 
BRANCH  59  73
ATOM     73  C   UNL A   1      43.008  22.312  27.233  1.00  0.00     0.057 A 
ATOM     74  C   UNL A   1      42.226  21.137  27.268  1.00  0.00     0.134 A 
ATOM     75  C   UNL A   1      43.980  22.302  26.215  1.00  0.00     0.134 A 
ATOM     76  F   UNL A   1      41.175  21.012  28.090  1.00  0.00    -0.206 F 
ATOM     77  C   UNL A   1      42.475  20.017  26.458  1.00  0.00     0.040 A 
ATOM     78  C   UNL A   1      44.265  21.180  25.423  1.00  0.00     0.040 A 
ATOM     79  F   UNL A   1      44.673  23.391  25.879  1.00  0.00    -0.206 F 
ATOM     80  C   UNL A   1      43.524  20.021  25.555  1.00  0.00     0.006 A 
ENDBRANCH  59  73
BRANCH  60  81
ATOM     81  C   UNL A   1      42.165  30.467  32.469  1.00  0.00     0.057 A 
ATOM     82  C   UNL A   1      42.307  31.866  32.443  1.00  0.00     0.134 A 
ATOM     83  C   UNL A   1      40.877  29.962  32.665  1.00  0.00     0.134 A 
ATOM     84  F   UNL A   1      43.517  32.416  32.254  1.00  0.00    -0.206 F 
ATOM     85  C   UNL A   1      41.204  32.722  32.490  1.00  0.00     0.040 A 
ATOM     86  C   UNL A   1      39.764  30.812  32.723  1.00  0.00     0.040 A 
ATOM     87  F   UNL A   1      40.656  28.640  32.674  1.00  0.00    -0.206 F 
ATOM     88  C   UNL A   1      39.923  32.191  32.595  1.00  0.00     0.006 A 
ENDBRANCH  60  81
BRANCH  72  89
ATOM     89  C   UNL A   1      45.101  23.935  33.427  1.00  0.00     0.057 A 
ATOM     90  C   UNL A   1      44.195  22.934  33.807  1.00  0.00     0.134 A 
ATOM     91  C   UNL A   1      46.430  23.742  33.869  1.00  0.00     0.134 A 
ATOM     92  F   UNL A   1      42.927  22.937  33.373  1.00  0.00    -0.206 F 
ATOM     93  C   UNL A   1      44.570  21.847  34.608  1.00  0.00     0.040 A 
ATOM     94  C   UNL A   1      46.825  22.634  34.625  1.00  0.00     0.040 A 
ATOM     95  F   UNL A   1      47.404  24.611  33.564  1.00  0.00    -0.206 F 
ATOM     96  C   UNL A   1      45.891  21.687  35.008  1.00  0.00     0.006 A 
ENDBRANCH  72  89
ENDBRANCH  46  47
ENDBRANCH  38  41
ENDBRANCH  36  37
ENDBRANCH  35  36
ENDBRANCH   1  35
TORSDOF 14
ENDMDL
MODEL 3
REMARK VINA RESULT:     -14.1      3.254      8.805
REMARK SMILES Cc1c(NC(=O)c2cccc(-c3cc4ccccc4oc3=O)c2)cccc1C(=O)NCCCCNC(=O)c1ccc(-c2c3nc(c(-c4c(F)cccc4F)c4ccc([nH]4)c(-c4c(F)cccc4F)c4nc(c(-c5c(F)cccc5F)c5ccc2[nH]5)C=C4)C=C3)cc1
REMARK SMILES IDX 32 1 31 2 30 3 28 4 29 5 27 7 1 8 2 9 3 10 24 11 26 12 25 13
REMARK SMILES IDX 4 14 5 15 6 17 7 18 8 19 23 20 9 21 11 22 10 23 12 24 13 25
REMARK SMILES IDX 21 26 14 27 20 28 22 29 15 30 19 31 16 32 18 33 17 34 33 35
REMARK SMILES IDX 34 36 35 37 36 38 37 40 38 41 39 42 91 43 40 44 90 45 41 46
REMARK SMILES IDX 42 47 43 48 84 49 44 50 89 51 83 52 85 53 45 54 88 55 82 56
REMARK SMILES IDX 81 57 46 59 72 60 55 61 71 62 56 63 59 64 70 65 86 66 57 67
REMARK SMILES IDX 58 68 69 70 87 71 60 72 47 73 48 74 53 75 49 76 50 77 52 78
REMARK SMILES IDX 54 79 51 80 73 81 74 82 79 83 75 84 76 85 78 86 80 87 77 88
REMARK SMILES IDX 61 89 62 90 67 91 63 92 64 93 66 94 68 95 65 96
REMARK H PARENT 30 6 4 16 35 39 85 58 59 69
REMARK Flexibility Score: inf
ROOT
ATOM      1  C   UNL A   1      33.000  30.077  27.280  1.00  0.00     0.023 C 
ENDROOT
BRANCH   1   2
ATOM      2  C   UNL A   1      32.232  30.379  25.980  1.00  0.00     0.116 C 
BRANCH   2   3
ATOM      3  N   UNL A   1      32.872  29.781  24.825  1.00  0.00    -0.352 N 
ATOM      4  C   UNL A   1      32.776  28.659  24.050  1.00  0.00     0.251 C 
ATOM      5  O   UNL A   1      33.626  28.662  23.144  1.00  0.00    -0.269 OA
ATOM      6  H   UNL A   1      33.598  30.360  24.498  1.00  0.00     0.163 HD
BRANCH   4   7
ATOM      7  C   UNL A   1      31.853  27.453  24.122  1.00  0.00     0.044 A 
ATOM      8  C   UNL A   1      31.706  26.981  26.643  1.00  0.00     0.047 C 
ATOM      9  C   UNL A   1      31.376  26.685  25.215  1.00  0.00    -0.015 A 
ATOM     10  C   UNL A   1      30.605  25.503  24.970  1.00  0.00     0.045 A 
ATOM     11  C   UNL A   1      30.313  25.085  23.672  1.00  0.00     0.026 A 
ATOM     12  C   UNL A   1      31.515  26.979  22.824  1.00  0.00     0.014 A 
ATOM     13  C   UNL A   1      30.772  25.820  22.597  1.00  0.00     0.003 A 
BRANCH  10  14
ATOM     14  N   UNL A   1      30.107  24.771  26.064  1.00  0.00    -0.322 N 
ATOM     15  C   UNL A   1      30.590  23.676  26.743  1.00  0.00     0.255 C 
ATOM     16  H   UNL A   1      29.248  25.105  26.409  1.00  0.00     0.170 HD
ATOM     17  O   UNL A   1      29.822  23.081  27.502  1.00  0.00    -0.269 OA
BRANCH  15  18
ATOM     18  C   UNL A   1      32.020  23.261  26.711  1.00  0.00     0.040 A 
ATOM     19  C   UNL A   1      32.502  22.499  27.782  1.00  0.00     0.014 A 
ATOM     20  C   UNL A   1      32.924  23.721  25.744  1.00  0.00     0.022 A 
ATOM     21  C   UNL A   1      33.853  22.164  27.859  1.00  0.00     0.001 A 
ATOM     22  C   UNL A   1      34.288  23.383  25.802  1.00  0.00    -0.010 A 
ATOM     23  C   UNL A   1      34.737  22.596  26.871  1.00  0.00     0.009 A 
BRANCH  22  24
ATOM     24  C   UNL A   1      35.308  23.925  24.863  1.00  0.00     0.068 A 
ATOM     25  C   UNL A   1      36.495  24.431  25.270  1.00  0.00     0.028 A 
ATOM     26  C   UNL A   1      35.497  23.093  23.631  1.00  0.00     0.344 A 
ATOM     27  C   UNL A   1      37.504  23.378  25.518  1.00  0.00     0.018 A 
ATOM     28  O   UNL A   1      36.400  22.043  23.807  1.00  0.00    -0.422 OA
ATOM     29  O   UNL A   1      34.847  23.264  22.608  1.00  0.00    -0.246 OA
ATOM     30  C   UNL A   1      38.541  23.535  26.432  1.00  0.00     0.012 A 
ATOM     31  C   UNL A   1      37.360  22.164  24.834  1.00  0.00     0.138 A 
ATOM     32  C   UNL A   1      39.387  22.453  26.689  1.00  0.00     0.001 A 
ATOM     33  C   UNL A   1      38.165  21.071  25.118  1.00  0.00     0.048 A 
ATOM     34  C   UNL A   1      39.180  21.221  26.059  1.00  0.00     0.004 A 
ENDBRANCH  22  24
ENDBRANCH  15  18
ENDBRANCH  10  14
ENDBRANCH   4   7
ENDBRANCH   2   3
ENDBRANCH   1   2
BRANCH   1  35
ATOM     35  C   UNL A   1      34.523  30.169  27.201  1.00  0.00     0.023 C 
BRANCH  35  36
ATOM     36  C   UNL A   1      35.093  31.304  28.033  1.00  0.00     0.116 C 
BRANCH  36  37
ATOM     37  N   UNL A   1      34.178  32.409  28.301  1.00  0.00    -0.352 N 
ATOM     38  C   UNL A   1      34.155  33.295  29.368  1.00  0.00     0.251 C 
ATOM     39  H   UNL A   1      33.475  32.546  27.625  1.00  0.00     0.163 HD
ATOM     40  O   UNL A   1      33.243  34.115  29.463  1.00  0.00    -0.269 OA
BRANCH  38  41
ATOM     41  C   UNL A   1      35.315  33.371  30.296  1.00  0.00     0.039 A 
ATOM     42  C   UNL A   1      36.387  34.186  29.913  1.00  0.00     0.014 A 
ATOM     43  C   UNL A   1      35.488  32.422  31.294  1.00  0.00     0.014 A 
ATOM     44  C   UNL A   1      37.678  33.813  30.267  1.00  0.00     0.010 A 
ATOM     45  C   UNL A   1      36.767  31.958  31.522  1.00  0.00     0.010 A 
ATOM     46  C   UNL A   1      37.858  32.604  30.932  1.00  0.00    -0.014 A 
BRANCH  46  47
ATOM     47  C   UNL A   1      39.112  31.857  30.899  1.00  0.00     0.031 A 
ATOM     48  C   UNL A   1      39.210  30.595  30.141  1.00  0.00     0.074 A 
ATOM     49  C   UNL A   1      40.214  32.396  31.471  1.00  0.00     0.049 A 
ATOM     50  N   UNL A   1      40.125  29.705  30.318  1.00  0.00    -0.248 NA
ATOM     51  C   UNL A   1      38.221  30.205  29.148  1.00  0.00     0.031 C 
ATOM     52  C   UNL A   1      41.603  31.984  31.286  1.00  0.00     0.029 A 
ATOM     53  N   UNL A   1      40.266  33.327  32.518  1.00  0.00    -0.354 N 
ATOM     54  C   UNL A   1      40.029  28.789  29.291  1.00  0.00     0.074 A 
ATOM     55  C   UNL A   1      38.771  29.092  28.657  1.00  0.00     0.031 C 
ATOM     56  C   UNL A   1      42.328  32.421  32.328  1.00  0.00     0.029 A 
ATOM     57  C   UNL A   1      41.401  32.994  33.288  1.00  0.00     0.049 A 
ATOM     58  H   UNL A   1      39.635  34.066  32.684  1.00  0.00     0.167 HD
ATOM     59  C   UNL A   1      41.102  27.984  29.027  1.00  0.00     0.037 A 
ATOM     60  C   UNL A   1      41.280  32.593  34.586  1.00  0.00     0.037 A 
ATOM     61  C   UNL A   1      42.116  28.117  30.078  1.00  0.00     0.049 A 
ATOM     62  C   UNL A   1      41.777  31.188  34.844  1.00  0.00     0.074 A 
ATOM     63  C   UNL A   1      43.313  28.811  30.153  1.00  0.00     0.029 A 
ATOM     64  N   UNL A   1      41.812  27.725  31.380  1.00  0.00    -0.354 N 
ATOM     65  N   UNL A   1      42.005  30.314  33.903  1.00  0.00    -0.248 NA
ATOM     66  C   UNL A   1      42.021  30.642  36.178  1.00  0.00     0.031 C 
ATOM     67  C   UNL A   1      43.685  28.903  31.518  1.00  0.00     0.029 A 
ATOM     68  C   UNL A   1      42.731  28.243  32.272  1.00  0.00     0.049 A 
ATOM     69  H   UNL A   1      41.047  27.157  31.630  1.00  0.00     0.167 HD
ATOM     70  C   UNL A   1      42.368  29.117  34.463  1.00  0.00     0.074 A 
ATOM     71  C   UNL A   1      42.391  29.382  35.890  1.00  0.00     0.031 C 
ATOM     72  C   UNL A   1      42.596  28.006  33.704  1.00  0.00     0.037 A 
BRANCH  59  73
ATOM     73  C   UNL A   1      41.375  27.322  27.682  1.00  0.00     0.057 A 
ATOM     74  C   UNL A   1      41.397  25.915  27.571  1.00  0.00     0.134 A 
ATOM     75  C   UNL A   1      41.720  27.979  26.486  1.00  0.00     0.134 A 
ATOM     76  F   UNL A   1      40.984  25.121  28.569  1.00  0.00    -0.206 F 
ATOM     77  C   UNL A   1      41.843  25.236  26.425  1.00  0.00     0.040 A 
ATOM     78  C   UNL A   1      42.201  27.318  25.346  1.00  0.00     0.040 A 
ATOM     79  F   UNL A   1      41.556  29.292  26.320  1.00  0.00    -0.206 F 
ATOM     80  C   UNL A   1      42.284  25.939  25.318  1.00  0.00     0.006 A 
ENDBRANCH  59  73
BRANCH  60  81
ATOM     81  C   UNL A   1      40.154  33.250  35.299  1.00  0.00     0.057 A 
ATOM     82  C   UNL A   1      38.934  32.558  35.402  1.00  0.00     0.134 A 
ATOM     83  C   UNL A   1      40.360  34.313  36.182  1.00  0.00     0.134 A 
ATOM     84  F   UNL A   1      38.675  31.524  34.587  1.00  0.00    -0.206 F 
ATOM     85  C   UNL A   1      38.011  32.835  36.414  1.00  0.00     0.040 A 
ATOM     86  C   UNL A   1      39.437  34.606  37.195  1.00  0.00     0.040 A 
ATOM     87  F   UNL A   1      41.509  35.002  36.165  1.00  0.00    -0.206 F 
ATOM     88  C   UNL A   1      38.280  33.840  37.337  1.00  0.00     0.006 A 
ENDBRANCH  60  81
BRANCH  72  89
ATOM     89  C   UNL A   1      42.785  26.606  34.231  1.00  0.00     0.057 A 
ATOM     90  C   UNL A   1      41.839  25.922  35.009  1.00  0.00     0.134 A 
ATOM     91  C   UNL A   1      43.896  25.834  33.821  1.00  0.00     0.134 A 
ATOM     92  F   UNL A   1      40.689  26.500  35.380  1.00  0.00    -0.206 F 
ATOM     93  C   UNL A   1      42.009  24.585  35.394  1.00  0.00     0.040 A 
ATOM     94  C   UNL A   1      44.050  24.486  34.156  1.00  0.00     0.040 A 
ATOM     95  F   UNL A   1      44.869  26.355  33.058  1.00  0.00    -0.206 F 
ATOM     96  C   UNL A   1      43.109  23.858  34.956  1.00  0.00     0.006 A 
ENDBRANCH  72  89
ENDBRANCH  46  47
ENDBRANCH  38  41
ENDBRANCH  36  37
ENDBRANCH  35  36
ENDBRANCH   1  35
TORSDOF 14
ENDMDL
