MODEL 1
REMARK VINA RESULT:     -13.2      0.000      0.000
REMARK SMILES CCN1C(=O)C[C@@H](C(=O)Nc2cccc(C(=O)NCCCCNC(=O)c3ccc(-c4c5nc(c(-c6c(F)cccc6F)c6ccc([nH]6)c(-c6c(F)cccc6F)c6nc(c(-c7c(F)cccc7F)c7ccc4[nH]7)C=C6)C=C5)cc3)c2)S/C1=[NH+]/c1ccccc1
REMARK SMILES IDX 20 1 19 2 18 3 16 4 17 5 15 7 11 8 12 9 80 10 13 11 14 12
REMARK SMILES IDX 10 13 8 14 9 15 7 17 3 18 4 19 82 20 5 21 6 22 81 23 83 24
REMARK SMILES IDX 2 26 1 27 84 28 85 29 89 30 86 31 88 32 87 33 21 34 22 35
REMARK SMILES IDX 23 36 24 37 25 39 26 40 27 41 79 42 28 43 78 44 29 45 30 46
REMARK SMILES IDX 31 47 72 48 32 49 77 50 71 51 73 52 33 53 76 54 70 55 69 56
REMARK SMILES IDX 34 58 60 59 43 60 59 61 44 62 47 63 58 64 74 65 45 66 46 67
REMARK SMILES IDX 57 69 75 70 48 71 35 72 36 73 41 74 37 75 38 76 40 77 42 78
REMARK SMILES IDX 39 79 61 80 62 81 67 82 63 83 64 84 66 85 68 86 65 87 49 88
REMARK SMILES IDX 50 89 55 90 51 91 52 92 54 93 56 94 53 95
REMARK H PARENT 18 6 10 16 83 25 23 38 73 57 47 68
REMARK Flexibility Score: inf
ROOT
ATOM      1  C   UNL A   1      37.201  20.985  24.647  1.00  0.00     0.023 C 
ENDROOT
BRANCH   1   2
ATOM      2  C   UNL A   1      35.878  21.142  25.382  1.00  0.00     0.116 C 
BRANCH   2   3
ATOM      3  N   UNL A   1      35.002  19.980  25.402  1.00  0.00    -0.352 N 
ATOM      4  C   UNL A   1      33.715  19.834  24.922  1.00  0.00     0.251 C 
ATOM      5  O   UNL A   1      33.173  18.734  24.985  1.00  0.00    -0.269 OA
ATOM      6  H   UNL A   1      35.385  19.176  25.821  1.00  0.00     0.163 HD
BRANCH   4   7
ATOM      7  C   UNL A   1      32.946  20.981  24.358  1.00  0.00     0.041 A 
ATOM      8  C   UNL A   1      31.393  22.831  24.638  1.00  0.00     0.041 A 
ATOM      9  C   UNL A   1      31.296  22.944  23.250  1.00  0.00     0.026 A 
ATOM     10  C   UNL A   1      32.252  21.879  25.172  1.00  0.00     0.040 A 
ATOM     11  C   UNL A   1      32.089  22.146  22.420  1.00  0.00     0.003 A 
ATOM     12  C   UNL A   1      32.909  21.160  22.974  1.00  0.00     0.014 A 
BRANCH   8  13
ATOM     13  N   UNL A   1      30.531  23.599  25.438  1.00  0.00    -0.325 N 
ATOM     14  C   UNL A   1      30.244  24.938  25.488  1.00  0.00     0.238 C 
ATOM     15  O   UNL A   1      29.814  25.368  26.565  1.00  0.00    -0.273 OA
ATOM     16  H   UNL A   1      30.031  23.067  26.097  1.00  0.00     0.169 HD
BRANCH  14  17
ATOM     17  C   UNL A   1      30.302  25.870  24.264  1.00  0.00     0.160 C 
ATOM     18  N   UNL A   1      30.401  28.741  23.650  1.00  0.00    -0.191 N 
ATOM     19  C   UNL A   1      31.443  27.898  23.331  1.00  0.00     0.311 C 
ATOM     20  C   UNL A   1      29.090  28.326  23.539  1.00  0.00     0.319 C 
ATOM     21  O   UNL A   1      32.287  28.152  22.475  1.00  0.00    -0.247 OA
ATOM     22  C   UNL A   1      31.565  26.689  24.195  1.00  0.00     0.153 C 
ATOM     23  S   UNL A   1      28.710  26.662  23.956  1.00  0.00    -0.024 SA
ATOM     24  N   UNL A   1      28.056  29.026  23.192  1.00  0.00    -0.235 N 
ATOM     25  H   UNL A   1      27.163  28.675  23.408  1.00  0.00     0.313 HD
BRANCH  18  26
ATOM     26  C   UNL A   1      30.740  30.055  24.206  1.00  0.00     0.243 C 
ATOM     27  C   UNL A   1      31.482  30.049  25.532  1.00  0.00     0.054 C 
ENDBRANCH  18  26
BRANCH  24  28
ATOM     28  C   UNL A   1      28.144  30.257  22.527  1.00  0.00     0.125 A 
ATOM     29  C   UNL A   1      28.127  31.452  23.253  1.00  0.00     0.051 A 
ATOM     30  C   UNL A   1      28.089  30.324  21.130  1.00  0.00     0.051 A 
ATOM     31  C   UNL A   1      28.073  32.688  22.600  1.00  0.00     0.004 A 
ATOM     32  C   UNL A   1      28.052  31.556  20.472  1.00  0.00     0.004 A 
ATOM     33  C   UNL A   1      28.038  32.738  21.209  1.00  0.00     0.000 A 
ENDBRANCH  24  28
ENDBRANCH  14  17
ENDBRANCH   8  13
ENDBRANCH   4   7
ENDBRANCH   2   3
ENDBRANCH   1   2
BRANCH   1  34
ATOM     34  C   UNL A   1      38.022  19.741  24.961  1.00  0.00     0.023 C 
BRANCH  34  35
ATOM     35  C   UNL A   1      39.133  19.889  25.995  1.00  0.00     0.116 C 
BRANCH  35  36
ATOM     36  N   UNL A   1      40.249  18.972  25.837  1.00  0.00    -0.352 N 
ATOM     37  C   UNL A   1      41.593  19.183  26.045  1.00  0.00     0.251 C 
ATOM     38  H   UNL A   1      40.008  18.066  25.538  1.00  0.00     0.163 HD
ATOM     39  O   UNL A   1      42.400  18.281  25.828  1.00  0.00    -0.269 OA
BRANCH  37  40
ATOM     40  C   UNL A   1      42.090  20.513  26.470  1.00  0.00     0.039 A 
ATOM     41  C   UNL A   1      42.431  21.448  25.489  1.00  0.00     0.014 A 
ATOM     42  C   UNL A   1      42.217  20.849  27.820  1.00  0.00     0.014 A 
ATOM     43  C   UNL A   1      42.821  22.738  25.859  1.00  0.00     0.010 A 
ATOM     44  C   UNL A   1      42.516  22.161  28.186  1.00  0.00     0.010 A 
ATOM     45  C   UNL A   1      42.829  23.120  27.211  1.00  0.00    -0.014 A 
BRANCH  45  46
ATOM     46  C   UNL A   1      43.191  24.508  27.610  1.00  0.00     0.031 A 
ATOM     47  C   UNL A   1      44.631  24.949  27.593  1.00  0.00     0.074 A 
ATOM     48  C   UNL A   1      42.236  25.365  28.021  1.00  0.00     0.049 A 
ATOM     49  N   UNL A   1      45.146  26.111  27.915  1.00  0.00    -0.248 NA
ATOM     50  C   UNL A   1      45.627  23.947  27.185  1.00  0.00     0.031 C 
ATOM     51  C   UNL A   1      40.809  25.056  28.135  1.00  0.00     0.029 A 
ATOM     52  N   UNL A   1      42.321  26.679  28.418  1.00  0.00    -0.354 N 
ATOM     53  C   UNL A   1      46.519  25.972  27.758  1.00  0.00     0.074 A 
ATOM     54  C   UNL A   1      46.764  24.598  27.380  1.00  0.00     0.031 C 
ATOM     55  C   UNL A   1      40.151  26.156  28.536  1.00  0.00     0.029 A 
ATOM     56  C   UNL A   1      41.107  27.240  28.737  1.00  0.00     0.049 A 
ATOM     57  H   UNL A   1      43.171  27.171  28.468  1.00  0.00     0.167 HD
ATOM     58  C   UNL A   1      47.490  26.909  27.884  1.00  0.00     0.037 A 
ATOM     59  C   UNL A   1      40.800  28.487  29.139  1.00  0.00     0.037 A 
ATOM     60  C   UNL A   1      47.249  28.283  28.238  1.00  0.00     0.049 A 
ATOM     61  C   UNL A   1      41.894  29.512  29.271  1.00  0.00     0.074 A 
ATOM     62  C   UNL A   1      48.162  29.319  28.351  1.00  0.00     0.029 A 
ATOM     63  N   UNL A   1      46.004  28.815  28.535  1.00  0.00    -0.354 N 
ATOM     64  N   UNL A   1      43.180  29.383  29.054  1.00  0.00    -0.248 NA
ATOM     65  C   UNL A   1      41.489  30.862  29.689  1.00  0.00     0.031 C 
ATOM     66  C   UNL A   1      47.473  30.467  28.754  1.00  0.00     0.029 A 
ATOM     67  C   UNL A   1      46.125  30.160  28.842  1.00  0.00     0.049 A 
ATOM     68  H   UNL A   1      45.158  28.310  28.528  1.00  0.00     0.167 HD
ATOM     69  C   UNL A   1      43.731  30.640  29.269  1.00  0.00     0.074 A 
ATOM     70  C   UNL A   1      42.638  31.521  29.624  1.00  0.00     0.031 C 
ATOM     71  C   UNL A   1      45.026  31.031  29.175  1.00  0.00     0.037 A 
BRANCH  58  72
ATOM     72  C   UNL A   1      48.904  26.472  27.627  1.00  0.00     0.057 A 
ATOM     73  C   UNL A   1      49.733  26.010  28.657  1.00  0.00     0.134 A 
ATOM     74  C   UNL A   1      49.439  26.498  26.332  1.00  0.00     0.134 A 
ATOM     75  F   UNL A   1      49.288  25.972  29.923  1.00  0.00    -0.206 F 
ATOM     76  C   UNL A   1      51.053  25.623  28.417  1.00  0.00     0.040 A 
ATOM     77  C   UNL A   1      50.747  26.084  26.075  1.00  0.00     0.040 A 
ATOM     78  F   UNL A   1      48.699  26.922  25.296  1.00  0.00    -0.206 F 
ATOM     79  C   UNL A   1      51.561  25.655  27.121  1.00  0.00     0.006 A 
ENDBRANCH  58  72
BRANCH  59  80
ATOM     80  C   UNL A   1      39.385  28.861  29.403  1.00  0.00     0.057 A 
ATOM     81  C   UNL A   1      38.817  28.682  30.671  1.00  0.00     0.134 A 
ATOM     82  C   UNL A   1      38.564  29.382  28.397  1.00  0.00     0.134 A 
ATOM     83  F   UNL A   1      39.548  28.166  31.671  1.00  0.00    -0.206 F 
ATOM     84  C   UNL A   1      37.478  28.982  30.922  1.00  0.00     0.040 A 
ATOM     85  C   UNL A   1      37.229  29.712  28.642  1.00  0.00     0.040 A 
ATOM     86  F   UNL A   1      39.048  29.584  27.164  1.00  0.00    -0.206 F 
ATOM     87  C   UNL A   1      36.680  29.503  29.906  1.00  0.00     0.006 A 
ENDBRANCH  59  80
BRANCH  71  88
ATOM     88  C   UNL A   1      45.324  32.485  29.401  1.00  0.00     0.057 A 
ATOM     89  C   UNL A   1      45.266  33.429  28.367  1.00  0.00     0.134 A 
ATOM     90  C   UNL A   1      45.647  32.951  30.682  1.00  0.00     0.134 A 
ATOM     91  F   UNL A   1      44.973  33.047  27.114  1.00  0.00    -0.206 F 
ATOM     92  C   UNL A   1      45.549  34.776  28.594  1.00  0.00     0.040 A 
ATOM     93  C   UNL A   1      45.903  34.301  30.927  1.00  0.00     0.040 A 
ATOM     94  F   UNL A   1      45.710  32.103  31.721  1.00  0.00    -0.206 F 
ATOM     95  C   UNL A   1      45.863  35.217  29.879  1.00  0.00     0.006 A 
ENDBRANCH  71  88
ENDBRANCH  45  46
ENDBRANCH  37  40
ENDBRANCH  35  36
ENDBRANCH  34  35
ENDBRANCH   1  34
TORSDOF 15
ENDMDL
MODEL 2
REMARK VINA RESULT:     -13.2      1.607      2.456
REMARK SMILES CCN1C(=O)C[C@@H](C(=O)Nc2cccc(C(=O)NCCCCNC(=O)c3ccc(-c4c5nc(c(-c6c(F)cccc6F)c6ccc([nH]6)c(-c6c(F)cccc6F)c6nc(c(-c7c(F)cccc7F)c7ccc4[nH]7)C=C6)C=C5)cc3)c2)S/C1=[NH+]/c1ccccc1
REMARK SMILES IDX 20 1 19 2 18 3 16 4 17 5 15 7 11 8 12 9 80 10 13 11 14 12
REMARK SMILES IDX 10 13 8 14 9 15 7 17 3 18 4 19 82 20 5 21 6 22 81 23 83 24
REMARK SMILES IDX 2 26 1 27 84 28 85 29 89 30 86 31 88 32 87 33 21 34 22 35
REMARK SMILES IDX 23 36 24 37 25 39 26 40 27 41 79 42 28 43 78 44 29 45 30 46
REMARK SMILES IDX 31 47 72 48 32 49 77 50 71 51 73 52 33 53 76 54 70 55 69 56
REMARK SMILES IDX 34 58 60 59 43 60 59 61 44 62 47 63 58 64 74 65 45 66 46 67
REMARK SMILES IDX 57 69 75 70 48 71 35 72 36 73 41 74 37 75 38 76 40 77 42 78
REMARK SMILES IDX 39 79 61 80 62 81 67 82 63 83 64 84 66 85 68 86 65 87 49 88
REMARK SMILES IDX 50 89 55 90 51 91 52 92 54 93 56 94 53 95
REMARK H PARENT 18 6 10 16 83 25 23 38 73 57 47 68
REMARK Flexibility Score: inf
ROOT
ATOM      1  C   UNL A   1      38.825  22.464  26.277  1.00  0.00     0.023 C 
ENDROOT
BRANCH   1   2
ATOM      2  C   UNL A   1      37.716  23.409  25.840  1.00  0.00     0.116 C 
BRANCH   2   3
ATOM      3  N   UNL A   1      37.426  23.458  24.415  1.00  0.00    -0.352 N 
ATOM      4  C   UNL A   1      36.344  22.962  23.714  1.00  0.00     0.251 C 
ATOM      5  O   UNL A   1      36.264  23.172  22.506  1.00  0.00    -0.269 OA
ATOM      6  H   UNL A   1      38.105  23.915  23.866  1.00  0.00     0.163 HD
BRANCH   4   7
ATOM      7  C   UNL A   1      35.280  22.149  24.371  1.00  0.00     0.041 A 
ATOM      8  C   UNL A   1      33.209  21.998  25.637  1.00  0.00     0.041 A 
ATOM      9  C   UNL A   1      33.446  20.636  25.839  1.00  0.00     0.026 A 
ATOM     10  C   UNL A   1      34.109  22.725  24.867  1.00  0.00     0.040 A 
ATOM     11  C   UNL A   1      34.541  20.014  25.232  1.00  0.00     0.003 A 
ATOM     12  C   UNL A   1      35.462  20.771  24.505  1.00  0.00     0.014 A 
BRANCH   8  13
ATOM     13  N   UNL A   1      32.140  22.603  26.317  1.00  0.00    -0.325 N 
ATOM     14  C   UNL A   1      31.677  23.890  26.378  1.00  0.00     0.238 C 
ATOM     15  O   UNL A   1      31.031  24.195  27.388  1.00  0.00    -0.273 OA
ATOM     16  H   UNL A   1      31.616  21.972  26.862  1.00  0.00     0.169 HD
BRANCH  14  17
ATOM     17  C   UNL A   1      31.804  24.899  25.221  1.00  0.00     0.160 C 
ATOM     18  N   UNL A   1      31.377  27.758  24.700  1.00  0.00    -0.191 N 
ATOM     19  C   UNL A   1      32.631  27.192  24.633  1.00  0.00     0.311 C 
ATOM     20  C   UNL A   1      30.262  27.074  24.262  1.00  0.00     0.319 C 
ATOM     21  O   UNL A   1      33.571  27.687  24.015  1.00  0.00    -0.247 OA
ATOM     22  C   UNL A   1      32.823  25.980  25.480  1.00  0.00     0.153 C 
ATOM     23  S   UNL A   1      30.191  25.341  24.544  1.00  0.00    -0.024 SA
ATOM     24  N   UNL A   1      29.206  27.552  23.684  1.00  0.00    -0.235 N 
ATOM     25  H   UNL A   1      28.393  26.998  23.667  1.00  0.00     0.313 HD
BRANCH  18  26
ATOM     26  C   UNL A   1      31.261  29.070  25.344  1.00  0.00     0.243 C 
ATOM     27  C   UNL A   1      31.710  29.146  26.793  1.00  0.00     0.054 C 
ENDBRANCH  18  26
BRANCH  24  28
ATOM     28  C   UNL A   1      29.160  28.817  23.081  1.00  0.00     0.125 A 
ATOM     29  C   UNL A   1      28.131  29.710  23.397  1.00  0.00     0.051 A 
ATOM     30  C   UNL A   1      30.039  29.151  22.044  1.00  0.00     0.051 A 
ATOM     31  C   UNL A   1      27.991  30.917  22.705  1.00  0.00     0.004 A 
ATOM     32  C   UNL A   1      29.913  30.363  21.361  1.00  0.00     0.004 A 
ATOM     33  C   UNL A   1      28.885  31.243  21.689  1.00  0.00     0.000 A 
ENDBRANCH  24  28
ENDBRANCH  14  17
ENDBRANCH   8  13
ENDBRANCH   4   7
ENDBRANCH   2   3
ENDBRANCH   1   2
BRANCH   1  34
ATOM     34  C   UNL A   1      39.009  21.191  25.461  1.00  0.00     0.023 C 
BRANCH  34  35
ATOM     35  C   UNL A   1      39.292  19.909  26.237  1.00  0.00     0.116 C 
BRANCH  35  36
ATOM     36  N   UNL A   1      40.488  19.192  25.829  1.00  0.00    -0.352 N 
ATOM     37  C   UNL A   1      41.810  19.560  25.937  1.00  0.00     0.251 C 
ATOM     38  H   UNL A   1      40.330  18.314  25.413  1.00  0.00     0.163 HD
ATOM     39  O   UNL A   1      42.693  18.823  25.503  1.00  0.00    -0.269 OA
BRANCH  37  40
ATOM     40  C   UNL A   1      42.182  20.871  26.520  1.00  0.00     0.039 A 
ATOM     41  C   UNL A   1      42.568  21.903  25.659  1.00  0.00     0.014 A 
ATOM     42  C   UNL A   1      42.150  21.095  27.898  1.00  0.00     0.014 A 
ATOM     43  C   UNL A   1      42.841  23.174  26.172  1.00  0.00     0.010 A 
ATOM     44  C   UNL A   1      42.332  22.384  28.398  1.00  0.00     0.010 A 
ATOM     45  C   UNL A   1      42.688  23.438  27.543  1.00  0.00    -0.014 A 
BRANCH  45  46
ATOM     46  C   UNL A   1      42.926  24.802  28.090  1.00  0.00     0.031 A 
ATOM     47  C   UNL A   1      44.319  25.238  28.458  1.00  0.00     0.074 A 
ATOM     48  C   UNL A   1      41.890  25.641  28.289  1.00  0.00     0.049 A 
ATOM     49  N   UNL A   1      44.726  26.379  28.957  1.00  0.00    -0.248 NA
ATOM     50  C   UNL A   1      45.395  24.254  28.265  1.00  0.00     0.031 C 
ATOM     51  C   UNL A   1      40.484  25.332  28.025  1.00  0.00     0.029 A 
ATOM     52  N   UNL A   1      41.861  26.933  28.760  1.00  0.00    -0.354 N 
ATOM     53  C   UNL A   1      46.096  26.244  29.145  1.00  0.00     0.074 A 
ATOM     54  C   UNL A   1      46.441  24.889  28.771  1.00  0.00     0.031 C 
ATOM     55  C   UNL A   1      39.736  26.413  28.301  1.00  0.00     0.029 A 
ATOM     56  C   UNL A   1      40.601  27.482  28.791  1.00  0.00     0.049 A 
ATOM     57  H   UNL A   1      42.667  27.419  29.048  1.00  0.00     0.167 HD
ATOM     58  C   UNL A   1      46.996  27.169  29.558  1.00  0.00     0.037 A 
ATOM     59  C   UNL A   1      40.191  28.709  29.164  1.00  0.00     0.037 A 
ATOM     60  C   UNL A   1      46.662  28.524  29.907  1.00  0.00     0.049 A 
ATOM     61  C   UNL A   1      41.208  29.721  29.618  1.00  0.00     0.074 A 
ATOM     62  C   UNL A   1      47.507  29.549  30.298  1.00  0.00     0.029 A 
ATOM     63  N   UNL A   1      45.377  29.045  29.907  1.00  0.00    -0.354 N 
ATOM     64  N   UNL A   1      42.509  29.597  29.727  1.00  0.00    -0.248 NA
ATOM     65  C   UNL A   1      40.699  31.050  29.989  1.00  0.00     0.031 C 
ATOM     66  C   UNL A   1      46.729  30.678  30.572  1.00  0.00     0.029 A 
ATOM     67  C   UNL A   1      45.405  30.373  30.302  1.00  0.00     0.049 A 
ATOM     68  H   UNL A   1      44.564  28.545  29.663  1.00  0.00     0.167 HD
ATOM     69  C   UNL A   1      42.977  30.840  30.136  1.00  0.00     0.074 A 
ATOM     70  C   UNL A   1      41.821  31.706  30.247  1.00  0.00     0.031 C 
ATOM     71  C   UNL A   1      44.250  31.230  30.391  1.00  0.00     0.037 A 
BRANCH  58  72
ATOM     72  C   UNL A   1      48.433  26.740  29.643  1.00  0.00     0.057 A 
ATOM     73  C   UNL A   1      49.328  26.944  28.584  1.00  0.00     0.134 A 
ATOM     74  C   UNL A   1      48.933  26.131  30.800  1.00  0.00     0.134 A 
ATOM     75  F   UNL A   1      48.911  27.511  27.441  1.00  0.00    -0.206 F 
ATOM     76  C   UNL A   1      50.658  26.526  28.659  1.00  0.00     0.040 A 
ATOM     77  C   UNL A   1      50.269  25.737  30.899  1.00  0.00     0.040 A 
ATOM     78  F   UNL A   1      48.134  25.912  31.856  1.00  0.00    -0.206 F 
ATOM     79  C   UNL A   1      51.133  25.925  29.822  1.00  0.00     0.006 A 
ENDBRANCH  58  72
BRANCH  59  80
ATOM     80  C   UNL A   1      38.753  29.074  29.082  1.00  0.00     0.057 A 
ATOM     81  C   UNL A   1      38.187  29.506  27.875  1.00  0.00     0.134 A 
ATOM     82  C   UNL A   1      37.918  29.024  30.203  1.00  0.00     0.134 A 
ATOM     83  F   UNL A   1      38.942  29.596  26.770  1.00  0.00    -0.206 F 
ATOM     84  C   UNL A   1      36.850  29.899  27.793  1.00  0.00     0.040 A 
ATOM     85  C   UNL A   1      36.571  29.388  30.128  1.00  0.00     0.040 A 
ATOM     86  F   UNL A   1      38.396  28.612  31.386  1.00  0.00    -0.206 F 
ATOM     87  C   UNL A   1      36.037  29.836  28.922  1.00  0.00     0.006 A 
ENDBRANCH  59  80
BRANCH  71  88
ATOM     88  C   UNL A   1      44.469  32.669  30.757  1.00  0.00     0.057 A 
ATOM     89  C   UNL A   1      44.432  33.117  32.084  1.00  0.00     0.134 A 
ATOM     90  C   UNL A   1      44.747  33.618  29.764  1.00  0.00     0.134 A 
ATOM     91  F   UNL A   1      44.160  32.263  33.083  1.00  0.00    -0.206 F 
ATOM     92  C   UNL A   1      44.634  34.460  32.406  1.00  0.00     0.040 A 
ATOM     93  C   UNL A   1      44.980  34.958  30.076  1.00  0.00     0.040 A 
ATOM     94  F   UNL A   1      44.808  33.255  28.473  1.00  0.00    -0.206 F 
ATOM     95  C   UNL A   1      44.916  35.384  31.401  1.00  0.00     0.006 A 
ENDBRANCH  71  88
ENDBRANCH  45  46
ENDBRANCH  37  40
ENDBRANCH  35  36
ENDBRANCH  34  35
ENDBRANCH   1  34
TORSDOF 15
ENDMDL
MODEL 3
REMARK VINA RESULT:     -13.0      0.718      5.919
REMARK SMILES CCN1C(=O)C[C@@H](C(=O)Nc2cccc(C(=O)NCCCCNC(=O)c3ccc(-c4c5nc(c(-c6c(F)cccc6F)c6ccc([nH]6)c(-c6c(F)cccc6F)c6nc(c(-c7c(F)cccc7F)c7ccc4[nH]7)C=C6)C=C5)cc3)c2)S/C1=[NH+]/c1ccccc1
REMARK SMILES IDX 20 1 19 2 18 3 16 4 17 5 15 7 11 8 12 9 80 10 13 11 14 12
REMARK SMILES IDX 10 13 8 14 9 15 7 17 3 18 4 19 82 20 5 21 6 22 81 23 83 24
REMARK SMILES IDX 2 26 1 27 84 28 85 29 89 30 86 31 88 32 87 33 21 34 22 35
REMARK SMILES IDX 23 36 24 37 25 39 26 40 27 41 79 42 28 43 78 44 29 45 30 46
REMARK SMILES IDX 31 47 72 48 32 49 77 50 71 51 73 52 33 53 76 54 70 55 69 56
REMARK SMILES IDX 34 58 60 59 43 60 59 61 44 62 47 63 58 64 74 65 45 66 46 67
REMARK SMILES IDX 57 69 75 70 48 71 35 72 36 73 41 74 37 75 38 76 40 77 42 78
REMARK SMILES IDX 39 79 61 80 62 81 67 82 63 83 64 84 66 85 68 86 65 87 49 88
REMARK SMILES IDX 50 89 55 90 51 91 52 92 54 93 56 94 53 95
REMARK H PARENT 18 6 10 16 83 25 23 38 73 57 47 68
REMARK Flexibility Score: inf
ROOT
ATOM      1  C   UNL A   1      37.285  20.710  24.611  1.00  0.00     0.023 C 
ENDROOT
BRANCH   1   2
ATOM      2  C   UNL A   1      35.939  20.997  25.259  1.00  0.00     0.116 C 
BRANCH   2   3
ATOM      3  N   UNL A   1      35.025  19.873  25.389  1.00  0.00    -0.352 N 
ATOM      4  C   UNL A   1      33.705  19.756  25.001  1.00  0.00     0.251 C 
ATOM      5  O   UNL A   1      33.129  18.681  25.150  1.00  0.00    -0.269 OA
ATOM      6  H   UNL A   1      35.406  19.073  25.821  1.00  0.00     0.163 HD
BRANCH   4   7
ATOM      7  C   UNL A   1      32.942  20.905  24.435  1.00  0.00     0.041 A 
ATOM      8  C   UNL A   1      31.385  22.753  24.707  1.00  0.00     0.041 A 
ATOM      9  C   UNL A   1      31.303  22.874  23.318  1.00  0.00     0.026 A 
ATOM     10  C   UNL A   1      32.239  21.799  25.245  1.00  0.00     0.040 A 
ATOM     11  C   UNL A   1      32.106  22.080  22.493  1.00  0.00     0.003 A 
ATOM     12  C   UNL A   1      32.920  21.091  23.050  1.00  0.00     0.014 A 
BRANCH   8  13
ATOM     13  N   UNL A   1      30.515  23.517  25.501  1.00  0.00    -0.325 N 
ATOM     14  C   UNL A   1      30.221  24.854  25.550  1.00  0.00     0.238 C 
ATOM     15  O   UNL A   1      29.782  25.281  26.624  1.00  0.00    -0.273 OA
ATOM     16  H   UNL A   1      30.012  22.982  26.156  1.00  0.00     0.169 HD
BRANCH  14  17
ATOM     17  C   UNL A   1      30.284  25.788  24.327  1.00  0.00     0.160 C 
ATOM     18  N   UNL A   1      30.412  28.658  23.717  1.00  0.00    -0.191 N 
ATOM     19  C   UNL A   1      31.444  27.804  23.392  1.00  0.00     0.311 C 
ATOM     20  C   UNL A   1      29.097  28.258  23.611  1.00  0.00     0.319 C 
ATOM     21  O   UNL A   1      32.287  28.051  22.533  1.00  0.00    -0.247 OA
ATOM     22  C   UNL A   1      31.556  26.593  24.254  1.00  0.00     0.153 C 
ATOM     23  S   UNL A   1      28.700  26.598  24.027  1.00  0.00    -0.024 SA
ATOM     24  N   UNL A   1      28.069  28.971  23.271  1.00  0.00    -0.235 N 
ATOM     25  H   UNL A   1      27.173  28.629  23.490  1.00  0.00     0.313 HD
BRANCH  18  26
ATOM     26  C   UNL A   1      30.768  29.967  24.273  1.00  0.00     0.243 C 
ATOM     27  C   UNL A   1      31.576  29.951  25.560  1.00  0.00     0.054 C 
ENDBRANCH  18  26
BRANCH  24  28
ATOM     28  C   UNL A   1      28.167  30.201  22.607  1.00  0.00     0.125 A 
ATOM     29  C   UNL A   1      28.118  31.397  23.331  1.00  0.00     0.051 A 
ATOM     30  C   UNL A   1      28.155  30.267  21.209  1.00  0.00     0.051 A 
ATOM     31  C   UNL A   1      28.074  32.632  22.675  1.00  0.00     0.004 A 
ATOM     32  C   UNL A   1      28.129  31.498  20.549  1.00  0.00     0.004 A 
ATOM     33  C   UNL A   1      28.082  32.680  21.283  1.00  0.00     0.000 A 
ENDBRANCH  24  28
ENDBRANCH  14  17
ENDBRANCH   8  13
ENDBRANCH   4   7
ENDBRANCH   2   3
ENDBRANCH   1   2
BRANCH   1  34
ATOM     34  C   UNL A   1      38.105  19.568  25.200  1.00  0.00     0.023 C 
BRANCH  34  35
ATOM     35  C   UNL A   1      39.395  19.944  25.920  1.00  0.00     0.116 C 
BRANCH  35  36
ATOM     36  N   UNL A   1      40.445  18.941  25.868  1.00  0.00    -0.352 N 
ATOM     37  C   UNL A   1      41.797  19.074  26.094  1.00  0.00     0.251 C 
ATOM     38  H   UNL A   1      40.146  18.032  25.638  1.00  0.00     0.163 HD
ATOM     39  O   UNL A   1      42.541  18.103  25.974  1.00  0.00    -0.269 OA
BRANCH  37  40
ATOM     40  C   UNL A   1      42.379  20.397  26.422  1.00  0.00     0.039 A 
ATOM     41  C   UNL A   1      43.015  21.120  25.409  1.00  0.00     0.014 A 
ATOM     42  C   UNL A   1      42.301  20.932  27.710  1.00  0.00     0.014 A 
ATOM     43  C   UNL A   1      43.498  22.406  25.667  1.00  0.00     0.010 A 
ATOM     44  C   UNL A   1      42.699  22.248  27.942  1.00  0.00     0.010 A 
ATOM     45  C   UNL A   1      43.309  22.999  26.927  1.00  0.00    -0.014 A 
BRANCH  45  46
ATOM     46  C   UNL A   1      43.773  24.388  27.195  1.00  0.00     0.031 A 
ATOM     47  C   UNL A   1      42.794  25.442  27.639  1.00  0.00     0.074 A 
ATOM     48  C   UNL A   1      45.068  24.716  27.011  1.00  0.00     0.049 A 
ATOM     49  N   UNL A   1      43.003  26.707  27.911  1.00  0.00    -0.248 NA
ATOM     50  C   UNL A   1      41.388  25.028  27.769  1.00  0.00     0.031 C 
ATOM     51  C   UNL A   1      46.115  23.809  26.537  1.00  0.00     0.029 A 
ATOM     52  N   UNL A   1      45.727  25.907  27.203  1.00  0.00    -0.354 N 
ATOM     53  C   UNL A   1      41.759  27.236  28.232  1.00  0.00     0.074 A 
ATOM     54  C   UNL A   1      40.791  26.175  28.055  1.00  0.00     0.031 C 
ATOM     55  C   UNL A   1      47.287  24.464  26.510  1.00  0.00     0.029 A 
ATOM     56  C   UNL A   1      47.073  25.844  26.936  1.00  0.00     0.049 A 
ATOM     57  H   UNL A   1      45.276  26.729  27.505  1.00  0.00     0.167 HD
ATOM     58  C   UNL A   1      41.450  28.481  28.667  1.00  0.00     0.037 A 
ATOM     59  C   UNL A   1      48.028  26.789  27.029  1.00  0.00     0.037 A 
ATOM     60  C   UNL A   1      42.411  29.533  28.867  1.00  0.00     0.049 A 
ATOM     61  C   UNL A   1      47.662  28.165  27.516  1.00  0.00     0.074 A 
ATOM     62  C   UNL A   1      42.202  30.816  29.343  1.00  0.00     0.029 A 
ATOM     63  N   UNL A   1      43.768  29.422  28.602  1.00  0.00    -0.354 N 
ATOM     64  N   UNL A   1      46.491  28.630  27.879  1.00  0.00    -0.248 NA
ATOM     65  C   UNL A   1      48.754  29.143  27.619  1.00  0.00     0.031 C 
ATOM     66  C   UNL A   1      43.426  31.493  29.329  1.00  0.00     0.029 A 
ATOM     67  C   UNL A   1      44.406  30.616  28.894  1.00  0.00     0.049 A 
ATOM     68  H   UNL A   1      44.212  28.613  28.256  1.00  0.00     0.167 HD
ATOM     69  C   UNL A   1      46.713  29.938  28.293  1.00  0.00     0.074 A 
ATOM     70  C   UNL A   1      48.131  30.189  28.144  1.00  0.00     0.031 C 
ATOM     71  C   UNL A   1      45.821  30.848  28.759  1.00  0.00     0.037 A 
BRANCH  58  72
ATOM     72  C   UNL A   1      40.005  28.765  28.965  1.00  0.00     0.057 A 
ATOM     73  C   UNL A   1      39.473  28.617  30.253  1.00  0.00     0.134 A 
ATOM     74  C   UNL A   1      39.138  29.208  27.958  1.00  0.00     0.134 A 
ATOM     75  F   UNL A   1      40.246  28.184  31.261  1.00  0.00    -0.206 F 
ATOM     76  C   UNL A   1      38.126  28.863  30.521  1.00  0.00     0.040 A 
ATOM     77  C   UNL A   1      37.795  29.487  28.221  1.00  0.00     0.040 A 
ATOM     78  F   UNL A   1      39.581  29.379  26.703  1.00  0.00    -0.206 F 
ATOM     79  C   UNL A   1      37.284  29.305  29.504  1.00  0.00     0.006 A 
ENDBRANCH  58  72
BRANCH  59  80
ATOM     80  C   UNL A   1      49.440  26.460  26.700  1.00  0.00     0.057 A 
ATOM     81  C   UNL A   1      50.293  25.901  27.661  1.00  0.00     0.134 A 
ATOM     82  C   UNL A   1      49.977  26.715  25.434  1.00  0.00     0.134 A 
ATOM     83  F   UNL A   1      49.843  25.653  28.901  1.00  0.00    -0.206 F 
ATOM     84  C   UNL A   1      51.634  25.632  27.382  1.00  0.00     0.040 A 
ATOM     85  C   UNL A   1      51.310  26.426  25.133  1.00  0.00     0.040 A 
ATOM     86  F   UNL A   1      49.212  27.242  24.467  1.00  0.00    -0.206 F 
ATOM     87  C   UNL A   1      52.145  25.891  26.112  1.00  0.00     0.006 A 
ENDBRANCH  59  80
BRANCH  71  88
ATOM     88  C   UNL A   1      46.362  32.177  29.199  1.00  0.00     0.057 A 
ATOM     89  C   UNL A   1      46.803  32.409  30.508  1.00  0.00     0.134 A 
ATOM     90  C   UNL A   1      46.468  33.236  28.287  1.00  0.00     0.134 A 
ATOM     91  F   UNL A   1      46.719  31.441  31.435  1.00  0.00    -0.206 F 
ATOM     92  C   UNL A   1      47.300  33.652  30.902  1.00  0.00     0.040 A 
ATOM     93  C   UNL A   1      46.991  34.474  28.660  1.00  0.00     0.040 A 
ATOM     94  F   UNL A   1      46.074  33.080  27.013  1.00  0.00    -0.206 F 
ATOM     95  C   UNL A   1      47.401  34.688  29.974  1.00  0.00     0.006 A 
ENDBRANCH  71  88
ENDBRANCH  45  46
ENDBRANCH  37  40
ENDBRANCH  35  36
ENDBRANCH  34  35
ENDBRANCH   1  34
TORSDOF 15
ENDMDL
