MODEL 1
REMARK VINA RESULT:     -12.2      0.000      0.000
REMARK SMILES Cn1ccc(C(=O)NCc2ccc(C(=O)NCCCCNC(=O)c3ccc(-c4c5nc(c(-c6c(F)cccc6F)c6ccc([nH]6)c(-c6c(F)cccc6F)c6nc(c(-c7c(F)cccc7F)c7ccc4[nH]7)C=C6)C=C5)cc3)cc2)cc1=O
REMARK SMILES IDX 18 1 17 2 16 3 14 4 15 5 13 7 10 8 11 9 79 10 12 11 78 12
REMARK SMILES IDX 9 13 8 14 6 15 7 16 5 18 1 19 2 20 3 21 81 22 4 23 80 24
REMARK SMILES IDX 82 25 19 26 20 27 21 28 22 29 23 31 24 32 25 33 77 34 26 35
REMARK SMILES IDX 76 36 27 37 28 38 29 39 70 40 30 41 75 42 69 43 71 44 31 45
REMARK SMILES IDX 74 46 68 47 67 48 32 50 58 51 41 52 57 53 42 54 45 55 56 56
REMARK SMILES IDX 72 57 43 58 44 59 55 61 73 62 46 63 33 64 34 65 39 66 35 67
REMARK SMILES IDX 36 68 38 69 40 70 37 71 59 72 60 73 65 74 61 75 62 76 64 77
REMARK SMILES IDX 66 78 63 79 47 80 48 81 53 82 49 83 50 84 52 85 54 86 51 87
REMARK H PARENT 16 6 8 17 21 30 71 49 45 60
REMARK Flexibility Score: inf
ROOT
ATOM      1  C   UNL A   1      30.494  31.884  25.299  1.00  0.00     0.023 C 
ENDROOT
BRANCH   1   2
ATOM      2  C   UNL A   1      30.642  30.522  24.615  1.00  0.00     0.116 C 
BRANCH   2   3
ATOM      3  N   UNL A   1      30.009  30.517  23.310  1.00  0.00    -0.352 N 
ATOM      4  C   UNL A   1      29.602  29.489  22.494  1.00  0.00     0.251 C 
ATOM      5  O   UNL A   1      28.999  29.786  21.461  1.00  0.00    -0.269 OA
ATOM      6  H   UNL A   1      29.840  31.414  22.940  1.00  0.00     0.163 HD
BRANCH   4   7
ATOM      7  C   UNL A   1      29.830  28.048  22.806  1.00  0.00     0.039 A 
ATOM      8  C   UNL A   1      30.420  25.325  23.372  1.00  0.00    -0.029 A 
ATOM      9  C   UNL A   1      31.346  26.132  22.699  1.00  0.00     0.006 A 
ATOM     10  C   UNL A   1      29.221  25.915  23.794  1.00  0.00     0.006 A 
ATOM     11  C   UNL A   1      31.050  27.475  22.416  1.00  0.00     0.014 A 
ATOM     12  C   UNL A   1      28.939  27.256  23.527  1.00  0.00     0.014 A 
BRANCH   8  13
ATOM     13  C   UNL A   1      30.742  23.886  23.715  1.00  0.00     0.152 C 
BRANCH  13  14
ATOM     14  N   UNL A   1      30.520  23.617  25.125  1.00  0.00    -0.348 N 
ATOM     15  C   UNL A   1      31.027  24.120  26.275  1.00  0.00     0.251 C 
ATOM     16  O   UNL A   1      30.750  23.510  27.313  1.00  0.00    -0.269 OA
ATOM     17  H   UNL A   1      29.851  22.911  25.278  1.00  0.00     0.164 HD
BRANCH  15  18
ATOM     18  C   UNL A   1      31.784  25.410  26.358  1.00  0.00     0.046 A 
ATOM     19  C   UNL A   1      34.369  28.769  26.640  1.00  0.00     0.153 C 
ATOM     20  N   UNL A   1      33.456  27.645  26.509  1.00  0.00    -0.319 N 
ATOM     21  C   UNL A   1      33.919  26.486  25.921  1.00  0.00     0.089 A 
ATOM     22  C   UNL A   1      32.144  27.770  26.957  1.00  0.00     0.251 A 
ATOM     23  C   UNL A   1      33.143  25.403  25.835  1.00  0.00     0.032 A 
ATOM     24  C   UNL A   1      31.278  26.566  26.812  1.00  0.00     0.085 A 
ATOM     25  O   UNL A   1      31.669  28.778  27.473  1.00  0.00    -0.269 OA
ENDBRANCH  15  18
ENDBRANCH  13  14
ENDBRANCH   8  13
ENDBRANCH   4   7
ENDBRANCH   2   3
ENDBRANCH   1   2
BRANCH   1  26
ATOM     26  C   UNL A   1      31.031  31.949  26.729  1.00  0.00     0.023 C 
BRANCH  26  27
ATOM     27  C   UNL A   1      32.379  32.641  26.879  1.00  0.00     0.116 C 
BRANCH  27  28
ATOM     28  N   UNL A   1      32.286  33.977  27.449  1.00  0.00    -0.352 N 
ATOM     29  C   UNL A   1      33.104  34.560  28.385  1.00  0.00     0.251 C 
ATOM     30  H   UNL A   1      31.541  34.532  27.124  1.00  0.00     0.163 HD
ATOM     31  O   UNL A   1      32.839  35.668  28.842  1.00  0.00    -0.269 OA
BRANCH  29  32
ATOM     32  C   UNL A   1      34.285  33.820  28.872  1.00  0.00     0.039 A 
ATOM     33  C   UNL A   1      35.549  34.394  28.721  1.00  0.00     0.014 A 
ATOM     34  C   UNL A   1      34.138  32.588  29.515  1.00  0.00     0.014 A 
ATOM     35  C   UNL A   1      36.662  33.764  29.277  1.00  0.00     0.010 A 
ATOM     36  C   UNL A   1      35.235  31.998  30.131  1.00  0.00     0.010 A 
ATOM     37  C   UNL A   1      36.507  32.580  30.017  1.00  0.00    -0.014 A 
BRANCH  37  38
ATOM     38  C   UNL A   1      37.664  31.939  30.689  1.00  0.00     0.031 A 
ATOM     39  C   UNL A   1      38.446  30.869  29.984  1.00  0.00     0.074 A 
ATOM     40  C   UNL A   1      37.952  32.261  31.964  1.00  0.00     0.049 A 
ATOM     41  N   UNL A   1      39.447  30.150  30.427  1.00  0.00    -0.248 NA
ATOM     42  C   UNL A   1      38.026  30.537  28.615  1.00  0.00     0.031 C 
ATOM     43  C   UNL A   1      37.216  33.229  32.779  1.00  0.00     0.029 A 
ATOM     44  N   UNL A   1      38.930  31.791  32.803  1.00  0.00    -0.354 N 
ATOM     45  C   UNL A   1      39.760  29.271  29.400  1.00  0.00     0.074 A 
ATOM     46  C   UNL A   1      38.810  29.508  28.335  1.00  0.00     0.031 C 
ATOM     47  C   UNL A   1      37.776  33.290  33.998  1.00  0.00     0.029 A 
ATOM     48  C   UNL A   1      38.890  32.348  34.058  1.00  0.00     0.049 A 
ATOM     49  H   UNL A   1      39.597  31.120  32.532  1.00  0.00     0.167 HD
ATOM     50  C   UNL A   1      40.763  28.362  29.341  1.00  0.00     0.037 A 
ATOM     51  C   UNL A   1      39.660  32.120  35.138  1.00  0.00     0.037 A 
ATOM     52  C   UNL A   1      41.722  28.150  30.393  1.00  0.00     0.049 A 
ATOM     53  C   UNL A   1      40.789  31.135  35.040  1.00  0.00     0.074 A 
ATOM     54  C   UNL A   1      42.831  27.323  30.395  1.00  0.00     0.029 A 
ATOM     55  N   UNL A   1      41.679  28.766  31.635  1.00  0.00    -0.354 N 
ATOM     56  N   UNL A   1      41.139  30.379  34.028  1.00  0.00    -0.248 NA
ATOM     57  C   UNL A   1      41.638  30.978  36.230  1.00  0.00     0.031 C 
ATOM     58  C   UNL A   1      43.434  27.405  31.656  1.00  0.00     0.029 A 
ATOM     59  C   UNL A   1      42.726  28.316  32.422  1.00  0.00     0.049 A 
ATOM     60  H   UNL A   1      41.003  29.424  31.915  1.00  0.00     0.167 HD
ATOM     61  C   UNL A   1      42.256  29.669  34.450  1.00  0.00     0.074 A 
ATOM     62  C   UNL A   1      42.534  30.098  35.805  1.00  0.00     0.031 C 
ATOM     63  C   UNL A   1      42.984  28.746  33.774  1.00  0.00     0.037 A 
BRANCH  50  64
ATOM     64  C   UNL A   1      40.861  27.530  28.095  1.00  0.00     0.057 A 
ATOM     65  C   UNL A   1      40.222  26.288  27.980  1.00  0.00     0.134 A 
ATOM     66  C   UNL A   1      41.606  27.976  26.996  1.00  0.00     0.134 A 
ATOM     67  F   UNL A   1      39.501  25.797  29.000  1.00  0.00    -0.206 F 
ATOM     68  C   UNL A   1      40.354  25.500  26.835  1.00  0.00     0.040 A 
ATOM     69  C   UNL A   1      41.721  27.211  25.834  1.00  0.00     0.040 A 
ATOM     70  F   UNL A   1      42.238  29.157  27.035  1.00  0.00    -0.206 F 
ATOM     71  C   UNL A   1      41.103  25.964  25.755  1.00  0.00     0.006 A 
ENDBRANCH  50  64
BRANCH  51  72
ATOM     72  C   UNL A   1      39.396  32.865  36.393  1.00  0.00     0.057 A 
ATOM     73  C   UNL A   1      40.019  34.091  36.650  1.00  0.00     0.134 A 
ATOM     74  C   UNL A   1      38.488  32.388  37.345  1.00  0.00     0.134 A 
ATOM     75  F   UNL A   1      40.908  34.591  35.780  1.00  0.00    -0.206 F 
ATOM     76  C   UNL A   1      39.754  34.815  37.812  1.00  0.00     0.040 A 
ATOM     77  C   UNL A   1      38.198  33.111  38.503  1.00  0.00     0.040 A 
ATOM     78  F   UNL A   1      37.852  31.224  37.150  1.00  0.00    -0.206 F 
ATOM     79  C   UNL A   1      38.834  34.328  38.741  1.00  0.00     0.006 A 
ENDBRANCH  51  72
BRANCH  63  80
ATOM     80  C   UNL A   1      44.159  28.146  34.487  1.00  0.00     0.057 A 
ATOM     81  C   UNL A   1      45.423  28.751  34.461  1.00  0.00     0.134 A 
ATOM     82  C   UNL A   1      44.016  26.975  35.242  1.00  0.00     0.134 A 
ATOM     83  F   UNL A   1      45.628  29.867  33.746  1.00  0.00    -0.206 F 
ATOM     84  C   UNL A   1      46.507  28.200  35.146  1.00  0.00     0.040 A 
ATOM     85  C   UNL A   1      45.087  26.429  35.951  1.00  0.00     0.040 A 
ATOM     86  F   UNL A   1      42.831  26.352  35.314  1.00  0.00    -0.206 F 
ATOM     87  C   UNL A   1      46.338  27.040  35.900  1.00  0.00     0.006 A 
ENDBRANCH  63  80
ENDBRANCH  37  38
ENDBRANCH  29  32
ENDBRANCH  27  28
ENDBRANCH  26  27
ENDBRANCH   1  26
TORSDOF 14
ENDMDL
MODEL 2
REMARK VINA RESULT:     -12.0      3.687      7.416
REMARK SMILES Cn1ccc(C(=O)NCc2ccc(C(=O)NCCCCNC(=O)c3ccc(-c4c5nc(c(-c6c(F)cccc6F)c6ccc([nH]6)c(-c6c(F)cccc6F)c6nc(c(-c7c(F)cccc7F)c7ccc4[nH]7)C=C6)C=C5)cc3)cc2)cc1=O
REMARK SMILES IDX 18 1 17 2 16 3 14 4 15 5 13 7 10 8 11 9 79 10 12 11 78 12
REMARK SMILES IDX 9 13 8 14 6 15 7 16 5 18 1 19 2 20 3 21 81 22 4 23 80 24
REMARK SMILES IDX 82 25 19 26 20 27 21 28 22 29 23 31 24 32 25 33 77 34 26 35
REMARK SMILES IDX 76 36 27 37 28 38 29 39 70 40 30 41 75 42 69 43 71 44 31 45
REMARK SMILES IDX 74 46 68 47 67 48 32 50 58 51 41 52 57 53 42 54 45 55 56 56
REMARK SMILES IDX 72 57 43 58 44 59 55 61 73 62 46 63 33 64 34 65 39 66 35 67
REMARK SMILES IDX 36 68 38 69 40 70 37 71 59 72 60 73 65 74 61 75 62 76 64 77
REMARK SMILES IDX 66 78 63 79 47 80 48 81 53 82 49 83 50 84 52 85 54 86 51 87
REMARK H PARENT 16 6 8 17 21 30 71 49 45 60
REMARK Flexibility Score: inf
ROOT
ATOM      1  C   UNL A   1      32.879  29.643  25.104  1.00  0.00     0.023 C 
ENDROOT
BRANCH   1   2
ATOM      2  C   UNL A   1      31.361  29.848  25.065  1.00  0.00     0.116 C 
BRANCH   2   3
ATOM      3  N   UNL A   1      30.851  29.741  23.711  1.00  0.00    -0.352 N 
ATOM      4  C   UNL A   1      30.497  28.653  22.951  1.00  0.00     0.251 C 
ATOM      5  O   UNL A   1      29.998  28.869  21.845  1.00  0.00    -0.269 OA
ATOM      6  H   UNL A   1      30.736  30.605  23.254  1.00  0.00     0.163 HD
BRANCH   4   7
ATOM      7  C   UNL A   1      30.664  27.240  23.402  1.00  0.00     0.039 A 
ATOM      8  C   UNL A   1      31.130  24.554  24.207  1.00  0.00    -0.029 A 
ATOM      9  C   UNL A   1      31.991  25.189  23.304  1.00  0.00     0.006 A 
ATOM     10  C   UNL A   1      30.066  25.299  24.733  1.00  0.00     0.006 A 
ATOM     11  C   UNL A   1      31.755  26.513  22.904  1.00  0.00     0.014 A 
ATOM     12  C   UNL A   1      29.846  26.623  24.346  1.00  0.00     0.014 A 
BRANCH   8  13
ATOM     13  C   UNL A   1      31.394  23.138  24.675  1.00  0.00     0.152 C 
BRANCH  13  14
ATOM     14  N   UNL A   1      31.612  23.089  26.110  1.00  0.00    -0.348 N 
ATOM     15  C   UNL A   1      32.644  22.706  26.897  1.00  0.00     0.251 C 
ATOM     16  O   UNL A   1      32.410  22.609  28.106  1.00  0.00    -0.269 OA
ATOM     17  H   UNL A   1      30.834  23.403  26.625  1.00  0.00     0.164 HD
BRANCH  15  18
ATOM     18  C   UNL A   1      34.045  22.518  26.402  1.00  0.00     0.046 A 
ATOM     19  C   UNL A   1      37.966  21.476  25.142  1.00  0.00     0.153 C 
ATOM     20  N   UNL A   1      36.620  21.864  25.532  1.00  0.00    -0.319 N 
ATOM     21  C   UNL A   1      35.617  20.921  25.458  1.00  0.00     0.089 A 
ATOM     22  C   UNL A   1      36.375  23.170  25.949  1.00  0.00     0.251 A 
ATOM     23  C   UNL A   1      34.377  21.205  25.867  1.00  0.00     0.032 A 
ATOM     24  C   UNL A   1      34.977  23.482  26.357  1.00  0.00     0.085 A 
ATOM     25  O   UNL A   1      37.221  24.057  26.020  1.00  0.00    -0.269 OA
ENDBRANCH  15  18
ENDBRANCH  13  14
ENDBRANCH   8  13
ENDBRANCH   4   7
ENDBRANCH   2   3
ENDBRANCH   1   2
BRANCH   1  26
ATOM     26  C   UNL A   1      33.337  28.367  25.811  1.00  0.00     0.023 C 
BRANCH  26  27
ATOM     27  C   UNL A   1      33.748  28.550  27.266  1.00  0.00     0.116 C 
BRANCH  27  28
ATOM     28  N   UNL A   1      33.694  29.933  27.715  1.00  0.00    -0.352 N 
ATOM     29  C   UNL A   1      34.691  30.676  28.299  1.00  0.00     0.251 C 
ATOM     30  H   UNL A   1      32.835  30.394  27.583  1.00  0.00     0.163 HD
ATOM     31  O   UNL A   1      34.464  31.809  28.714  1.00  0.00    -0.269 OA
BRANCH  29  32
ATOM     32  C   UNL A   1      36.031  30.080  28.467  1.00  0.00     0.039 A 
ATOM     33  C   UNL A   1      36.936  30.150  27.407  1.00  0.00     0.014 A 
ATOM     34  C   UNL A   1      36.404  29.497  29.681  1.00  0.00     0.014 A 
ATOM     35  C   UNL A   1      38.243  29.695  27.587  1.00  0.00     0.010 A 
ATOM     36  C   UNL A   1      37.724  29.112  29.883  1.00  0.00     0.010 A 
ATOM     37  C   UNL A   1      38.655  29.207  28.837  1.00  0.00    -0.014 A 
BRANCH  37  38
ATOM     38  C   UNL A   1      40.061  28.798  29.075  1.00  0.00     0.031 A 
ATOM     39  C   UNL A   1      41.034  29.764  29.685  1.00  0.00     0.074 A 
ATOM     40  C   UNL A   1      40.478  27.587  28.661  1.00  0.00     0.049 A 
ATOM     41  N   UNL A   1      42.315  29.615  29.913  1.00  0.00    -0.248 NA
ATOM     42  C   UNL A   1      40.508  31.087  30.053  1.00  0.00     0.031 C 
ATOM     43  C   UNL A   1      39.646  26.590  27.986  1.00  0.00     0.029 A 
ATOM     44  N   UNL A   1      41.715  26.998  28.730  1.00  0.00    -0.354 N 
ATOM     45  C   UNL A   1      42.748  30.827  30.431  1.00  0.00     0.074 A 
ATOM     46  C   UNL A   1      41.609  31.719  30.432  1.00  0.00     0.031 C 
ATOM     47  C   UNL A   1      40.392  25.508  27.713  1.00  0.00     0.029 A 
ATOM     48  C   UNL A   1      41.759  25.746  28.168  1.00  0.00     0.049 A 
ATOM     49  H   UNL A   1      42.497  27.431  29.143  1.00  0.00     0.167 HD
ATOM     50  C   UNL A   1      43.979  31.161  30.886  1.00  0.00     0.037 A 
ATOM     51  C   UNL A   1      42.786  24.887  28.029  1.00  0.00     0.037 A 
ATOM     52  C   UNL A   1      45.102  30.261  30.908  1.00  0.00     0.049 A 
ATOM     53  C   UNL A   1      44.135  25.263  28.572  1.00  0.00     0.074 A 
ATOM     54  C   UNL A   1      46.365  30.470  31.434  1.00  0.00     0.029 A 
ATOM     55  N   UNL A   1      45.098  28.982  30.371  1.00  0.00    -0.354 N 
ATOM     56  N   UNL A   1      44.510  26.377  29.152  1.00  0.00    -0.248 NA
ATOM     57  C   UNL A   1      45.201  24.258  28.453  1.00  0.00     0.031 C 
ATOM     58  C   UNL A   1      47.138  29.332  31.175  1.00  0.00     0.029 A 
ATOM     59  C   UNL A   1      46.345  28.399  30.529  1.00  0.00     0.049 A 
ATOM     60  H   UNL A   1      44.324  28.552  29.942  1.00  0.00     0.167 HD
ATOM     61  C   UNL A   1      45.848  26.204  29.481  1.00  0.00     0.074 A 
ATOM     62  C   UNL A   1      46.214  24.870  29.051  1.00  0.00     0.031 C 
ATOM     63  C   UNL A   1      46.696  27.073  30.085  1.00  0.00     0.037 A 
BRANCH  50  64
ATOM     64  C   UNL A   1      44.166  32.563  31.389  1.00  0.00     0.057 A 
ATOM     65  C   UNL A   1      43.956  32.904  32.733  1.00  0.00     0.134 A 
ATOM     66  C   UNL A   1      44.558  33.588  30.518  1.00  0.00     0.134 A 
ATOM     67  F   UNL A   1      43.567  31.972  33.616  1.00  0.00    -0.206 F 
ATOM     68  C   UNL A   1      44.089  34.218  33.183  1.00  0.00     0.040 A 
ATOM     69  C   UNL A   1      44.724  34.900  30.964  1.00  0.00     0.040 A 
ATOM     70  F   UNL A   1      44.783  33.332  29.221  1.00  0.00    -0.206 F 
ATOM     71  C   UNL A   1      44.478  35.221  32.298  1.00  0.00     0.006 A 
ENDBRANCH  50  64
BRANCH  51  72
ATOM     72  C   UNL A   1      42.560  23.579  27.369  1.00  0.00     0.057 A 
ATOM     73  C   UNL A   1      42.747  23.423  25.991  1.00  0.00     0.134 A 
ATOM     74  C   UNL A   1      42.191  22.446  28.104  1.00  0.00     0.134 A 
ATOM     75  F   UNL A   1      43.087  24.476  25.233  1.00  0.00    -0.206 F 
ATOM     76  C   UNL A   1      42.567  22.190  25.365  1.00  0.00     0.040 A 
ATOM     77  C   UNL A   1      42.028  21.201  27.495  1.00  0.00     0.040 A 
ATOM     78  F   UNL A   1      42.008  22.530  29.430  1.00  0.00    -0.206 F 
ATOM     79  C   UNL A   1      42.213  21.071  26.120  1.00  0.00     0.006 A 
ENDBRANCH  51  72
BRANCH  63  80
ATOM     80  C   UNL A   1      48.100  26.603  30.327  1.00  0.00     0.057 A 
ATOM     81  C   UNL A   1      49.133  26.873  29.421  1.00  0.00     0.134 A 
ATOM     82  C   UNL A   1      48.429  25.908  31.498  1.00  0.00     0.134 A 
ATOM     83  F   UNL A   1      48.880  27.523  28.275  1.00  0.00    -0.206 F 
ATOM     84  C   UNL A   1      50.442  26.453  29.663  1.00  0.00     0.040 A 
ATOM     85  C   UNL A   1      49.738  25.505  31.763  1.00  0.00     0.040 A 
ATOM     86  F   UNL A   1      47.487  25.624  32.409  1.00  0.00    -0.206 F 
ATOM     87  C   UNL A   1      50.748  25.773  30.841  1.00  0.00     0.006 A 
ENDBRANCH  63  80
ENDBRANCH  37  38
ENDBRANCH  29  32
ENDBRANCH  27  28
ENDBRANCH  26  27
ENDBRANCH   1  26
TORSDOF 14
ENDMDL
MODEL 3
REMARK VINA RESULT:     -12.0      5.167      9.281
REMARK SMILES Cn1ccc(C(=O)NCc2ccc(C(=O)NCCCCNC(=O)c3ccc(-c4c5nc(c(-c6c(F)cccc6F)c6ccc([nH]6)c(-c6c(F)cccc6F)c6nc(c(-c7c(F)cccc7F)c7ccc4[nH]7)C=C6)C=C5)cc3)cc2)cc1=O
REMARK SMILES IDX 18 1 17 2 16 3 14 4 15 5 13 7 10 8 11 9 79 10 12 11 78 12
REMARK SMILES IDX 9 13 8 14 6 15 7 16 5 18 1 19 2 20 3 21 81 22 4 23 80 24
REMARK SMILES IDX 82 25 19 26 20 27 21 28 22 29 23 31 24 32 25 33 77 34 26 35
REMARK SMILES IDX 76 36 27 37 28 38 29 39 70 40 30 41 75 42 69 43 71 44 31 45
REMARK SMILES IDX 74 46 68 47 67 48 32 50 58 51 41 52 57 53 42 54 45 55 56 56
REMARK SMILES IDX 72 57 43 58 44 59 55 61 73 62 46 63 33 64 34 65 39 66 35 67
REMARK SMILES IDX 36 68 38 69 40 70 37 71 59 72 60 73 65 74 61 75 62 76 64 77
REMARK SMILES IDX 66 78 63 79 47 80 48 81 53 82 49 83 50 84 52 85 54 86 51 87
REMARK H PARENT 16 6 8 17 21 30 71 49 45 60
REMARK Flexibility Score: inf
ROOT
ATOM      1  C   UNL A   1      36.742  19.146  25.002  1.00  0.00     0.023 C 
ENDROOT
BRANCH   1   2
ATOM      2  C   UNL A   1      35.432  19.940  25.002  1.00  0.00     0.116 C 
BRANCH   2   3
ATOM      3  N   UNL A   1      34.288  19.068  25.197  1.00  0.00    -0.352 N 
ATOM      4  C   UNL A   1      32.949  19.247  24.950  1.00  0.00     0.251 C 
ATOM      5  O   UNL A   1      32.202  18.284  25.130  1.00  0.00    -0.269 OA
ATOM      6  H   UNL A   1      34.513  18.188  25.577  1.00  0.00     0.163 HD
BRANCH   4   7
ATOM      7  C   UNL A   1      32.364  20.528  24.455  1.00  0.00     0.039 A 
ATOM      8  C   UNL A   1      31.281  23.032  23.655  1.00  0.00    -0.029 A 
ATOM      9  C   UNL A   1      31.493  22.745  25.010  1.00  0.00     0.006 A 
ATOM     10  C   UNL A   1      31.663  22.068  22.713  1.00  0.00     0.006 A 
ATOM     11  C   UNL A   1      32.023  21.505  25.402  1.00  0.00     0.014 A 
ATOM     12  C   UNL A   1      32.207  20.843  23.107  1.00  0.00     0.014 A 
BRANCH   8  13
ATOM     13  C   UNL A   1      30.745  24.378  23.217  1.00  0.00     0.152 C 
BRANCH  13  14
ATOM     14  N   UNL A   1      31.604  24.988  22.218  1.00  0.00    -0.348 N 
ATOM     15  C   UNL A   1      32.918  25.307  22.168  1.00  0.00     0.251 C 
ATOM     16  O   UNL A   1      33.281  26.008  21.217  1.00  0.00    -0.269 OA
ATOM     17  H   UNL A   1      31.122  25.223  21.392  1.00  0.00     0.164 HD
BRANCH  15  18
ATOM     18  C   UNL A   1      33.944  24.765  23.115  1.00  0.00     0.046 A 
ATOM     19  C   UNL A   1      36.836  23.704  26.040  1.00  0.00     0.153 C 
ATOM     20  N   UNL A   1      35.827  24.019  25.042  1.00  0.00    -0.319 N 
ATOM     21  C   UNL A   1      34.834  24.918  25.372  1.00  0.00     0.089 A 
ATOM     22  C   UNL A   1      35.875  23.400  23.796  1.00  0.00     0.251 A 
ATOM     23  C   UNL A   1      33.921  25.292  24.472  1.00  0.00     0.032 A 
ATOM     24  C   UNL A   1      34.822  23.795  22.820  1.00  0.00     0.085 A 
ATOM     25  O   UNL A   1      36.723  22.581  23.449  1.00  0.00    -0.269 OA
ENDBRANCH  15  18
ENDBRANCH  13  14
ENDBRANCH   8  13
ENDBRANCH   4   7
ENDBRANCH   2   3
ENDBRANCH   1   2
BRANCH   1  26
ATOM     26  C   UNL A   1      37.984  19.955  24.626  1.00  0.00     0.023 C 
BRANCH  26  27
ATOM     27  C   UNL A   1      38.995  20.139  25.750  1.00  0.00     0.116 C 
BRANCH  27  28
ATOM     28  N   UNL A   1      39.990  19.079  25.816  1.00  0.00    -0.352 N 
ATOM     29  C   UNL A   1      41.333  19.190  26.082  1.00  0.00     0.251 C 
ATOM     30  H   UNL A   1      39.659  18.169  25.647  1.00  0.00     0.163 HD
ATOM     31  O   UNL A   1      42.067  18.209  26.007  1.00  0.00    -0.269 OA
BRANCH  29  32
ATOM     32  C   UNL A   1      41.896  20.514  26.414  1.00  0.00     0.039 A 
ATOM     33  C   UNL A   1      42.254  21.373  25.374  1.00  0.00     0.014 A 
ATOM     34  C   UNL A   1      42.024  20.919  27.745  1.00  0.00     0.014 A 
ATOM     35  C   UNL A   1      42.679  22.669  25.667  1.00  0.00     0.010 A 
ATOM     36  C   UNL A   1      42.376  22.233  28.034  1.00  0.00     0.010 A 
ATOM     37  C   UNL A   1      42.708  23.119  26.997  1.00  0.00    -0.014 A 
BRANCH  37  38
ATOM     38  C   UNL A   1      43.074  24.518  27.326  1.00  0.00     0.031 A 
ATOM     39  C   UNL A   1      44.510  24.951  27.285  1.00  0.00     0.074 A 
ATOM     40  C   UNL A   1      42.120  25.372  27.744  1.00  0.00     0.049 A 
ATOM     41  N   UNL A   1      45.034  26.110  27.598  1.00  0.00    -0.248 NA
ATOM     42  C   UNL A   1      45.494  23.937  26.875  1.00  0.00     0.031 C 
ATOM     43  C   UNL A   1      40.702  25.047  27.899  1.00  0.00     0.029 A 
ATOM     44  N   UNL A   1      42.207  26.684  28.134  1.00  0.00    -0.354 N 
ATOM     45  C   UNL A   1      46.404  25.957  27.442  1.00  0.00     0.074 A 
ATOM     46  C   UNL A   1      46.636  24.581  27.061  1.00  0.00     0.031 C 
ATOM     47  C   UNL A   1      40.049  26.134  28.340  1.00  0.00     0.029 A 
ATOM     48  C   UNL A   1      41.005  27.221  28.525  1.00  0.00     0.049 A 
ATOM     49  H   UNL A   1      43.050  27.192  28.134  1.00  0.00     0.167 HD
ATOM     50  C   UNL A   1      47.380  26.886  27.581  1.00  0.00     0.037 A 
ATOM     51  C   UNL A   1      40.708  28.450  28.987  1.00  0.00     0.037 A 
ATOM     52  C   UNL A   1      47.141  28.260  27.933  1.00  0.00     0.049 A 
ATOM     53  C   UNL A   1      41.799  29.475  29.101  1.00  0.00     0.074 A 
ATOM     54  C   UNL A   1      48.048  29.303  28.008  1.00  0.00     0.029 A 
ATOM     55  N   UNL A   1      45.902  28.782  28.278  1.00  0.00    -0.354 N 
ATOM     56  N   UNL A   1      43.080  29.348  28.854  1.00  0.00    -0.248 NA
ATOM     57  C   UNL A   1      41.402  30.819  29.546  1.00  0.00     0.031 C 
ATOM     58  C   UNL A   1      47.365  30.445  28.442  1.00  0.00     0.029 A 
ATOM     59  C   UNL A   1      46.026  30.125  28.594  1.00  0.00     0.049 A 
ATOM     60  H   UNL A   1      45.061  28.272  28.296  1.00  0.00     0.167 HD
ATOM     61  C   UNL A   1      43.641  30.595  29.097  1.00  0.00     0.074 A 
ATOM     62  C   UNL A   1      42.557  31.470  29.495  1.00  0.00     0.031 C 
ATOM     63  C   UNL A   1      44.938  30.980  28.998  1.00  0.00     0.037 A 
BRANCH  50  64
ATOM     64  C   UNL A   1      48.794  26.433  27.355  1.00  0.00     0.057 A 
ATOM     65  C   UNL A   1      49.598  25.963  28.403  1.00  0.00     0.134 A 
ATOM     66  C   UNL A   1      49.360  26.470  26.075  1.00  0.00     0.134 A 
ATOM     67  F   UNL A   1      49.121  25.913  29.656  1.00  0.00    -0.206 F 
ATOM     68  C   UNL A   1      50.926  25.586  28.193  1.00  0.00     0.040 A 
ATOM     69  C   UNL A   1      50.676  26.067  25.847  1.00  0.00     0.040 A 
ATOM     70  F   UNL A   1      48.645  26.902  25.026  1.00  0.00    -0.206 F 
ATOM     71  C   UNL A   1      51.467  25.633  26.910  1.00  0.00     0.006 A 
ENDBRANCH  50  64
BRANCH  51  72
ATOM     72  C   UNL A   1      39.307  28.774  29.349  1.00  0.00     0.057 A 
ATOM     73  C   UNL A   1      38.844  28.618  30.660  1.00  0.00     0.134 A 
ATOM     74  C   UNL A   1      38.410  29.285  28.402  1.00  0.00     0.134 A 
ATOM     75  F   UNL A   1      39.653  28.121  31.606  1.00  0.00    -0.206 F 
ATOM     76  C   UNL A   1      37.537  28.950  31.017  1.00  0.00     0.040 A 
ATOM     77  C   UNL A   1      37.106  29.641  28.749  1.00  0.00     0.040 A 
ATOM     78  F   UNL A   1      38.799  29.468  27.132  1.00  0.00    -0.206 F 
ATOM     79  C   UNL A   1      36.665  29.471  30.060  1.00  0.00     0.006 A 
ENDBRANCH  51  72
BRANCH  63  80
ATOM     80  C   UNL A   1      45.253  32.412  29.315  1.00  0.00     0.057 A 
ATOM     81  C   UNL A   1      45.172  33.416  28.342  1.00  0.00     0.134 A 
ATOM     82  C   UNL A   1      45.600  32.796  30.616  1.00  0.00     0.134 A 
ATOM     83  F   UNL A   1      44.857  33.111  27.074  1.00  0.00    -0.206 F 
ATOM     84  C   UNL A   1      45.444  34.750  28.649  1.00  0.00     0.040 A 
ATOM     85  C   UNL A   1      45.849  34.130  30.940  1.00  0.00     0.040 A 
ATOM     86  F   UNL A   1      45.687  31.884  31.596  1.00  0.00    -0.206 F 
ATOM     87  C   UNL A   1      45.776  35.111  29.953  1.00  0.00     0.006 A 
ENDBRANCH  63  80
ENDBRANCH  37  38
ENDBRANCH  29  32
ENDBRANCH  27  28
ENDBRANCH  26  27
ENDBRANCH   1  26
TORSDOF 14
ENDMDL
