MODEL 1
REMARK VINA RESULT:     -11.5      0.000      0.000
REMARK SMILES CC(C)(C)OC(=O)N[C@@H](C(=O)NCCCCNC(=O)c1ccc(-c2c3nc(c(-c4c(F)cccc4F)c4ccc([nH]4)c(-c4c(F)cccc4F)c4nc(c(-c5c(F)cccc5F)c5ccc2[nH]5)C=C4)C=C3)cc1)c1ccc([N+](=O)[O-])cc1
REMARK SMILES IDX 14 1 13 2 12 3 10 4 11 5 9 7 8 8 6 9 7 10 5 12 2 13 1 14
REMARK SMILES IDX 3 15 4 16 74 17 75 18 82 19 76 20 81 21 77 22 78 23 79 24
REMARK SMILES IDX 80 25 15 26 16 27 17 28 18 29 19 31 20 32 21 33 73 34 22 35
REMARK SMILES IDX 72 36 23 37 24 38 25 39 66 40 26 41 71 42 65 43 67 44 27 45
REMARK SMILES IDX 70 46 64 47 63 48 28 50 54 51 37 52 53 53 38 54 41 55 52 56
REMARK SMILES IDX 68 57 39 58 40 59 51 61 69 62 42 63 29 64 30 65 35 66 31 67
REMARK SMILES IDX 32 68 34 69 36 70 33 71 55 72 56 73 61 74 57 75 58 76 60 77
REMARK SMILES IDX 62 78 59 79 43 80 44 81 49 82 45 83 46 84 48 85 50 86 47 87
REMARK H PARENT 12 6 8 11 17 30 67 49 41 60
REMARK Flexibility Score: inf
ROOT
ATOM      1  C   UNL A   1      36.217  21.811  24.318  1.00  0.00     0.023 C 
ENDROOT
BRANCH   1   2
ATOM      2  C   UNL A   1      35.874  23.005  25.207  1.00  0.00     0.116 C 
BRANCH   2   3
ATOM      3  N   UNL A   1      35.472  22.570  26.526  1.00  0.00    -0.354 N 
ATOM      4  C   UNL A   1      34.214  22.354  27.019  1.00  0.00     0.247 C 
ATOM      5  O   UNL A   1      34.136  22.086  28.222  1.00  0.00    -0.272 OA
ATOM      6  H   UNL A   1      36.207  22.408  27.160  1.00  0.00     0.163 HD
BRANCH   4   7
ATOM      7  C   UNL A   1      32.975  22.398  26.068  1.00  0.00     0.205 C 
BRANCH   7   8
ATOM      8  N   UNL A   1      31.778  22.593  26.879  1.00  0.00    -0.306 N 
ATOM      9  C   UNL A   1      30.649  23.277  26.548  1.00  0.00     0.408 C 
ATOM     10  O   UNL A   1      29.720  23.364  27.338  1.00  0.00    -0.225 OA
ATOM     11  H   UNL A   1      31.787  22.179  27.772  1.00  0.00     0.168 HD
BRANCH   9  12
ATOM     12  O   UNL A   1      30.713  23.862  25.329  1.00  0.00    -0.444 OA
BRANCH  12  13
ATOM     13  C   UNL A   1      30.972  25.286  25.197  1.00  0.00     0.106 C 
ATOM     14  C   UNL A   1      31.969  25.403  24.032  1.00  0.00     0.056 C 
ATOM     15  C   UNL A   1      31.643  25.862  26.452  1.00  0.00     0.056 C 
ATOM     16  C   UNL A   1      29.695  26.048  24.832  1.00  0.00     0.056 C 
ENDBRANCH  12  13
ENDBRANCH   9  12
ENDBRANCH   7   8
BRANCH   7  17
ATOM     17  C   UNL A   1      32.875  21.145  25.189  1.00  0.00    -0.016 A 
ATOM     18  C   UNL A   1      32.514  21.281  23.832  1.00  0.00     0.013 A 
ATOM     19  C   UNL A   1      33.130  19.850  25.679  1.00  0.00     0.013 A 
ATOM     20  C   UNL A   1      32.453  20.172  22.983  1.00  0.00     0.086 A 
ATOM     21  C   UNL A   1      33.065  18.734  24.839  1.00  0.00     0.086 A 
ATOM     22  C   UNL A   1      32.735  18.900  23.490  1.00  0.00     0.269 A 
BRANCH  22  23
ATOM     23  N   UNL A   1      32.685  17.732  22.603  1.00  0.00     0.062 N 
ATOM     24  O   UNL A   1      33.525  16.837  22.781  1.00  0.00    -0.258 OA
ATOM     25  O   UNL A   1      31.810  17.709  21.727  1.00  0.00    -0.258 OA
ENDBRANCH  22  23
ENDBRANCH   7  17
ENDBRANCH   4   7
ENDBRANCH   2   3
ENDBRANCH   1   2
BRANCH   1  26
ATOM     26  C   UNL A   1      36.995  20.706  25.037  1.00  0.00     0.023 C 
BRANCH  26  27
ATOM     27  C   UNL A   1      38.419  21.080  25.432  1.00  0.00     0.116 C 
BRANCH  27  28
ATOM     28  N   UNL A   1      39.311  19.933  25.498  1.00  0.00    -0.352 N 
ATOM     29  C   UNL A   1      40.608  19.884  25.946  1.00  0.00     0.251 C 
ATOM     30  H   UNL A   1      38.936  19.081  25.179  1.00  0.00     0.163 HD
ATOM     31  O   UNL A   1      41.275  18.864  25.811  1.00  0.00    -0.269 OA
BRANCH  29  32
ATOM     32  C   UNL A   1      41.204  21.086  26.563  1.00  0.00     0.039 A 
ATOM     33  C   UNL A   1      41.833  22.024  25.742  1.00  0.00     0.014 A 
ATOM     34  C   UNL A   1      41.101  21.304  27.940  1.00  0.00     0.014 A 
ATOM     35  C   UNL A   1      42.301  23.216  26.297  1.00  0.00     0.010 A 
ATOM     36  C   UNL A   1      41.496  22.525  28.474  1.00  0.00     0.010 A 
ATOM     37  C   UNL A   1      42.102  23.493  27.659  1.00  0.00    -0.014 A 
BRANCH  37  38
ATOM     38  C   UNL A   1      42.512  24.793  28.246  1.00  0.00     0.031 A 
ATOM     39  C   UNL A   1      41.498  25.882  28.459  1.00  0.00     0.074 A 
ATOM     40  C   UNL A   1      43.811  25.018  28.524  1.00  0.00     0.049 A 
ATOM     41  N   UNL A   1      41.674  27.099  28.906  1.00  0.00    -0.248 NA
ATOM     42  C   UNL A   1      40.107  25.570  28.097  1.00  0.00     0.031 C 
ATOM     43  C   UNL A   1      44.899  24.062  28.312  1.00  0.00     0.029 A 
ATOM     44  N   UNL A   1      44.438  26.126  29.035  1.00  0.00    -0.354 N 
ATOM     45  C   UNL A   1      40.421  27.700  28.865  1.00  0.00     0.074 A 
ATOM     46  C   UNL A   1      39.509  26.734  28.293  1.00  0.00     0.031 C 
ATOM     47  C   UNL A   1      46.055  24.615  28.714  1.00  0.00     0.029 A 
ATOM     48  C   UNL A   1      45.797  25.977  29.170  1.00  0.00     0.049 A 
ATOM     49  H   UNL A   1      43.959  26.950  29.283  1.00  0.00     0.167 HD
ATOM     50  C   UNL A   1      40.061  28.935  29.287  1.00  0.00     0.037 A 
ATOM     51  C   UNL A   1      46.732  26.843  29.605  1.00  0.00     0.037 A 
ATOM     52  C   UNL A   1      40.971  29.888  29.868  1.00  0.00     0.049 A 
ATOM     53  C   UNL A   1      46.311  28.214  30.054  1.00  0.00     0.074 A 
ATOM     54  C   UNL A   1      40.693  31.140  30.386  1.00  0.00     0.029 A 
ATOM     55  N   UNL A   1      42.339  29.697  29.997  1.00  0.00    -0.354 N 
ATOM     56  N   UNL A   1      45.111  28.743  30.084  1.00  0.00    -0.248 NA
ATOM     57  C   UNL A   1      47.372  29.108  30.537  1.00  0.00     0.031 C 
ATOM     58  C   UNL A   1      41.900  31.731  30.771  1.00  0.00     0.029 A 
ATOM     59  C   UNL A   1      42.924  30.822  30.556  1.00  0.00     0.049 A 
ATOM     60  H   UNL A   1      42.823  28.882  29.732  1.00  0.00     0.167 HD
ATOM     61  C   UNL A   1      45.269  30.018  30.613  1.00  0.00     0.074 A 
ATOM     62  C   UNL A   1      46.679  30.177  30.903  1.00  0.00     0.031 C 
ATOM     63  C   UNL A   1      44.330  30.969  30.839  1.00  0.00     0.037 A 
BRANCH  50  64
ATOM     64  C   UNL A   1      38.619  29.326  29.124  1.00  0.00     0.057 A 
ATOM     65  C   UNL A   1      38.091  29.723  27.888  1.00  0.00     0.134 A 
ATOM     66  C   UNL A   1      37.742  29.289  30.215  1.00  0.00     0.134 A 
ATOM     67  F   UNL A   1      38.878  29.792  26.802  1.00  0.00    -0.206 F 
ATOM     68  C   UNL A   1      36.755  30.105  27.750  1.00  0.00     0.040 A 
ATOM     69  C   UNL A   1      36.396  29.636  30.084  1.00  0.00     0.040 A 
ATOM     70  F   UNL A   1      38.175  28.912  31.427  1.00  0.00    -0.206 F 
ATOM     71  C   UNL A   1      35.902  30.056  28.850  1.00  0.00     0.006 A 
ENDBRANCH  50  64
BRANCH  51  72
ATOM     72  C   UNL A   1      48.157  26.427  29.652  1.00  0.00     0.057 A 
ATOM     73  C   UNL A   1      49.014  26.659  28.570  1.00  0.00     0.134 A 
ATOM     74  C   UNL A   1      48.699  25.799  30.781  1.00  0.00     0.134 A 
ATOM     75  F   UNL A   1      48.549  27.240  27.454  1.00  0.00    -0.206 F 
ATOM     76  C   UNL A   1      50.353  26.267  28.600  1.00  0.00     0.040 A 
ATOM     77  C   UNL A   1      50.044  25.427  30.835  1.00  0.00     0.040 A 
ATOM     78  F   UNL A   1      47.933  25.558  31.855  1.00  0.00    -0.206 F 
ATOM     79  C   UNL A   1      50.873  25.656  29.739  1.00  0.00     0.006 A 
ENDBRANCH  51  72
BRANCH  63  80
ATOM     80  C   UNL A   1      44.789  32.258  31.461  1.00  0.00     0.057 A 
ATOM     81  C   UNL A   1      45.170  33.362  30.687  1.00  0.00     0.134 A 
ATOM     82  C   UNL A   1      44.810  32.407  32.854  1.00  0.00     0.134 A 
ATOM     83  F   UNL A   1      45.184  33.282  29.349  1.00  0.00    -0.206 F 
ATOM     84  C   UNL A   1      45.579  34.560  31.279  1.00  0.00     0.040 A 
ATOM     85  C   UNL A   1      45.187  33.608  33.455  1.00  0.00     0.040 A 
ATOM     86  F   UNL A   1      44.449  31.392  33.654  1.00  0.00    -0.206 F 
ATOM     87  C   UNL A   1      45.581  34.688  32.666  1.00  0.00     0.006 A 
ENDBRANCH  63  80
ENDBRANCH  37  38
ENDBRANCH  29  32
ENDBRANCH  27  28
ENDBRANCH  26  27
ENDBRANCH   1  26
TORSDOF 16
ENDMDL
MODEL 2
REMARK VINA RESULT:     -11.4      0.523      6.223
REMARK SMILES CC(C)(C)OC(=O)N[C@@H](C(=O)NCCCCNC(=O)c1ccc(-c2c3nc(c(-c4c(F)cccc4F)c4ccc([nH]4)c(-c4c(F)cccc4F)c4nc(c(-c5c(F)cccc5F)c5ccc2[nH]5)C=C4)C=C3)cc1)c1ccc([N+](=O)[O-])cc1
REMARK SMILES IDX 14 1 13 2 12 3 10 4 11 5 9 7 8 8 6 9 7 10 5 12 2 13 1 14
REMARK SMILES IDX 3 15 4 16 74 17 75 18 82 19 76 20 81 21 77 22 78 23 79 24
REMARK SMILES IDX 80 25 15 26 16 27 17 28 18 29 19 31 20 32 21 33 73 34 22 35
REMARK SMILES IDX 72 36 23 37 24 38 25 39 66 40 26 41 71 42 65 43 67 44 27 45
REMARK SMILES IDX 70 46 64 47 63 48 28 50 54 51 37 52 53 53 38 54 41 55 52 56
REMARK SMILES IDX 68 57 39 58 40 59 51 61 69 62 42 63 29 64 30 65 35 66 31 67
REMARK SMILES IDX 32 68 34 69 36 70 33 71 55 72 56 73 61 74 57 75 58 76 60 77
REMARK SMILES IDX 62 78 59 79 43 80 44 81 49 82 45 83 46 84 48 85 50 86 47 87
REMARK H PARENT 12 6 8 11 17 30 67 49 41 60
REMARK Flexibility Score: inf
ROOT
ATOM      1  C   UNL A   1      36.326  20.525  25.079  1.00  0.00     0.023 C 
ENDROOT
BRANCH   1   2
ATOM      2  C   UNL A   1      35.952  21.948  25.491  1.00  0.00     0.116 C 
BRANCH   2   3
ATOM      3  N   UNL A   1      35.341  21.965  26.803  1.00  0.00    -0.354 N 
ATOM      4  C   UNL A   1      34.038  22.204  27.146  1.00  0.00     0.247 C 
ATOM      5  O   UNL A   1      33.795  22.265  28.355  1.00  0.00    -0.272 OA
ATOM      6  H   UNL A   1      35.949  21.779  27.554  1.00  0.00     0.163 HD
BRANCH   4   7
ATOM      7  C   UNL A   1      32.941  22.330  26.042  1.00  0.00     0.205 C 
BRANCH   7   8
ATOM      8  N   UNL A   1      31.676  22.668  26.686  1.00  0.00    -0.306 N 
ATOM      9  C   UNL A   1      30.993  23.843  26.617  1.00  0.00     0.408 C 
ATOM     10  O   UNL A   1      29.939  23.987  27.221  1.00  0.00    -0.225 OA
ATOM     11  H   UNL A   1      31.266  21.961  27.235  1.00  0.00     0.168 HD
BRANCH   9  12
ATOM     12  O   UNL A   1      31.625  24.790  25.887  1.00  0.00    -0.444 OA
BRANCH  12  13
ATOM     13  C   UNL A   1      31.067  25.261  24.630  1.00  0.00     0.106 C 
ATOM     14  C   UNL A   1      32.237  25.944  23.904  1.00  0.00     0.056 C 
ATOM     15  C   UNL A   1      29.970  26.311  24.851  1.00  0.00     0.056 C 
ATOM     16  C   UNL A   1      30.572  24.091  23.775  1.00  0.00     0.056 C 
ENDBRANCH  12  13
ENDBRANCH   9  12
ENDBRANCH   7   8
BRANCH   7  17
ATOM     17  C   UNL A   1      32.829  21.061  25.188  1.00  0.00    -0.016 A 
ATOM     18  C   UNL A   1      32.605  21.180  23.801  1.00  0.00     0.013 A 
ATOM     19  C   UNL A   1      32.940  19.767  25.732  1.00  0.00     0.013 A 
ATOM     20  C   UNL A   1      32.540  20.053  22.977  1.00  0.00     0.086 A 
ATOM     21  C   UNL A   1      32.870  18.633  24.916  1.00  0.00     0.086 A 
ATOM     22  C   UNL A   1      32.679  18.780  23.539  1.00  0.00     0.269 A 
BRANCH  22  23
ATOM     23  N   UNL A   1      32.624  17.592  22.680  1.00  0.00     0.062 N 
ATOM     24  O   UNL A   1      33.188  16.563  23.083  1.00  0.00    -0.258 OA
ATOM     25  O   UNL A   1      32.022  17.686  21.602  1.00  0.00    -0.258 OA
ENDBRANCH  22  23
ENDBRANCH   7  17
ENDBRANCH   4   7
ENDBRANCH   2   3
ENDBRANCH   1   2
BRANCH   1  26
ATOM     26  C   UNL A   1      37.795  20.361  24.683  1.00  0.00     0.023 C 
BRANCH  26  27
ATOM     27  C   UNL A   1      38.784  20.472  25.837  1.00  0.00     0.116 C 
BRANCH  27  28
ATOM     28  N   UNL A   1      39.827  19.459  25.792  1.00  0.00    -0.352 N 
ATOM     29  C   UNL A   1      41.163  19.594  26.082  1.00  0.00     0.251 C 
ATOM     30  H   UNL A   1      39.537  18.559  25.518  1.00  0.00     0.163 HD
ATOM     31  O   UNL A   1      41.943  18.673  25.865  1.00  0.00    -0.269 OA
BRANCH  29  32
ATOM     32  C   UNL A   1      41.657  20.875  26.626  1.00  0.00     0.039 A 
ATOM     33  C   UNL A   1      42.183  21.823  25.748  1.00  0.00     0.014 A 
ATOM     34  C   UNL A   1      41.559  21.151  27.993  1.00  0.00     0.014 A 
ATOM     35  C   UNL A   1      42.550  23.079  26.233  1.00  0.00     0.010 A 
ATOM     36  C   UNL A   1      41.849  22.428  28.459  1.00  0.00     0.010 A 
ATOM     37  C   UNL A   1      42.350  23.405  27.585  1.00  0.00    -0.014 A 
BRANCH  37  38
ATOM     38  C   UNL A   1      42.650  24.764  28.099  1.00  0.00     0.031 A 
ATOM     39  C   UNL A   1      44.045  25.120  28.528  1.00  0.00     0.074 A 
ATOM     40  C   UNL A   1      41.652  25.658  28.243  1.00  0.00     0.049 A 
ATOM     41  N   UNL A   1      44.491  26.233  29.053  1.00  0.00    -0.248 NA
ATOM     42  C   UNL A   1      45.071  24.077  28.373  1.00  0.00     0.031 C 
ATOM     43  C   UNL A   1      40.247  25.416  27.913  1.00  0.00     0.029 A 
ATOM     44  N   UNL A   1      41.665  26.946  28.715  1.00  0.00    -0.354 N 
ATOM     45  C   UNL A   1      45.841  26.019  29.302  1.00  0.00     0.074 A 
ATOM     46  C   UNL A   1      46.126  24.652  28.928  1.00  0.00     0.031 C 
ATOM     47  C   UNL A   1      39.538  26.528  28.168  1.00  0.00     0.029 A 
ATOM     48  C   UNL A   1      40.429  27.544  28.719  1.00  0.00     0.049 A 
ATOM     49  H   UNL A   1      42.484  27.400  29.021  1.00  0.00     0.167 HD
ATOM     50  C   UNL A   1      46.762  26.890  29.777  1.00  0.00     0.037 A 
ATOM     51  C   UNL A   1      40.052  28.771  29.128  1.00  0.00     0.037 A 
ATOM     52  C   UNL A   1      46.474  28.255  30.136  1.00  0.00     0.049 A 
ATOM     53  C   UNL A   1      41.090  29.715  29.667  1.00  0.00     0.074 A 
ATOM     54  C   UNL A   1      47.350  29.236  30.565  1.00  0.00     0.029 A 
ATOM     55  N   UNL A   1      45.211  28.828  30.117  1.00  0.00    -0.354 N 
ATOM     56  N   UNL A   1      42.378  29.527  29.823  1.00  0.00    -0.248 NA
ATOM     57  C   UNL A   1      40.623  31.046  30.079  1.00  0.00     0.031 C 
ATOM     58  C   UNL A   1      46.609  30.383  30.865  1.00  0.00     0.029 A 
ATOM     59  C   UNL A   1      45.279  30.139  30.560  1.00  0.00     0.049 A 
ATOM     60  H   UNL A   1      44.388  28.370  29.831  1.00  0.00     0.167 HD
ATOM     61  C   UNL A   1      42.880  30.722  30.325  1.00  0.00     0.074 A 
ATOM     62  C   UNL A   1      41.759  31.632  30.432  1.00  0.00     0.031 C 
ATOM     63  C   UNL A   1      44.154  31.036  30.664  1.00  0.00     0.037 A 
BRANCH  50  64
ATOM     64  C   UNL A   1      48.168  26.385  29.944  1.00  0.00     0.057 A 
ATOM     65  C   UNL A   1      48.612  25.804  31.140  1.00  0.00     0.134 A 
ATOM     66  C   UNL A   1      49.085  26.463  28.888  1.00  0.00     0.134 A 
ATOM     67  F   UNL A   1      47.789  25.707  32.196  1.00  0.00    -0.206 F 
ATOM     68  C   UNL A   1      49.926  25.357  31.293  1.00  0.00     0.040 A 
ATOM     69  C   UNL A   1      50.392  25.989  29.018  1.00  0.00     0.040 A 
ATOM     70  F   UNL A   1      48.728  27.000  27.713  1.00  0.00    -0.206 F 
ATOM     71  C   UNL A   1      50.818  25.443  30.227  1.00  0.00     0.006 A 
ENDBRANCH  50  64
BRANCH  51  72
ATOM     72  C   UNL A   1      38.628  29.177  29.026  1.00  0.00     0.057 A 
ATOM     73  C   UNL A   1      38.092  29.637  27.817  1.00  0.00     0.134 A 
ATOM     74  C   UNL A   1      37.765  29.108  30.128  1.00  0.00     0.134 A 
ATOM     75  F   UNL A   1      38.872  29.744  26.731  1.00  0.00    -0.206 F 
ATOM     76  C   UNL A   1      36.757  30.028  27.710  1.00  0.00     0.040 A 
ATOM     77  C   UNL A   1      36.421  29.469  30.027  1.00  0.00     0.040 A 
ATOM     78  F   UNL A   1      38.215  28.666  31.312  1.00  0.00    -0.206 F 
ATOM     79  C   UNL A   1      35.914  29.937  28.817  1.00  0.00     0.006 A 
ENDBRANCH  51  72
BRANCH  63  80
ATOM     80  C   UNL A   1      44.415  32.433  31.152  1.00  0.00     0.057 A 
ATOM     81  C   UNL A   1      44.401  32.758  32.515  1.00  0.00     0.134 A 
ATOM     82  C   UNL A   1      44.723  33.457  30.247  1.00  0.00     0.134 A 
ATOM     83  F   UNL A   1      44.101  31.828  33.434  1.00  0.00    -0.206 F 
ATOM     84  C   UNL A   1      44.661  34.058  32.956  1.00  0.00     0.040 A 
ATOM     85  C   UNL A   1      45.014  34.751  30.678  1.00  0.00     0.040 A 
ATOM     86  F   UNL A   1      44.762  33.212  28.928  1.00  0.00    -0.206 F 
ATOM     87  C   UNL A   1      44.976  35.056  32.038  1.00  0.00     0.006 A 
ENDBRANCH  63  80
ENDBRANCH  37  38
ENDBRANCH  29  32
ENDBRANCH  27  28
ENDBRANCH  26  27
ENDBRANCH   1  26
TORSDOF 16
ENDMDL
MODEL 3
REMARK VINA RESULT:     -11.3      0.452      6.211
REMARK SMILES CC(C)(C)OC(=O)N[C@@H](C(=O)NCCCCNC(=O)c1ccc(-c2c3nc(c(-c4c(F)cccc4F)c4ccc([nH]4)c(-c4c(F)cccc4F)c4nc(c(-c5c(F)cccc5F)c5ccc2[nH]5)C=C4)C=C3)cc1)c1ccc([N+](=O)[O-])cc1
REMARK SMILES IDX 14 1 13 2 12 3 10 4 11 5 9 7 8 8 6 9 7 10 5 12 2 13 1 14
REMARK SMILES IDX 3 15 4 16 74 17 75 18 82 19 76 20 81 21 77 22 78 23 79 24
REMARK SMILES IDX 80 25 15 26 16 27 17 28 18 29 19 31 20 32 21 33 73 34 22 35
REMARK SMILES IDX 72 36 23 37 24 38 25 39 66 40 26 41 71 42 65 43 67 44 27 45
REMARK SMILES IDX 70 46 64 47 63 48 28 50 54 51 37 52 53 53 38 54 41 55 52 56
REMARK SMILES IDX 68 57 39 58 40 59 51 61 69 62 42 63 29 64 30 65 35 66 31 67
REMARK SMILES IDX 32 68 34 69 36 70 33 71 55 72 56 73 61 74 57 75 58 76 60 77
REMARK SMILES IDX 62 78 59 79 43 80 44 81 49 82 45 83 46 84 48 85 50 86 47 87
REMARK H PARENT 12 6 8 11 17 30 67 49 41 60
REMARK Flexibility Score: inf
ROOT
ATOM      1  C   UNL A   1      36.288  20.574  25.014  1.00  0.00     0.023 C 
ENDROOT
BRANCH   1   2
ATOM      2  C   UNL A   1      35.906  21.988  25.451  1.00  0.00     0.116 C 
BRANCH   2   3
ATOM      3  N   UNL A   1      35.412  21.994  26.811  1.00  0.00    -0.354 N 
ATOM      4  C   UNL A   1      34.139  22.207  27.267  1.00  0.00     0.247 C 
ATOM      5  O   UNL A   1      34.001  22.265  28.492  1.00  0.00    -0.272 OA
ATOM      6  H   UNL A   1      36.087  21.822  27.506  1.00  0.00     0.163 HD
BRANCH   4   7
ATOM      7  C   UNL A   1      32.948  22.308  26.262  1.00  0.00     0.205 C 
BRANCH   7   8
ATOM      8  N   UNL A   1      31.724  22.545  27.022  1.00  0.00    -0.306 N 
ATOM      9  C   UNL A   1      30.635  23.268  26.644  1.00  0.00     0.408 C 
ATOM     10  O   UNL A   1      29.676  23.388  27.393  1.00  0.00    -0.225 OA
ATOM     11  H   UNL A   1      31.680  22.130  27.914  1.00  0.00     0.168 HD
BRANCH   9  12
ATOM     12  O   UNL A   1      30.771  23.850  25.430  1.00  0.00    -0.444 OA
BRANCH  12  13
ATOM     13  C   UNL A   1      30.992  25.282  25.309  1.00  0.00     0.106 C 
ATOM     14  C   UNL A   1      31.898  25.443  24.078  1.00  0.00     0.056 C 
ATOM     15  C   UNL A   1      31.741  25.848  26.524  1.00  0.00     0.056 C 
ATOM     16  C   UNL A   1      29.677  26.023  25.054  1.00  0.00     0.056 C 
ENDBRANCH  12  13
ENDBRANCH   9  12
ENDBRANCH   7   8
BRANCH   7  17
ATOM     17  C   UNL A   1      32.836  21.068  25.367  1.00  0.00    -0.016 A 
ATOM     18  C   UNL A   1      32.635  21.233  23.981  1.00  0.00     0.013 A 
ATOM     19  C   UNL A   1      32.927  19.756  25.871  1.00  0.00     0.013 A 
ATOM     20  C   UNL A   1      32.572  20.133  23.121  1.00  0.00     0.086 A 
ATOM     21  C   UNL A   1      32.858  18.649  25.020  1.00  0.00     0.086 A 
ATOM     22  C   UNL A   1      32.690  18.842  23.645  1.00  0.00     0.269 A 
BRANCH  22  23
ATOM     23  N   UNL A   1      32.637  17.682  22.748  1.00  0.00     0.062 N 
ATOM     24  O   UNL A   1      33.338  16.699  23.034  1.00  0.00    -0.258 OA
ATOM     25  O   UNL A   1      31.898  17.751  21.756  1.00  0.00    -0.258 OA
ENDBRANCH  22  23
ENDBRANCH   7  17
ENDBRANCH   4   7
ENDBRANCH   2   3
ENDBRANCH   1   2
BRANCH   1  26
ATOM     26  C   UNL A   1      37.771  20.411  24.671  1.00  0.00     0.023 C 
BRANCH  26  27
ATOM     27  C   UNL A   1      38.715  20.488  25.865  1.00  0.00     0.116 C 
BRANCH  27  28
ATOM     28  N   UNL A   1      39.738  19.455  25.848  1.00  0.00    -0.352 N 
ATOM     29  C   UNL A   1      41.075  19.570  26.142  1.00  0.00     0.251 C 
ATOM     30  H   UNL A   1      39.433  18.554  25.591  1.00  0.00     0.163 HD
ATOM     31  O   UNL A   1      41.839  18.630  25.949  1.00  0.00    -0.269 OA
BRANCH  29  32
ATOM     32  C   UNL A   1      41.590  20.853  26.662  1.00  0.00     0.039 A 
ATOM     33  C   UNL A   1      42.201  21.744  25.777  1.00  0.00     0.014 A 
ATOM     34  C   UNL A   1      41.429  21.190  28.009  1.00  0.00     0.014 A 
ATOM     35  C   UNL A   1      42.591  23.003  26.231  1.00  0.00     0.010 A 
ATOM     36  C   UNL A   1      41.745  22.473  28.439  1.00  0.00     0.010 A 
ATOM     37  C   UNL A   1      42.331  23.393  27.556  1.00  0.00    -0.014 A 
BRANCH  37  38
ATOM     38  C   UNL A   1      42.658  24.760  28.031  1.00  0.00     0.031 A 
ATOM     39  C   UNL A   1      44.079  25.133  28.348  1.00  0.00     0.074 A 
ATOM     40  C   UNL A   1      41.666  25.647  28.244  1.00  0.00     0.049 A 
ATOM     41  N   UNL A   1      44.553  26.255  28.826  1.00  0.00    -0.248 NA
ATOM     42  C   UNL A   1      45.099  24.097  28.125  1.00  0.00     0.031 C 
ATOM     43  C   UNL A   1      40.242  25.390  28.026  1.00  0.00     0.029 A 
ATOM     44  N   UNL A   1      41.704  26.940  28.700  1.00  0.00    -0.354 N 
ATOM     45  C   UNL A   1      45.921  26.055  28.972  1.00  0.00     0.074 A 
ATOM     46  C   UNL A   1      46.189  24.686  28.591  1.00  0.00     0.031 C 
ATOM     47  C   UNL A   1      39.545  26.498  28.324  1.00  0.00     0.029 A 
ATOM     48  C   UNL A   1      40.466  27.528  28.794  1.00  0.00     0.049 A 
ATOM     49  H   UNL A   1      42.539  27.404  28.937  1.00  0.00     0.167 HD
ATOM     50  C   UNL A   1      46.868  26.939  29.365  1.00  0.00     0.037 A 
ATOM     51  C   UNL A   1      40.111  28.756  29.218  1.00  0.00     0.037 A 
ATOM     52  C   UNL A   1      46.596  28.305  29.731  1.00  0.00     0.049 A 
ATOM     53  C   UNL A   1      41.178  29.715  29.666  1.00  0.00     0.074 A 
ATOM     54  C   UNL A   1      47.494  29.297  30.082  1.00  0.00     0.029 A 
ATOM     55  N   UNL A   1      45.330  28.867  29.805  1.00  0.00    -0.354 N 
ATOM     56  N   UNL A   1      42.477  29.539  29.724  1.00  0.00    -0.248 NA
ATOM     57  C   UNL A   1      40.733  31.046  30.099  1.00  0.00     0.031 C 
ATOM     58  C   UNL A   1      46.767  30.441  30.427  1.00  0.00     0.029 A 
ATOM     59  C   UNL A   1      45.420  30.183  30.228  1.00  0.00     0.049 A 
ATOM     60  H   UNL A   1      44.491  28.399  29.588  1.00  0.00     0.167 HD
ATOM     61  C   UNL A   1      43.005  30.743  30.173  1.00  0.00     0.074 A 
ATOM     62  C   UNL A   1      41.887  31.645  30.358  1.00  0.00     0.031 C 
ATOM     63  C   UNL A   1      44.298  31.072  30.409  1.00  0.00     0.037 A 
BRANCH  50  64
ATOM     64  C   UNL A   1      48.287  26.447  29.428  1.00  0.00     0.057 A 
ATOM     65  C   UNL A   1      49.157  26.542  28.332  1.00  0.00     0.134 A 
ATOM     66  C   UNL A   1      48.796  25.886  30.606  1.00  0.00     0.134 A 
ATOM     67  F   UNL A   1      48.731  27.059  27.169  1.00  0.00    -0.206 F 
ATOM     68  C   UNL A   1      50.467  26.063  28.393  1.00  0.00     0.040 A 
ATOM     69  C   UNL A   1      50.115  25.434  30.690  1.00  0.00     0.040 A 
ATOM     70  F   UNL A   1      48.024  25.770  31.696  1.00  0.00    -0.206 F 
ATOM     71  C   UNL A   1      50.951  25.513  29.578  1.00  0.00     0.006 A 
ENDBRANCH  50  64
BRANCH  51  72
ATOM     72  C   UNL A   1      38.679  29.149  29.222  1.00  0.00     0.057 A 
ATOM     73  C   UNL A   1      37.902  29.039  30.382  1.00  0.00     0.134 A 
ATOM     74  C   UNL A   1      38.055  29.653  28.074  1.00  0.00     0.134 A 
ATOM     75  F   UNL A   1      38.438  28.547  31.509  1.00  0.00    -0.206 F 
ATOM     76  C   UNL A   1      36.554  29.400  30.396  1.00  0.00     0.040 A 
ATOM     77  C   UNL A   1      36.715  30.044  28.082  1.00  0.00     0.040 A 
ATOM     78  F   UNL A   1      38.747  29.793  26.934  1.00  0.00    -0.206 F 
ATOM     79  C   UNL A   1      35.959  29.912  29.244  1.00  0.00     0.006 A 
ENDBRANCH  51  72
BRANCH  63  80
ATOM     80  C   UNL A   1      44.583  32.476  30.862  1.00  0.00     0.057 A 
ATOM     81  C   UNL A   1      44.666  32.817  32.218  1.00  0.00     0.134 A 
ATOM     82  C   UNL A   1      44.817  33.491  29.925  1.00  0.00     0.134 A 
ATOM     83  F   UNL A   1      44.441  31.895  33.166  1.00  0.00    -0.206 F 
ATOM     84  C   UNL A   1      44.947  34.123  32.625  1.00  0.00     0.040 A 
ATOM     85  C   UNL A   1      45.128  34.792  30.320  1.00  0.00     0.040 A 
ATOM     86  F   UNL A   1      44.762  33.231  28.609  1.00  0.00    -0.206 F 
ATOM     87  C   UNL A   1      45.187  35.113  31.675  1.00  0.00     0.006 A 
ENDBRANCH  63  80
ENDBRANCH  37  38
ENDBRANCH  29  32
ENDBRANCH  27  28
ENDBRANCH  26  27
ENDBRANCH   1  26
TORSDOF 16
ENDMDL
