MODEL 1
REMARK VINA RESULT:     -12.5      0.000      0.000
REMARK SMILES O=C(NCCCCNC(=O)c1ccc(-c2c3nc(c(-c4c(F)cccc4F)c4ccc([nH]4)c(-c4c(F)cccc4F)c4nc(c(-c5c(F)cccc5F)c5ccc2[nH]5)C=C4)C=C3)cc1)c1ccc(C[C@H]2SC(=O)N(c3ccccc3)C2=O)cc1
REMARK SMILES IDX 5 1 4 2 3 3 1 4 2 5 65 7 66 8 84 9 67 10 83 11 68 12 69 13
REMARK SMILES IDX 70 14 71 15 81 16 72 17 74 18 82 19 73 20 75 21 76 22 80 23
REMARK SMILES IDX 77 24 79 25 78 26 6 27 7 28 8 29 9 30 10 32 11 33 12 34
REMARK SMILES IDX 64 35 13 36 63 37 14 38 15 39 16 40 57 41 17 42 62 43 56 44
REMARK SMILES IDX 58 45 18 46 61 47 55 48 54 49 19 51 45 52 28 53 44 54 29 55
REMARK SMILES IDX 32 56 43 57 59 58 30 59 31 60 42 62 60 63 33 64 20 65 21 66
REMARK SMILES IDX 26 67 22 68 23 69 25 70 27 71 24 72 46 73 47 74 52 75 48 76
REMARK SMILES IDX 49 77 51 78 53 79 50 80 34 81 35 82 40 83 36 84 37 85 39 86
REMARK SMILES IDX 41 87 38 88
REMARK H PARENT 3 6 8 31 58 50 32 61
REMARK Flexibility Score: inf
ROOT
ATOM      1  C   UNL A   1      32.879  29.272  24.994  1.00  0.00     0.023 C 
ENDROOT
BRANCH   1   2
ATOM      2  C   UNL A   1      32.889  29.120  23.476  1.00  0.00     0.116 C 
BRANCH   2   3
ATOM      3  N   UNL A   1      31.589  29.398  22.883  1.00  0.00    -0.352 N 
ATOM      4  O   UNL A   1      29.635  28.892  21.862  1.00  0.00    -0.269 OA
ATOM      5  C   UNL A   1      30.612  28.512  22.496  1.00  0.00     0.251 C 
ATOM      6  H   UNL A   1      31.381  30.350  22.739  1.00  0.00     0.163 HD
BRANCH   5   7
ATOM      7  C   UNL A   1      30.765  27.086  22.838  1.00  0.00     0.039 A 
ATOM      8  C   UNL A   1      30.181  26.580  24.000  1.00  0.00     0.014 A 
ATOM      9  C   UNL A   1      31.518  26.260  22.004  1.00  0.00     0.014 A 
ATOM     10  C   UNL A   1      30.431  25.263  24.376  1.00  0.00     0.004 A 
ATOM     11  C   UNL A   1      31.780  24.944  22.393  1.00  0.00     0.004 A 
ATOM     12  C   UNL A   1      31.268  24.445  23.601  1.00  0.00    -0.046 A 
BRANCH  12  13
ATOM     13  C   UNL A   1      31.641  23.060  24.086  1.00  0.00     0.060 C 
BRANCH  13  14
ATOM     14  C   UNL A   1      32.926  22.494  23.451  1.00  0.00     0.151 C 
ATOM     15  S   UNL A   1      34.424  22.891  24.392  1.00  0.00    -0.050 SA
ATOM     16  C   UNL A   1      32.865  20.979  23.462  1.00  0.00     0.248 C 
ATOM     17  C   UNL A   1      34.459  21.317  25.159  1.00  0.00     0.293 C 
ATOM     18  N   UNL A   1      33.649  20.437  24.471  1.00  0.00    -0.240 N 
ATOM     19  O   UNL A   1      32.109  20.371  22.707  1.00  0.00    -0.273 OA
ATOM     20  O   UNL A   1      35.167  21.122  26.126  1.00  0.00    -0.261 OA
BRANCH  18  21
ATOM     21  C   UNL A   1      33.640  19.045  24.780  1.00  0.00     0.053 A 
ATOM     22  C   UNL A   1      32.612  18.487  25.553  1.00  0.00     0.027 A 
ATOM     23  C   UNL A   1      34.650  18.194  24.303  1.00  0.00     0.027 A 
ATOM     24  C   UNL A   1      32.583  17.116  25.822  1.00  0.00     0.002 A 
ATOM     25  C   UNL A   1      34.638  16.828  24.602  1.00  0.00     0.002 A 
ATOM     26  C   UNL A   1      33.599  16.288  25.353  1.00  0.00     0.000 A 
ENDBRANCH  18  21
ENDBRANCH  13  14
ENDBRANCH  12  13
ENDBRANCH   5   7
ENDBRANCH   2   3
ENDBRANCH   1   2
BRANCH   1  27
ATOM     27  C   UNL A   1      33.451  28.086  25.771  1.00  0.00     0.023 C 
BRANCH  27  28
ATOM     28  C   UNL A   1      33.697  28.333  27.255  1.00  0.00     0.116 C 
BRANCH  28  29
ATOM     29  N   UNL A   1      33.600  29.735  27.625  1.00  0.00    -0.352 N 
ATOM     30  C   UNL A   1      34.544  30.552  28.199  1.00  0.00     0.251 C 
ATOM     31  H   UNL A   1      32.732  30.161  27.438  1.00  0.00     0.163 HD
ATOM     32  O   UNL A   1      34.238  31.684  28.559  1.00  0.00    -0.269 OA
BRANCH  30  33
ATOM     33  C   UNL A   1      35.924  30.061  28.409  1.00  0.00     0.039 A 
ATOM     34  C   UNL A   1      36.840  30.152  27.356  1.00  0.00     0.014 A 
ATOM     35  C   UNL A   1      36.318  29.505  29.628  1.00  0.00     0.014 A 
ATOM     36  C   UNL A   1      38.161  29.737  27.545  1.00  0.00     0.010 A 
ATOM     37  C   UNL A   1      37.653  29.166  29.841  1.00  0.00     0.010 A 
ATOM     38  C   UNL A   1      38.586  29.267  28.798  1.00  0.00    -0.014 A 
BRANCH  38  39
ATOM     39  C   UNL A   1      39.991  28.836  29.028  1.00  0.00     0.031 A 
ATOM     40  C   UNL A   1      40.970  29.785  29.669  1.00  0.00     0.074 A 
ATOM     41  C   UNL A   1      40.401  27.620  28.620  1.00  0.00     0.049 A 
ATOM     42  N   UNL A   1      42.253  29.637  29.875  1.00  0.00    -0.248 NA
ATOM     43  C   UNL A   1      40.439  31.085  30.113  1.00  0.00     0.031 C 
ATOM     44  C   UNL A   1      39.566  26.620  27.952  1.00  0.00     0.029 A 
ATOM     45  N   UNL A   1      41.635  27.021  28.697  1.00  0.00    -0.354 N 
ATOM     46  C   UNL A   1      42.681  30.823  30.460  1.00  0.00     0.074 A 
ATOM     47  C   UNL A   1      41.536  31.703  30.520  1.00  0.00     0.031 C 
ATOM     48  C   UNL A   1      40.305  25.528  27.696  1.00  0.00     0.029 A 
ATOM     49  C   UNL A   1      41.674  25.763  28.146  1.00  0.00     0.049 A 
ATOM     50  H   UNL A   1      42.418  27.452  29.108  1.00  0.00     0.167 HD
ATOM     51  C   UNL A   1      43.910  31.140  30.934  1.00  0.00     0.037 A 
ATOM     52  C   UNL A   1      42.699  24.900  28.010  1.00  0.00     0.037 A 
ATOM     53  C   UNL A   1      45.045  30.256  30.899  1.00  0.00     0.049 A 
ATOM     54  C   UNL A   1      44.057  25.283  28.538  1.00  0.00     0.074 A 
ATOM     55  C   UNL A   1      46.325  30.478  31.376  1.00  0.00     0.029 A 
ATOM     56  N   UNL A   1      45.032  28.977  30.366  1.00  0.00    -0.354 N 
ATOM     57  N   UNL A   1      44.434  26.390  29.129  1.00  0.00    -0.248 NA
ATOM     58  C   UNL A   1      45.130  24.289  28.389  1.00  0.00     0.031 C 
ATOM     59  C   UNL A   1      47.096  29.343  31.102  1.00  0.00     0.029 A 
ATOM     60  C   UNL A   1      46.282  28.399  30.499  1.00  0.00     0.049 A 
ATOM     61  H   UNL A   1      44.250  28.544  29.953  1.00  0.00     0.167 HD
ATOM     62  C   UNL A   1      45.771  26.208  29.461  1.00  0.00     0.074 A 
ATOM     63  C   UNL A   1      46.136  24.881  29.015  1.00  0.00     0.031 C 
ATOM     64  C   UNL A   1      46.621  27.063  30.080  1.00  0.00     0.037 A 
BRANCH  51  65
ATOM     65  C   UNL A   1      44.086  32.496  31.553  1.00  0.00     0.057 A 
ATOM     66  C   UNL A   1      43.817  32.723  32.910  1.00  0.00     0.134 A 
ATOM     67  C   UNL A   1      44.578  33.572  30.803  1.00  0.00     0.134 A 
ATOM     68  F   UNL A   1      43.331  31.738  33.680  1.00  0.00    -0.206 F 
ATOM     69  C   UNL A   1      44.013  33.975  33.493  1.00  0.00     0.040 A 
ATOM     70  C   UNL A   1      44.805  34.821  31.383  1.00  0.00     0.040 A 
ATOM     71  F   UNL A   1      44.862  33.421  29.502  1.00  0.00    -0.206 F 
ATOM     72  C   UNL A   1      44.517  35.027  32.731  1.00  0.00     0.006 A 
ENDBRANCH  51  65
BRANCH  52  73
ATOM     73  C   UNL A   1      42.495  23.579  27.358  1.00  0.00     0.057 A 
ATOM     74  C   UNL A   1      42.127  22.453  28.104  1.00  0.00     0.134 A 
ATOM     75  C   UNL A   1      42.712  23.400  25.987  1.00  0.00     0.134 A 
ATOM     76  F   UNL A   1      41.924  22.555  29.426  1.00  0.00    -0.206 F 
ATOM     77  C   UNL A   1      42.018  21.190  27.519  1.00  0.00     0.040 A 
ATOM     78  C   UNL A   1      42.577  22.149  25.382  1.00  0.00     0.040 A 
ATOM     79  F   UNL A   1      43.058  24.440  25.214  1.00  0.00    -0.206 F 
ATOM     80  C   UNL A   1      42.243  21.036  26.153  1.00  0.00     0.006 A 
ENDBRANCH  52  73
BRANCH  64  81
ATOM     81  C   UNL A   1      48.006  26.567  30.375  1.00  0.00     0.057 A 
ATOM     82  C   UNL A   1      48.332  25.946  31.587  1.00  0.00     0.134 A 
ATOM     83  C   UNL A   1      49.019  26.686  29.414  1.00  0.00     0.134 A 
ATOM     84  F   UNL A   1      47.412  25.811  32.553  1.00  0.00    -0.206 F 
ATOM     85  C   UNL A   1      49.626  25.486  31.844  1.00  0.00     0.040 A 
ATOM     86  C   UNL A   1      50.307  26.203  29.648  1.00  0.00     0.040 A 
ATOM     87  F   UNL A   1      48.771  27.261  28.228  1.00  0.00    -0.206 F 
ATOM     88  C   UNL A   1      50.615  25.608  30.870  1.00  0.00     0.006 A 
ENDBRANCH  64  81
ENDBRANCH  38  39
ENDBRANCH  30  33
ENDBRANCH  28  29
ENDBRANCH  27  28
ENDBRANCH   1  27
TORSDOF 14
ENDMDL
MODEL 2
REMARK VINA RESULT:     -12.2      4.990      7.969
REMARK SMILES O=C(NCCCCNC(=O)c1ccc(-c2c3nc(c(-c4c(F)cccc4F)c4ccc([nH]4)c(-c4c(F)cccc4F)c4nc(c(-c5c(F)cccc5F)c5ccc2[nH]5)C=C4)C=C3)cc1)c1ccc(C[C@H]2SC(=O)N(c3ccccc3)C2=O)cc1
REMARK SMILES IDX 5 1 4 2 3 3 1 4 2 5 65 7 66 8 84 9 67 10 83 11 68 12 69 13
REMARK SMILES IDX 70 14 71 15 81 16 72 17 74 18 82 19 73 20 75 21 76 22 80 23
REMARK SMILES IDX 77 24 79 25 78 26 6 27 7 28 8 29 9 30 10 32 11 33 12 34
REMARK SMILES IDX 64 35 13 36 63 37 14 38 15 39 16 40 57 41 17 42 62 43 56 44
REMARK SMILES IDX 58 45 18 46 61 47 55 48 54 49 19 51 45 52 28 53 44 54 29 55
REMARK SMILES IDX 32 56 43 57 59 58 30 59 31 60 42 62 60 63 33 64 20 65 21 66
REMARK SMILES IDX 26 67 22 68 23 69 25 70 27 71 24 72 46 73 47 74 52 75 48 76
REMARK SMILES IDX 49 77 51 78 53 79 50 80 34 81 35 82 40 83 36 84 37 85 39 86
REMARK SMILES IDX 41 87 38 88
REMARK H PARENT 3 6 8 31 58 50 32 61
REMARK Flexibility Score: inf
ROOT
ATOM      1  C   UNL A   1      37.568  33.181  29.204  1.00  0.00     0.023 C 
ENDROOT
BRANCH   1   2
ATOM      2  C   UNL A   1      38.450  34.213  29.901  1.00  0.00     0.116 C 
BRANCH   2   3
ATOM      3  N   UNL A   1      37.767  34.869  31.006  1.00  0.00    -0.352 N 
ATOM      4  O   UNL A   1      36.847  35.019  33.067  1.00  0.00    -0.269 OA
ATOM      5  C   UNL A   1      37.586  34.423  32.293  1.00  0.00     0.251 C 
ATOM      6  H   UNL A   1      37.381  35.753  30.804  1.00  0.00     0.163 HD
BRANCH   5   7
ATOM      7  C   UNL A   1      38.281  33.198  32.729  1.00  0.00     0.039 A 
ATOM      8  C   UNL A   1      37.618  31.970  32.697  1.00  0.00     0.014 A 
ATOM      9  C   UNL A   1      39.592  33.285  33.196  1.00  0.00     0.014 A 
ATOM     10  C   UNL A   1      38.240  30.840  33.222  1.00  0.00     0.004 A 
ATOM     11  C   UNL A   1      40.207  32.152  33.738  1.00  0.00     0.004 A 
ATOM     12  C   UNL A   1      39.521  30.928  33.789  1.00  0.00    -0.046 A 
BRANCH  12  13
ATOM     13  C   UNL A   1      40.134  29.726  34.476  1.00  0.00     0.060 C 
BRANCH  13  14
ATOM     14  C   UNL A   1      41.672  29.670  34.393  1.00  0.00     0.151 C 
ATOM     15  S   UNL A   1      42.483  29.873  36.002  1.00  0.00    -0.050 SA
ATOM     16  C   UNL A   1      42.098  28.291  33.929  1.00  0.00     0.248 C 
ATOM     17  C   UNL A   1      42.721  28.149  36.193  1.00  0.00     0.293 C 
ATOM     18  N   UNL A   1      42.564  27.512  34.979  1.00  0.00    -0.240 N 
ATOM     19  O   UNL A   1      41.927  27.935  32.765  1.00  0.00    -0.273 OA
ATOM     20  O   UNL A   1      43.027  27.688  37.274  1.00  0.00    -0.261 OA
BRANCH  18  21
ATOM     21  C   UNL A   1      42.882  26.131  34.823  1.00  0.00     0.053 A 
ATOM     22  C   UNL A   1      42.021  25.136  35.309  1.00  0.00     0.027 A 
ATOM     23  C   UNL A   1      44.054  25.731  34.162  1.00  0.00     0.027 A 
ATOM     24  C   UNL A   1      42.314  23.782  35.120  1.00  0.00     0.002 A 
ATOM     25  C   UNL A   1      44.362  24.376  34.003  1.00  0.00     0.002 A 
ATOM     26  C   UNL A   1      43.487  23.402  34.474  1.00  0.00     0.000 A 
ENDBRANCH  18  21
ENDBRANCH  13  14
ENDBRANCH  12  13
ENDBRANCH   5   7
ENDBRANCH   2   3
ENDBRANCH   1   2
BRANCH   1  27
ATOM     27  C   UNL A   1      36.086  33.546  29.113  1.00  0.00     0.023 C 
BRANCH  27  28
ATOM     28  C   UNL A   1      35.140  32.643  29.896  1.00  0.00     0.116 C 
BRANCH  28  29
ATOM     29  N   UNL A   1      34.377  31.742  29.048  1.00  0.00    -0.352 N 
ATOM     30  C   UNL A   1      34.794  30.623  28.368  1.00  0.00     0.251 C 
ATOM     31  H   UNL A   1      33.424  31.966  28.946  1.00  0.00     0.163 HD
ATOM     32  O   UNL A   1      34.031  30.056  27.593  1.00  0.00    -0.269 OA
BRANCH  30  33
ATOM     33  C   UNL A   1      36.173  30.115  28.545  1.00  0.00     0.039 A 
ATOM     34  C   UNL A   1      37.058  30.176  27.464  1.00  0.00     0.014 A 
ATOM     35  C   UNL A   1      36.596  29.572  29.761  1.00  0.00     0.014 A 
ATOM     36  C   UNL A   1      38.378  29.745  27.619  1.00  0.00     0.010 A 
ATOM     37  C   UNL A   1      37.931  29.217  29.938  1.00  0.00     0.010 A 
ATOM     38  C   UNL A   1      38.834  29.288  28.867  1.00  0.00    -0.014 A 
BRANCH  38  39
ATOM     39  C   UNL A   1      40.239  28.840  29.061  1.00  0.00     0.031 A 
ATOM     40  C   UNL A   1      41.249  29.784  29.659  1.00  0.00     0.074 A 
ATOM     41  C   UNL A   1      40.620  27.613  28.659  1.00  0.00     0.049 A 
ATOM     42  N   UNL A   1      42.536  29.620  29.829  1.00  0.00    -0.248 NA
ATOM     43  C   UNL A   1      40.750  31.097  30.100  1.00  0.00     0.031 C 
ATOM     44  C   UNL A   1      39.751  26.616  28.030  1.00  0.00     0.029 A 
ATOM     45  N   UNL A   1      41.847  26.997  28.708  1.00  0.00    -0.354 N 
ATOM     46  C   UNL A   1      42.998  30.807  30.385  1.00  0.00     0.074 A 
ATOM     47  C   UNL A   1      41.868  31.705  30.466  1.00  0.00     0.031 C 
ATOM     48  C   UNL A   1      40.467  25.510  27.768  1.00  0.00     0.029 A 
ATOM     49  C   UNL A   1      41.852  25.731  28.174  1.00  0.00     0.049 A 
ATOM     50  H   UNL A   1      42.648  27.423  29.089  1.00  0.00     0.167 HD
ATOM     51  C   UNL A   1      44.245  31.113  30.818  1.00  0.00     0.037 A 
ATOM     52  C   UNL A   1      42.860  24.852  28.020  1.00  0.00     0.037 A 
ATOM     53  C   UNL A   1      45.365  30.213  30.762  1.00  0.00     0.049 A 
ATOM     54  C   UNL A   1      44.239  25.222  28.502  1.00  0.00     0.074 A 
ATOM     55  C   UNL A   1      46.662  30.423  31.198  1.00  0.00     0.029 A 
ATOM     56  N   UNL A   1      45.319  28.927  30.247  1.00  0.00    -0.354 N 
ATOM     57  N   UNL A   1      44.648  26.332  29.066  1.00  0.00    -0.248 NA
ATOM     58  C   UNL A   1      45.293  24.211  28.335  1.00  0.00     0.031 C 
ATOM     59  C   UNL A   1      47.409  29.273  30.917  1.00  0.00     0.029 A 
ATOM     60  C   UNL A   1      46.564  28.332  30.352  1.00  0.00     0.049 A 
ATOM     61  H   UNL A   1      44.519  28.500  29.864  1.00  0.00     0.167 HD
ATOM     62  C   UNL A   1      45.992  26.135  29.361  1.00  0.00     0.074 A 
ATOM     63  C   UNL A   1      46.325  24.797  28.923  1.00  0.00     0.031 C 
ATOM     64  C   UNL A   1      46.871  26.987  29.942  1.00  0.00     0.037 A 
BRANCH  51  65
ATOM     65  C   UNL A   1      44.458  32.475  31.412  1.00  0.00     0.057 A 
ATOM     66  C   UNL A   1      44.313  32.706  32.787  1.00  0.00     0.134 A 
ATOM     67  C   UNL A   1      44.863  33.553  30.615  1.00  0.00     0.134 A 
ATOM     68  F   UNL A   1      43.915  31.719  33.603  1.00  0.00    -0.206 F 
ATOM     69  C   UNL A   1      44.544  33.964  33.344  1.00  0.00     0.040 A 
ATOM     70  C   UNL A   1      45.124  34.809  31.165  1.00  0.00     0.040 A 
ATOM     71  F   UNL A   1      45.026  33.400  29.293  1.00  0.00    -0.206 F 
ATOM     72  C   UNL A   1      44.961  35.019  32.533  1.00  0.00     0.006 A 
ENDBRANCH  51  65
BRANCH  52  73
ATOM     73  C   UNL A   1      42.619  23.525  27.393  1.00  0.00     0.057 A 
ATOM     74  C   UNL A   1      42.252  22.416  28.165  1.00  0.00     0.134 A 
ATOM     75  C   UNL A   1      42.797  23.323  26.020  1.00  0.00     0.134 A 
ATOM     76  F   UNL A   1      42.084  22.541  29.491  1.00  0.00    -0.206 F 
ATOM     77  C   UNL A   1      42.108  21.147  27.602  1.00  0.00     0.040 A 
ATOM     78  C   UNL A   1      42.627  22.065  25.438  1.00  0.00     0.040 A 
ATOM     79  F   UNL A   1      43.139  24.345  25.223  1.00  0.00    -0.206 F 
ATOM     80  C   UNL A   1      42.295  20.969  26.233  1.00  0.00     0.006 A 
ENDBRANCH  52  73
BRANCH  64  81
ATOM     81  C   UNL A   1      48.258  26.474  30.204  1.00  0.00     0.057 A 
ATOM     82  C   UNL A   1      48.593  25.803  31.386  1.00  0.00     0.134 A 
ATOM     83  C   UNL A   1      49.263  26.630  29.239  1.00  0.00     0.134 A 
ATOM     84  F   UNL A   1      47.681  25.631  32.354  1.00  0.00    -0.206 F 
ATOM     85  C   UNL A   1      49.888  25.329  31.611  1.00  0.00     0.040 A 
ATOM     86  C   UNL A   1      50.551  26.135  29.441  1.00  0.00     0.040 A 
ATOM     87  F   UNL A   1      49.005  27.254  28.080  1.00  0.00    -0.206 F 
ATOM     88  C   UNL A   1      50.868  25.489  30.634  1.00  0.00     0.006 A 
ENDBRANCH  64  81
ENDBRANCH  38  39
ENDBRANCH  30  33
ENDBRANCH  28  29
ENDBRANCH  27  28
ENDBRANCH   1  27
TORSDOF 14
ENDMDL
MODEL 3
REMARK VINA RESULT:     -12.2      3.482      4.895
REMARK SMILES O=C(NCCCCNC(=O)c1ccc(-c2c3nc(c(-c4c(F)cccc4F)c4ccc([nH]4)c(-c4c(F)cccc4F)c4nc(c(-c5c(F)cccc5F)c5ccc2[nH]5)C=C4)C=C3)cc1)c1ccc(C[C@H]2SC(=O)N(c3ccccc3)C2=O)cc1
REMARK SMILES IDX 5 1 4 2 3 3 1 4 2 5 65 7 66 8 84 9 67 10 83 11 68 12 69 13
REMARK SMILES IDX 70 14 71 15 81 16 72 17 74 18 82 19 73 20 75 21 76 22 80 23
REMARK SMILES IDX 77 24 79 25 78 26 6 27 7 28 8 29 9 30 10 32 11 33 12 34
REMARK SMILES IDX 64 35 13 36 63 37 14 38 15 39 16 40 57 41 17 42 62 43 56 44
REMARK SMILES IDX 58 45 18 46 61 47 55 48 54 49 19 51 45 52 28 53 44 54 29 55
REMARK SMILES IDX 32 56 43 57 59 58 30 59 31 60 42 62 60 63 33 64 20 65 21 66
REMARK SMILES IDX 26 67 22 68 23 69 25 70 27 71 24 72 46 73 47 74 52 75 48 76
REMARK SMILES IDX 49 77 51 78 53 79 50 80 34 81 35 82 40 83 36 84 37 85 39 86
REMARK SMILES IDX 41 87 38 88
REMARK H PARENT 3 6 8 31 58 50 32 61
REMARK Flexibility Score: inf
ROOT
ATOM      1  C   UNL A   1      31.347  30.741  25.711  1.00  0.00     0.023 C 
ENDROOT
BRANCH   1   2
ATOM      2  C   UNL A   1      32.671  29.996  25.854  1.00  0.00     0.116 C 
BRANCH   2   3
ATOM      3  N   UNL A   1      33.292  29.718  24.567  1.00  0.00    -0.352 N 
ATOM      4  O   UNL A   1      34.175  28.420  22.939  1.00  0.00    -0.269 OA
ATOM      5  C   UNL A   1      33.491  28.506  23.952  1.00  0.00     0.251 C 
ATOM      6  H   UNL A   1      33.614  30.506  24.070  1.00  0.00     0.163 HD
BRANCH   5   7
ATOM      7  C   UNL A   1      32.883  27.298  24.540  1.00  0.00     0.039 A 
ATOM      8  C   UNL A   1      33.574  26.569  25.509  1.00  0.00     0.014 A 
ATOM      9  C   UNL A   1      31.629  26.879  24.097  1.00  0.00     0.014 A 
ATOM     10  C   UNL A   1      33.046  25.366  25.970  1.00  0.00     0.004 A 
ATOM     11  C   UNL A   1      31.110  25.662  24.549  1.00  0.00     0.004 A 
ATOM     12  C   UNL A   1      31.832  24.878  25.462  1.00  0.00    -0.046 A 
BRANCH  12  13
ATOM     13  C   UNL A   1      31.333  23.507  25.870  1.00  0.00     0.060 C 
BRANCH  13  14
ATOM     14  C   UNL A   1      31.892  22.354  25.015  1.00  0.00     0.151 C 
ATOM     15  S   UNL A   1      32.146  22.808  23.278  1.00  0.00    -0.050 SA
ATOM     16  C   UNL A   1      33.277  21.987  25.514  1.00  0.00     0.248 C 
ATOM     17  C   UNL A   1      33.860  23.078  23.513  1.00  0.00     0.293 C 
ATOM     18  N   UNL A   1      34.274  22.496  24.693  1.00  0.00    -0.240 N 
ATOM     19  O   UNL A   1      33.429  21.397  26.582  1.00  0.00    -0.273 OA
ATOM     20  O   UNL A   1      34.509  23.664  22.671  1.00  0.00    -0.261 OA
BRANCH  18  21
ATOM     21  C   UNL A   1      35.657  22.414  25.031  1.00  0.00     0.053 A 
ATOM     22  C   UNL A   1      36.308  23.485  25.659  1.00  0.00     0.027 A 
ATOM     23  C   UNL A   1      36.397  21.252  24.763  1.00  0.00     0.027 A 
ATOM     24  C   UNL A   1      37.653  23.389  26.026  1.00  0.00     0.002 A 
ATOM     25  C   UNL A   1      37.751  21.170  25.100  1.00  0.00     0.002 A 
ATOM     26  C   UNL A   1      38.377  22.235  25.740  1.00  0.00     0.000 A 
ENDBRANCH  18  21
ENDBRANCH  13  14
ENDBRANCH  12  13
ENDBRANCH   5   7
ENDBRANCH   2   3
ENDBRANCH   1   2
BRANCH   1  27
ATOM     27  C   UNL A   1      31.230  32.025  26.533  1.00  0.00     0.023 C 
BRANCH  27  28
ATOM     28  C   UNL A   1      32.545  32.591  27.052  1.00  0.00     0.116 C 
BRANCH  28  29
ATOM     29  N   UNL A   1      32.422  33.947  27.564  1.00  0.00    -0.352 N 
ATOM     30  C   UNL A   1      33.156  34.580  28.538  1.00  0.00     0.251 C 
ATOM     31  H   UNL A   1      31.710  34.489  27.153  1.00  0.00     0.163 HD
ATOM     32  O   UNL A   1      32.823  35.694  28.930  1.00  0.00    -0.269 OA
BRANCH  30  33
ATOM     33  C   UNL A   1      34.332  33.911  29.138  1.00  0.00     0.039 A 
ATOM     34  C   UNL A   1      34.127  32.971  30.152  1.00  0.00     0.014 A 
ATOM     35  C   UNL A   1      35.630  34.210  28.717  1.00  0.00     0.014 A 
ATOM     36  C   UNL A   1      35.218  32.292  30.703  1.00  0.00     0.010 A 
ATOM     37  C   UNL A   1      36.708  33.477  29.209  1.00  0.00     0.010 A 
ATOM     38  C   UNL A   1      36.515  32.519  30.216  1.00  0.00    -0.014 A 
BRANCH  38  39
ATOM     39  C   UNL A   1      37.689  31.796  30.774  1.00  0.00     0.031 A 
ATOM     40  C   UNL A   1      38.217  32.164  32.136  1.00  0.00     0.074 A 
ATOM     41  C   UNL A   1      38.311  30.850  30.045  1.00  0.00     0.049 A 
ATOM     42  N   UNL A   1      39.277  31.720  32.762  1.00  0.00    -0.248 NA
ATOM     43  C   UNL A   1      37.467  33.188  32.883  1.00  0.00     0.031 C 
ATOM     44  C   UNL A   1      37.926  30.425  28.697  1.00  0.00     0.029 A 
ATOM     45  N   UNL A   1      39.411  30.079  30.332  1.00  0.00    -0.354 N 
ATOM     46  C   UNL A   1      39.324  32.414  33.965  1.00  0.00     0.074 A 
ATOM     47  C   UNL A   1      38.225  33.353  33.956  1.00  0.00     0.031 C 
ATOM     48  C   UNL A   1      38.765  29.461  28.283  1.00  0.00     0.029 A 
ATOM     49  C   UNL A   1      39.769  29.225  29.316  1.00  0.00     0.049 A 
ATOM     50  H   UNL A   1      39.899  30.134  31.185  1.00  0.00     0.167 HD
ATOM     51  C   UNL A   1      40.187  32.264  34.998  1.00  0.00     0.037 A 
ATOM     52  C   UNL A   1      40.795  28.358  29.225  1.00  0.00     0.037 A 
ATOM     53  C   UNL A   1      41.266  31.313  35.020  1.00  0.00     0.049 A 
ATOM     54  C   UNL A   1      41.745  28.218  30.386  1.00  0.00     0.074 A 
ATOM     55  C   UNL A   1      42.179  31.069  36.031  1.00  0.00     0.029 A 
ATOM     56  N   UNL A   1      41.571  30.442  33.986  1.00  0.00    -0.354 N 
ATOM     57  N   UNL A   1      41.748  28.850  31.534  1.00  0.00    -0.248 NA
ATOM     58  C   UNL A   1      42.827  27.233  30.241  1.00  0.00     0.031 C 
ATOM     59  C   UNL A   1      43.057  30.070  35.595  1.00  0.00     0.029 A 
ATOM     60  C   UNL A   1      42.659  29.660  34.334  1.00  0.00     0.049 A 
ATOM     61  H   UNL A   1      41.086  30.387  33.131  1.00  0.00     0.167 HD
ATOM     62  C   UNL A   1      42.801  28.309  32.263  1.00  0.00     0.074 A 
ATOM     63  C   UNL A   1      43.406  27.291  31.431  1.00  0.00     0.031 C 
ATOM     64  C   UNL A   1      43.229  28.628  33.508  1.00  0.00     0.037 A 
BRANCH  51  65
ATOM     65  C   UNL A   1      39.985  33.135  36.203  1.00  0.00     0.057 A 
ATOM     66  C   UNL A   1      39.113  32.766  37.237  1.00  0.00     0.134 A 
ATOM     67  C   UNL A   1      40.705  34.326  36.360  1.00  0.00     0.134 A 
ATOM     68  F   UNL A   1      38.383  31.644  37.142  1.00  0.00    -0.206 F 
ATOM     69  C   UNL A   1      38.950  33.560  38.373  1.00  0.00     0.040 A 
ATOM     70  C   UNL A   1      40.571  35.114  37.505  1.00  0.00     0.040 A 
ATOM     71  F   UNL A   1      41.560  34.734  35.412  1.00  0.00    -0.206 F 
ATOM     72  C   UNL A   1      39.688  34.733  38.514  1.00  0.00     0.006 A 
ENDBRANCH  51  65
BRANCH  52  73
ATOM     73  C   UNL A   1      40.985  27.537  28.000  1.00  0.00     0.057 A 
ATOM     74  C   UNL A   1      41.761  28.001  26.930  1.00  0.00     0.134 A 
ATOM     75  C   UNL A   1      40.357  26.295  27.848  1.00  0.00     0.134 A 
ATOM     76  F   UNL A   1      42.373  29.193  27.007  1.00  0.00    -0.206 F 
ATOM     77  C   UNL A   1      41.875  27.279  25.741  1.00  0.00     0.040 A 
ATOM     78  C   UNL A   1      40.487  25.549  26.676  1.00  0.00     0.040 A 
ATOM     79  F   UNL A   1      39.606  25.790  28.838  1.00  0.00    -0.206 F 
ATOM     80  C   UNL A   1      41.237  26.048  25.612  1.00  0.00     0.006 A 
ENDBRANCH  52  73
BRANCH  64  81
ATOM     81  C   UNL A   1      44.360  27.821  34.077  1.00  0.00     0.057 A 
ATOM     82  C   UNL A   1      44.149  26.606  34.740  1.00  0.00     0.134 A 
ATOM     83  C   UNL A   1      45.684  28.256  33.926  1.00  0.00     0.134 A 
ATOM     84  F   UNL A   1      42.906  26.140  34.928  1.00  0.00    -0.206 F 
ATOM     85  C   UNL A   1      45.214  25.866  35.259  1.00  0.00     0.040 A 
ATOM     86  C   UNL A   1      46.757  27.510  34.414  1.00  0.00     0.040 A 
ATOM     87  F   UNL A   1      45.956  29.405  33.290  1.00  0.00    -0.206 F 
ATOM     88  C   UNL A   1      46.522  26.315  35.091  1.00  0.00     0.006 A 
ENDBRANCH  64  81
ENDBRANCH  38  39
ENDBRANCH  30  33
ENDBRANCH  28  29
ENDBRANCH  27  28
ENDBRANCH   1  27
TORSDOF 14
ENDMDL
