MODEL 1
REMARK VINA RESULT:     -11.9      0.000      0.000
REMARK SMILES CC(=O)N[C@@]1(C(=O)NCCCCNC(=O)c2ccc(-c3c4nc(c(-c5c(F)cccc5F)c5ccc([nH]5)c(-c5c(F)cccc5F)c5nc(c(-c6c(F)cccc6F)c6ccc3[nH]6)C=C5)C=C4)cc2)CCCc2ccccc21
REMARK SMILES IDX 11 1 10 2 9 3 8 4 6 5 7 6 5 8 70 9 78 10 71 11 73 12 77 13
REMARK SMILES IDX 72 14 74 15 76 16 75 17 4 18 1 19 2 20 3 21 12 23 13 24
REMARK SMILES IDX 14 25 15 27 16 28 17 29 69 30 18 31 68 32 19 33 20 34 21 35
REMARK SMILES IDX 62 36 22 37 67 38 61 39 63 40 23 41 66 42 60 43 59 44 24 46
REMARK SMILES IDX 50 47 33 48 49 49 34 50 37 51 48 52 64 53 35 54 36 55 47 57
REMARK SMILES IDX 65 58 38 59 25 60 26 61 31 62 27 63 28 64 30 65 32 66 29 67
REMARK SMILES IDX 51 68 52 69 57 70 53 71 54 72 56 73 58 74 55 75 39 76 40 77
REMARK SMILES IDX 45 78 41 79 42 80 44 81 46 82 43 83
REMARK H PARENT 8 7 4 22 13 26 63 45 37 56
REMARK Flexibility Score: inf
ROOT
ATOM      1  C   UNL A   1      33.663  28.444  25.784  1.00  0.00     0.023 C 
ENDROOT
BRANCH   1   2
ATOM      2  C   UNL A   1      33.997  27.032  25.300  1.00  0.00     0.023 C 
BRANCH   2   3
ATOM      3  C   UNL A   1      32.834  26.249  24.675  1.00  0.00     0.116 C 
BRANCH   3   4
ATOM      4  N   UNL A   1      33.261  25.371  23.590  1.00  0.00    -0.354 N 
ATOM      5  C   UNL A   1      33.757  24.088  23.576  1.00  0.00     0.250 C 
ATOM      6  O   UNL A   1      34.123  23.672  22.472  1.00  0.00    -0.272 OA
ATOM      7  H   UNL A   1      33.179  25.776  22.697  1.00  0.00     0.163 HD
BRANCH   5   8
ATOM      8  C   UNL A   1      33.911  23.242  24.906  1.00  0.00     0.144 C 
ATOM      9  C   UNL A   1      35.279  23.623  25.529  1.00  0.00     0.044 C 
ATOM     10  C   UNL A   1      33.799  21.727  24.633  1.00  0.00    -0.010 A 
ATOM     11  C   UNL A   1      36.424  22.834  24.904  1.00  0.00     0.008 C 
ATOM     12  C   UNL A   1      34.887  20.852  24.844  1.00  0.00    -0.042 A 
ATOM     13  C   UNL A   1      32.564  21.169  24.237  1.00  0.00     0.007 A 
ATOM     14  C   UNL A   1      36.254  21.357  25.225  1.00  0.00     0.036 C 
ATOM     15  C   UNL A   1      34.694  19.463  24.763  1.00  0.00     0.004 A 
ATOM     16  C   UNL A   1      32.392  19.788  24.140  1.00  0.00     0.000 A 
ATOM     17  C   UNL A   1      33.451  18.935  24.424  1.00  0.00     0.000 A 
BRANCH   8  18
ATOM     18  N   UNL A   1      32.758  23.637  25.753  1.00  0.00    -0.338 N 
ATOM     19  C   UNL A   1      33.319  22.527  27.911  1.00  0.00     0.114 C 
ATOM     20  C   UNL A   1      32.368  23.239  26.993  1.00  0.00     0.217 C 
ATOM     21  O   UNL A   1      31.229  23.531  27.360  1.00  0.00    -0.275 OA
ATOM     22  H   UNL A   1      32.169  24.311  25.343  1.00  0.00     0.164 HD
ENDBRANCH   8  18
ENDBRANCH   5   8
ENDBRANCH   3   4
ENDBRANCH   2   3
ENDBRANCH   1   2
BRANCH   1  23
ATOM     23  C   UNL A   1      33.601  28.625  27.297  1.00  0.00     0.116 C 
BRANCH  23  24
ATOM     24  N   UNL A   1      33.638  30.020  27.709  1.00  0.00    -0.352 N 
ATOM     25  C   UNL A   1      34.657  30.740  28.287  1.00  0.00     0.251 C 
ATOM     26  H   UNL A   1      32.807  30.524  27.550  1.00  0.00     0.163 HD
ATOM     27  O   UNL A   1      34.442  31.886  28.681  1.00  0.00    -0.269 OA
BRANCH  25  28
ATOM     28  C   UNL A   1      35.999  30.143  28.478  1.00  0.00     0.039 A 
ATOM     29  C   UNL A   1      36.914  30.191  27.420  1.00  0.00     0.014 A 
ATOM     30  C   UNL A   1      36.365  29.530  29.678  1.00  0.00     0.014 A 
ATOM     31  C   UNL A   1      38.213  29.704  27.595  1.00  0.00     0.010 A 
ATOM     32  C   UNL A   1      37.681  29.115  29.878  1.00  0.00     0.010 A 
ATOM     33  C   UNL A   1      38.624  29.204  28.842  1.00  0.00    -0.014 A 
BRANCH  33  34
ATOM     34  C   UNL A   1      40.033  28.792  29.086  1.00  0.00     0.031 A 
ATOM     35  C   UNL A   1      41.011  29.747  29.715  1.00  0.00     0.074 A 
ATOM     36  C   UNL A   1      40.454  27.579  28.677  1.00  0.00     0.049 A 
ATOM     37  N   UNL A   1      42.295  29.596  29.929  1.00  0.00    -0.248 NA
ATOM     38  C   UNL A   1      40.482  31.053  30.137  1.00  0.00     0.031 C 
ATOM     39  C   UNL A   1      39.622  26.570  28.020  1.00  0.00     0.029 A 
ATOM     40  N   UNL A   1      41.694  26.991  28.743  1.00  0.00    -0.354 N 
ATOM     41  C   UNL A   1      42.727  30.787  30.498  1.00  0.00     0.074 A 
ATOM     42  C   UNL A   1      41.581  31.670  30.547  1.00  0.00     0.031 C 
ATOM     43  C   UNL A   1      40.366  25.483  27.762  1.00  0.00     0.029 A 
ATOM     44  C   UNL A   1      41.738  25.732  28.193  1.00  0.00     0.049 A 
ATOM     45  H   UNL A   1      42.478  27.430  29.145  1.00  0.00     0.167 HD
ATOM     46  C   UNL A   1      43.960  31.110  30.959  1.00  0.00     0.037 A 
ATOM     47  C   UNL A   1      42.769  24.879  28.036  1.00  0.00     0.037 A 
ATOM     48  C   UNL A   1      45.097  30.227  30.924  1.00  0.00     0.049 A 
ATOM     49  C   UNL A   1      44.136  25.274  28.526  1.00  0.00     0.074 A 
ATOM     50  C   UNL A   1      46.373  30.448  31.413  1.00  0.00     0.029 A 
ATOM     51  N   UNL A   1      45.099  28.960  30.362  1.00  0.00    -0.354 N 
ATOM     52  N   UNL A   1      44.514  26.378  29.121  1.00  0.00    -0.248 NA
ATOM     53  C   UNL A   1      45.219  24.300  28.325  1.00  0.00     0.031 C 
ATOM     54  C   UNL A   1      47.161  29.336  31.099  1.00  0.00     0.029 A 
ATOM     55  C   UNL A   1      46.361  28.397  30.468  1.00  0.00     0.049 A 
ATOM     56  H   UNL A   1      44.318  28.524  29.948  1.00  0.00     0.167 HD
ATOM     57  C   UNL A   1      45.867  26.220  29.396  1.00  0.00     0.074 A 
ATOM     58  C   UNL A   1      46.240  24.907  28.913  1.00  0.00     0.031 C 
ATOM     59  C   UNL A   1      46.722  27.085  29.994  1.00  0.00     0.037 A 
BRANCH  46  60
ATOM     60  C   UNL A   1      44.144  32.482  31.544  1.00  0.00     0.057 A 
ATOM     61  C   UNL A   1      43.975  32.732  32.913  1.00  0.00     0.134 A 
ATOM     62  C   UNL A   1      44.537  33.558  30.738  1.00  0.00     0.134 A 
ATOM     63  F   UNL A   1      43.591  31.748  33.742  1.00  0.00    -0.206 F 
ATOM     64  C   UNL A   1      44.160  34.005  33.452  1.00  0.00     0.040 A 
ATOM     65  C   UNL A   1      44.755  34.830  31.270  1.00  0.00     0.040 A 
ATOM     66  F   UNL A   1      44.727  33.388  29.421  1.00  0.00    -0.206 F 
ATOM     67  C   UNL A   1      44.558  35.057  32.631  1.00  0.00     0.006 A 
ENDBRANCH  46  60
BRANCH  47  68
ATOM     68  C   UNL A   1      42.552  23.555  27.397  1.00  0.00     0.057 A 
ATOM     69  C   UNL A   1      42.240  22.425  28.164  1.00  0.00     0.134 A 
ATOM     70  C   UNL A   1      42.670  23.381  26.013  1.00  0.00     0.134 A 
ATOM     71  F   UNL A   1      42.133  22.524  29.498  1.00  0.00    -0.206 F 
ATOM     72  C   UNL A   1      42.075  21.168  27.581  1.00  0.00     0.040 A 
ATOM     73  C   UNL A   1      42.480  22.134  25.414  1.00  0.00     0.040 A 
ATOM     74  F   UNL A   1      42.961  24.423  25.222  1.00  0.00    -0.206 F 
ATOM     75  C   UNL A   1      42.192  21.021  26.201  1.00  0.00     0.006 A 
ENDBRANCH  47  68
BRANCH  59  76
ATOM     76  C   UNL A   1      48.136  26.626  30.204  1.00  0.00     0.057 A 
ATOM     77  C   UNL A   1      49.159  26.932  29.299  1.00  0.00     0.134 A 
ATOM     78  C   UNL A   1      48.485  25.900  31.351  1.00  0.00     0.134 A 
ATOM     79  F   UNL A   1      48.892  27.612  28.173  1.00  0.00    -0.206 F 
ATOM     80  C   UNL A   1      50.474  26.512  29.514  1.00  0.00     0.040 A 
ATOM     81  C   UNL A   1      49.801  25.502  31.592  1.00  0.00     0.040 A 
ATOM     82  F   UNL A   1      47.556  25.580  32.264  1.00  0.00    -0.206 F 
ATOM     83  C   UNL A   1      50.799  25.802  30.668  1.00  0.00     0.006 A 
ENDBRANCH  59  76
ENDBRANCH  33  34
ENDBRANCH  25  28
ENDBRANCH  23  24
ENDBRANCH   1  23
TORSDOF 12
ENDMDL
MODEL 2
REMARK VINA RESULT:     -11.6      2.874      8.238
REMARK SMILES CC(=O)N[C@@]1(C(=O)NCCCCNC(=O)c2ccc(-c3c4nc(c(-c5c(F)cccc5F)c5ccc([nH]5)c(-c5c(F)cccc5F)c5nc(c(-c6c(F)cccc6F)c6ccc3[nH]6)C=C5)C=C4)cc2)CCCc2ccccc21
REMARK SMILES IDX 11 1 10 2 9 3 8 4 6 5 7 6 5 8 70 9 78 10 71 11 73 12 77 13
REMARK SMILES IDX 72 14 74 15 76 16 75 17 4 18 1 19 2 20 3 21 12 23 13 24
REMARK SMILES IDX 14 25 15 27 16 28 17 29 69 30 18 31 68 32 19 33 20 34 21 35
REMARK SMILES IDX 62 36 22 37 67 38 61 39 63 40 23 41 66 42 60 43 59 44 24 46
REMARK SMILES IDX 50 47 33 48 49 49 34 50 37 51 48 52 64 53 35 54 36 55 47 57
REMARK SMILES IDX 65 58 38 59 25 60 26 61 31 62 27 63 28 64 30 65 32 66 29 67
REMARK SMILES IDX 51 68 52 69 57 70 53 71 54 72 56 73 58 74 55 75 39 76 40 77
REMARK SMILES IDX 45 78 41 79 42 80 44 81 46 82 43 83
REMARK H PARENT 8 7 4 22 13 26 63 45 37 56
REMARK Flexibility Score: inf
ROOT
ATOM      1  C   UNL A   1      35.971  23.351  25.890  1.00  0.00     0.023 C 
ENDROOT
BRANCH   1   2
ATOM      2  C   UNL A   1      34.916  24.455  25.796  1.00  0.00     0.023 C 
BRANCH   2   3
ATOM      3  C   UNL A   1      33.613  24.075  25.082  1.00  0.00     0.116 C 
BRANCH   3   4
ATOM      4  N   UNL A   1      32.427  24.615  25.740  1.00  0.00    -0.354 N 
ATOM      5  C   UNL A   1      31.822  25.849  25.693  1.00  0.00     0.250 C 
ATOM      6  O   UNL A   1      30.874  26.006  26.469  1.00  0.00    -0.272 OA
ATOM      7  H   UNL A   1      31.975  23.972  26.333  1.00  0.00     0.163 HD
BRANCH   5   8
ATOM      8  C   UNL A   1      32.362  27.004  24.753  1.00  0.00     0.144 C 
ATOM      9  C   UNL A   1      33.459  27.759  25.548  1.00  0.00     0.044 C 
ATOM     10  C   UNL A   1      31.225  27.944  24.296  1.00  0.00    -0.010 A 
ATOM     11  C   UNL A   1      32.860  28.807  26.480  1.00  0.00     0.008 C 
ATOM     12  C   UNL A   1      31.186  29.302  24.678  1.00  0.00    -0.042 A 
ATOM     13  C   UNL A   1      30.234  27.474  23.408  1.00  0.00     0.007 A 
ATOM     14  C   UNL A   1      32.175  29.884  25.654  1.00  0.00     0.036 C 
ATOM     15  C   UNL A   1      30.245  30.167  24.095  1.00  0.00     0.004 A 
ATOM     16  C   UNL A   1      29.292  28.340  22.852  1.00  0.00     0.000 A 
ATOM     17  C   UNL A   1      29.310  29.690  23.179  1.00  0.00     0.000 A 
BRANCH   8  18
ATOM     18  N   UNL A   1      32.890  26.312  23.551  1.00  0.00    -0.338 N 
ATOM     19  C   UNL A   1      33.968  28.192  22.325  1.00  0.00     0.114 C 
ATOM     20  C   UNL A   1      33.448  26.787  22.406  1.00  0.00     0.217 C 
ATOM     21  O   UNL A   1      33.563  26.010  21.456  1.00  0.00    -0.275 OA
ATOM     22  H   UNL A   1      32.826  25.331  23.591  1.00  0.00     0.164 HD
ENDBRANCH   8  18
ENDBRANCH   5   8
ENDBRANCH   3   4
ENDBRANCH   2   3
ENDBRANCH   1   2
BRANCH   1  23
ATOM     23  C   UNL A   1      37.204  23.542  25.014  1.00  0.00     0.116 C 
BRANCH  23  24
ATOM     24  N   UNL A   1      38.305  22.663  25.377  1.00  0.00    -0.352 N 
ATOM     25  C   UNL A   1      39.434  22.925  26.118  1.00  0.00     0.251 C 
ATOM     26  H   UNL A   1      38.231  21.740  25.040  1.00  0.00     0.163 HD
ATOM     27  O   UNL A   1      40.315  22.071  26.203  1.00  0.00    -0.269 OA
BRANCH  25  28
ATOM     28  C   UNL A   1      39.621  24.236  26.783  1.00  0.00     0.039 A 
ATOM     29  C   UNL A   1      39.083  24.425  28.061  1.00  0.00     0.014 A 
ATOM     30  C   UNL A   1      40.310  25.280  26.163  1.00  0.00     0.014 A 
ATOM     31  C   UNL A   1      39.308  25.624  28.744  1.00  0.00     0.010 A 
ATOM     32  C   UNL A   1      40.600  26.445  26.874  1.00  0.00     0.010 A 
ATOM     33  C   UNL A   1      40.109  26.628  28.176  1.00  0.00    -0.014 A 
BRANCH  33  34
ATOM     34  C   UNL A   1      40.461  27.860  28.933  1.00  0.00     0.031 A 
ATOM     35  C   UNL A   1      41.794  27.981  29.621  1.00  0.00     0.074 A 
ATOM     36  C   UNL A   1      39.552  28.847  29.062  1.00  0.00     0.049 A 
ATOM     37  N   UNL A   1      42.243  28.939  30.392  1.00  0.00    -0.248 NA
ATOM     38  C   UNL A   1      42.736  26.867  29.437  1.00  0.00     0.031 C 
ATOM     39  C   UNL A   1      38.209  28.843  28.479  1.00  0.00     0.029 A 
ATOM     40  N   UNL A   1      39.615  30.042  29.736  1.00  0.00    -0.354 N 
ATOM     41  C   UNL A   1      43.512  28.540  30.792  1.00  0.00     0.074 A 
ATOM     42  C   UNL A   1      43.740  27.229  30.223  1.00  0.00     0.031 C 
ATOM     43  C   UNL A   1      37.584  29.986  28.803  1.00  0.00     0.029 A 
ATOM     44  C   UNL A   1      38.462  30.785  29.653  1.00  0.00     0.049 A 
ATOM     45  H   UNL A   1      40.411  30.339  30.233  1.00  0.00     0.167 HD
ATOM     46  C   UNL A   1      44.415  29.212  31.547  1.00  0.00     0.037 A 
ATOM     47  C   UNL A   1      38.138  31.968  30.209  1.00  0.00     0.037 A 
ATOM     48  C   UNL A   1      44.195  30.523  32.103  1.00  0.00     0.049 A 
ATOM     49  C   UNL A   1      39.146  32.679  31.071  1.00  0.00     0.074 A 
ATOM     50  C   UNL A   1      45.070  31.303  32.838  1.00  0.00     0.029 A 
ATOM     51  N   UNL A   1      43.016  31.242  31.992  1.00  0.00    -0.354 N 
ATOM     52  N   UNL A   1      40.366  32.318  31.387  1.00  0.00    -0.248 NA
ATOM     53  C   UNL A   1      38.733  33.966  31.651  1.00  0.00     0.031 C 
ATOM     54  C   UNL A   1      44.402  32.472  33.217  1.00  0.00     0.029 A 
ATOM     55  C   UNL A   1      43.131  32.446  32.668  1.00  0.00     0.049 A 
ATOM     56  H   UNL A   1      42.214  30.941  31.504  1.00  0.00     0.167 HD
ATOM     57  C   UNL A   1      40.876  33.345  32.173  1.00  0.00     0.074 A 
ATOM     58  C   UNL A   1      39.838  34.349  32.274  1.00  0.00     0.031 C 
ATOM     59  C   UNL A   1      42.096  33.445  32.756  1.00  0.00     0.037 A 
BRANCH  46  60
ATOM     60  C   UNL A   1      45.731  28.538  31.818  1.00  0.00     0.057 A 
ATOM     61  C   UNL A   1      46.842  28.721  30.984  1.00  0.00     0.134 A 
ATOM     62  C   UNL A   1      45.902  27.730  32.950  1.00  0.00     0.134 A 
ATOM     63  F   UNL A   1      46.746  29.476  29.879  1.00  0.00    -0.206 F 
ATOM     64  C   UNL A   1      48.065  28.103  31.249  1.00  0.00     0.040 A 
ATOM     65  C   UNL A   1      47.128  27.130  33.241  1.00  0.00     0.040 A 
ATOM     66  F   UNL A   1      44.883  27.519  33.797  1.00  0.00    -0.206 F 
ATOM     67  C   UNL A   1      48.212  27.310  32.384  1.00  0.00     0.006 A 
ENDBRANCH  46  60
BRANCH  47  68
ATOM     68  C   UNL A   1      36.802  32.570  29.962  1.00  0.00     0.057 A 
ATOM     69  C   UNL A   1      36.603  33.484  28.920  1.00  0.00     0.134 A 
ATOM     70  C   UNL A   1      35.700  32.263  30.768  1.00  0.00     0.134 A 
ATOM     71  F   UNL A   1      37.626  33.834  28.125  1.00  0.00    -0.206 F 
ATOM     72  C   UNL A   1      35.364  34.088  28.703  1.00  0.00     0.040 A 
ATOM     73  C   UNL A   1      34.447  32.839  30.545  1.00  0.00     0.040 A 
ATOM     74  F   UNL A   1      35.821  31.391  31.779  1.00  0.00    -0.206 F 
ATOM     75  C   UNL A   1      34.280  33.762  29.515  1.00  0.00     0.006 A 
ENDBRANCH  47  68
BRANCH  59  76
ATOM     76  C   UNL A   1      42.395  34.703  33.520  1.00  0.00     0.057 A 
ATOM     77  C   UNL A   1      42.972  35.824  32.910  1.00  0.00     0.134 A 
ATOM     78  C   UNL A   1      42.064  34.806  34.877  1.00  0.00     0.134 A 
ATOM     79  F   UNL A   1      43.326  35.788  31.616  1.00  0.00    -0.206 F 
ATOM     80  C   UNL A   1      43.230  36.993  33.628  1.00  0.00     0.040 A 
ATOM     81  C   UNL A   1      42.290  35.980  35.598  1.00  0.00     0.040 A 
ATOM     82  F   UNL A   1      41.501  33.773  35.522  1.00  0.00    -0.206 F 
ATOM     83  C   UNL A   1      42.881  37.076  34.975  1.00  0.00     0.006 A 
ENDBRANCH  59  76
ENDBRANCH  33  34
ENDBRANCH  25  28
ENDBRANCH  23  24
ENDBRANCH   1  23
TORSDOF 12
ENDMDL
MODEL 3
REMARK VINA RESULT:     -11.6      2.872      8.225
REMARK SMILES CC(=O)N[C@@]1(C(=O)NCCCCNC(=O)c2ccc(-c3c4nc(c(-c5c(F)cccc5F)c5ccc([nH]5)c(-c5c(F)cccc5F)c5nc(c(-c6c(F)cccc6F)c6ccc3[nH]6)C=C5)C=C4)cc2)CCCc2ccccc21
REMARK SMILES IDX 11 1 10 2 9 3 8 4 6 5 7 6 5 8 70 9 78 10 71 11 73 12 77 13
REMARK SMILES IDX 72 14 74 15 76 16 75 17 4 18 1 19 2 20 3 21 12 23 13 24
REMARK SMILES IDX 14 25 15 27 16 28 17 29 69 30 18 31 68 32 19 33 20 34 21 35
REMARK SMILES IDX 62 36 22 37 67 38 61 39 63 40 23 41 66 42 60 43 59 44 24 46
REMARK SMILES IDX 50 47 33 48 49 49 34 50 37 51 48 52 64 53 35 54 36 55 47 57
REMARK SMILES IDX 65 58 38 59 25 60 26 61 31 62 27 63 28 64 30 65 32 66 29 67
REMARK SMILES IDX 51 68 52 69 57 70 53 71 54 72 56 73 58 74 55 75 39 76 40 77
REMARK SMILES IDX 45 78 41 79 42 80 44 81 46 82 43 83
REMARK H PARENT 8 7 4 22 13 26 63 45 37 56
REMARK Flexibility Score: inf
ROOT
ATOM      1  C   UNL A   1      35.982  23.290  26.132  1.00  0.00     0.023 C 
ENDROOT
BRANCH   1   2
ATOM      2  C   UNL A   1      34.889  24.361  26.120  1.00  0.00     0.023 C 
BRANCH   2   3
ATOM      3  C   UNL A   1      33.688  24.079  25.209  1.00  0.00     0.116 C 
BRANCH   3   4
ATOM      4  N   UNL A   1      32.431  24.579  25.758  1.00  0.00    -0.354 N 
ATOM      5  C   UNL A   1      31.784  25.787  25.641  1.00  0.00     0.250 C 
ATOM      6  O   UNL A   1      30.769  25.915  26.333  1.00  0.00    -0.272 OA
ATOM      7  H   UNL A   1      31.956  23.926  26.319  1.00  0.00     0.163 HD
BRANCH   5   8
ATOM      8  C   UNL A   1      32.356  26.952  24.733  1.00  0.00     0.144 C 
ATOM      9  C   UNL A   1      33.467  27.659  25.551  1.00  0.00     0.044 C 
ATOM     10  C   UNL A   1      31.245  27.931  24.295  1.00  0.00    -0.010 A 
ATOM     11  C   UNL A   1      32.891  28.698  26.507  1.00  0.00     0.008 C 
ATOM     12  C   UNL A   1      31.237  29.279  24.712  1.00  0.00    -0.042 A 
ATOM     13  C   UNL A   1      30.246  27.508  23.392  1.00  0.00     0.007 A 
ATOM     14  C   UNL A   1      32.235  29.813  25.706  1.00  0.00     0.036 C 
ATOM     15  C   UNL A   1      30.320  30.181  24.148  1.00  0.00     0.004 A 
ATOM     16  C   UNL A   1      29.327  28.410  22.856  1.00  0.00     0.000 A 
ATOM     17  C   UNL A   1      29.377  29.750  23.217  1.00  0.00     0.000 A 
BRANCH   8  18
ATOM     18  N   UNL A   1      32.873  26.278  23.516  1.00  0.00    -0.338 N 
ATOM     19  C   UNL A   1      33.944  28.175  22.310  1.00  0.00     0.114 C 
ATOM     20  C   UNL A   1      33.421  26.769  22.374  1.00  0.00     0.217 C 
ATOM     21  O   UNL A   1      33.527  26.008  21.411  1.00  0.00    -0.275 OA
ATOM     22  H   UNL A   1      32.807  25.296  23.541  1.00  0.00     0.164 HD
ENDBRANCH   8  18
ENDBRANCH   5   8
ENDBRANCH   3   4
ENDBRANCH   2   3
ENDBRANCH   1   2
BRANCH   1  23
ATOM     23  C   UNL A   1      37.141  23.520  25.168  1.00  0.00     0.116 C 
BRANCH  23  24
ATOM     24  N   UNL A   1      38.291  22.673  25.444  1.00  0.00    -0.352 N 
ATOM     25  C   UNL A   1      39.456  22.962  26.115  1.00  0.00     0.251 C 
ATOM     26  H   UNL A   1      38.226  21.754  25.097  1.00  0.00     0.163 HD
ATOM     27  O   UNL A   1      40.369  22.137  26.129  1.00  0.00    -0.269 OA
BRANCH  25  28
ATOM     28  C   UNL A   1      39.643  24.268  26.790  1.00  0.00     0.039 A 
ATOM     29  C   UNL A   1      39.131  24.438  28.081  1.00  0.00     0.014 A 
ATOM     30  C   UNL A   1      40.306  25.327  26.166  1.00  0.00     0.014 A 
ATOM     31  C   UNL A   1      39.358  25.632  28.772  1.00  0.00     0.010 A 
ATOM     32  C   UNL A   1      40.598  26.487  26.882  1.00  0.00     0.010 A 
ATOM     33  C   UNL A   1      40.134  26.652  28.197  1.00  0.00    -0.014 A 
BRANCH  33  34
ATOM     34  C   UNL A   1      40.489  27.880  28.958  1.00  0.00     0.031 A 
ATOM     35  C   UNL A   1      41.825  27.997  29.642  1.00  0.00     0.074 A 
ATOM     36  C   UNL A   1      39.580  28.866  29.095  1.00  0.00     0.049 A 
ATOM     37  N   UNL A   1      42.277  28.952  30.416  1.00  0.00    -0.248 NA
ATOM     38  C   UNL A   1      42.766  26.884  29.449  1.00  0.00     0.031 C 
ATOM     39  C   UNL A   1      38.235  28.865  28.517  1.00  0.00     0.029 A 
ATOM     40  N   UNL A   1      39.646  30.058  29.775  1.00  0.00    -0.354 N 
ATOM     41  C   UNL A   1      43.547  28.551  30.810  1.00  0.00     0.074 A 
ATOM     42  C   UNL A   1      43.773  27.242  30.233  1.00  0.00     0.031 C 
ATOM     43  C   UNL A   1      37.612  30.006  28.849  1.00  0.00     0.029 A 
ATOM     44  C   UNL A   1      38.492  30.801  29.700  1.00  0.00     0.049 A 
ATOM     45  H   UNL A   1      40.444  30.352  30.271  1.00  0.00     0.167 HD
ATOM     46  C   UNL A   1      44.452  29.219  31.565  1.00  0.00     0.037 A 
ATOM     47  C   UNL A   1      38.171  31.982  30.263  1.00  0.00     0.037 A 
ATOM     48  C   UNL A   1      44.234  30.527  32.128  1.00  0.00     0.049 A 
ATOM     49  C   UNL A   1      39.182  32.688  31.125  1.00  0.00     0.074 A 
ATOM     50  C   UNL A   1      45.112  31.304  32.864  1.00  0.00     0.029 A 
ATOM     51  N   UNL A   1      43.054  31.246  32.025  1.00  0.00    -0.354 N 
ATOM     52  N   UNL A   1      40.402  32.326  31.435  1.00  0.00    -0.248 NA
ATOM     53  C   UNL A   1      38.770  33.972  31.713  1.00  0.00     0.031 C 
ATOM     54  C   UNL A   1      44.445  32.471  33.251  1.00  0.00     0.029 A 
ATOM     55  C   UNL A   1      43.172  32.448  32.706  1.00  0.00     0.049 A 
ATOM     56  H   UNL A   1      42.251  30.949  31.539  1.00  0.00     0.167 HD
ATOM     57  C   UNL A   1      40.916  33.348  32.224  1.00  0.00     0.074 A 
ATOM     58  C   UNL A   1      39.877  34.352  32.334  1.00  0.00     0.031 C 
ATOM     59  C   UNL A   1      42.137  33.446  32.803  1.00  0.00     0.037 A 
BRANCH  46  60
ATOM     60  C   UNL A   1      45.769  28.544  31.828  1.00  0.00     0.057 A 
ATOM     61  C   UNL A   1      46.873  28.719  30.982  1.00  0.00     0.134 A 
ATOM     62  C   UNL A   1      45.949  27.743  32.963  1.00  0.00     0.134 A 
ATOM     63  F   UNL A   1      46.768  29.467  29.873  1.00  0.00    -0.206 F 
ATOM     64  C   UNL A   1      48.097  28.100  31.239  1.00  0.00     0.040 A 
ATOM     65  C   UNL A   1      47.177  27.142  33.247  1.00  0.00     0.040 A 
ATOM     66  F   UNL A   1      44.939  27.540  33.821  1.00  0.00    -0.206 F 
ATOM     67  C   UNL A   1      48.253  27.314  32.379  1.00  0.00     0.006 A 
ENDBRANCH  46  60
BRANCH  47  68
ATOM     68  C   UNL A   1      36.833  32.584  30.023  1.00  0.00     0.057 A 
ATOM     69  C   UNL A   1      35.748  32.289  30.857  1.00  0.00     0.134 A 
ATOM     70  C   UNL A   1      36.603  33.451  28.949  1.00  0.00     0.134 A 
ATOM     71  F   UNL A   1      35.901  31.449  31.892  1.00  0.00    -0.206 F 
ATOM     72  C   UNL A   1      34.477  32.815  30.618  1.00  0.00     0.040 A 
ATOM     73  C   UNL A   1      35.343  34.006  28.714  1.00  0.00     0.040 A 
ATOM     74  F   UNL A   1      37.601  33.779  28.116  1.00  0.00    -0.206 F 
ATOM     75  C   UNL A   1      34.274  33.680  29.545  1.00  0.00     0.006 A 
ENDBRANCH  47  68
BRANCH  59  76
ATOM     76  C   UNL A   1      42.439  34.700  33.572  1.00  0.00     0.057 A 
ATOM     77  C   UNL A   1      42.225  34.796  34.952  1.00  0.00     0.134 A 
ATOM     78  C   UNL A   1      42.990  35.815  32.926  1.00  0.00     0.134 A 
ATOM     79  F   UNL A   1      41.688  33.770  35.630  1.00  0.00    -0.206 F 
ATOM     80  C   UNL A   1      42.526  35.962  35.659  1.00  0.00     0.040 A 
ATOM     81  C   UNL A   1      43.323  36.976  33.626  1.00  0.00     0.040 A 
ATOM     82  F   UNL A   1      43.229  35.789  31.606  1.00  0.00    -0.206 F 
ATOM     83  C   UNL A   1      43.085  37.053  34.996  1.00  0.00     0.006 A 
ENDBRANCH  59  76
ENDBRANCH  33  34
ENDBRANCH  25  28
ENDBRANCH  23  24
ENDBRANCH   1  23
TORSDOF 12
ENDMDL
