MODEL 1
REMARK VINA RESULT:     -11.4      0.000      0.000
REMARK SMILES CC(C)(C)OC(=O)N1C[C@@H](COCc2ccccc2)O[C@@H](C(=O)NCCCCNC(=O)c2ccc(-c3c4nc(c(-c5c(F)cccc5F)c5ccc([nH]5)c(-c5c(F)cccc5F)c5nc(c(-c6c(F)cccc6F)c6ccc3[nH]6)C=C5)C=C4)cc2)C1
REMARK SMILES IDX 25 1 24 2 22 3 23 4 21 6 8 7 9 8 86 9 10 10 20 11 6 12 7 13
REMARK SMILES IDX 5 14 2 15 1 16 3 17 4 18 11 19 12 20 13 21 14 22 15 23 19 24
REMARK SMILES IDX 16 25 18 26 17 27 26 28 27 29 28 30 29 31 30 32 31 34 32 35
REMARK SMILES IDX 33 36 85 37 34 38 84 39 35 40 36 41 37 42 78 43 38 44 83 45
REMARK SMILES IDX 77 46 79 47 39 48 82 49 76 50 75 51 40 53 66 54 49 55 65 56
REMARK SMILES IDX 50 57 53 58 64 59 80 60 51 61 52 62 63 64 81 65 54 66 41 67
REMARK SMILES IDX 42 68 47 69 43 70 44 71 46 72 48 73 45 74 67 75 68 76 73 77
REMARK SMILES IDX 69 78 70 79 72 80 74 81 71 82 55 83 56 84 61 85 57 86 58 87
REMARK SMILES IDX 60 88 62 89 59 90
REMARK H PARENT 24 5 29 33 79 52 53 63
REMARK Flexibility Score: inf
ROOT
ATOM      1  C   UNL A   1      34.346  29.298  27.238  1.00  0.00     0.116 C 
ENDROOT
BRANCH   1   2
ATOM      2  N   UNL A   1      33.131  28.655  27.707  1.00  0.00    -0.354 N 
ATOM      3  C   UNL A   1      32.238  27.883  27.018  1.00  0.00     0.251 C 
ATOM      4  O   UNL A   1      31.262  27.439  27.629  1.00  0.00    -0.272 OA
ATOM      5  H   UNL A   1      32.922  28.794  28.659  1.00  0.00     0.163 HD
BRANCH   3   6
ATOM      6  C   UNL A   1      32.414  27.632  25.517  1.00  0.00     0.227 C 
ATOM      7  N   UNL A   1      32.902  25.832  23.897  1.00  0.00    -0.302 N 
ATOM      8  C   UNL A   1      31.665  26.167  23.209  1.00  0.00     0.157 C 
ATOM      9  C   UNL A   1      32.927  26.193  25.307  1.00  0.00     0.165 C 
ATOM     10  C   UNL A   1      31.316  27.639  23.391  1.00  0.00     0.164 C 
ATOM     11  O   UNL A   1      31.195  27.921  24.802  1.00  0.00    -0.359 OA
BRANCH   7  12
ATOM     12  C   UNL A   1      33.891  25.056  23.337  1.00  0.00     0.410 C 
ATOM     13  O   UNL A   1      33.850  24.634  22.192  1.00  0.00    -0.224 OA
BRANCH  12  14
ATOM     14  O   UNL A   1      34.870  24.799  24.236  1.00  0.00    -0.444 OA
BRANCH  14  15
ATOM     15  C   UNL A   1      35.400  23.475  24.493  1.00  0.00     0.106 C 
ATOM     16  C   UNL A   1      34.175  22.552  24.412  1.00  0.00     0.056 C 
ATOM     17  C   UNL A   1      35.961  23.456  25.916  1.00  0.00     0.056 C 
ATOM     18  C   UNL A   1      36.437  22.991  23.474  1.00  0.00     0.056 C 
ENDBRANCH  14  15
ENDBRANCH  12  14
ENDBRANCH   7  12
BRANCH  10  19
ATOM     19  C   UNL A   1      30.022  28.057  22.660  1.00  0.00     0.194 C 
BRANCH  19  20
ATOM     20  O   UNL A   1      28.793  27.824  23.357  1.00  0.00    -0.374 OA
BRANCH  20  21
ATOM     21  C   UNL A   1      27.647  28.598  22.991  1.00  0.00     0.195 C 
BRANCH  21  22
ATOM     22  C   UNL A   1      27.903  30.030  22.583  1.00  0.00    -0.022 A 
ATOM     23  C   UNL A   1      28.081  31.032  23.551  1.00  0.00     0.006 A 
ATOM     24  C   UNL A   1      27.971  30.383  21.231  1.00  0.00     0.006 A 
ATOM     25  C   UNL A   1      28.295  32.358  23.178  1.00  0.00     0.000 A 
ATOM     26  C   UNL A   1      28.211  31.707  20.857  1.00  0.00     0.000 A 
ATOM     27  C   UNL A   1      28.364  32.695  21.830  1.00  0.00     0.000 A 
ENDBRANCH  21  22
ENDBRANCH  20  21
ENDBRANCH  19  20
ENDBRANCH  10  19
ENDBRANCH   3   6
ENDBRANCH   1   2
BRANCH   1  28
ATOM     28  C   UNL A   1      34.425  30.757  27.682  1.00  0.00     0.023 C 
BRANCH  28  29
ATOM     29  C   UNL A   1      33.080  31.476  27.769  1.00  0.00     0.023 C 
BRANCH  29  30
ATOM     30  C   UNL A   1      32.997  32.793  27.006  1.00  0.00     0.116 C 
BRANCH  30  31
ATOM     31  N   UNL A   1      32.597  33.913  27.844  1.00  0.00    -0.352 N 
ATOM     32  C   UNL A   1      33.235  34.461  28.928  1.00  0.00     0.251 C 
ATOM     33  H   UNL A   1      31.746  34.340  27.596  1.00  0.00     0.163 HD
ATOM     34  O   UNL A   1      32.680  35.336  29.586  1.00  0.00    -0.269 OA
BRANCH  32  35
ATOM     35  C   UNL A   1      34.573  33.974  29.331  1.00  0.00     0.039 A 
ATOM     36  C   UNL A   1      34.679  33.224  30.505  1.00  0.00     0.014 A 
ATOM     37  C   UNL A   1      35.713  34.249  28.570  1.00  0.00     0.014 A 
ATOM     38  C   UNL A   1      35.916  32.695  30.880  1.00  0.00     0.010 A 
ATOM     39  C   UNL A   1      36.932  33.663  28.907  1.00  0.00     0.010 A 
ATOM     40  C   UNL A   1      37.045  32.881  30.065  1.00  0.00    -0.014 A 
BRANCH  40  41
ATOM     41  C   UNL A   1      38.333  32.233  30.410  1.00  0.00     0.031 A 
ATOM     42  C   UNL A   1      39.273  32.865  31.399  1.00  0.00     0.074 A 
ATOM     43  C   UNL A   1      38.672  31.079  29.804  1.00  0.00     0.049 A 
ATOM     44  N   UNL A   1      40.419  32.420  31.848  1.00  0.00    -0.248 NA
ATOM     45  C   UNL A   1      38.889  34.179  31.935  1.00  0.00     0.031 C 
ATOM     46  C   UNL A   1      37.882  30.402  28.774  1.00  0.00     0.029 A 
ATOM     47  N   UNL A   1      39.768  30.270  29.968  1.00  0.00    -0.354 N 
ATOM     48  C   UNL A   1      40.894  33.397  32.711  1.00  0.00     0.074 A 
ATOM     49  C   UNL A   1      39.938  34.484  32.685  1.00  0.00     0.031 C 
ATOM     50  C   UNL A   1      38.499  29.262  28.426  1.00  0.00     0.029 A 
ATOM     51  C   UNL A   1      39.736  29.138  29.190  1.00  0.00     0.049 A 
ATOM     52  H   UNL A   1      40.506  30.480  30.583  1.00  0.00     0.167 HD
ATOM     53  C   UNL A   1      42.011  33.380  33.478  1.00  0.00     0.037 A 
ATOM     54  C   UNL A   1      40.599  28.109  29.113  1.00  0.00     0.037 A 
ATOM     55  C   UNL A   1      42.950  32.291  33.521  1.00  0.00     0.049 A 
ATOM     56  C   UNL A   1      41.813  28.098  29.998  1.00  0.00     0.074 A 
ATOM     57  C   UNL A   1      44.076  32.152  34.315  1.00  0.00     0.029 A 
ATOM     58  N   UNL A   1      42.874  31.152  32.734  1.00  0.00    -0.354 N 
ATOM     59  N   UNL A   1      42.203  28.991  30.875  1.00  0.00    -0.248 NA
ATOM     60  C   UNL A   1      42.699  26.931  29.891  1.00  0.00     0.031 C 
ATOM     61  C   UNL A   1      44.700  30.944  33.983  1.00  0.00     0.029 A 
ATOM     62  C   UNL A   1      43.942  30.313  33.011  1.00  0.00     0.049 A 
ATOM     63  H   UNL A   1      42.165  30.967  32.076  1.00  0.00     0.167 HD
ATOM     64  C   UNL A   1      43.369  28.486  31.436  1.00  0.00     0.074 A 
ATOM     65  C   UNL A   1      43.608  27.198  30.816  1.00  0.00     0.031 C 
ATOM     66  C   UNL A   1      44.170  29.039  32.380  1.00  0.00     0.037 A 
BRANCH  53  67
ATOM     67  C   UNL A   1      42.269  34.578  34.343  1.00  0.00     0.057 A 
ATOM     68  C   UNL A   1      43.017  35.670  33.884  1.00  0.00     0.134 A 
ATOM     69  C   UNL A   1      41.741  34.657  35.637  1.00  0.00     0.134 A 
ATOM     70  F   UNL A   1      43.562  35.652  32.658  1.00  0.00    -0.206 F 
ATOM     71  C   UNL A   1      43.250  36.787  34.688  1.00  0.00     0.040 A 
ATOM     72  C   UNL A   1      41.946  35.779  36.443  1.00  0.00     0.040 A 
ATOM     73  F   UNL A   1      41.011  33.649  36.138  1.00  0.00    -0.206 F 
ATOM     74  C   UNL A   1      42.708  36.847  35.969  1.00  0.00     0.006 A 
ENDBRANCH  53  67
BRANCH  54  75
ATOM     75  C   UNL A   1      40.320  26.977  28.197  1.00  0.00     0.057 A 
ATOM     76  C   UNL A   1      39.495  25.916  28.593  1.00  0.00     0.134 A 
ATOM     77  C   UNL A   1      40.868  26.925  26.911  1.00  0.00     0.134 A 
ATOM     78  F   UNL A   1      38.957  25.905  29.821  1.00  0.00    -0.206 F 
ATOM     79  C   UNL A   1      39.239  24.836  27.749  1.00  0.00     0.040 A 
ATOM     80  C   UNL A   1      40.602  25.861  26.047  1.00  0.00     0.040 A 
ATOM     81  F   UNL A   1      41.658  27.915  26.471  1.00  0.00    -0.206 F 
ATOM     82  C   UNL A   1      39.790  24.809  26.469  1.00  0.00     0.006 A 
ENDBRANCH  54  75
BRANCH  66  83
ATOM     83  C   UNL A   1      45.370  28.243  32.800  1.00  0.00     0.057 A 
ATOM     84  C   UNL A   1      45.306  27.310  33.842  1.00  0.00     0.134 A 
ATOM     85  C   UNL A   1      46.599  28.409  32.152  1.00  0.00     0.134 A 
ATOM     86  F   UNL A   1      44.159  27.117  34.512  1.00  0.00    -0.206 F 
ATOM     87  C   UNL A   1      46.430  26.588  34.243  1.00  0.00     0.040 A 
ATOM     88  C   UNL A   1      47.725  27.674  32.529  1.00  0.00     0.040 A 
ATOM     89  F   UNL A   1      46.727  29.282  31.142  1.00  0.00    -0.206 F 
ATOM     90  C   UNL A   1      47.644  26.767  33.582  1.00  0.00     0.006 A 
ENDBRANCH  66  83
ENDBRANCH  40  41
ENDBRANCH  32  35
ENDBRANCH  30  31
ENDBRANCH  29  30
ENDBRANCH  28  29
ENDBRANCH   1  28
TORSDOF 18
ENDMDL
MODEL 2
REMARK VINA RESULT:     -11.2      1.370      2.213
REMARK SMILES CC(C)(C)OC(=O)N1C[C@@H](COCc2ccccc2)O[C@@H](C(=O)NCCCCNC(=O)c2ccc(-c3c4nc(c(-c5c(F)cccc5F)c5ccc([nH]5)c(-c5c(F)cccc5F)c5nc(c(-c6c(F)cccc6F)c6ccc3[nH]6)C=C5)C=C4)cc2)C1
REMARK SMILES IDX 25 1 24 2 22 3 23 4 21 6 8 7 9 8 86 9 10 10 20 11 6 12 7 13
REMARK SMILES IDX 5 14 2 15 1 16 3 17 4 18 11 19 12 20 13 21 14 22 15 23 19 24
REMARK SMILES IDX 16 25 18 26 17 27 26 28 27 29 28 30 29 31 30 32 31 34 32 35
REMARK SMILES IDX 33 36 85 37 34 38 84 39 35 40 36 41 37 42 78 43 38 44 83 45
REMARK SMILES IDX 77 46 79 47 39 48 82 49 76 50 75 51 40 53 66 54 49 55 65 56
REMARK SMILES IDX 50 57 53 58 64 59 80 60 51 61 52 62 63 64 81 65 54 66 41 67
REMARK SMILES IDX 42 68 47 69 43 70 44 71 46 72 48 73 45 74 67 75 68 76 73 77
REMARK SMILES IDX 69 78 70 79 72 80 74 81 71 82 55 83 56 84 61 85 57 86 58 87
REMARK SMILES IDX 60 88 62 89 59 90
REMARK H PARENT 24 5 29 33 79 52 53 63
REMARK Flexibility Score: inf
ROOT
ATOM      1  C   UNL A   1      32.778  29.701  26.202  1.00  0.00     0.116 C 
ENDROOT
BRANCH   1   2
ATOM      2  N   UNL A   1      33.345  29.682  24.865  1.00  0.00    -0.354 N 
ATOM      3  C   UNL A   1      33.212  28.742  23.882  1.00  0.00     0.251 C 
ATOM      4  O   UNL A   1      33.795  28.936  22.812  1.00  0.00    -0.272 OA
ATOM      5  H   UNL A   1      33.906  30.457  24.634  1.00  0.00     0.163 HD
BRANCH   3   6
ATOM      6  C   UNL A   1      32.412  27.459  24.128  1.00  0.00     0.227 C 
ATOM      7  N   UNL A   1      31.907  25.796  25.884  1.00  0.00    -0.302 N 
ATOM      8  C   UNL A   1      30.492  26.071  25.685  1.00  0.00     0.157 C 
ATOM      9  C   UNL A   1      32.794  26.887  25.508  1.00  0.00     0.165 C 
ATOM     10  C   UNL A   1      30.215  26.519  24.256  1.00  0.00     0.164 C 
ATOM     11  O   UNL A   1      30.997  27.699  23.974  1.00  0.00    -0.359 OA
BRANCH   7  12
ATOM     12  C   UNL A   1      32.374  24.692  26.558  1.00  0.00     0.410 C 
ATOM     13  O   UNL A   1      31.708  24.064  27.367  1.00  0.00    -0.224 OA
BRANCH  12  14
ATOM     14  O   UNL A   1      33.664  24.437  26.234  1.00  0.00    -0.444 OA
BRANCH  14  15
ATOM     15  C   UNL A   1      34.072  23.399  25.308  1.00  0.00     0.106 C 
ATOM     16  C   UNL A   1      35.010  22.503  26.131  1.00  0.00     0.056 C 
ATOM     17  C   UNL A   1      34.858  24.058  24.174  1.00  0.00     0.056 C 
ATOM     18  C   UNL A   1      32.927  22.535  24.771  1.00  0.00     0.056 C 
ENDBRANCH  14  15
ENDBRANCH  12  14
ENDBRANCH   7  12
BRANCH  10  19
ATOM     19  C   UNL A   1      28.722  26.802  23.981  1.00  0.00     0.194 C 
BRANCH  19  20
ATOM     20  O   UNL A   1      28.432  27.719  22.920  1.00  0.00    -0.374 OA
BRANCH  20  21
ATOM     21  C   UNL A   1      27.426  28.712  23.136  1.00  0.00     0.195 C 
BRANCH  21  22
ATOM     22  C   UNL A   1      27.747  30.111  22.667  1.00  0.00    -0.022 A 
ATOM     23  C   UNL A   1      27.928  30.388  21.302  1.00  0.00     0.006 A 
ATOM     24  C   UNL A   1      27.866  31.160  23.585  1.00  0.00     0.006 A 
ATOM     25  C   UNL A   1      28.247  31.674  20.867  1.00  0.00     0.000 A 
ATOM     26  C   UNL A   1      28.158  32.454  23.148  1.00  0.00     0.000 A 
ATOM     27  C   UNL A   1      28.358  32.708  21.791  1.00  0.00     0.000 A 
ENDBRANCH  21  22
ENDBRANCH  20  21
ENDBRANCH  19  20
ENDBRANCH  10  19
ENDBRANCH   3   6
ENDBRANCH   1   2
BRANCH   1  28
ATOM     28  C   UNL A   1      31.388  30.333  26.222  1.00  0.00     0.023 C 
BRANCH  28  29
ATOM     29  C   UNL A   1      31.376  31.855  26.353  1.00  0.00     0.023 C 
BRANCH  29  30
ATOM     30  C   UNL A   1      32.511  32.445  27.181  1.00  0.00     0.116 C 
BRANCH  30  31
ATOM     31  N   UNL A   1      32.274  33.825  27.573  1.00  0.00    -0.352 N 
ATOM     32  C   UNL A   1      32.991  34.624  28.427  1.00  0.00     0.251 C 
ATOM     33  H   UNL A   1      31.484  34.248  27.165  1.00  0.00     0.163 HD
ATOM     34  O   UNL A   1      32.566  35.735  28.729  1.00  0.00    -0.269 OA
BRANCH  32  35
ATOM     35  C   UNL A   1      34.257  34.136  29.019  1.00  0.00     0.039 A 
ATOM     36  C   UNL A   1      34.189  33.328  30.157  1.00  0.00     0.014 A 
ATOM     37  C   UNL A   1      35.498  34.465  28.466  1.00  0.00     0.014 A 
ATOM     38  C   UNL A   1      35.360  32.799  30.701  1.00  0.00     0.010 A 
ATOM     39  C   UNL A   1      36.660  33.880  28.968  1.00  0.00     0.010 A 
ATOM     40  C   UNL A   1      36.601  33.042  30.091  1.00  0.00    -0.014 A 
BRANCH  40  41
ATOM     41  C   UNL A   1      37.832  32.395  30.609  1.00  0.00     0.031 A 
ATOM     42  C   UNL A   1      38.524  32.927  31.832  1.00  0.00     0.074 A 
ATOM     43  C   UNL A   1      38.345  31.338  29.952  1.00  0.00     0.049 A 
ATOM     44  N   UNL A   1      39.584  32.464  32.447  1.00  0.00    -0.248 NA
ATOM     45  C   UNL A   1      37.971  34.151  32.431  1.00  0.00     0.031 C 
ATOM     46  C   UNL A   1      37.809  30.771  28.713  1.00  0.00     0.029 A 
ATOM     47  N   UNL A   1      39.430  30.548  30.236  1.00  0.00    -0.354 N 
ATOM     48  C   UNL A   1      39.826  33.340  33.496  1.00  0.00     0.074 A 
ATOM     49  C   UNL A   1      38.835  34.391  33.406  1.00  0.00     0.031 C 
ATOM     50  C   UNL A   1      38.544  29.702  28.365  1.00  0.00     0.029 A 
ATOM     51  C   UNL A   1      39.613  29.522  29.341  1.00  0.00     0.049 A 
ATOM     52  H   UNL A   1      40.022  30.702  31.007  1.00  0.00     0.167 HD
ATOM     53  C   UNL A   1      40.771  33.261  34.464  1.00  0.00     0.037 A 
ATOM     54  C   UNL A   1      40.530  28.537  29.320  1.00  0.00     0.037 A 
ATOM     55  C   UNL A   1      41.743  32.204  34.567  1.00  0.00     0.049 A 
ATOM     56  C   UNL A   1      41.546  28.453  30.422  1.00  0.00     0.074 A 
ATOM     57  C   UNL A   1      42.698  32.001  35.548  1.00  0.00     0.029 A 
ATOM     58  N   UNL A   1      41.884  31.171  33.652  1.00  0.00    -0.354 N 
ATOM     59  N   UNL A   1      41.709  29.240  31.458  1.00  0.00    -0.248 NA
ATOM     60  C   UNL A   1      42.499  27.336  30.359  1.00  0.00     0.031 C 
ATOM     61  C   UNL A   1      43.440  30.865  35.209  1.00  0.00     0.029 A 
ATOM     62  C   UNL A   1      42.922  30.337  34.038  1.00  0.00     0.049 A 
ATOM     63  H   UNL A   1      41.329  31.048  32.849  1.00  0.00     0.167 HD
ATOM     64  C   UNL A   1      42.768  28.705  32.178  1.00  0.00     0.074 A 
ATOM     65  C   UNL A   1      43.194  27.513  31.472  1.00  0.00     0.031 C 
ATOM     66  C   UNL A   1      43.338  29.159  33.321  1.00  0.00     0.037 A 
BRANCH  53  67
ATOM     67  C   UNL A   1      40.790  34.349  35.497  1.00  0.00     0.057 A 
ATOM     68  C   UNL A   1      40.045  34.253  36.679  1.00  0.00     0.134 A 
ATOM     69  C   UNL A   1      41.585  35.488  35.325  1.00  0.00     0.134 A 
ATOM     70  F   UNL A   1      39.252  33.193  36.899  1.00  0.00    -0.206 F 
ATOM     71  C   UNL A   1      40.070  35.263  37.643  1.00  0.00     0.040 A 
ATOM     72  C   UNL A   1      41.638  36.494  36.293  1.00  0.00     0.040 A 
ATOM     73  F   UNL A   1      42.329  35.641  34.219  1.00  0.00    -0.206 F 
ATOM     74  C   UNL A   1      40.874  36.385  37.454  1.00  0.00     0.006 A 
ENDBRANCH  53  67
BRANCH  54  75
ATOM     75  C   UNL A   1      40.498  27.521  28.240  1.00  0.00     0.057 A 
ATOM     76  C   UNL A   1      41.185  27.727  27.037  1.00  0.00     0.134 A 
ATOM     77  C   UNL A   1      39.782  26.327  28.381  1.00  0.00     0.134 A 
ATOM     78  F   UNL A   1      41.874  28.860  26.840  1.00  0.00    -0.206 F 
ATOM     79  C   UNL A   1      41.149  26.789  26.006  1.00  0.00     0.040 A 
ATOM     80  C   UNL A   1      39.755  25.370  27.366  1.00  0.00     0.040 A 
ATOM     81  F   UNL A   1      39.111  26.069  29.513  1.00  0.00    -0.206 F 
ATOM     82  C   UNL A   1      40.435  25.603  26.171  1.00  0.00     0.006 A 
ENDBRANCH  54  75
BRANCH  66  83
ATOM     83  C   UNL A   1      44.475  28.355  33.878  1.00  0.00     0.057 A 
ATOM     84  C   UNL A   1      44.259  27.290  34.761  1.00  0.00     0.134 A 
ATOM     85  C   UNL A   1      45.797  28.644  33.520  1.00  0.00     0.134 A 
ATOM     86  F   UNL A   1      43.015  26.974  35.153  1.00  0.00    -0.206 F 
ATOM     87  C   UNL A   1      45.322  26.558  35.293  1.00  0.00     0.040 A 
ATOM     88  C   UNL A   1      46.866  27.903  34.026  1.00  0.00     0.040 A 
ATOM     89  F   UNL A   1      46.072  29.647  32.672  1.00  0.00    -0.206 F 
ATOM     90  C   UNL A   1      46.630  26.862  34.921  1.00  0.00     0.006 A 
ENDBRANCH  66  83
ENDBRANCH  40  41
ENDBRANCH  32  35
ENDBRANCH  30  31
ENDBRANCH  29  30
ENDBRANCH  28  29
ENDBRANCH   1  28
TORSDOF 18
ENDMDL
MODEL 3
REMARK VINA RESULT:     -11.1      4.348      9.887
REMARK SMILES CC(C)(C)OC(=O)N1C[C@@H](COCc2ccccc2)O[C@@H](C(=O)NCCCCNC(=O)c2ccc(-c3c4nc(c(-c5c(F)cccc5F)c5ccc([nH]5)c(-c5c(F)cccc5F)c5nc(c(-c6c(F)cccc6F)c6ccc3[nH]6)C=C5)C=C4)cc2)C1
REMARK SMILES IDX 25 1 24 2 22 3 23 4 21 6 8 7 9 8 86 9 10 10 20 11 6 12 7 13
REMARK SMILES IDX 5 14 2 15 1 16 3 17 4 18 11 19 12 20 13 21 14 22 15 23 19 24
REMARK SMILES IDX 16 25 18 26 17 27 26 28 27 29 28 30 29 31 30 32 31 34 32 35
REMARK SMILES IDX 33 36 85 37 34 38 84 39 35 40 36 41 37 42 78 43 38 44 83 45
REMARK SMILES IDX 77 46 79 47 39 48 82 49 76 50 75 51 40 53 66 54 49 55 65 56
REMARK SMILES IDX 50 57 53 58 64 59 80 60 51 61 52 62 63 64 81 65 54 66 41 67
REMARK SMILES IDX 42 68 47 69 43 70 44 71 46 72 48 73 45 74 67 75 68 76 73 77
REMARK SMILES IDX 69 78 70 79 72 80 74 81 71 82 55 83 56 84 61 85 57 86 58 87
REMARK SMILES IDX 60 88 62 89 59 90
REMARK H PARENT 24 5 29 33 79 52 53 63
REMARK Flexibility Score: inf
ROOT
ATOM      1  C   UNL A   1      36.217  21.791  25.197  1.00  0.00     0.116 C 
ENDROOT
BRANCH   1   2
ATOM      2  N   UNL A   1      35.501  22.088  26.425  1.00  0.00    -0.354 N 
ATOM      3  C   UNL A   1      34.271  22.661  26.593  1.00  0.00     0.251 C 
ATOM      4  O   UNL A   1      33.860  22.823  27.745  1.00  0.00    -0.272 OA
ATOM      5  H   UNL A   1      35.969  21.842  27.256  1.00  0.00     0.163 HD
BRANCH   3   6
ATOM      6  C   UNL A   1      33.460  23.142  25.387  1.00  0.00     0.227 C 
ATOM      7  N   UNL A   1      33.616  24.612  23.407  1.00  0.00    -0.302 N 
ATOM      8  C   UNL A   1      33.272  23.468  22.577  1.00  0.00     0.157 C 
ATOM      9  C   UNL A   1      34.235  24.272  24.680  1.00  0.00     0.165 C 
ATOM     10  C   UNL A   1      32.411  22.471  23.343  1.00  0.00     0.164 C 
ATOM     11  O   UNL A   1      33.128  22.038  24.519  1.00  0.00    -0.359 OA
BRANCH   7  12
ATOM     12  C   UNL A   1      33.560  25.912  22.961  1.00  0.00     0.410 C 
ATOM     13  O   UNL A   1      34.026  26.280  21.894  1.00  0.00    -0.224 OA
BRANCH  12  14
ATOM     14  O   UNL A   1      32.966  26.712  23.877  1.00  0.00    -0.444 OA
BRANCH  14  15
ATOM     15  C   UNL A   1      31.548  27.013  23.885  1.00  0.00     0.106 C 
ATOM     16  C   UNL A   1      31.438  28.306  24.708  1.00  0.00     0.056 C 
ATOM     17  C   UNL A   1      30.826  25.879  24.614  1.00  0.00     0.056 C 
ATOM     18  C   UNL A   1      30.940  27.269  22.502  1.00  0.00     0.056 C 
ENDBRANCH  14  15
ENDBRANCH  12  14
ENDBRANCH   7  12
BRANCH  10  19
ATOM     19  C   UNL A   1      31.995  21.245  22.501  1.00  0.00     0.194 C 
BRANCH  19  20
ATOM     20  O   UNL A   1      31.904  19.997  23.196  1.00  0.00    -0.374 OA
BRANCH  20  21
ATOM     21  C   UNL A   1      32.523  18.848  22.611  1.00  0.00     0.195 C 
BRANCH  21  22
ATOM     22  C   UNL A   1      33.022  17.790  23.568  1.00  0.00    -0.022 A 
ATOM     23  C   UNL A   1      32.441  17.638  24.838  1.00  0.00     0.006 A 
ATOM     24  C   UNL A   1      34.071  16.939  23.204  1.00  0.00     0.006 A 
ATOM     25  C   UNL A   1      32.913  16.677  25.731  1.00  0.00     0.000 A 
ATOM     26  C   UNL A   1      34.527  15.960  24.088  1.00  0.00     0.000 A 
ATOM     27  C   UNL A   1      33.955  15.835  25.354  1.00  0.00     0.000 A 
ENDBRANCH  21  22
ENDBRANCH  20  21
ENDBRANCH  19  20
ENDBRANCH  10  19
ENDBRANCH   3   6
ENDBRANCH   1   2
BRANCH   1  28
ATOM     28  C   UNL A   1      36.455  20.291  25.027  1.00  0.00     0.023 C 
BRANCH  28  29
ATOM     29  C   UNL A   1      37.889  19.906  24.663  1.00  0.00     0.023 C 
BRANCH  29  30
ATOM     30  C   UNL A   1      38.910  20.073  25.782  1.00  0.00     0.116 C 
BRANCH  30  31
ATOM     31  N   UNL A   1      39.961  19.069  25.749  1.00  0.00    -0.352 N 
ATOM     32  C   UNL A   1      41.310  19.212  25.960  1.00  0.00     0.251 C 
ATOM     33  H   UNL A   1      39.662  18.153  25.546  1.00  0.00     0.163 HD
ATOM     34  O   UNL A   1      42.062  18.262  25.771  1.00  0.00    -0.269 OA
BRANCH  32  35
ATOM     35  C   UNL A   1      41.865  20.519  26.376  1.00  0.00     0.039 A 
ATOM     36  C   UNL A   1      42.200  21.444  25.384  1.00  0.00     0.014 A 
ATOM     37  C   UNL A   1      42.056  20.837  27.724  1.00  0.00     0.014 A 
ATOM     38  C   UNL A   1      42.666  22.709  25.745  1.00  0.00     0.010 A 
ATOM     39  C   UNL A   1      42.454  22.124  28.085  1.00  0.00     0.010 A 
ATOM     40  C   UNL A   1      42.763  23.071  27.098  1.00  0.00    -0.014 A 
BRANCH  40  41
ATOM     41  C   UNL A   1      43.159  24.449  27.479  1.00  0.00     0.031 A 
ATOM     42  C   UNL A   1      44.594  24.888  27.398  1.00  0.00     0.074 A 
ATOM     43  C   UNL A   1      42.219  25.301  27.932  1.00  0.00     0.049 A 
ATOM     44  N   UNL A   1      45.112  26.064  27.652  1.00  0.00    -0.248 NA
ATOM     45  C   UNL A   1      45.580  23.871  27.003  1.00  0.00     0.031 C 
ATOM     46  C   UNL A   1      40.806  24.975  28.126  1.00  0.00     0.029 A 
ATOM     47  N   UNL A   1      42.311  26.618  28.306  1.00  0.00    -0.354 N 
ATOM     48  C   UNL A   1      46.479  25.926  27.454  1.00  0.00     0.074 A 
ATOM     49  C   UNL A   1      46.718  24.540  27.110  1.00  0.00     0.031 C 
ATOM     50  C   UNL A   1      40.156  26.072  28.548  1.00  0.00     0.029 A 
ATOM     51  C   UNL A   1      41.108  27.170  28.673  1.00  0.00     0.049 A 
ATOM     52  H   UNL A   1      43.158  27.119  28.313  1.00  0.00     0.167 HD
ATOM     53  C   UNL A   1      47.445  26.873  27.526  1.00  0.00     0.037 A 
ATOM     54  C   UNL A   1      40.805  28.425  29.053  1.00  0.00     0.037 A 
ATOM     55  C   UNL A   1      47.205  28.255  27.847  1.00  0.00     0.049 A 
ATOM     56  C   UNL A   1      41.887  29.464  29.093  1.00  0.00     0.074 A 
ATOM     57  C   UNL A   1      48.108  29.304  27.880  1.00  0.00     0.029 A 
ATOM     58  N   UNL A   1      45.969  28.782  28.193  1.00  0.00    -0.354 N 
ATOM     59  N   UNL A   1      43.163  29.339  28.818  1.00  0.00    -0.248 NA
ATOM     60  C   UNL A   1      41.486  30.822  29.483  1.00  0.00     0.031 C 
ATOM     61  C   UNL A   1      47.425  30.459  28.280  1.00  0.00     0.029 A 
ATOM     62  C   UNL A   1      46.090  30.137  28.458  1.00  0.00     0.049 A 
ATOM     63  H   UNL A   1      45.131  28.269  28.243  1.00  0.00     0.167 HD
ATOM     64  C   UNL A   1      43.713  30.603  28.984  1.00  0.00     0.074 A 
ATOM     65  C   UNL A   1      42.626  31.485  29.362  1.00  0.00     0.031 C 
ATOM     66  C   UNL A   1      45.001  30.999  28.840  1.00  0.00     0.037 A 
BRANCH  53  67
ATOM     67  C   UNL A   1      48.854  26.443  27.240  1.00  0.00     0.057 A 
ATOM     68  C   UNL A   1      49.708  26.000  28.258  1.00  0.00     0.134 A 
ATOM     69  C   UNL A   1      49.352  26.441  25.932  1.00  0.00     0.134 A 
ATOM     70  F   UNL A   1      49.296  25.989  29.535  1.00  0.00    -0.206 F 
ATOM     71  C   UNL A   1      51.016  25.592  27.989  1.00  0.00     0.040 A 
ATOM     72  C   UNL A   1      50.650  26.014  25.646  1.00  0.00     0.040 A 
ATOM     73  F   UNL A   1      48.585  26.849  24.909  1.00  0.00    -0.206 F 
ATOM     74  C   UNL A   1      51.488  25.592  26.678  1.00  0.00     0.006 A 
ENDBRANCH  53  67
BRANCH  54  75
ATOM     75  C   UNL A   1      39.402  28.779  29.379  1.00  0.00     0.057 A 
ATOM     76  C   UNL A   1      38.906  28.629  30.680  1.00  0.00     0.134 A 
ATOM     77  C   UNL A   1      38.527  29.273  28.406  1.00  0.00     0.134 A 
ATOM     78  F   UNL A   1      39.694  28.145  31.650  1.00  0.00    -0.206 F 
ATOM     79  C   UNL A   1      37.584  28.940  30.997  1.00  0.00     0.040 A 
ATOM     80  C   UNL A   1      37.208  29.609  28.714  1.00  0.00     0.040 A 
ATOM     81  F   UNL A   1      38.946  29.446  27.143  1.00  0.00    -0.206 F 
ATOM     82  C   UNL A   1      36.732  29.437  30.012  1.00  0.00     0.006 A 
ENDBRANCH  54  75
BRANCH  66  83
ATOM     83  C   UNL A   1      45.295  32.450  29.080  1.00  0.00     0.057 A 
ATOM     84  C   UNL A   1      45.693  32.921  30.338  1.00  0.00     0.134 A 
ATOM     85  C   UNL A   1      45.188  33.382  28.042  1.00  0.00     0.134 A 
ATOM     86  F   UNL A   1      45.800  32.079  31.377  1.00  0.00    -0.206 F 
ATOM     87  C   UNL A   1      45.945  34.276  30.561  1.00  0.00     0.040 A 
ATOM     88  C   UNL A   1      45.462  34.735  28.248  1.00  0.00     0.040 A 
ATOM     89  F   UNL A   1      44.819  32.995  26.811  1.00  0.00    -0.206 F 
ATOM     90  C   UNL A   1      45.834  35.186  29.512  1.00  0.00     0.006 A 
ENDBRANCH  66  83
ENDBRANCH  40  41
ENDBRANCH  32  35
ENDBRANCH  30  31
ENDBRANCH  29  30
ENDBRANCH  28  29
ENDBRANCH   1  28
TORSDOF 18
ENDMDL
