MODEL 1
REMARK VINA RESULT:     -11.7      0.000      0.000
REMARK SMILES C[C@@H]1Oc2c(C(=O)NCCCCNC(=O)c3ccc(-c4c5nc(c(-c6c(F)cccc6F)c6ccc([nH]6)c(-c6c(F)cccc6F)c6nc(c(-c7c(F)cccc7F)c7ccc4[nH]7)C=C6)C=C5)cc3)cccc2[C@@H]1C
REMARK SMILES IDX 11 1 10 2 9 3 8 4 6 5 7 6 5 8 1 9 2 10 3 11 74 12 4 13 73 14
REMARK SMILES IDX 75 15 72 16 70 17 71 18 12 19 13 20 14 21 15 23 16 24 17 25
REMARK SMILES IDX 69 26 18 27 68 28 19 29 20 30 21 31 62 32 22 33 67 34 61 35
REMARK SMILES IDX 63 36 23 37 66 38 60 39 59 40 24 42 50 43 33 44 49 45 34 46
REMARK SMILES IDX 37 47 48 48 64 49 35 50 36 51 47 53 65 54 38 55 25 56 26 57
REMARK SMILES IDX 31 58 27 59 28 60 30 61 32 62 29 63 51 64 52 65 57 66 53 67
REMARK SMILES IDX 54 68 56 69 58 70 55 71 39 72 40 73 45 74 41 75 42 76 44 77
REMARK SMILES IDX 46 78 43 79
REMARK H PARENT 8 7 13 22 63 41 37 52
REMARK Flexibility Score: inf
ROOT
ATOM      1  C   UNL A   1      30.818  31.562  26.104  1.00  0.00     0.023 C 
ENDROOT
BRANCH   1   2
ATOM      2  C   UNL A   1      30.267  32.305  24.884  1.00  0.00     0.023 C 
BRANCH   2   3
ATOM      3  C   UNL A   1      29.052  31.636  24.231  1.00  0.00     0.116 C 
BRANCH   3   4
ATOM      4  N   UNL A   1      29.374  31.183  22.895  1.00  0.00    -0.352 N 
ATOM      5  C   UNL A   1      29.644  29.949  22.353  1.00  0.00     0.255 C 
ATOM      6  O   UNL A   1      29.930  29.958  21.155  1.00  0.00    -0.269 OA
ATOM      7  H   UNL A   1      29.408  31.912  22.235  1.00  0.00     0.163 HD
BRANCH   5   8
ATOM      8  C   UNL A   1      29.597  28.661  23.118  1.00  0.00     0.082 A 
ATOM      9  C   UNL A   1      33.624  28.961  25.607  1.00  0.00     0.053 C 
ATOM     10  C   UNL A   1      32.809  28.075  24.675  1.00  0.00     0.177 C 
ATOM     11  O   UNL A   1      31.906  28.927  23.932  1.00  0.00    -0.489 OA
ATOM     12  C   UNL A   1      31.999  26.945  25.350  1.00  0.00     0.060 C 
ATOM     13  C   UNL A   1      30.721  28.242  23.835  1.00  0.00     0.136 A 
ATOM     14  C   UNL A   1      30.727  27.070  24.588  1.00  0.00     0.001 A 
ATOM     15  C   UNL A   1      31.749  27.095  26.848  1.00  0.00     0.017 C 
ATOM     16  C   UNL A   1      29.622  26.237  24.633  1.00  0.00     0.008 A 
ATOM     17  C   UNL A   1      28.463  27.840  23.227  1.00  0.00     0.018 A 
ATOM     18  C   UNL A   1      28.481  26.633  23.949  1.00  0.00     0.001 A 
ENDBRANCH   5   8
ENDBRANCH   3   4
ENDBRANCH   2   3
ENDBRANCH   1   2
BRANCH   1  19
ATOM     19  C   UNL A   1      32.180  32.049  26.586  1.00  0.00     0.116 C 
BRANCH  19  20
ATOM     20  N   UNL A   1      32.147  33.368  27.199  1.00  0.00    -0.352 N 
ATOM     21  C   UNL A   1      33.087  33.950  28.022  1.00  0.00     0.251 C 
ATOM     22  H   UNL A   1      31.353  33.915  26.999  1.00  0.00     0.163 HD
ATOM     23  O   UNL A   1      32.884  35.041  28.531  1.00  0.00    -0.269 OA
BRANCH  21  24
ATOM     24  C   UNL A   1      34.322  33.196  28.330  1.00  0.00     0.039 A 
ATOM     25  C   UNL A   1      34.258  31.853  28.704  1.00  0.00     0.014 A 
ATOM     26  C   UNL A   1      35.543  33.875  28.325  1.00  0.00     0.014 A 
ATOM     27  C   UNL A   1      35.382  31.240  29.245  1.00  0.00     0.010 A 
ATOM     28  C   UNL A   1      36.689  33.232  28.800  1.00  0.00     0.010 A 
ATOM     29  C   UNL A   1      36.602  31.931  29.321  1.00  0.00    -0.014 A 
BRANCH  29  30
ATOM     30  C   UNL A   1      37.757  31.297  30.004  1.00  0.00     0.031 A 
ATOM     31  C   UNL A   1      38.019  31.565  31.463  1.00  0.00     0.074 A 
ATOM     32  C   UNL A   1      38.534  30.429  29.330  1.00  0.00     0.049 A 
ATOM     33  N   UNL A   1      38.975  31.102  32.231  1.00  0.00    -0.248 NA
ATOM     34  C   UNL A   1      37.089  32.473  32.152  1.00  0.00     0.031 C 
ATOM     35  C   UNL A   1      38.369  30.068  27.921  1.00  0.00     0.029 A 
ATOM     36  N   UNL A   1      39.601  29.676  29.746  1.00  0.00    -0.354 N 
ATOM     37  C   UNL A   1      38.775  31.677  33.479  1.00  0.00     0.074 A 
ATOM     38  C   UNL A   1      37.621  32.544  33.364  1.00  0.00     0.031 C 
ATOM     39  C   UNL A   1      39.274  29.130  27.601  1.00  0.00     0.029 A 
ATOM     40  C   UNL A   1      40.114  28.865  28.764  1.00  0.00     0.049 A 
ATOM     41  H   UNL A   1      39.964  29.713  30.660  1.00  0.00     0.167 HD
ATOM     42  C   UNL A   1      39.479  31.494  34.621  1.00  0.00     0.037 A 
ATOM     43  C   UNL A   1      41.155  28.014  28.794  1.00  0.00     0.037 A 
ATOM     44  C   UNL A   1      40.610  30.612  34.747  1.00  0.00     0.049 A 
ATOM     45  C   UNL A   1      41.944  27.859  30.061  1.00  0.00     0.074 A 
ATOM     46  C   UNL A   1      41.379  30.346  35.867  1.00  0.00     0.029 A 
ATOM     47  N   UNL A   1      41.131  29.847  33.714  1.00  0.00    -0.354 N 
ATOM     48  N   UNL A   1      41.745  28.416  31.231  1.00  0.00    -0.248 NA
ATOM     49  C   UNL A   1      43.108  26.965  30.008  1.00  0.00     0.031 C 
ATOM     50  C   UNL A   1      42.384  29.442  35.504  1.00  0.00     0.029 A 
ATOM     51  C   UNL A   1      42.221  29.121  34.167  1.00  0.00     0.049 A 
ATOM     52  H   UNL A   1      40.779  29.824  32.794  1.00  0.00     0.167 HD
ATOM     53  C   UNL A   1      42.751  27.933  32.056  1.00  0.00     0.074 A 
ATOM     54  C   UNL A   1      43.546  27.021  31.258  1.00  0.00     0.031 C 
ATOM     55  C   UNL A   1      43.000  28.221  33.356  1.00  0.00     0.037 A 
BRANCH  42  56
ATOM     56  C   UNL A   1      39.054  32.277  35.828  1.00  0.00     0.057 A 
ATOM     57  C   UNL A   1      38.200  31.710  36.783  1.00  0.00     0.134 A 
ATOM     58  C   UNL A   1      39.465  33.601  36.034  1.00  0.00     0.134 A 
ATOM     59  F   UNL A   1      37.765  30.449  36.644  1.00  0.00    -0.206 F 
ATOM     60  C   UNL A   1      37.771  32.431  37.899  1.00  0.00     0.040 A 
ATOM     61  C   UNL A   1      39.060  34.325  37.156  1.00  0.00     0.040 A 
ATOM     62  F   UNL A   1      40.296  34.197  35.164  1.00  0.00    -0.206 F 
ATOM     63  C   UNL A   1      38.205  33.741  38.090  1.00  0.00     0.006 A 
ENDBRANCH  42  56
BRANCH  43  64
ATOM     64  C   UNL A   1      41.520  27.249  27.578  1.00  0.00     0.057 A 
ATOM     65  C   UNL A   1      42.347  27.799  26.592  1.00  0.00     0.134 A 
ATOM     66  C   UNL A   1      41.053  25.944  27.379  1.00  0.00     0.134 A 
ATOM     67  F   UNL A   1      42.821  29.046  26.725  1.00  0.00    -0.206 F 
ATOM     68  C   UNL A   1      42.689  27.083  25.444  1.00  0.00     0.040 A 
ATOM     69  C   UNL A   1      41.408  25.208  26.247  1.00  0.00     0.040 A 
ATOM     70  F   UNL A   1      40.275  25.358  28.299  1.00  0.00    -0.206 F 
ATOM     71  C   UNL A   1      42.225  25.780  25.273  1.00  0.00     0.006 A 
ENDBRANCH  43  64
BRANCH  55  72
ATOM     72  C   UNL A   1      44.166  27.527  33.992  1.00  0.00     0.057 A 
ATOM     73  C   UNL A   1      44.011  26.271  34.589  1.00  0.00     0.134 A 
ATOM     74  C   UNL A   1      45.440  28.108  34.019  1.00  0.00     0.134 A 
ATOM     75  F   UNL A   1      42.815  25.664  34.601  1.00  0.00    -0.206 F 
ATOM     76  C   UNL A   1      45.085  25.614  35.191  1.00  0.00     0.040 A 
ATOM     77  C   UNL A   1      46.527  27.451  34.598  1.00  0.00     0.040 A 
ATOM     78  F   UNL A   1      45.655  29.303  33.448  1.00  0.00    -0.206 F 
ATOM     79  C   UNL A   1      46.349  26.201  35.190  1.00  0.00     0.006 A 
ENDBRANCH  55  72
ENDBRANCH  29  30
ENDBRANCH  21  24
ENDBRANCH  19  20
ENDBRANCH   1  19
TORSDOF 11
ENDMDL
MODEL 2
REMARK VINA RESULT:     -11.7      5.375     10.239
REMARK SMILES C[C@@H]1Oc2c(C(=O)NCCCCNC(=O)c3ccc(-c4c5nc(c(-c6c(F)cccc6F)c6ccc([nH]6)c(-c6c(F)cccc6F)c6nc(c(-c7c(F)cccc7F)c7ccc4[nH]7)C=C6)C=C5)cc3)cccc2[C@@H]1C
REMARK SMILES IDX 11 1 10 2 9 3 8 4 6 5 7 6 5 8 1 9 2 10 3 11 74 12 4 13 73 14
REMARK SMILES IDX 75 15 72 16 70 17 71 18 12 19 13 20 14 21 15 23 16 24 17 25
REMARK SMILES IDX 69 26 18 27 68 28 19 29 20 30 21 31 62 32 22 33 67 34 61 35
REMARK SMILES IDX 63 36 23 37 66 38 60 39 59 40 24 42 50 43 33 44 49 45 34 46
REMARK SMILES IDX 37 47 48 48 64 49 35 50 36 51 47 53 65 54 38 55 25 56 26 57
REMARK SMILES IDX 31 58 27 59 28 60 30 61 32 62 29 63 51 64 52 65 57 66 53 67
REMARK SMILES IDX 54 68 56 69 58 70 55 71 39 72 40 73 45 74 41 75 42 76 44 77
REMARK SMILES IDX 46 78 43 79
REMARK H PARENT 8 7 13 22 63 41 37 52
REMARK Flexibility Score: inf
ROOT
ATOM      1  C   UNL A   1      37.707  20.432  24.999  1.00  0.00     0.023 C 
ENDROOT
BRANCH   1   2
ATOM      2  C   UNL A   1      37.114  21.724  24.429  1.00  0.00     0.023 C 
BRANCH   2   3
ATOM      3  C   UNL A   1      36.789  22.789  25.482  1.00  0.00     0.116 C 
BRANCH   3   4
ATOM      4  N   UNL A   1      35.923  22.247  26.508  1.00  0.00    -0.352 N 
ATOM      5  C   UNL A   1      34.615  21.824  26.516  1.00  0.00     0.255 C 
ATOM      6  O   UNL A   1      34.193  21.461  27.615  1.00  0.00    -0.269 OA
ATOM      7  H   UNL A   1      36.364  22.164  27.384  1.00  0.00     0.163 HD
BRANCH   5   8
ATOM      8  C   UNL A   1      33.732  21.781  25.306  1.00  0.00     0.082 A 
ATOM      9  C   UNL A   1      33.624  26.373  24.123  1.00  0.00     0.053 C 
ATOM     10  C   UNL A   1      32.765  25.149  24.408  1.00  0.00     0.177 C 
ATOM     11  O   UNL A   1      33.550  24.235  25.210  1.00  0.00    -0.489 OA
ATOM     12  C   UNL A   1      32.222  24.400  23.171  1.00  0.00     0.060 C 
ATOM     13  C   UNL A   1      33.260  22.974  24.753  1.00  0.00     0.136 A 
ATOM     14  C   UNL A   1      32.461  22.998  23.612  1.00  0.00     0.001 A 
ATOM     15  C   UNL A   1      32.929  24.677  21.847  1.00  0.00     0.017 C 
ATOM     16  C   UNL A   1      32.061  21.829  22.988  1.00  0.00     0.008 A 
ATOM     17  C   UNL A   1      33.373  20.608  24.624  1.00  0.00     0.018 A 
ATOM     18  C   UNL A   1      32.528  20.627  23.498  1.00  0.00     0.001 A 
ENDBRANCH   5   8
ENDBRANCH   3   4
ENDBRANCH   2   3
ENDBRANCH   1   2
BRANCH   1  19
ATOM     19  C   UNL A   1      39.019  20.611  25.754  1.00  0.00     0.116 C 
BRANCH  19  20
ATOM     20  N   UNL A   1      39.863  19.426  25.751  1.00  0.00    -0.352 N 
ATOM     21  C   UNL A   1      41.211  19.337  26.023  1.00  0.00     0.251 C 
ATOM     22  H   UNL A   1      39.414  18.579  25.526  1.00  0.00     0.163 HD
ATOM     23  O   UNL A   1      41.808  18.279  25.901  1.00  0.00    -0.269 OA
BRANCH  21  24
ATOM     24  C   UNL A   1      41.938  20.567  26.405  1.00  0.00     0.039 A 
ATOM     25  C   UNL A   1      42.131  20.889  27.749  1.00  0.00     0.014 A 
ATOM     26  C   UNL A   1      42.352  21.444  25.398  1.00  0.00     0.014 A 
ATOM     27  C   UNL A   1      42.571  22.163  28.090  1.00  0.00     0.010 A 
ATOM     28  C   UNL A   1      42.865  22.696  25.745  1.00  0.00     0.010 A 
ATOM     29  C   UNL A   1      42.918  23.087  27.092  1.00  0.00    -0.014 A 
BRANCH  29  30
ATOM     30  C   UNL A   1      43.277  24.475  27.477  1.00  0.00     0.031 A 
ATOM     31  C   UNL A   1      44.703  24.948  27.377  1.00  0.00     0.074 A 
ATOM     32  C   UNL A   1      42.310  25.332  27.855  1.00  0.00     0.049 A 
ATOM     33  N   UNL A   1      45.208  26.123  27.665  1.00  0.00    -0.248 NA
ATOM     34  C   UNL A   1      45.696  23.976  26.892  1.00  0.00     0.031 C 
ATOM     35  C   UNL A   1      40.888  25.002  27.969  1.00  0.00     0.029 A 
ATOM     36  N   UNL A   1      42.373  26.660  28.189  1.00  0.00    -0.354 N 
ATOM     37  C   UNL A   1      46.571  26.023  27.419  1.00  0.00     0.074 A 
ATOM     38  C   UNL A   1      46.823  24.667  26.982  1.00  0.00     0.031 C 
ATOM     39  C   UNL A   1      40.208  26.109  28.304  1.00  0.00     0.029 A 
ATOM     40  C   UNL A   1      41.149  27.209  28.480  1.00  0.00     0.049 A 
ATOM     41  H   UNL A   1      43.214  27.169  28.218  1.00  0.00     0.167 HD
ATOM     42  C   UNL A   1      47.527  26.976  27.535  1.00  0.00     0.037 A 
ATOM     43  C   UNL A   1      40.824  28.457  28.862  1.00  0.00     0.037 A 
ATOM     44  C   UNL A   1      47.276  28.334  27.943  1.00  0.00     0.049 A 
ATOM     45  C   UNL A   1      41.907  29.483  29.022  1.00  0.00     0.074 A 
ATOM     46  C   UNL A   1      48.176  29.377  28.075  1.00  0.00     0.029 A 
ATOM     47  N   UNL A   1      46.028  28.837  28.280  1.00  0.00    -0.354 N 
ATOM     48  N   UNL A   1      43.193  29.371  28.793  1.00  0.00    -0.248 NA
ATOM     49  C   UNL A   1      41.494  30.808  29.505  1.00  0.00     0.031 C 
ATOM     50  C   UNL A   1      47.478  30.505  28.522  1.00  0.00     0.029 A 
ATOM     51  C   UNL A   1      46.138  30.172  28.635  1.00  0.00     0.049 A 
ATOM     52  H   UNL A   1      45.189  28.322  28.270  1.00  0.00     0.167 HD
ATOM     53  C   UNL A   1      43.741  30.611  29.092  1.00  0.00     0.074 A 
ATOM     54  C   UNL A   1      42.645  31.466  29.500  1.00  0.00     0.031 C 
ATOM     55  C   UNL A   1      45.036  31.006  29.041  1.00  0.00     0.037 A 
BRANCH  42  56
ATOM     56  C   UNL A   1      48.940  26.577  27.231  1.00  0.00     0.057 A 
ATOM     57  C   UNL A   1      49.453  26.701  25.933  1.00  0.00     0.134 A 
ATOM     58  C   UNL A   1      49.787  26.046  28.212  1.00  0.00     0.134 A 
ATOM     59  F   UNL A   1      48.694  27.198  24.945  1.00  0.00    -0.206 F 
ATOM     60  C   UNL A   1      50.757  26.310  25.623  1.00  0.00     0.040 A 
ATOM     61  C   UNL A   1      51.100  25.671  27.919  1.00  0.00     0.040 A 
ATOM     62  F   UNL A   1      49.362  25.916  29.478  1.00  0.00    -0.206 F 
ATOM     63  C   UNL A   1      51.586  25.798  26.619  1.00  0.00     0.006 A 
ENDBRANCH  42  56
BRANCH  43  64
ATOM     64  C   UNL A   1      39.408  28.803  29.130  1.00  0.00     0.057 A 
ATOM     65  C   UNL A   1      38.845  28.633  30.400  1.00  0.00     0.134 A 
ATOM     66  C   UNL A   1      38.588  29.321  28.121  1.00  0.00     0.134 A 
ATOM     67  F   UNL A   1      39.580  28.138  31.406  1.00  0.00    -0.206 F 
ATOM     68  C   UNL A   1      37.511  28.954  30.656  1.00  0.00     0.040 A 
ATOM     69  C   UNL A   1      37.259  29.669  28.370  1.00  0.00     0.040 A 
ATOM     70  F   UNL A   1      39.078  29.525  26.891  1.00  0.00    -0.206 F 
ATOM     71  C   UNL A   1      36.716  29.481  29.640  1.00  0.00     0.006 A 
ENDBRANCH  43  64
BRANCH  55  72
ATOM     72  C   UNL A   1      45.325  32.427  29.417  1.00  0.00     0.057 A 
ATOM     73  C   UNL A   1      45.273  33.445  28.458  1.00  0.00     0.134 A 
ATOM     74  C   UNL A   1      45.664  32.784  30.729  1.00  0.00     0.134 A 
ATOM     75  F   UNL A   1      44.959  33.166  27.184  1.00  0.00    -0.206 F 
ATOM     76  C   UNL A   1      45.546  34.772  28.791  1.00  0.00     0.040 A 
ATOM     77  C   UNL A   1      45.917  34.111  31.078  1.00  0.00     0.040 A 
ATOM     78  F   UNL A   1      45.713  31.855  31.695  1.00  0.00    -0.206 F 
ATOM     79  C   UNL A   1      45.862  35.110  30.106  1.00  0.00     0.006 A 
ENDBRANCH  55  72
ENDBRANCH  29  30
ENDBRANCH  21  24
ENDBRANCH  19  20
ENDBRANCH   1  19
TORSDOF 11
ENDMDL
MODEL 3
REMARK VINA RESULT:     -11.6      3.915      5.426
REMARK SMILES C[C@@H]1Oc2c(C(=O)NCCCCNC(=O)c3ccc(-c4c5nc(c(-c6c(F)cccc6F)c6ccc([nH]6)c(-c6c(F)cccc6F)c6nc(c(-c7c(F)cccc7F)c7ccc4[nH]7)C=C6)C=C5)cc3)cccc2[C@@H]1C
REMARK SMILES IDX 11 1 10 2 9 3 8 4 6 5 7 6 5 8 1 9 2 10 3 11 74 12 4 13 73 14
REMARK SMILES IDX 75 15 72 16 70 17 71 18 12 19 13 20 14 21 15 23 16 24 17 25
REMARK SMILES IDX 69 26 18 27 68 28 19 29 20 30 21 31 62 32 22 33 67 34 61 35
REMARK SMILES IDX 63 36 23 37 66 38 60 39 59 40 24 42 50 43 33 44 49 45 34 46
REMARK SMILES IDX 37 47 48 48 64 49 35 50 36 51 47 53 65 54 38 55 25 56 26 57
REMARK SMILES IDX 31 58 27 59 28 60 30 61 32 62 29 63 51 64 52 65 57 66 53 67
REMARK SMILES IDX 54 68 56 69 58 70 55 71 39 72 40 73 45 74 41 75 42 76 44 77
REMARK SMILES IDX 46 78 43 79
REMARK H PARENT 8 7 13 22 63 41 37 52
REMARK Flexibility Score: inf
ROOT
ATOM      1  C   UNL A   1      32.190  28.272  27.114  1.00  0.00     0.023 C 
ENDROOT
BRANCH   1   2
ATOM      2  C   UNL A   1      32.026  27.308  25.936  1.00  0.00     0.023 C 
BRANCH   2   3
ATOM      3  C   UNL A   1      30.832  26.355  26.060  1.00  0.00     0.116 C 
BRANCH   3   4
ATOM      4  N   UNL A   1      31.167  25.220  26.894  1.00  0.00    -0.352 N 
ATOM      5  C   UNL A   1      31.767  24.008  26.647  1.00  0.00     0.255 C 
ATOM      6  O   UNL A   1      31.842  23.257  27.621  1.00  0.00    -0.269 OA
ATOM      7  H   UNL A   1      30.910  25.342  27.836  1.00  0.00     0.163 HD
BRANCH   5   8
ATOM      8  C   UNL A   1      32.313  23.590  25.316  1.00  0.00     0.082 A 
ATOM      9  C   UNL A   1      36.975  23.825  26.153  1.00  0.00     0.053 C 
ATOM     10  C   UNL A   1      35.864  24.265  25.210  1.00  0.00     0.177 C 
ATOM     11  O   UNL A   1      34.615  24.202  25.937  1.00  0.00    -0.489 OA
ATOM     12  C   UNL A   1      35.729  23.458  23.899  1.00  0.00     0.060 C 
ATOM     13  C   UNL A   1      33.678  23.724  25.055  1.00  0.00     0.136 A 
ATOM     14  C   UNL A   1      34.247  23.326  23.848  1.00  0.00     0.001 A 
ATOM     15  C   UNL A   1      36.395  22.085  23.878  1.00  0.00     0.017 C 
ATOM     16  C   UNL A   1      33.474  22.807  22.824  1.00  0.00     0.008 A 
ATOM     17  C   UNL A   1      31.551  23.001  24.293  1.00  0.00     0.018 A 
ATOM     18  C   UNL A   1      32.116  22.639  23.056  1.00  0.00     0.001 A 
ENDBRANCH   5   8
ENDBRANCH   3   4
ENDBRANCH   2   3
ENDBRANCH   1   2
BRANCH   1  19
ATOM     19  C   UNL A   1      33.608  28.796  27.316  1.00  0.00     0.116 C 
BRANCH  19  20
ATOM     20  N   UNL A   1      33.661  30.147  27.854  1.00  0.00    -0.352 N 
ATOM     21  C   UNL A   1      34.737  30.799  28.417  1.00  0.00     0.251 C 
ATOM     22  H   UNL A   1      32.822  30.661  27.809  1.00  0.00     0.163 HD
ATOM     23  O   UNL A   1      34.610  31.912  28.903  1.00  0.00    -0.269 OA
BRANCH  21  24
ATOM     24  C   UNL A   1      36.037  30.097  28.480  1.00  0.00     0.039 A 
ATOM     25  C   UNL A   1      36.435  29.446  29.648  1.00  0.00     0.014 A 
ATOM     26  C   UNL A   1      36.895  30.170  27.380  1.00  0.00     0.014 A 
ATOM     27  C   UNL A   1      37.754  29.027  29.781  1.00  0.00     0.010 A 
ATOM     28  C   UNL A   1      38.199  29.681  27.491  1.00  0.00     0.010 A 
ATOM     29  C   UNL A   1      38.655  29.163  28.714  1.00  0.00    -0.014 A 
BRANCH  29  30
ATOM     30  C   UNL A   1      40.083  28.814  28.917  1.00  0.00     0.031 A 
ATOM     31  C   UNL A   1      40.999  29.755  29.655  1.00  0.00     0.074 A 
ATOM     32  C   UNL A   1      40.543  27.621  28.494  1.00  0.00     0.049 A 
ATOM     33  N   UNL A   1      42.273  29.622  29.931  1.00  0.00    -0.248 NA
ATOM     34  C   UNL A   1      40.410  31.010  30.146  1.00  0.00     0.031 C 
ATOM     35  C   UNL A   1      39.750  26.614  27.789  1.00  0.00     0.029 A 
ATOM     36  N   UNL A   1      41.781  27.046  28.618  1.00  0.00    -0.354 N 
ATOM     37  C   UNL A   1      42.641  30.780  30.604  1.00  0.00     0.074 A 
ATOM     38  C   UNL A   1      41.463  31.618  30.674  1.00  0.00     0.031 C 
ATOM     39  C   UNL A   1      40.508  25.526  27.582  1.00  0.00     0.029 A 
ATOM     40  C   UNL A   1      41.852  25.781  28.090  1.00  0.00     0.049 A 
ATOM     41  H   UNL A   1      42.545  27.496  29.045  1.00  0.00     0.167 HD
ATOM     42  C   UNL A   1      43.845  31.113  31.126  1.00  0.00     0.037 A 
ATOM     43  C   UNL A   1      42.888  24.928  28.010  1.00  0.00     0.037 A 
ATOM     44  C   UNL A   1      45.012  30.270  31.082  1.00  0.00     0.049 A 
ATOM     45  C   UNL A   1      44.223  25.338  28.561  1.00  0.00     0.074 A 
ATOM     46  C   UNL A   1      46.273  30.512  31.598  1.00  0.00     0.029 A 
ATOM     47  N   UNL A   1      45.056  29.017  30.491  1.00  0.00    -0.354 N 
ATOM     48  N   UNL A   1      44.555  26.440  29.188  1.00  0.00    -0.248 NA
ATOM     49  C   UNL A   1      45.329  24.388  28.382  1.00  0.00     0.031 C 
ATOM     50  C   UNL A   1      47.090  29.418  31.292  1.00  0.00     0.029 A 
ATOM     51  C   UNL A   1      46.327  28.480  30.615  1.00  0.00     0.049 A 
ATOM     52  H   UNL A   1      44.296  28.574  30.046  1.00  0.00     0.167 HD
ATOM     53  C   UNL A   1      45.904  26.312  29.488  1.00  0.00     0.074 A 
ATOM     54  C   UNL A   1      46.324  25.016  28.993  1.00  0.00     0.031 C 
ATOM     55  C   UNL A   1      46.725  27.190  30.113  1.00  0.00     0.037 A 
BRANCH  42  56
ATOM     56  C   UNL A   1      43.967  32.458  31.779  1.00  0.00     0.057 A 
ATOM     57  C   UNL A   1      43.716  32.612  33.149  1.00  0.00     0.134 A 
ATOM     58  C   UNL A   1      44.305  33.606  31.051  1.00  0.00     0.134 A 
ATOM     59  F   UNL A   1      43.383  31.554  33.903  1.00  0.00    -0.206 F 
ATOM     60  C   UNL A   1      43.797  33.859  33.770  1.00  0.00     0.040 A 
ATOM     61  C   UNL A   1      44.410  34.855  31.666  1.00  0.00     0.040 A 
ATOM     62  F   UNL A   1      44.573  33.524  29.739  1.00  0.00    -0.206 F 
ATOM     63  C   UNL A   1      44.150  34.985  33.029  1.00  0.00     0.006 A 
ENDBRANCH  42  56
BRANCH  43  64
ATOM     64  C   UNL A   1      42.708  23.602  27.372  1.00  0.00     0.057 A 
ATOM     65  C   UNL A   1      42.346  22.476  28.121  1.00  0.00     0.134 A 
ATOM     66  C   UNL A   1      42.887  23.434  25.994  1.00  0.00     0.134 A 
ATOM     67  F   UNL A   1      42.164  22.575  29.446  1.00  0.00    -0.206 F 
ATOM     68  C   UNL A   1      42.179  21.226  27.525  1.00  0.00     0.040 A 
ATOM     69  C   UNL A   1      42.700  22.194  25.382  1.00  0.00     0.040 A 
ATOM     70  F   UNL A   1      43.214  24.480  25.223  1.00  0.00    -0.206 F 
ATOM     71  C   UNL A   1      42.349  21.084  26.149  1.00  0.00     0.006 A 
ENDBRANCH  43  64
BRANCH  55  72
ATOM     72  C   UNL A   1      48.148  26.764  30.309  1.00  0.00     0.057 A 
ATOM     73  C   UNL A   1      49.135  27.122  29.383  1.00  0.00     0.134 A 
ATOM     74  C   UNL A   1      48.538  25.993  31.411  1.00  0.00     0.134 A 
ATOM     75  F   UNL A   1      48.824  27.855  28.304  1.00  0.00    -0.206 F 
ATOM     76  C   UNL A   1      50.464  26.728  29.547  1.00  0.00     0.040 A 
ATOM     77  C   UNL A   1      49.868  25.612  31.598  1.00  0.00     0.040 A 
ATOM     78  F   UNL A   1      47.641  25.634  32.342  1.00  0.00    -0.206 F 
ATOM     79  C   UNL A   1      50.835  25.977  30.661  1.00  0.00     0.006 A 
ENDBRANCH  55  72
ENDBRANCH  29  30
ENDBRANCH  21  24
ENDBRANCH  19  20
ENDBRANCH   1  19
TORSDOF 11
ENDMDL
