MODEL 1
REMARK VINA RESULT:     -11.3      0.000      0.000
REMARK SMILES CCN(C)C(=O)Cn1ccc2c(C(=O)NCCCCNC(=O)c3ccc(-c4c5nc(c(-c6c(F)cccc6F)c6ccc([nH]6)c(-c6c(F)cccc6F)c6nc(c(-c7c(F)cccc7F)c7ccc4[nH]7)C=C6)C=C5)cc3)cccc21
REMARK SMILES IDX 16 1 15 2 13 3 14 4 12 6 8 7 9 8 80 9 10 10 11 11 79 12
REMARK SMILES IDX 78 13 77 14 7 15 5 16 6 17 3 18 4 19 2 20 1 21 17 22 18 23
REMARK SMILES IDX 19 24 20 25 21 26 22 28 23 29 24 30 76 31 25 32 75 33 26 34
REMARK SMILES IDX 27 35 28 36 69 37 29 38 74 39 68 40 70 41 30 42 73 43 67 44
REMARK SMILES IDX 66 45 31 47 57 48 40 49 56 50 41 51 44 52 55 53 71 54 42 55
REMARK SMILES IDX 43 56 54 58 72 59 45 60 32 61 33 62 38 63 34 64 35 65 37 66
REMARK SMILES IDX 39 67 36 68 58 69 59 70 64 71 60 72 61 73 63 74 65 75 62 76
REMARK SMILES IDX 46 77 47 78 52 79 48 80 49 81 51 82 53 83 50 84
REMARK H PARENT 15 5 20 27 70 46 44 57
REMARK Flexibility Score: inf
ROOT
ATOM      1  C   UNL A   1      36.880  21.706  25.748  1.00  0.00     0.116 C 
ENDROOT
BRANCH   1   2
ATOM      2  N   UNL A   1      35.646  21.613  26.500  1.00  0.00    -0.352 N 
ATOM      3  C   UNL A   1      34.335  21.936  26.263  1.00  0.00     0.251 C 
ATOM      4  O   UNL A   1      33.568  21.682  27.195  1.00  0.00    -0.269 OA
ATOM      5  H   UNL A   1      35.781  21.226  27.395  1.00  0.00     0.163 HD
BRANCH   3   6
ATOM      6  C   UNL A   1      33.804  22.520  24.989  1.00  0.00     0.049 A 
ATOM      7  N   UNL A   1      33.418  25.884  23.760  1.00  0.00    -0.338 N 
ATOM      8  C   UNL A   1      34.027  26.208  24.942  1.00  0.00     0.087 A 
ATOM      9  C   UNL A   1      33.288  24.509  23.655  1.00  0.00     0.049 A 
ATOM     10  C   UNL A   1      34.241  25.041  25.636  1.00  0.00     0.029 A 
ATOM     11  C   UNL A   1      33.800  23.942  24.834  1.00  0.00     0.012 A 
ATOM     12  C   UNL A   1      32.759  23.724  22.622  1.00  0.00     0.027 A 
ATOM     13  C   UNL A   1      32.806  22.343  22.758  1.00  0.00     0.003 A 
ATOM     14  C   UNL A   1      33.355  21.756  23.898  1.00  0.00     0.014 A 
BRANCH   7  15
ATOM     15  C   UNL A   1      33.045  26.856  22.740  1.00  0.00     0.222 C 
BRANCH  15  16
ATOM     16  C   UNL A   1      31.562  27.182  22.700  1.00  0.00     0.242 C 
ATOM     17  O   UNL A   1      30.956  27.096  21.626  1.00  0.00    -0.273 OA
BRANCH  16  18
ATOM     18  N   UNL A   1      30.902  27.515  23.880  1.00  0.00    -0.344 N 
ATOM     19  C   UNL A   1      31.033  28.797  24.559  1.00  0.00     0.146 C 
BRANCH  18  20
ATOM     20  C   UNL A   1      29.909  26.578  24.405  1.00  0.00     0.115 C 
ATOM     21  C   UNL A   1      30.333  25.952  25.725  1.00  0.00     0.027 C 
ENDBRANCH  18  20
ENDBRANCH  16  18
ENDBRANCH  15  16
ENDBRANCH   7  15
ENDBRANCH   3   6
ENDBRANCH   1   2
BRANCH   1  22
ATOM     22  C   UNL A   1      37.354  23.159  25.669  1.00  0.00     0.023 C 
BRANCH  22  23
ATOM     23  C   UNL A   1      38.720  23.411  26.331  1.00  0.00     0.023 C 
BRANCH  23  24
ATOM     24  C   UNL A   1      39.567  22.148  26.537  1.00  0.00     0.116 C 
BRANCH  24  25
ATOM     25  N   UNL A   1      40.848  22.213  25.862  1.00  0.00    -0.352 N 
ATOM     26  C   UNL A   1      41.889  23.102  25.831  1.00  0.00     0.251 C 
ATOM     27  H   UNL A   1      41.007  21.431  25.287  1.00  0.00     0.163 HD
ATOM     28  O   UNL A   1      42.862  22.772  25.168  1.00  0.00    -0.269 OA
BRANCH  26  29
ATOM     29  C   UNL A   1      41.896  24.429  26.509  1.00  0.00     0.039 A 
ATOM     30  C   UNL A   1      42.264  24.657  27.833  1.00  0.00     0.014 A 
ATOM     31  C   UNL A   1      41.424  25.515  25.745  1.00  0.00     0.014 A 
ATOM     32  C   UNL A   1      42.106  25.914  28.400  1.00  0.00     0.010 A 
ATOM     33  C   UNL A   1      41.270  26.780  26.307  1.00  0.00     0.010 A 
ATOM     34  C   UNL A   1      41.573  26.963  27.650  1.00  0.00    -0.014 A 
BRANCH  34  35
ATOM     35  C   UNL A   1      41.381  28.228  28.347  1.00  0.00     0.031 A 
ATOM     36  C   UNL A   1      42.464  29.238  28.174  1.00  0.00     0.074 A 
ATOM     37  C   UNL A   1      40.297  28.511  29.093  1.00  0.00     0.049 A 
ATOM     38  N   UNL A   1      43.255  29.721  29.077  1.00  0.00    -0.248 NA
ATOM     39  C   UNL A   1      42.751  29.705  26.811  1.00  0.00     0.031 C 
ATOM     40  C   UNL A   1      39.029  27.788  29.182  1.00  0.00     0.029 A 
ATOM     41  N   UNL A   1      40.094  29.597  29.887  1.00  0.00    -0.354 N 
ATOM     42  C   UNL A   1      44.045  30.673  28.433  1.00  0.00     0.074 A 
ATOM     43  C   UNL A   1      43.765  30.545  27.025  1.00  0.00     0.031 C 
ATOM     44  C   UNL A   1      38.119  28.571  29.804  1.00  0.00     0.029 A 
ATOM     45  C   UNL A   1      38.777  29.781  30.269  1.00  0.00     0.049 A 
ATOM     46  H   UNL A   1      40.820  30.200  30.166  1.00  0.00     0.167 HD
ATOM     47  C   UNL A   1      44.750  31.615  29.119  1.00  0.00     0.037 A 
ATOM     48  C   UNL A   1      38.259  30.886  30.857  1.00  0.00     0.037 A 
ATOM     49  C   UNL A   1      44.947  31.242  30.494  1.00  0.00     0.049 A 
ATOM     50  C   UNL A   1      39.375  31.640  31.482  1.00  0.00     0.074 A 
ATOM     51  C   UNL A   1      45.550  30.176  31.135  1.00  0.00     0.029 A 
ATOM     52  N   UNL A   1      44.204  31.871  31.463  1.00  0.00    -0.354 N 
ATOM     53  N   UNL A   1      40.027  31.236  32.538  1.00  0.00    -0.248 NA
ATOM     54  C   UNL A   1      40.060  32.638  30.673  1.00  0.00     0.031 C 
ATOM     55  C   UNL A   1      44.733  29.923  32.276  1.00  0.00     0.029 A 
ATOM     56  C   UNL A   1      43.716  30.877  32.272  1.00  0.00     0.049 A 
ATOM     57  H   UNL A   1      44.053  32.838  31.556  1.00  0.00     0.167 HD
ATOM     58  C   UNL A   1      41.346  31.592  32.298  1.00  0.00     0.074 A 
ATOM     59  C   UNL A   1      41.290  32.533  31.182  1.00  0.00     0.031 C 
ATOM     60  C   UNL A   1      42.387  30.887  32.832  1.00  0.00     0.037 A 
BRANCH  47  61
ATOM     61  C   UNL A   1      44.985  33.022  28.630  1.00  0.00     0.057 A 
ATOM     62  C   UNL A   1      46.215  33.472  28.112  1.00  0.00     0.134 A 
ATOM     63  C   UNL A   1      43.885  33.864  28.379  1.00  0.00     0.134 A 
ATOM     64  F   UNL A   1      47.337  32.748  28.202  1.00  0.00    -0.206 F 
ATOM     65  C   UNL A   1      46.339  34.653  27.374  1.00  0.00     0.040 A 
ATOM     66  C   UNL A   1      43.989  35.022  27.599  1.00  0.00     0.040 A 
ATOM     67  F   UNL A   1      42.656  33.542  28.812  1.00  0.00    -0.206 F 
ATOM     68  C   UNL A   1      45.218  35.414  27.084  1.00  0.00     0.006 A 
ENDBRANCH  47  61
BRANCH  48  69
ATOM     69  C   UNL A   1      36.910  31.459  30.659  1.00  0.00     0.057 A 
ATOM     70  C   UNL A   1      36.540  32.062  29.443  1.00  0.00     0.134 A 
ATOM     71  C   UNL A   1      36.029  31.648  31.732  1.00  0.00     0.134 A 
ATOM     72  F   UNL A   1      37.350  32.028  28.375  1.00  0.00    -0.206 F 
ATOM     73  C   UNL A   1      35.363  32.801  29.298  1.00  0.00     0.040 A 
ATOM     74  C   UNL A   1      34.852  32.398  31.602  1.00  0.00     0.040 A 
ATOM     75  F   UNL A   1      36.319  31.159  32.946  1.00  0.00    -0.206 F 
ATOM     76  C   UNL A   1      34.519  32.981  30.383  1.00  0.00     0.006 A 
ENDBRANCH  48  69
BRANCH  60  77
ATOM     77  C   UNL A   1      42.082  29.847  33.873  1.00  0.00     0.057 A 
ATOM     78  C   UNL A   1      42.321  30.137  35.220  1.00  0.00     0.134 A 
ATOM     79  C   UNL A   1      41.710  28.529  33.566  1.00  0.00     0.134 A 
ATOM     80  F   UNL A   1      42.746  31.358  35.584  1.00  0.00    -0.206 F 
ATOM     81  C   UNL A   1      42.179  29.172  36.219  1.00  0.00     0.040 A 
ATOM     82  C   UNL A   1      41.529  27.562  34.560  1.00  0.00     0.040 A 
ATOM     83  F   UNL A   1      41.571  28.124  32.297  1.00  0.00    -0.206 F 
ATOM     84  C   UNL A   1      41.768  27.882  35.892  1.00  0.00     0.006 A 
ENDBRANCH  60  77
ENDBRANCH  34  35
ENDBRANCH  26  29
ENDBRANCH  24  25
ENDBRANCH  23  24
ENDBRANCH  22  23
ENDBRANCH   1  22
TORSDOF 15
ENDMDL
MODEL 2
REMARK VINA RESULT:     -11.3      2.595      7.953
REMARK SMILES CCN(C)C(=O)Cn1ccc2c(C(=O)NCCCCNC(=O)c3ccc(-c4c5nc(c(-c6c(F)cccc6F)c6ccc([nH]6)c(-c6c(F)cccc6F)c6nc(c(-c7c(F)cccc7F)c7ccc4[nH]7)C=C6)C=C5)cc3)cccc21
REMARK SMILES IDX 16 1 15 2 13 3 14 4 12 6 8 7 9 8 80 9 10 10 11 11 79 12
REMARK SMILES IDX 78 13 77 14 7 15 5 16 6 17 3 18 4 19 2 20 1 21 17 22 18 23
REMARK SMILES IDX 19 24 20 25 21 26 22 28 23 29 24 30 76 31 25 32 75 33 26 34
REMARK SMILES IDX 27 35 28 36 69 37 29 38 74 39 68 40 70 41 30 42 73 43 67 44
REMARK SMILES IDX 66 45 31 47 57 48 40 49 56 50 41 51 44 52 55 53 71 54 42 55
REMARK SMILES IDX 43 56 54 58 72 59 45 60 32 61 33 62 38 63 34 64 35 65 37 66
REMARK SMILES IDX 39 67 36 68 58 69 59 70 64 71 60 72 61 73 63 74 65 75 62 76
REMARK SMILES IDX 46 77 47 78 52 79 48 80 49 81 51 82 53 83 50 84
REMARK H PARENT 15 5 20 27 70 46 44 57
REMARK Flexibility Score: inf
ROOT
ATOM      1  C   UNL A   1      32.490  29.428  24.640  1.00  0.00     0.116 C 
ENDROOT
BRANCH   1   2
ATOM      2  N   UNL A   1      31.511  29.338  23.577  1.00  0.00    -0.352 N 
ATOM      3  C   UNL A   1      31.041  28.335  22.769  1.00  0.00     0.251 C 
ATOM      4  O   UNL A   1      30.172  28.687  21.968  1.00  0.00    -0.269 OA
ATOM      5  H   UNL A   1      31.081  30.203  23.389  1.00  0.00     0.163 HD
BRANCH   3   6
ATOM      6  C   UNL A   1      31.478  26.903  22.823  1.00  0.00     0.049 A 
ATOM      7  N   UNL A   1      30.943  24.220  25.167  1.00  0.00    -0.338 N 
ATOM      8  C   UNL A   1      30.168  25.152  25.801  1.00  0.00     0.087 A 
ATOM      9  C   UNL A   1      31.487  24.761  24.014  1.00  0.00     0.049 A 
ATOM     10  C   UNL A   1      30.255  26.323  25.089  1.00  0.00     0.029 A 
ATOM     11  C   UNL A   1      31.070  26.100  23.935  1.00  0.00     0.012 A 
ATOM     12  C   UNL A   1      32.313  24.182  23.040  1.00  0.00     0.027 A 
ATOM     13  C   UNL A   1      32.669  24.952  21.941  1.00  0.00     0.003 A 
ATOM     14  C   UNL A   1      32.227  26.269  21.817  1.00  0.00     0.014 A 
BRANCH   7  15
ATOM     15  C   UNL A   1      31.094  22.840  25.613  1.00  0.00     0.222 C 
BRANCH  15  16
ATOM     16  C   UNL A   1      32.262  22.613  26.557  1.00  0.00     0.242 C 
ATOM     17  O   UNL A   1      32.125  22.877  27.757  1.00  0.00    -0.273 OA
BRANCH  16  18
ATOM     18  N   UNL A   1      33.443  22.060  26.067  1.00  0.00    -0.344 N 
ATOM     19  C   UNL A   1      33.501  20.908  25.178  1.00  0.00     0.146 C 
BRANCH  18  20
ATOM     20  C   UNL A   1      34.699  22.754  26.347  1.00  0.00     0.115 C 
ATOM     21  C   UNL A   1      34.732  24.163  25.773  1.00  0.00     0.027 C 
ENDBRANCH  18  20
ENDBRANCH  16  18
ENDBRANCH  15  16
ENDBRANCH   7  15
ENDBRANCH   3   6
ENDBRANCH   1   2
BRANCH   1  22
ATOM     22  C   UNL A   1      31.800  29.486  26.005  1.00  0.00     0.023 C 
BRANCH  22  23
ATOM     23  C   UNL A   1      32.113  30.757  26.813  1.00  0.00     0.023 C 
BRANCH  23  24
ATOM     24  C   UNL A   1      33.606  30.984  27.084  1.00  0.00     0.116 C 
BRANCH  24  25
ATOM     25  N   UNL A   1      33.851  31.741  28.296  1.00  0.00    -0.352 N 
ATOM     26  C   UNL A   1      34.894  31.863  29.174  1.00  0.00     0.251 C 
ATOM     27  H   UNL A   1      33.082  32.301  28.547  1.00  0.00     0.163 HD
ATOM     28  O   UNL A   1      34.747  32.675  30.077  1.00  0.00    -0.269 OA
BRANCH  26  29
ATOM     29  C   UNL A   1      36.150  31.063  29.122  1.00  0.00     0.039 A 
ATOM     30  C   UNL A   1      36.221  29.673  29.134  1.00  0.00     0.014 A 
ATOM     31  C   UNL A   1      37.352  31.799  29.130  1.00  0.00     0.014 A 
ATOM     32  C   UNL A   1      37.450  29.032  29.217  1.00  0.00     0.010 A 
ATOM     33  C   UNL A   1      38.588  31.162  29.206  1.00  0.00     0.010 A 
ATOM     34  C   UNL A   1      38.628  29.776  29.293  1.00  0.00    -0.014 A 
BRANCH  34  35
ATOM     35  C   UNL A   1      39.865  29.021  29.444  1.00  0.00     0.031 A 
ATOM     36  C   UNL A   1      40.382  28.888  30.836  1.00  0.00     0.074 A 
ATOM     37  C   UNL A   1      40.518  28.448  28.416  1.00  0.00     0.049 A 
ATOM     38  N   UNL A   1      41.486  29.353  31.324  1.00  0.00    -0.248 NA
ATOM     39  C   UNL A   1      39.521  28.224  31.823  1.00  0.00     0.031 C 
ATOM     40  C   UNL A   1      40.063  28.235  27.043  1.00  0.00     0.029 A 
ATOM     41  N   UNL A   1      41.740  27.849  28.436  1.00  0.00    -0.354 N 
ATOM     42  C   UNL A   1      41.544  28.912  32.645  1.00  0.00     0.074 A 
ATOM     43  C   UNL A   1      40.263  28.313  32.928  1.00  0.00     0.031 C 
ATOM     44  C   UNL A   1      40.899  27.365  26.432  1.00  0.00     0.029 A 
ATOM     45  C   UNL A   1      42.008  27.071  27.325  1.00  0.00     0.049 A 
ATOM     46  H   UNL A   1      42.378  27.959  29.178  1.00  0.00     0.167 HD
ATOM     47  C   UNL A   1      42.702  28.919  33.363  1.00  0.00     0.037 A 
ATOM     48  C   UNL A   1      43.031  26.194  27.186  1.00  0.00     0.037 A 
ATOM     49  C   UNL A   1      43.677  29.811  32.798  1.00  0.00     0.049 A 
ATOM     50  C   UNL A   1      44.084  26.559  28.168  1.00  0.00     0.074 A 
ATOM     51  C   UNL A   1      43.715  31.167  32.529  1.00  0.00     0.029 A 
ATOM     52  N   UNL A   1      44.741  29.279  32.111  1.00  0.00    -0.354 N 
ATOM     53  N   UNL A   1      44.828  27.626  28.077  1.00  0.00    -0.248 NA
ATOM     54  C   UNL A   1      44.016  25.960  29.494  1.00  0.00     0.031 C 
ATOM     55  C   UNL A   1      44.444  31.280  31.309  1.00  0.00     0.029 A 
ATOM     56  C   UNL A   1      44.833  29.992  30.943  1.00  0.00     0.049 A 
ATOM     57  H   UNL A   1      45.318  28.536  32.398  1.00  0.00     0.167 HD
ATOM     58  C   UNL A   1      44.967  28.075  29.382  1.00  0.00     0.074 A 
ATOM     59  C   UNL A   1      44.527  26.960  30.217  1.00  0.00     0.031 C 
ATOM     60  C   UNL A   1      45.157  29.397  29.669  1.00  0.00     0.037 A 
BRANCH  47  61
ATOM     61  C   UNL A   1      43.069  27.879  34.392  1.00  0.00     0.057 A 
ATOM     62  C   UNL A   1      42.906  28.064  35.779  1.00  0.00     0.134 A 
ATOM     63  C   UNL A   1      43.299  26.551  33.987  1.00  0.00     0.134 A 
ATOM     64  F   UNL A   1      42.607  29.255  36.312  1.00  0.00    -0.206 F 
ATOM     65  C   UNL A   1      42.938  27.006  36.692  1.00  0.00     0.040 A 
ATOM     66  C   UNL A   1      43.283  25.479  34.888  1.00  0.00     0.040 A 
ATOM     67  F   UNL A   1      43.460  26.243  32.691  1.00  0.00    -0.206 F 
ATOM     68  C   UNL A   1      43.091  25.703  36.245  1.00  0.00     0.006 A 
ENDBRANCH  47  61
BRANCH  48  69
ATOM     69  C   UNL A   1      43.017  24.907  26.459  1.00  0.00     0.057 A 
ATOM     70  C   UNL A   1      42.424  23.757  27.013  1.00  0.00     0.134 A 
ATOM     71  C   UNL A   1      43.794  24.704  25.312  1.00  0.00     0.134 A 
ATOM     72  F   UNL A   1      41.737  23.815  28.164  1.00  0.00    -0.206 F 
ATOM     73  C   UNL A   1      42.585  22.486  26.458  1.00  0.00     0.040 A 
ATOM     74  C   UNL A   1      43.974  23.432  24.751  1.00  0.00     0.040 A 
ATOM     75  F   UNL A   1      44.445  25.728  24.740  1.00  0.00    -0.206 F 
ATOM     76  C   UNL A   1      43.372  22.317  25.328  1.00  0.00     0.006 A 
ENDBRANCH  48  69
BRANCH  60  77
ATOM     77  C   UNL A   1      45.440  30.338  28.533  1.00  0.00     0.057 A 
ATOM     78  C   UNL A   1      46.746  30.799  28.336  1.00  0.00     0.134 A 
ATOM     79  C   UNL A   1      44.439  30.915  27.736  1.00  0.00     0.134 A 
ATOM     80  F   UNL A   1      47.748  30.345  29.107  1.00  0.00    -0.206 F 
ATOM     81  C   UNL A   1      47.049  31.771  27.380  1.00  0.00     0.040 A 
ATOM     82  C   UNL A   1      44.734  31.862  26.751  1.00  0.00     0.040 A 
ATOM     83  F   UNL A   1      43.145  30.625  27.928  1.00  0.00    -0.206 F 
ATOM     84  C   UNL A   1      46.043  32.297  26.574  1.00  0.00     0.006 A 
ENDBRANCH  60  77
ENDBRANCH  34  35
ENDBRANCH  26  29
ENDBRANCH  24  25
ENDBRANCH  23  24
ENDBRANCH  22  23
ENDBRANCH   1  22
TORSDOF 15
ENDMDL
MODEL 3
REMARK VINA RESULT:     -11.2      2.730      7.834
REMARK SMILES CCN(C)C(=O)Cn1ccc2c(C(=O)NCCCCNC(=O)c3ccc(-c4c5nc(c(-c6c(F)cccc6F)c6ccc([nH]6)c(-c6c(F)cccc6F)c6nc(c(-c7c(F)cccc7F)c7ccc4[nH]7)C=C6)C=C5)cc3)cccc21
REMARK SMILES IDX 16 1 15 2 13 3 14 4 12 6 8 7 9 8 80 9 10 10 11 11 79 12
REMARK SMILES IDX 78 13 77 14 7 15 5 16 6 17 3 18 4 19 2 20 1 21 17 22 18 23
REMARK SMILES IDX 19 24 20 25 21 26 22 28 23 29 24 30 76 31 25 32 75 33 26 34
REMARK SMILES IDX 27 35 28 36 69 37 29 38 74 39 68 40 70 41 30 42 73 43 67 44
REMARK SMILES IDX 66 45 31 47 57 48 40 49 56 50 41 51 44 52 55 53 71 54 42 55
REMARK SMILES IDX 43 56 54 58 72 59 45 60 32 61 33 62 38 63 34 64 35 65 37 66
REMARK SMILES IDX 39 67 36 68 58 69 59 70 64 71 60 72 61 73 63 74 65 75 62 76
REMARK SMILES IDX 46 77 47 78 52 79 48 80 49 81 51 82 53 83 50 84
REMARK H PARENT 15 5 20 27 70 46 44 57
REMARK Flexibility Score: inf
ROOT
ATOM      1  C   UNL A   1      31.728  29.731  25.961  1.00  0.00     0.116 C 
ENDROOT
BRANCH   1   2
ATOM      2  N   UNL A   1      31.203  29.951  24.630  1.00  0.00    -0.352 N 
ATOM      3  C   UNL A   1      30.773  29.145  23.608  1.00  0.00     0.251 C 
ATOM      4  O   UNL A   1      30.385  29.750  22.606  1.00  0.00    -0.269 OA
ATOM      5  H   UNL A   1      31.142  30.907  24.404  1.00  0.00     0.163 HD
BRANCH   3   6
ATOM      6  C   UNL A   1      30.721  27.648  23.650  1.00  0.00     0.049 A 
ATOM      7  N   UNL A   1      32.997  25.045  22.641  1.00  0.00    -0.338 N 
ATOM      8  C   UNL A   1      33.808  26.103  22.335  1.00  0.00     0.087 A 
ATOM      9  C   UNL A   1      31.798  25.502  23.161  1.00  0.00     0.049 A 
ATOM     10  C   UNL A   1      33.111  27.256  22.602  1.00  0.00     0.029 A 
ATOM     11  C   UNL A   1      31.836  26.906  23.149  1.00  0.00     0.012 A 
ATOM     12  C   UNL A   1      30.685  24.794  23.636  1.00  0.00     0.027 A 
ATOM     13  C   UNL A   1      29.624  25.518  24.163  1.00  0.00     0.003 A 
ATOM     14  C   UNL A   1      29.661  26.911  24.205  1.00  0.00     0.014 A 
BRANCH   7  15
ATOM     15  C   UNL A   1      33.390  23.647  22.507  1.00  0.00     0.222 C 
BRANCH  15  16
ATOM     16  C   UNL A   1      34.654  23.278  23.264  1.00  0.00     0.242 C 
ATOM     17  O   UNL A   1      35.697  23.081  22.632  1.00  0.00    -0.273 OA
BRANCH  16  18
ATOM     18  N   UNL A   1      34.628  23.223  24.656  1.00  0.00    -0.344 N 
ATOM     19  C   UNL A   1      35.587  23.896  25.520  1.00  0.00     0.146 C 
BRANCH  18  20
ATOM     20  C   UNL A   1      33.493  22.564  25.300  1.00  0.00     0.115 C 
ATOM     21  C   UNL A   1      32.838  23.430  26.366  1.00  0.00     0.027 C 
ENDBRANCH  18  20
ENDBRANCH  16  18
ENDBRANCH  15  16
ENDBRANCH   7  15
ENDBRANCH   3   6
ENDBRANCH   1   2
BRANCH   1  22
ATOM     22  C   UNL A   1      33.258  29.777  25.952  1.00  0.00     0.023 C 
BRANCH  22  23
ATOM     23  C   UNL A   1      33.887  30.037  27.332  1.00  0.00     0.023 C 
BRANCH  23  24
ATOM     24  C   UNL A   1      34.401  31.469  27.535  1.00  0.00     0.116 C 
BRANCH  24  25
ATOM     25  N   UNL A   1      34.236  31.939  28.896  1.00  0.00    -0.352 N 
ATOM     26  C   UNL A   1      34.997  31.911  30.034  1.00  0.00     0.251 C 
ATOM     27  H   UNL A   1      33.370  32.383  29.035  1.00  0.00     0.163 HD
ATOM     28  O   UNL A   1      34.530  32.485  31.009  1.00  0.00    -0.269 OA
BRANCH  26  29
ATOM     29  C   UNL A   1      36.306  31.213  30.168  1.00  0.00     0.039 A 
ATOM     30  C   UNL A   1      37.556  31.810  30.029  1.00  0.00     0.014 A 
ATOM     31  C   UNL A   1      36.245  29.822  30.386  1.00  0.00     0.014 A 
ATOM     32  C   UNL A   1      38.710  31.039  30.041  1.00  0.00     0.010 A 
ATOM     33  C   UNL A   1      37.400  29.044  30.406  1.00  0.00     0.010 A 
ATOM     34  C   UNL A   1      38.629  29.653  30.190  1.00  0.00    -0.014 A 
BRANCH  34  35
ATOM     35  C   UNL A   1      39.884  28.918  30.125  1.00  0.00     0.031 A 
ATOM     36  C   UNL A   1      40.636  28.795  31.406  1.00  0.00     0.074 A 
ATOM     37  C   UNL A   1      40.359  28.352  29.000  1.00  0.00     0.049 A 
ATOM     38  N   UNL A   1      41.801  29.279  31.697  1.00  0.00    -0.248 NA
ATOM     39  C   UNL A   1      39.969  28.120  32.527  1.00  0.00     0.031 C 
ATOM     40  C   UNL A   1      39.677  28.130  27.725  1.00  0.00     0.029 A 
ATOM     41  N   UNL A   1      41.575  27.773  28.808  1.00  0.00    -0.354 N 
ATOM     42  C   UNL A   1      42.092  28.841  32.988  1.00  0.00     0.074 A 
ATOM     43  C   UNL A   1      40.889  28.223  33.487  1.00  0.00     0.031 C 
ATOM     44  C   UNL A   1      40.408  27.272  26.979  1.00  0.00     0.029 A 
ATOM     45  C   UNL A   1      41.660  26.997  27.666  1.00  0.00     0.049 A 
ATOM     46  H   UNL A   1      42.330  27.894  29.429  1.00  0.00     0.167 HD
ATOM     47  C   UNL A   1      43.356  28.867  33.495  1.00  0.00     0.037 A 
ATOM     48  C   UNL A   1      42.657  26.135  27.353  1.00  0.00     0.037 A 
ATOM     49  C   UNL A   1      44.206  29.773  32.771  1.00  0.00     0.049 A 
ATOM     50  C   UNL A   1      43.858  26.518  28.138  1.00  0.00     0.074 A 
ATOM     51  C   UNL A   1      44.176  31.129  32.501  1.00  0.00     0.029 A 
ATOM     52  N   UNL A   1      45.143  29.256  31.910  1.00  0.00    -0.354 N 
ATOM     53  N   UNL A   1      44.558  27.597  27.921  1.00  0.00    -0.248 NA
ATOM     54  C   UNL A   1      44.029  25.921  29.456  1.00  0.00     0.031 C 
ATOM     55  C   UNL A   1      44.681  31.250  31.173  1.00  0.00     0.029 A 
ATOM     56  C   UNL A   1      45.021  29.968  30.745  1.00  0.00     0.049 A 
ATOM     57  H   UNL A   1      45.772  28.522  32.093  1.00  0.00     0.167 HD
ATOM     58  C   UNL A   1      44.913  28.050  29.183  1.00  0.00     0.074 A 
ATOM     59  C   UNL A   1      44.642  26.930  30.080  1.00  0.00     0.031 C 
ATOM     60  C   UNL A   1      45.130  29.375  29.434  1.00  0.00     0.037 A 
BRANCH  47  61
ATOM     61  C   UNL A   1      43.911  27.835  34.445  1.00  0.00     0.057 A 
ATOM     62  C   UNL A   1      44.159  26.496  34.083  1.00  0.00     0.134 A 
ATOM     63  C   UNL A   1      44.504  28.248  35.653  1.00  0.00     0.134 A 
ATOM     64  F   UNL A   1      43.727  25.976  32.927  1.00  0.00    -0.206 F 
ATOM     65  C   UNL A   1      44.958  25.641  34.846  1.00  0.00     0.040 A 
ATOM     66  C   UNL A   1      45.348  27.415  36.398  1.00  0.00     0.040 A 
ATOM     67  F   UNL A   1      44.352  29.504  36.102  1.00  0.00    -0.206 F 
ATOM     68  C   UNL A   1      45.586  26.110  35.990  1.00  0.00     0.006 A 
ENDBRANCH  47  61
BRANCH  48  69
ATOM     69  C   UNL A   1      42.538  24.847  26.638  1.00  0.00     0.057 A 
ATOM     70  C   UNL A   1      41.888  23.742  27.220  1.00  0.00     0.134 A 
ATOM     71  C   UNL A   1      43.265  24.586  25.470  1.00  0.00     0.134 A 
ATOM     72  F   UNL A   1      41.241  23.853  28.390  1.00  0.00    -0.206 F 
ATOM     73  C   UNL A   1      41.950  22.459  26.671  1.00  0.00     0.040 A 
ATOM     74  C   UNL A   1      43.345  23.301  24.916  1.00  0.00     0.040 A 
ATOM     75  F   UNL A   1      43.964  25.561  24.869  1.00  0.00    -0.206 F 
ATOM     76  C   UNL A   1      42.690  22.231  25.520  1.00  0.00     0.006 A 
ENDBRANCH  48  69
BRANCH  60  77
ATOM     77  C   UNL A   1      45.197  30.319  28.266  1.00  0.00     0.057 A 
ATOM     78  C   UNL A   1      46.446  30.772  27.826  1.00  0.00     0.134 A 
ATOM     79  C   UNL A   1      44.067  30.904  27.676  1.00  0.00     0.134 A 
ATOM     80  F   UNL A   1      47.572  30.309  28.391  1.00  0.00    -0.206 F 
ATOM     81  C   UNL A   1      46.568  31.746  26.832  1.00  0.00     0.040 A 
ATOM     82  C   UNL A   1      44.176  31.853  26.654  1.00  0.00     0.040 A 
ATOM     83  F   UNL A   1      42.832  30.622  28.109  1.00  0.00    -0.206 F 
ATOM     84  C   UNL A   1      45.430  32.280  26.232  1.00  0.00     0.006 A 
ENDBRANCH  60  77
ENDBRANCH  34  35
ENDBRANCH  26  29
ENDBRANCH  24  25
ENDBRANCH  23  24
ENDBRANCH  22  23
ENDBRANCH   1  22
TORSDOF 15
ENDMDL
