MODEL 1
REMARK VINA RESULT:     -13.4      0.000      0.000
REMARK SMILES Cc1ccccc1/[NH+]=C1\S[C@@H](CC(=O)Nc2ccc(C(=O)NCCCCNC(=O)c3ccc(-c4c5nc(c(-c6c(F)cccc6F)c6ccc([nH]6)c(-c6c(F)cccc6F)c6nc(c(-c7c(F)cccc7F)c7ccc4[nH]7)C=C6)C=C5)cc3)cc2)C(=O)N1C
REMARK SMILES IDX 23 1 22 2 20 3 21 4 19 6 16 7 17 8 85 9 18 10 84 11 15 12
REMARK SMILES IDX 13 13 14 14 12 16 11 17 8 18 9 19 10 21 88 22 86 23 89 24
REMARK SMILES IDX 87 25 7 26 1 27 2 28 3 29 4 30 6 31 5 32 24 33 25 34 26 35
REMARK SMILES IDX 27 36 28 37 29 39 30 40 31 41 83 42 32 43 82 44 33 45 34 46
REMARK SMILES IDX 35 47 76 48 36 49 81 50 75 51 77 52 37 53 80 54 74 55 73 56
REMARK SMILES IDX 38 58 64 59 47 60 63 61 48 62 51 63 62 64 78 65 49 66 50 67
REMARK SMILES IDX 61 69 79 70 52 71 39 72 40 73 45 74 41 75 42 76 44 77 46 78
REMARK SMILES IDX 43 79 65 80 66 81 71 82 67 83 68 84 70 85 72 86 69 87 53 88
REMARK SMILES IDX 54 89 59 90 55 91 56 92 58 93 60 94 57 95
REMARK H PARENT 22 5 15 15 8 20 27 38 77 57 51 68
REMARK Flexibility Score: inf
ROOT
ATOM      1  C   UNL A   1      34.664  30.403  27.629  1.00  0.00     0.116 C 
ENDROOT
BRANCH   1   2
ATOM      2  N   UNL A   1      33.288  29.966  27.852  1.00  0.00    -0.352 N 
ATOM      3  C   UNL A   1      32.425  29.138  27.164  1.00  0.00     0.251 C 
ATOM      4  O   UNL A   1      31.396  28.786  27.744  1.00  0.00    -0.269 OA
ATOM      5  H   UNL A   1      32.891  30.344  28.671  1.00  0.00     0.163 HD
BRANCH   3   6
ATOM      6  C   UNL A   1      32.657  28.649  25.776  1.00  0.00     0.039 A 
ATOM      7  C   UNL A   1      32.987  27.700  23.138  1.00  0.00     0.041 A 
ATOM      8  C   UNL A   1      33.919  27.440  24.132  1.00  0.00     0.027 A 
ATOM      9  C   UNL A   1      31.972  28.604  23.409  1.00  0.00     0.027 A 
ATOM     10  C   UNL A   1      33.752  27.878  25.437  1.00  0.00     0.016 A 
ATOM     11  C   UNL A   1      31.802  29.063  24.731  1.00  0.00     0.016 A 
BRANCH   7  12
ATOM     12  N   UNL A   1      33.109  27.067  21.891  1.00  0.00    -0.326 N 
ATOM     13  C   UNL A   1      32.763  25.759  21.608  1.00  0.00     0.226 C 
ATOM     14  O   UNL A   1      33.172  25.202  20.590  1.00  0.00    -0.275 OA
ATOM     15  H   UNL A   1      33.474  27.605  21.151  1.00  0.00     0.169 HD
BRANCH  13  16
ATOM     16  C   UNL A   1      31.683  25.118  22.466  1.00  0.00     0.128 C 
BRANCH  16  17
ATOM     17  C   UNL A   1      32.148  24.254  23.617  1.00  0.00     0.183 C 
ATOM     18  N   UNL A   1      32.418  21.228  25.590  1.00  0.00    -0.234 N 
ATOM     19  C   UNL A   1      31.842  22.128  24.881  1.00  0.00     0.319 C 
ATOM     20  H   UNL A   1      32.223  21.275  26.555  1.00  0.00     0.313 HD
ATOM     21  S   UNL A   1      31.861  22.489  23.191  1.00  0.00    -0.022 SA
ATOM     22  N   UNL A   1      31.133  23.127  25.468  1.00  0.00    -0.193 N 
ATOM     23  C   UNL A   1      31.450  24.377  24.971  1.00  0.00     0.324 C 
ATOM     24  C   UNL A   1      30.288  22.950  26.629  1.00  0.00     0.301 C 
ATOM     25  O   UNL A   1      31.277  25.418  25.568  1.00  0.00    -0.245 OA
BRANCH  18  26
ATOM     26  C   UNL A   1      33.282  20.185  25.214  1.00  0.00     0.128 A 
ATOM     27  C   UNL A   1      35.617  21.314  25.305  1.00  0.00     0.049 C 
ATOM     28  C   UNL A   1      34.679  20.175  25.033  1.00  0.00    -0.004 A 
ATOM     29  C   UNL A   1      35.311  18.995  24.578  1.00  0.00     0.008 A 
ATOM     30  C   UNL A   1      34.610  17.804  24.422  1.00  0.00     0.001 A 
ATOM     31  C   UNL A   1      32.618  18.945  25.116  1.00  0.00     0.052 A 
ATOM     32  C   UNL A   1      33.261  17.770  24.724  1.00  0.00     0.004 A 
ENDBRANCH  18  26
ENDBRANCH  16  17
ENDBRANCH  13  16
ENDBRANCH   7  12
ENDBRANCH   3   6
ENDBRANCH   1   2
BRANCH   1  33
ATOM     33  C   UNL A   1      34.908  31.892  27.951  1.00  0.00     0.023 C 
BRANCH  33  34
ATOM     34  C   UNL A   1      34.909  32.269  29.436  1.00  0.00     0.023 C 
BRANCH  34  35
ATOM     35  C   UNL A   1      34.781  33.763  29.710  1.00  0.00     0.116 C 
BRANCH  35  36
ATOM     36  N   UNL A   1      33.821  34.158  30.741  1.00  0.00    -0.352 N 
ATOM     37  C   UNL A   1      33.995  34.174  32.122  1.00  0.00     0.251 C 
ATOM     38  H   UNL A   1      32.939  34.449  30.417  1.00  0.00     0.163 HD
ATOM     39  O   UNL A   1      33.083  34.537  32.858  1.00  0.00    -0.269 OA
BRANCH  37  40
ATOM     40  C   UNL A   1      35.343  33.903  32.688  1.00  0.00     0.039 A 
ATOM     41  C   UNL A   1      36.391  34.749  32.312  1.00  0.00     0.014 A 
ATOM     42  C   UNL A   1      35.616  32.673  33.273  1.00  0.00     0.014 A 
ATOM     43  C   UNL A   1      37.672  34.220  32.193  1.00  0.00     0.010 A 
ATOM     44  C   UNL A   1      36.844  32.102  33.031  1.00  0.00     0.010 A 
ATOM     45  C   UNL A   1      37.847  32.856  32.422  1.00  0.00    -0.014 A 
BRANCH  45  46
ATOM     46  C   UNL A   1      39.060  32.131  32.086  1.00  0.00     0.031 A 
ATOM     47  C   UNL A   1      38.931  30.858  31.374  1.00  0.00     0.074 A 
ATOM     48  C   UNL A   1      40.275  32.658  32.344  1.00  0.00     0.049 A 
ATOM     49  N   UNL A   1      39.761  29.881  31.462  1.00  0.00    -0.248 NA
ATOM     50  C   UNL A   1      37.804  30.593  30.492  1.00  0.00     0.031 C 
ATOM     51  C   UNL A   1      41.590  32.142  31.978  1.00  0.00     0.029 A 
ATOM     52  N   UNL A   1      40.558  33.669  33.258  1.00  0.00    -0.354 N 
ATOM     53  C   UNL A   1      39.489  29.033  30.414  1.00  0.00     0.074 A 
ATOM     54  C   UNL A   1      38.204  29.460  29.913  1.00  0.00     0.031 C 
ATOM     55  C   UNL A   1      42.480  32.543  32.906  1.00  0.00     0.029 A 
ATOM     56  C   UNL A   1      41.728  33.247  33.928  1.00  0.00     0.049 A 
ATOM     57  H   UNL A   1      40.051  34.501  33.406  1.00  0.00     0.167 HD
ATOM     58  C   UNL A   1      40.478  28.198  29.979  1.00  0.00     0.037 A 
ATOM     59  C   UNL A   1      41.685  32.956  35.262  1.00  0.00     0.037 A 
ATOM     60  C   UNL A   1      41.646  28.274  30.865  1.00  0.00     0.049 A 
ATOM     61  C   UNL A   1      42.078  31.525  35.538  1.00  0.00     0.074 A 
ATOM     62  C   UNL A   1      42.845  28.965  30.771  1.00  0.00     0.029 A 
ATOM     63  N   UNL A   1      41.523  27.893  32.202  1.00  0.00    -0.354 N 
ATOM     64  N   UNL A   1      42.003  30.583  34.636  1.00  0.00    -0.248 NA
ATOM     65  C   UNL A   1      42.606  31.037  36.810  1.00  0.00     0.031 C 
ATOM     66  C   UNL A   1      43.386  29.090  32.074  1.00  0.00     0.029 A 
ATOM     67  C   UNL A   1      42.533  28.457  32.962  1.00  0.00     0.049 A 
ATOM     68  H   UNL A   1      40.816  27.306  32.554  1.00  0.00     0.167 HD
ATOM     69  C   UNL A   1      42.488  29.414  35.152  1.00  0.00     0.074 A 
ATOM     70  C   UNL A   1      42.841  29.744  36.523  1.00  0.00     0.031 C 
ATOM     71  C   UNL A   1      42.588  28.275  34.406  1.00  0.00     0.037 A 
BRANCH  58  72
ATOM     72  C   UNL A   1      40.497  27.628  28.575  1.00  0.00     0.057 A 
ATOM     73  C   UNL A   1      39.896  26.386  28.287  1.00  0.00     0.134 A 
ATOM     74  C   UNL A   1      41.152  28.214  27.476  1.00  0.00     0.134 A 
ATOM     75  F   UNL A   1      39.138  25.744  29.183  1.00  0.00    -0.206 F 
ATOM     76  C   UNL A   1      40.042  25.732  27.056  1.00  0.00     0.040 A 
ATOM     77  C   UNL A   1      41.356  27.548  26.258  1.00  0.00     0.040 A 
ATOM     78  F   UNL A   1      41.574  29.483  27.507  1.00  0.00    -0.206 F 
ATOM     79  C   UNL A   1      40.808  26.293  26.047  1.00  0.00     0.006 A 
ENDBRANCH  58  72
BRANCH  59  80
ATOM     80  C   UNL A   1      40.638  33.763  35.959  1.00  0.00     0.057 A 
ATOM     81  C   UNL A   1      39.410  33.114  36.230  1.00  0.00     0.134 A 
ATOM     82  C   UNL A   1      40.909  34.913  36.697  1.00  0.00     0.134 A 
ATOM     83  F   UNL A   1      39.084  31.993  35.564  1.00  0.00    -0.206 F 
ATOM     84  C   UNL A   1      38.584  33.480  37.292  1.00  0.00     0.040 A 
ATOM     85  C   UNL A   1      40.058  35.318  37.739  1.00  0.00     0.040 A 
ATOM     86  F   UNL A   1      42.047  35.597  36.516  1.00  0.00    -0.206 F 
ATOM     87  C   UNL A   1      38.925  34.572  38.072  1.00  0.00     0.006 A 
ENDBRANCH  59  80
BRANCH  71  88
ATOM     88  C   UNL A   1      42.889  26.911  34.963  1.00  0.00     0.057 A 
ATOM     89  C   UNL A   1      42.093  26.275  35.927  1.00  0.00     0.134 A 
ATOM     90  C   UNL A   1      43.936  26.130  34.430  1.00  0.00     0.134 A 
ATOM     91  F   UNL A   1      40.991  26.858  36.420  1.00  0.00    -0.206 F 
ATOM     92  C   UNL A   1      42.369  24.984  36.389  1.00  0.00     0.040 A 
ATOM     93  C   UNL A   1      44.188  24.821  34.847  1.00  0.00     0.040 A 
ATOM     94  F   UNL A   1      44.745  26.597  33.468  1.00  0.00    -0.206 F 
ATOM     95  C   UNL A   1      43.416  24.250  35.847  1.00  0.00     0.006 A 
ENDBRANCH  71  88
ENDBRANCH  45  46
ENDBRANCH  37  40
ENDBRANCH  35  36
ENDBRANCH  34  35
ENDBRANCH  33  34
ENDBRANCH   1  33
TORSDOF 15
ENDMDL
MODEL 2
REMARK VINA RESULT:     -13.3      1.127      2.143
REMARK SMILES Cc1ccccc1/[NH+]=C1\S[C@@H](CC(=O)Nc2ccc(C(=O)NCCCCNC(=O)c3ccc(-c4c5nc(c(-c6c(F)cccc6F)c6ccc([nH]6)c(-c6c(F)cccc6F)c6nc(c(-c7c(F)cccc7F)c7ccc4[nH]7)C=C6)C=C5)cc3)cc2)C(=O)N1C
REMARK SMILES IDX 23 1 22 2 20 3 21 4 19 6 16 7 17 8 85 9 18 10 84 11 15 12
REMARK SMILES IDX 13 13 14 14 12 16 11 17 8 18 9 19 10 21 88 22 86 23 89 24
REMARK SMILES IDX 87 25 7 26 1 27 2 28 3 29 4 30 6 31 5 32 24 33 25 34 26 35
REMARK SMILES IDX 27 36 28 37 29 39 30 40 31 41 83 42 32 43 82 44 33 45 34 46
REMARK SMILES IDX 35 47 76 48 36 49 81 50 75 51 77 52 37 53 80 54 74 55 73 56
REMARK SMILES IDX 38 58 64 59 47 60 63 61 48 62 51 63 62 64 78 65 49 66 50 67
REMARK SMILES IDX 61 69 79 70 52 71 39 72 40 73 45 74 41 75 42 76 44 77 46 78
REMARK SMILES IDX 43 79 65 80 66 81 71 82 67 83 68 84 70 85 72 86 69 87 53 88
REMARK SMILES IDX 54 89 59 90 55 91 56 92 58 93 60 94 57 95
REMARK H PARENT 22 5 15 15 8 20 27 38 77 57 51 68
REMARK Flexibility Score: inf
ROOT
ATOM      1  C   UNL A   1      35.008  29.750  27.720  1.00  0.00     0.116 C 
ENDROOT
BRANCH   1   2
ATOM      2  N   UNL A   1      33.579  29.511  27.908  1.00  0.00    -0.352 N 
ATOM      3  C   UNL A   1      32.614  28.863  27.166  1.00  0.00     0.251 C 
ATOM      4  O   UNL A   1      31.535  28.634  27.717  1.00  0.00    -0.269 OA
ATOM      5  H   UNL A   1      33.230  29.895  28.745  1.00  0.00     0.163 HD
BRANCH   3   6
ATOM      6  C   UNL A   1      32.791  28.426  25.752  1.00  0.00     0.039 A 
ATOM      7  C   UNL A   1      33.020  27.579  23.069  1.00  0.00     0.041 A 
ATOM      8  C   UNL A   1      33.991  27.286  24.015  1.00  0.00     0.027 A 
ATOM      9  C   UNL A   1      32.013  28.466  23.414  1.00  0.00     0.027 A 
ATOM     10  C   UNL A   1      33.875  27.674  25.341  1.00  0.00     0.016 A 
ATOM     11  C   UNL A   1      31.894  28.876  24.758  1.00  0.00     0.016 A 
BRANCH   7  12
ATOM     12  N   UNL A   1      33.094  26.993  21.796  1.00  0.00    -0.326 N 
ATOM     13  C   UNL A   1      32.841  25.668  21.496  1.00  0.00     0.226 C 
ATOM     14  O   UNL A   1      33.212  25.177  20.430  1.00  0.00    -0.275 OA
ATOM     15  H   UNL A   1      33.349  27.582  21.048  1.00  0.00     0.169 HD
BRANCH  13  16
ATOM     16  C   UNL A   1      31.894  24.909  22.413  1.00  0.00     0.128 C 
BRANCH  16  17
ATOM     17  C   UNL A   1      32.507  24.235  23.621  1.00  0.00     0.183 C 
ATOM     18  N   UNL A   1      34.697  21.950  25.384  1.00  0.00    -0.234 N 
ATOM     19  C   UNL A   1      33.883  22.340  24.472  1.00  0.00     0.319 C 
ATOM     20  H   UNL A   1      34.305  21.346  26.056  1.00  0.00     0.313 HD
ATOM     21  S   UNL A   1      34.053  23.384  23.106  1.00  0.00    -0.022 SA
ATOM     22  N   UNL A   1      32.562  22.026  24.540  1.00  0.00    -0.193 N 
ATOM     23  C   UNL A   1      31.738  23.114  24.319  1.00  0.00     0.324 C 
ATOM     24  C   UNL A   1      32.052  20.751  24.996  1.00  0.00     0.301 C 
ATOM     25  O   UNL A   1      30.592  23.197  24.706  1.00  0.00    -0.245 OA
BRANCH  18  26
ATOM     26  C   UNL A   1      36.057  22.245  25.578  1.00  0.00     0.128 A 
ATOM     27  C   UNL A   1      37.235  20.073  24.785  1.00  0.00     0.049 C 
ATOM     28  C   UNL A   1      37.203  21.452  25.375  1.00  0.00    -0.004 A 
ATOM     29  C   UNL A   1      38.474  21.970  25.718  1.00  0.00     0.008 A 
ATOM     30  C   UNL A   1      38.639  23.286  26.134  1.00  0.00     0.001 A 
ATOM     31  C   UNL A   1      36.270  23.594  25.933  1.00  0.00     0.052 A 
ATOM     32  C   UNL A   1      37.534  24.113  26.212  1.00  0.00     0.004 A 
ENDBRANCH  18  26
ENDBRANCH  16  17
ENDBRANCH  13  16
ENDBRANCH   7  12
ENDBRANCH   3   6
ENDBRANCH   1   2
BRANCH   1  33
ATOM     33  C   UNL A   1      35.412  31.236  27.816  1.00  0.00     0.023 C 
BRANCH  33  34
ATOM     34  C   UNL A   1      34.447  32.148  28.583  1.00  0.00     0.023 C 
BRANCH  34  35
ATOM     35  C   UNL A   1      35.087  32.924  29.729  1.00  0.00     0.116 C 
BRANCH  35  36
ATOM     36  N   UNL A   1      34.180  33.443  30.752  1.00  0.00    -0.352 N 
ATOM     37  C   UNL A   1      34.428  33.641  32.106  1.00  0.00     0.251 C 
ATOM     38  H   UNL A   1      33.277  33.683  30.442  1.00  0.00     0.163 HD
ATOM     39  O   UNL A   1      33.552  34.091  32.838  1.00  0.00    -0.269 OA
BRANCH  37  40
ATOM     40  C   UNL A   1      35.808  33.457  32.627  1.00  0.00     0.039 A 
ATOM     41  C   UNL A   1      36.802  34.328  32.167  1.00  0.00     0.014 A 
ATOM     42  C   UNL A   1      36.160  32.271  33.257  1.00  0.00     0.014 A 
ATOM     43  C   UNL A   1      38.099  33.848  32.019  1.00  0.00     0.010 A 
ATOM     44  C   UNL A   1      37.402  31.741  32.991  1.00  0.00     0.010 A 
ATOM     45  C   UNL A   1      38.344  32.506  32.304  1.00  0.00    -0.014 A 
BRANCH  45  46
ATOM     46  C   UNL A   1      39.574  31.818  31.952  1.00  0.00     0.031 A 
ATOM     47  C   UNL A   1      39.486  30.649  31.074  1.00  0.00     0.074 A 
ATOM     48  C   UNL A   1      40.772  32.294  32.351  1.00  0.00     0.049 A 
ATOM     49  N   UNL A   1      40.307  29.661  31.086  1.00  0.00    -0.248 NA
ATOM     50  C   UNL A   1      38.415  30.512  30.098  1.00  0.00     0.031 C 
ATOM     51  C   UNL A   1      42.106  31.816  32.002  1.00  0.00     0.029 A 
ATOM     52  N   UNL A   1      41.000  33.176  33.404  1.00  0.00    -0.354 N 
ATOM     53  C   UNL A   1      40.098  28.958  29.922  1.00  0.00     0.074 A 
ATOM     54  C   UNL A   1      38.848  29.459  29.403  1.00  0.00     0.031 C 
ATOM     55  C   UNL A   1      42.937  32.084  33.027  1.00  0.00     0.029 A 
ATOM     56  C   UNL A   1      42.125  32.658  34.084  1.00  0.00     0.049 A 
ATOM     57  H   UNL A   1      40.486  33.987  33.627  1.00  0.00     0.167 HD
ATOM     58  C   UNL A   1      41.110  28.176  29.444  1.00  0.00     0.037 A 
ATOM     59  C   UNL A   1      41.999  32.197  35.364  1.00  0.00     0.037 A 
ATOM     60  C   UNL A   1      42.221  28.125  30.402  1.00  0.00     0.049 A 
ATOM     61  C   UNL A   1      42.370  30.738  35.475  1.00  0.00     0.074 A 
ATOM     62  C   UNL A   1      43.425  28.809  30.472  1.00  0.00     0.029 A 
ATOM     63  N   UNL A   1      42.015  27.575  31.668  1.00  0.00    -0.354 N 
ATOM     64  N   UNL A   1      42.349  29.922  34.456  1.00  0.00    -0.248 NA
ATOM     65  C   UNL A   1      42.816  30.085  36.703  1.00  0.00     0.031 C 
ATOM     66  C   UNL A   1      43.885  28.759  31.811  1.00  0.00     0.029 A 
ATOM     67  C   UNL A   1      42.976  28.025  32.555  1.00  0.00     0.049 A 
ATOM     68  H   UNL A   1      41.286  26.954  31.897  1.00  0.00     0.167 HD
ATOM     69  C   UNL A   1      42.798  28.691  34.844  1.00  0.00     0.074 A 
ATOM     70  C   UNL A   1      43.066  28.837  36.265  1.00  0.00     0.031 C 
ATOM     71  C   UNL A   1      42.942  27.657  33.964  1.00  0.00     0.037 A 
BRANCH  58  72
ATOM     72  C   UNL A   1      41.215  27.793  27.981  1.00  0.00     0.057 A 
ATOM     73  C   UNL A   1      40.652  26.592  27.503  1.00  0.00     0.134 A 
ATOM     74  C   UNL A   1      41.918  28.522  27.005  1.00  0.00     0.134 A 
ATOM     75  F   UNL A   1      39.857  25.832  28.266  1.00  0.00    -0.206 F 
ATOM     76  C   UNL A   1      40.876  26.104  26.208  1.00  0.00     0.040 A 
ATOM     77  C   UNL A   1      42.199  28.021  25.725  1.00  0.00     0.040 A 
ATOM     78  F   UNL A   1      42.316  29.780  27.222  1.00  0.00    -0.206 F 
ATOM     79  C   UNL A   1      41.685  26.798  25.324  1.00  0.00     0.006 A 
ENDBRANCH  58  72
BRANCH  59  80
ATOM     80  C   UNL A   1      40.912  32.919  36.093  1.00  0.00     0.057 A 
ATOM     81  C   UNL A   1      41.199  34.237  36.521  1.00  0.00     0.134 A 
ATOM     82  C   UNL A   1      39.566  32.568  36.023  1.00  0.00     0.134 A 
ATOM     83  F   UNL A   1      42.475  34.651  36.604  1.00  0.00    -0.206 F 
ATOM     84  C   UNL A   1      40.210  35.204  36.695  1.00  0.00     0.040 A 
ATOM     85  C   UNL A   1      38.559  33.523  36.244  1.00  0.00     0.040 A 
ATOM     86  F   UNL A   1      39.192  31.344  35.627  1.00  0.00    -0.206 F 
ATOM     87  C   UNL A   1      38.881  34.853  36.527  1.00  0.00     0.006 A 
ENDBRANCH  59  80
BRANCH  71  88
ATOM     88  C   UNL A   1      43.203  26.230  34.357  1.00  0.00     0.057 A 
ATOM     89  C   UNL A   1      44.464  25.622  34.275  1.00  0.00     0.134 A 
ATOM     90  C   UNL A   1      42.196  25.455  34.971  1.00  0.00     0.134 A 
ATOM     91  F   UNL A   1      45.537  26.293  33.831  1.00  0.00    -0.206 F 
ATOM     92  C   UNL A   1      44.688  24.306  34.696  1.00  0.00     0.040 A 
ATOM     93  C   UNL A   1      42.423  24.160  35.443  1.00  0.00     0.040 A 
ATOM     94  F   UNL A   1      40.956  25.931  35.158  1.00  0.00    -0.206 F 
ATOM     95  C   UNL A   1      43.668  23.572  35.286  1.00  0.00     0.006 A 
ENDBRANCH  71  88
ENDBRANCH  45  46
ENDBRANCH  37  40
ENDBRANCH  35  36
ENDBRANCH  34  35
ENDBRANCH  33  34
ENDBRANCH   1  33
TORSDOF 15
ENDMDL
MODEL 3
REMARK VINA RESULT:     -13.2      3.136      5.127
REMARK SMILES Cc1ccccc1/[NH+]=C1\S[C@@H](CC(=O)Nc2ccc(C(=O)NCCCCNC(=O)c3ccc(-c4c5nc(c(-c6c(F)cccc6F)c6ccc([nH]6)c(-c6c(F)cccc6F)c6nc(c(-c7c(F)cccc7F)c7ccc4[nH]7)C=C6)C=C5)cc3)cc2)C(=O)N1C
REMARK SMILES IDX 23 1 22 2 20 3 21 4 19 6 16 7 17 8 85 9 18 10 84 11 15 12
REMARK SMILES IDX 13 13 14 14 12 16 11 17 8 18 9 19 10 21 88 22 86 23 89 24
REMARK SMILES IDX 87 25 7 26 1 27 2 28 3 29 4 30 6 31 5 32 24 33 25 34 26 35
REMARK SMILES IDX 27 36 28 37 29 39 30 40 31 41 83 42 32 43 82 44 33 45 34 46
REMARK SMILES IDX 35 47 76 48 36 49 81 50 75 51 77 52 37 53 80 54 74 55 73 56
REMARK SMILES IDX 38 58 64 59 47 60 63 61 48 62 51 63 62 64 78 65 49 66 50 67
REMARK SMILES IDX 61 69 79 70 52 71 39 72 40 73 45 74 41 75 42 76 44 77 46 78
REMARK SMILES IDX 43 79 65 80 66 81 71 82 67 83 68 84 70 85 72 86 69 87 53 88
REMARK SMILES IDX 54 89 59 90 55 91 56 92 58 93 60 94 57 95
REMARK H PARENT 22 5 15 15 8 20 27 38 77 57 51 68
REMARK Flexibility Score: inf
ROOT
ATOM      1  C   UNL A   1      33.475  29.694  25.399  1.00  0.00     0.116 C 
ENDROOT
BRANCH   1   2
ATOM      2  N   UNL A   1      32.783  29.698  24.112  1.00  0.00    -0.352 N 
ATOM      3  C   UNL A   1      31.738  28.967  23.588  1.00  0.00     0.251 C 
ATOM      4  O   UNL A   1      31.230  29.375  22.541  1.00  0.00    -0.269 OA
ATOM      5  H   UNL A   1      33.140  30.369  23.485  1.00  0.00     0.163 HD
BRANCH   3   6
ATOM      6  C   UNL A   1      31.189  27.725  24.201  1.00  0.00     0.039 A 
ATOM      7  C   UNL A   1      30.237  25.369  25.430  1.00  0.00     0.041 A 
ATOM      8  C   UNL A   1      30.123  25.580  24.064  1.00  0.00     0.027 A 
ATOM      9  C   UNL A   1      30.658  26.423  26.225  1.00  0.00     0.027 A 
ATOM     10  C   UNL A   1      30.612  26.721  23.447  1.00  0.00     0.016 A 
ATOM     11  C   UNL A   1      31.147  27.592  25.606  1.00  0.00     0.016 A 
BRANCH   7  12
ATOM     12  N   UNL A   1      29.904  24.116  25.968  1.00  0.00    -0.326 N 
ATOM     13  C   UNL A   1      30.711  22.993  25.967  1.00  0.00     0.226 C 
ATOM     14  O   UNL A   1      30.242  21.876  26.184  1.00  0.00    -0.275 OA
ATOM     15  H   UNL A   1      29.016  24.030  26.384  1.00  0.00     0.169 HD
BRANCH  13  16
ATOM     16  C   UNL A   1      32.216  23.210  25.925  1.00  0.00     0.128 C 
BRANCH  16  17
ATOM     17  C   UNL A   1      33.025  22.224  25.112  1.00  0.00     0.183 C 
ATOM     18  N   UNL A   1      35.222  19.395  24.566  1.00  0.00    -0.234 N 
ATOM     19  C   UNL A   1      34.788  20.462  25.131  1.00  0.00     0.319 C 
ATOM     20  H   UNL A   1      36.022  19.521  24.006  1.00  0.00     0.313 HD
ATOM     21  S   UNL A   1      33.448  20.783  26.174  1.00  0.00    -0.022 SA
ATOM     22  N   UNL A   1      35.339  21.672  24.847  1.00  0.00    -0.193 N 
ATOM     23  C   UNL A   1      34.394  22.644  24.578  1.00  0.00     0.324 C 
ATOM     24  C   UNL A   1      36.753  21.891  24.639  1.00  0.00     0.301 C 
ATOM     25  O   UNL A   1      34.606  23.647  23.931  1.00  0.00    -0.245 OA
BRANCH  18  26
ATOM     26  C   UNL A   1      34.741  18.076  24.618  1.00  0.00     0.128 A 
ATOM     27  C   UNL A   1      32.527  18.218  23.271  1.00  0.00     0.049 C 
ATOM     28  C   UNL A   1      33.554  17.514  24.109  1.00  0.00    -0.004 A 
ATOM     29  C   UNL A   1      33.268  16.152  24.359  1.00  0.00     0.008 A 
ATOM     30  C   UNL A   1      34.185  15.316  24.988  1.00  0.00     0.001 A 
ATOM     31  C   UNL A   1      35.675  17.184  25.187  1.00  0.00     0.052 A 
ATOM     32  C   UNL A   1      35.409  15.828  25.376  1.00  0.00     0.004 A 
ENDBRANCH  18  26
ENDBRANCH  16  17
ENDBRANCH  13  16
ENDBRANCH   7  12
ENDBRANCH   3   6
ENDBRANCH   1   2
BRANCH   1  33
ATOM     33  C   UNL A   1      32.727  30.455  26.514  1.00  0.00     0.023 C 
BRANCH  33  34
ATOM     34  C   UNL A   1      33.601  31.258  27.484  1.00  0.00     0.023 C 
BRANCH  34  35
ATOM     35  C   UNL A   1      35.033  30.754  27.611  1.00  0.00     0.116 C 
BRANCH  35  36
ATOM     36  N   UNL A   1      35.913  31.507  28.505  1.00  0.00    -0.352 N 
ATOM     37  C   UNL A   1      37.076  31.076  29.136  1.00  0.00     0.251 C 
ATOM     38  H   UNL A   1      35.648  32.437  28.683  1.00  0.00     0.163 HD
ATOM     39  O   UNL A   1      37.707  31.839  29.861  1.00  0.00    -0.269 OA
BRANCH  37  40
ATOM     40  C   UNL A   1      37.635  29.741  28.798  1.00  0.00     0.039 A 
ATOM     41  C   UNL A   1      37.755  28.803  29.830  1.00  0.00     0.014 A 
ATOM     42  C   UNL A   1      38.325  29.558  27.608  1.00  0.00     0.014 A 
ATOM     43  C   UNL A   1      38.817  27.905  29.801  1.00  0.00     0.010 A 
ATOM     44  C   UNL A   1      39.454  28.772  27.630  1.00  0.00     0.010 A 
ATOM     45  C   UNL A   1      39.737  28.004  28.759  1.00  0.00    -0.014 A 
BRANCH  45  46
ATOM     46  C   UNL A   1      41.016  27.314  28.744  1.00  0.00     0.031 A 
ATOM     47  C   UNL A   1      41.018  25.864  28.541  1.00  0.00     0.074 A 
ATOM     48  C   UNL A   1      42.174  28.001  28.827  1.00  0.00     0.049 A 
ATOM     49  N   UNL A   1      41.908  25.061  29.002  1.00  0.00    -0.248 NA
ATOM     50  C   UNL A   1      39.965  25.203  27.785  1.00  0.00     0.031 C 
ATOM     51  C   UNL A   1      43.541  27.504  28.711  1.00  0.00     0.029 A 
ATOM     52  N   UNL A   1      42.332  29.295  29.318  1.00  0.00    -0.354 N 
ATOM     53  C   UNL A   1      41.757  23.871  28.327  1.00  0.00     0.074 A 
ATOM     54  C   UNL A   1      40.476  23.976  27.669  1.00  0.00     0.031 C 
ATOM     55  C   UNL A   1      44.345  28.288  29.454  1.00  0.00     0.029 A 
ATOM     56  C   UNL A   1      43.489  29.245  30.129  1.00  0.00     0.049 A 
ATOM     57  H   UNL A   1      41.760  30.077  29.139  1.00  0.00     0.167 HD
ATOM     58  C   UNL A   1      42.825  23.024  28.254  1.00  0.00     0.037 A 
ATOM     59  C   UNL A   1      43.390  29.452  31.475  1.00  0.00     0.037 A 
ATOM     60  C   UNL A   1      43.932  23.516  29.084  1.00  0.00     0.049 A 
ATOM     61  C   UNL A   1      43.866  28.256  32.264  1.00  0.00     0.074 A 
ATOM     62  C   UNL A   1      45.083  24.227  28.778  1.00  0.00     0.029 A 
ATOM     63  N   UNL A   1      43.760  23.633  30.463  1.00  0.00    -0.354 N 
ATOM     64  N   UNL A   1      43.909  27.049  31.765  1.00  0.00    -0.248 NA
ATOM     65  C   UNL A   1      44.352  28.307  33.640  1.00  0.00     0.031 C 
ATOM     66  C   UNL A   1      45.539  24.859  29.962  1.00  0.00     0.029 A 
ATOM     67  C   UNL A   1      44.682  24.517  30.994  1.00  0.00     0.049 A 
ATOM     68  H   UNL A   1      43.077  23.153  30.986  1.00  0.00     0.167 HD
ATOM     69  C   UNL A   1      44.444  26.192  32.684  1.00  0.00     0.074 A 
ATOM     70  C   UNL A   1      44.693  27.022  33.850  1.00  0.00     0.031 C 
ATOM     71  C   UNL A   1      44.667  24.874  32.406  1.00  0.00     0.037 A 
BRANCH  58  72
ATOM     72  C   UNL A   1      42.965  21.991  27.154  1.00  0.00     0.057 A 
ATOM     73  C   UNL A   1      42.186  20.816  27.158  1.00  0.00     0.134 A 
ATOM     74  C   UNL A   1      43.898  22.053  26.103  1.00  0.00     0.134 A 
ATOM     75  F   UNL A   1      41.176  20.642  28.019  1.00  0.00    -0.206 F 
ATOM     76  C   UNL A   1      42.403  19.751  26.274  1.00  0.00     0.040 A 
ATOM     77  C   UNL A   1      44.165  20.974  25.247  1.00  0.00     0.040 A 
ATOM     78  F   UNL A   1      44.553  23.184  25.814  1.00  0.00    -0.206 F 
ATOM     79  C   UNL A   1      43.423  19.809  25.338  1.00  0.00     0.006 A 
ENDBRANCH  58  72
BRANCH  59  80
ATOM     80  C   UNL A   1      42.250  30.362  31.801  1.00  0.00     0.057 A 
ATOM     81  C   UNL A   1      41.076  29.756  32.309  1.00  0.00     0.134 A 
ATOM     82  C   UNL A   1      42.390  31.730  32.026  1.00  0.00     0.134 A 
ATOM     83  F   UNL A   1      40.876  28.438  32.139  1.00  0.00    -0.206 F 
ATOM     84  C   UNL A   1      40.184  30.427  33.144  1.00  0.00     0.040 A 
ATOM     85  C   UNL A   1      41.470  32.427  32.826  1.00  0.00     0.040 A 
ATOM     86  F   UNL A   1      43.467  32.394  31.587  1.00  0.00    -0.206 F 
ATOM     87  C   UNL A   1      40.397  31.765  33.430  1.00  0.00     0.006 A 
ENDBRANCH  59  80
BRANCH  71  88
ATOM     88  C   UNL A   1      45.030  23.834  33.430  1.00  0.00     0.057 A 
ATOM     89  C   UNL A   1      44.164  22.807  33.833  1.00  0.00     0.134 A 
ATOM     90  C   UNL A   1      46.341  23.758  33.946  1.00  0.00     0.134 A 
ATOM     91  F   UNL A   1      42.932  22.689  33.318  1.00  0.00    -0.206 F 
ATOM     92  C   UNL A   1      44.548  21.823  34.750  1.00  0.00     0.040 A 
ATOM     93  C   UNL A   1      46.750  22.749  34.822  1.00  0.00     0.040 A 
ATOM     94  F   UNL A   1      47.286  24.648  33.607  1.00  0.00    -0.206 F 
ATOM     95  C   UNL A   1      45.845  21.788  35.245  1.00  0.00     0.006 A 
ENDBRANCH  71  88
ENDBRANCH  45  46
ENDBRANCH  37  40
ENDBRANCH  35  36
ENDBRANCH  34  35
ENDBRANCH  33  34
ENDBRANCH   1  33
TORSDOF 15
ENDMDL
