MODEL 1
REMARK VINA RESULT:     -13.2      0.000      0.000
REMARK SMILES C[N@H+]1CCO[C@H](c2noc(-c3ccccc3C(=O)NCCCCNC(=O)c3ccc(-c4c5nc(c(-c6c(F)cccc6F)c6ccc([nH]6)c(-c6c(F)cccc6F)c6nc(c(-c7c(F)cccc7F)c7ccc4[nH]7)C=C6)C=C5)cc3)n2)C1
REMARK SMILES IDX 21 1 20 2 19 3 17 4 18 5 16 7 11 8 12 9 13 10 15 11 14 12
REMARK SMILES IDX 10 13 7 14 8 15 81 16 9 17 6 18 1 19 2 20 3 21 82 22 4 24
REMARK SMILES IDX 5 25 22 26 23 27 24 28 25 29 26 31 27 32 28 33 80 34 29 35
REMARK SMILES IDX 79 36 30 37 31 38 32 39 73 40 33 41 78 42 72 43 74 44 34 45
REMARK SMILES IDX 77 46 71 47 70 48 35 50 61 51 44 52 60 53 45 54 48 55 59 56
REMARK SMILES IDX 75 57 46 58 47 59 58 61 76 62 49 63 36 64 37 65 42 66 38 67
REMARK SMILES IDX 39 68 41 69 43 70 40 71 62 72 63 73 68 74 64 75 65 76 67 77
REMARK SMILES IDX 69 78 66 79 50 80 51 81 56 82 52 83 53 84 55 85 57 86 54 87
REMARK H PARENT 19 6 2 23 24 30 74 49 48 60
REMARK Flexibility Score: inf
ROOT
ATOM      1  C   UNL A   1      33.653  28.577  24.214  1.00  0.00     0.023 C 
ENDROOT
BRANCH   1   2
ATOM      2  C   UNL A   1      33.945  28.545  22.712  1.00  0.00     0.116 C 
BRANCH   2   3
ATOM      3  N   UNL A   1      33.467  27.392  21.966  1.00  0.00    -0.352 N 
ATOM      4  C   UNL A   1      32.527  26.420  22.261  1.00  0.00     0.252 C 
ATOM      5  O   UNL A   1      32.082  25.772  21.308  1.00  0.00    -0.269 OA
ATOM      6  H   UNL A   1      33.892  27.282  21.084  1.00  0.00     0.163 HD
BRANCH   4   7
ATOM      7  C   UNL A   1      32.127  25.971  23.638  1.00  0.00     0.052 A 
ATOM      8  C   UNL A   1      30.974  26.318  24.364  1.00  0.00     0.053 A 
ATOM      9  C   UNL A   1      30.790  25.813  25.672  1.00  0.00     0.015 A 
ATOM     10  C   UNL A   1      31.678  24.894  26.223  1.00  0.00     0.001 A 
ATOM     11  C   UNL A   1      32.989  25.005  24.203  1.00  0.00     0.014 A 
ATOM     12  C   UNL A   1      32.763  24.464  25.473  1.00  0.00     0.001 A 
BRANCH   8  13
ATOM     13  C   UNL A   1      29.886  27.062  23.782  1.00  0.00     0.258 A 
ATOM     14  C   UNL A   1      28.589  28.455  22.937  1.00  0.00     0.206 A 
ATOM     15  N   UNL A   1      27.749  27.562  23.480  1.00  0.00    -0.059 NA
ATOM     16  N   UNL A   1      29.920  28.160  23.074  1.00  0.00    -0.189 NA
ATOM     17  O   UNL A   1      28.618  26.616  24.034  1.00  0.00    -0.334 OA
BRANCH  14  18
ATOM     18  C   UNL A   1      28.164  29.804  22.477  1.00  0.00     0.245 C 
ATOM     19  C   UNL A   1      27.871  32.016  20.243  1.00  0.00     0.332 C 
ATOM     20  N   UNL A   1      28.971  31.884  21.199  1.00  0.00    -0.333 N 
ATOM     21  C   UNL A   1      28.699  32.624  22.444  1.00  0.00     0.290 C 
ATOM     22  C   UNL A   1      29.226  30.459  21.554  1.00  0.00     0.303 C 
ATOM     23  H   UNL A   1      29.791  32.274  20.736  1.00  0.00     0.348 HD
ATOM     24  C   UNL A   1      27.622  31.944  23.274  1.00  0.00     0.222 C 
ATOM     25  O   UNL A   1      27.967  30.627  23.647  1.00  0.00    -0.358 OA
ENDBRANCH  14  18
ENDBRANCH   8  13
ENDBRANCH   4   7
ENDBRANCH   2   3
ENDBRANCH   1   2
BRANCH   1  26
ATOM     26  C   UNL A   1      32.601  29.563  24.767  1.00  0.00     0.023 C 
BRANCH  26  27
ATOM     27  C   UNL A   1      32.429  29.747  26.290  1.00  0.00     0.116 C 
BRANCH  27  28
ATOM     28  N   UNL A   1      32.202  31.111  26.756  1.00  0.00    -0.352 N 
ATOM     29  C   UNL A   1      33.069  31.978  27.397  1.00  0.00     0.251 C 
ATOM     30  H   UNL A   1      31.299  31.468  26.590  1.00  0.00     0.163 HD
ATOM     31  O   UNL A   1      32.729  33.138  27.642  1.00  0.00    -0.269 OA
BRANCH  29  32
ATOM     32  C   UNL A   1      34.435  31.548  27.777  1.00  0.00     0.039 A 
ATOM     33  C   UNL A   1      35.480  32.445  27.925  1.00  0.00     0.014 A 
ATOM     34  C   UNL A   1      34.712  30.196  27.920  1.00  0.00     0.014 A 
ATOM     35  C   UNL A   1      36.731  31.974  28.363  1.00  0.00     0.010 A 
ATOM     36  C   UNL A   1      35.886  29.739  28.505  1.00  0.00     0.010 A 
ATOM     37  C   UNL A   1      36.914  30.632  28.780  1.00  0.00    -0.014 A 
BRANCH  37  38
ATOM     38  C   UNL A   1      38.072  30.225  29.637  1.00  0.00     0.031 A 
ATOM     39  C   UNL A   1      38.252  30.644  31.081  1.00  0.00     0.074 A 
ATOM     40  C   UNL A   1      39.087  29.570  29.030  1.00  0.00     0.049 A 
ATOM     41  N   UNL A   1      39.238  30.359  31.901  1.00  0.00    -0.248 NA
ATOM     42  C   UNL A   1      37.253  31.551  31.665  1.00  0.00     0.031 C 
ATOM     43  C   UNL A   1      39.169  29.290  27.593  1.00  0.00     0.029 A 
ATOM     44  N   UNL A   1      40.230  29.004  29.534  1.00  0.00    -0.354 N 
ATOM     45  C   UNL A   1      39.008  31.094  33.060  1.00  0.00     0.074 A 
ATOM     46  C   UNL A   1      37.818  31.880  32.820  1.00  0.00     0.031 C 
ATOM     47  C   UNL A   1      40.220  28.499  27.353  1.00  0.00     0.029 A 
ATOM     48  C   UNL A   1      40.930  28.273  28.603  1.00  0.00     0.049 A 
ATOM     49  H   UNL A   1      40.521  29.111  30.468  1.00  0.00     0.167 HD
ATOM     50  C   UNL A   1      39.703  31.093  34.228  1.00  0.00     0.037 A 
ATOM     51  C   UNL A   1      42.010  27.484  28.733  1.00  0.00     0.037 A 
ATOM     52  C   UNL A   1      40.835  30.237  34.493  1.00  0.00     0.049 A 
ATOM     53  C   UNL A   1      42.646  27.336  30.078  1.00  0.00     0.074 A 
ATOM     54  C   UNL A   1      41.509  30.040  35.688  1.00  0.00     0.029 A 
ATOM     55  N   UNL A   1      41.452  29.428  33.552  1.00  0.00    -0.354 N 
ATOM     56  N   UNL A   1      42.333  27.932  31.202  1.00  0.00    -0.248 NA
ATOM     57  C   UNL A   1      43.779  26.407  30.177  1.00  0.00     0.031 C 
ATOM     58  C   UNL A   1      42.550  29.132  35.461  1.00  0.00     0.029 A 
ATOM     59  C   UNL A   1      42.501  28.735  34.136  1.00  0.00     0.049 A 
ATOM     60  H   UNL A   1      41.185  29.356  32.607  1.00  0.00     0.167 HD
ATOM     61  C   UNL A   1      43.229  27.451  32.145  1.00  0.00     0.074 A 
ATOM     62  C   UNL A   1      44.076  26.490  31.467  1.00  0.00     0.031 C 
ATOM     63  C   UNL A   1      43.344  27.787  33.452  1.00  0.00     0.037 A 
BRANCH  50  64
ATOM     64  C   UNL A   1      39.245  32.012  35.332  1.00  0.00     0.057 A 
ATOM     65  C   UNL A   1      39.618  33.362  35.378  1.00  0.00     0.134 A 
ATOM     66  C   UNL A   1      38.372  31.559  36.331  1.00  0.00     0.134 A 
ATOM     67  F   UNL A   1      40.446  33.871  34.453  1.00  0.00    -0.206 F 
ATOM     68  C   UNL A   1      39.177  34.213  36.394  1.00  0.00     0.040 A 
ATOM     69  C   UNL A   1      37.897  32.408  37.335  1.00  0.00     0.040 A 
ATOM     70  F   UNL A   1      37.951  30.285  36.342  1.00  0.00    -0.206 F 
ATOM     71  C   UNL A   1      38.308  33.739  37.374  1.00  0.00     0.006 A 
ENDBRANCH  50  64
BRANCH  51  72
ATOM     72  C   UNL A   1      42.484  26.710  27.560  1.00  0.00     0.057 A 
ATOM     73  C   UNL A   1      41.992  25.423  27.312  1.00  0.00     0.134 A 
ATOM     74  C   UNL A   1      43.362  27.259  26.620  1.00  0.00     0.134 A 
ATOM     75  F   UNL A   1      41.148  24.845  28.180  1.00  0.00    -0.206 F 
ATOM     76  C   UNL A   1      42.364  24.706  26.176  1.00  0.00     0.040 A 
ATOM     77  C   UNL A   1      43.724  26.563  25.466  1.00  0.00     0.040 A 
ATOM     78  F   UNL A   1      43.843  28.500  26.788  1.00  0.00    -0.206 F 
ATOM     79  C   UNL A   1      43.225  25.281  25.243  1.00  0.00     0.006 A 
ENDBRANCH  51  72
BRANCH  63  80
ATOM     80  C   UNL A   1      44.421  27.102  34.235  1.00  0.00     0.057 A 
ATOM     81  C   UNL A   1      45.702  27.653  34.361  1.00  0.00     0.134 A 
ATOM     82  C   UNL A   1      44.170  25.887  34.884  1.00  0.00     0.134 A 
ATOM     83  F   UNL A   1      46.008  28.808  33.748  1.00  0.00    -0.206 F 
ATOM     84  C   UNL A   1      46.704  27.010  35.087  1.00  0.00     0.040 A 
ATOM     85  C   UNL A   1      45.158  25.245  35.631  1.00  0.00     0.040 A 
ATOM     86  F   UNL A   1      42.963  25.308  34.805  1.00  0.00    -0.206 F 
ATOM     87  C   UNL A   1      46.431  25.803  35.730  1.00  0.00     0.006 A 
ENDBRANCH  63  80
ENDBRANCH  37  38
ENDBRANCH  29  32
ENDBRANCH  27  28
ENDBRANCH  26  27
ENDBRANCH   1  26
TORSDOF 13
ENDMDL
MODEL 2
REMARK VINA RESULT:     -13.0      4.149      7.473
REMARK SMILES C[N@H+]1CCO[C@H](c2noc(-c3ccccc3C(=O)NCCCCNC(=O)c3ccc(-c4c5nc(c(-c6c(F)cccc6F)c6ccc([nH]6)c(-c6c(F)cccc6F)c6nc(c(-c7c(F)cccc7F)c7ccc4[nH]7)C=C6)C=C5)cc3)n2)C1
REMARK SMILES IDX 21 1 20 2 19 3 17 4 18 5 16 7 11 8 12 9 13 10 15 11 14 12
REMARK SMILES IDX 10 13 7 14 8 15 81 16 9 17 6 18 1 19 2 20 3 21 82 22 4 24
REMARK SMILES IDX 5 25 22 26 23 27 24 28 25 29 26 31 27 32 28 33 80 34 29 35
REMARK SMILES IDX 79 36 30 37 31 38 32 39 73 40 33 41 78 42 72 43 74 44 34 45
REMARK SMILES IDX 77 46 71 47 70 48 35 50 61 51 44 52 60 53 45 54 48 55 59 56
REMARK SMILES IDX 75 57 46 58 47 59 58 61 76 62 49 63 36 64 37 65 42 66 38 67
REMARK SMILES IDX 39 68 41 69 43 70 40 71 62 72 63 73 68 74 64 75 65 76 67 77
REMARK SMILES IDX 69 78 66 79 50 80 51 81 56 82 52 83 53 84 55 85 57 86 54 87
REMARK H PARENT 19 6 2 23 24 30 74 49 48 60
REMARK Flexibility Score: inf
ROOT
ATOM      1  C   UNL A   1      31.769  28.785  27.038  1.00  0.00     0.023 C 
ENDROOT
BRANCH   1   2
ATOM      2  C   UNL A   1      32.377  27.474  26.531  1.00  0.00     0.116 C 
BRANCH   2   3
ATOM      3  N   UNL A   1      31.704  26.240  26.905  1.00  0.00    -0.352 N 
ATOM      4  C   UNL A   1      31.883  24.928  26.505  1.00  0.00     0.252 C 
ATOM      5  O   UNL A   1      31.407  24.056  27.240  1.00  0.00    -0.269 OA
ATOM      6  H   UNL A   1      30.985  26.362  27.567  1.00  0.00     0.163 HD
BRANCH   4   7
ATOM      7  C   UNL A   1      32.452  24.477  25.190  1.00  0.00     0.052 A 
ATOM      8  C   UNL A   1      31.956  24.724  23.898  1.00  0.00     0.053 A 
ATOM      9  C   UNL A   1      32.621  24.181  22.775  1.00  0.00     0.015 A 
ATOM     10  C   UNL A   1      33.822  23.489  22.911  1.00  0.00     0.001 A 
ATOM     11  C   UNL A   1      33.693  23.809  25.297  1.00  0.00     0.014 A 
ATOM     12  C   UNL A   1      34.375  23.331  24.173  1.00  0.00     0.001 A 
BRANCH   8  13
ATOM     13  C   UNL A   1      30.866  25.633  23.647  1.00  0.00     0.258 A 
ATOM     14  C   UNL A   1      29.596  27.235  23.254  1.00  0.00     0.206 A 
ATOM     15  N   UNL A   1      28.786  26.361  23.869  1.00  0.00    -0.059 NA
ATOM     16  N   UNL A   1      30.882  26.804  23.067  1.00  0.00    -0.189 NA
ATOM     17  O   UNL A   1      29.633  25.276  24.120  1.00  0.00    -0.334 OA
BRANCH  14  18
ATOM     18  C   UNL A   1      29.246  28.665  23.042  1.00  0.00     0.245 C 
ATOM     19  C   UNL A   1      27.456  31.203  23.614  1.00  0.00     0.332 C 
ATOM     20  N   UNL A   1      27.280  30.240  22.526  1.00  0.00    -0.333 N 
ATOM     21  C   UNL A   1      28.044  30.629  21.327  1.00  0.00     0.290 C 
ATOM     22  C   UNL A   1      27.711  28.871  22.926  1.00  0.00     0.303 C 
ATOM     23  H   UNL A   1      26.282  30.237  22.316  1.00  0.00     0.348 HD
ATOM     24  C   UNL A   1      29.538  30.438  21.531  1.00  0.00     0.222 C 
ATOM     25  O   UNL A   1      29.885  29.100  21.823  1.00  0.00    -0.358 OA
ENDBRANCH  14  18
ENDBRANCH   8  13
ENDBRANCH   4   7
ENDBRANCH   2   3
ENDBRANCH   1   2
BRANCH   1  26
ATOM     26  C   UNL A   1      32.559  30.102  26.883  1.00  0.00     0.023 C 
BRANCH  26  27
ATOM     27  C   UNL A   1      34.055  30.164  27.261  1.00  0.00     0.116 C 
BRANCH  27  28
ATOM     28  N   UNL A   1      34.397  30.976  28.424  1.00  0.00    -0.352 N 
ATOM     29  C   UNL A   1      35.584  31.043  29.132  1.00  0.00     0.251 C 
ATOM     30  H   UNL A   1      33.677  31.562  28.754  1.00  0.00     0.163 HD
ATOM     31  O   UNL A   1      35.723  31.860  30.045  1.00  0.00    -0.269 OA
BRANCH  29  32
ATOM     32  C   UNL A   1      36.726  30.162  28.793  1.00  0.00     0.039 A 
ATOM     33  C   UNL A   1      37.293  30.137  27.530  1.00  0.00     0.014 A 
ATOM     34  C   UNL A   1      37.207  29.271  29.741  1.00  0.00     0.014 A 
ATOM     35  C   UNL A   1      38.424  29.332  27.302  1.00  0.00     0.010 A 
ATOM     36  C   UNL A   1      38.412  28.599  29.581  1.00  0.00     0.010 A 
ATOM     37  C   UNL A   1      39.073  28.649  28.360  1.00  0.00    -0.014 A 
BRANCH  37  38
ATOM     38  C   UNL A   1      40.483  28.160  28.233  1.00  0.00     0.031 A 
ATOM     39  C   UNL A   1      40.862  26.744  27.852  1.00  0.00     0.074 A 
ATOM     40  C   UNL A   1      41.464  29.000  28.632  1.00  0.00     0.049 A 
ATOM     41  N   UNL A   1      42.060  26.219  27.737  1.00  0.00    -0.248 NA
ATOM     42  C   UNL A   1      39.778  25.773  27.643  1.00  0.00     0.031 C 
ATOM     43  C   UNL A   1      41.251  30.317  29.240  1.00  0.00     0.029 A 
ATOM     44  N   UNL A   1      42.830  28.889  28.575  1.00  0.00    -0.354 N 
ATOM     45  C   UNL A   1      41.872  24.859  27.508  1.00  0.00     0.074 A 
ATOM     46  C   UNL A   1      40.444  24.629  27.552  1.00  0.00     0.031 C 
ATOM     47  C   UNL A   1      42.426  30.942  29.372  1.00  0.00     0.029 A 
ATOM     48  C   UNL A   1      43.483  30.046  28.930  1.00  0.00     0.049 A 
ATOM     49  H   UNL A   1      43.296  28.064  28.307  1.00  0.00     0.167 HD
ATOM     50  C   UNL A   1      42.796  23.897  27.254  1.00  0.00     0.037 A 
ATOM     51  C   UNL A   1      44.787  30.371  28.885  1.00  0.00     0.037 A 
ATOM     52  C   UNL A   1      44.211  24.151  27.119  1.00  0.00     0.049 A 
ATOM     53  C   UNL A   1      45.774  29.355  28.407  1.00  0.00     0.074 A 
ATOM     54  C   UNL A   1      45.210  23.283  26.707  1.00  0.00     0.029 A 
ATOM     55  N   UNL A   1      44.825  25.365  27.384  1.00  0.00    -0.354 N 
ATOM     56  N   UNL A   1      45.565  28.109  28.059  1.00  0.00    -0.248 NA
ATOM     57  C   UNL A   1      47.174  29.786  28.311  1.00  0.00     0.031 C 
ATOM     58  C   UNL A   1      46.431  23.967  26.748  1.00  0.00     0.029 A 
ATOM     59  C   UNL A   1      46.188  25.270  27.149  1.00  0.00     0.049 A 
ATOM     60  H   UNL A   1      44.361  26.177  27.693  1.00  0.00     0.167 HD
ATOM     61  C   UNL A   1      46.806  27.606  27.701  1.00  0.00     0.074 A 
ATOM     62  C   UNL A   1      47.756  28.690  27.843  1.00  0.00     0.031 C 
ATOM     63  C   UNL A   1      47.127  26.351  27.302  1.00  0.00     0.037 A 
BRANCH  50  64
ATOM     64  C   UNL A   1      42.316  22.480  27.060  1.00  0.00     0.057 A 
ATOM     65  C   UNL A   1      42.291  21.870  25.799  1.00  0.00     0.134 A 
ATOM     66  C   UNL A   1      41.928  21.695  28.155  1.00  0.00     0.134 A 
ATOM     67  F   UNL A   1      42.653  22.556  24.704  1.00  0.00    -0.206 F 
ATOM     68  C   UNL A   1      41.861  20.552  25.628  1.00  0.00     0.040 A 
ATOM     69  C   UNL A   1      41.527  20.365  28.001  1.00  0.00     0.040 A 
ATOM     70  F   UNL A   1      41.947  22.201  29.398  1.00  0.00    -0.206 F 
ATOM     71  C   UNL A   1      41.483  19.792  26.732  1.00  0.00     0.006 A 
ENDBRANCH  50  64
BRANCH  51  72
ATOM     72  C   UNL A   1      45.197  31.756  29.221  1.00  0.00     0.057 A 
ATOM     73  C   UNL A   1      45.156  32.765  28.251  1.00  0.00     0.134 A 
ATOM     74  C   UNL A   1      45.554  32.124  30.523  1.00  0.00     0.134 A 
ATOM     75  F   UNL A   1      44.823  32.469  26.985  1.00  0.00    -0.206 F 
ATOM     76  C   UNL A   1      45.464  34.088  28.561  1.00  0.00     0.040 A 
ATOM     77  C   UNL A   1      45.839  33.449  30.854  1.00  0.00     0.040 A 
ATOM     78  F   UNL A   1      45.582  31.207  31.501  1.00  0.00    -0.206 F 
ATOM     79  C   UNL A   1      45.797  34.435  29.869  1.00  0.00     0.006 A 
ENDBRANCH  51  72
BRANCH  63  80
ATOM     80  C   UNL A   1      48.567  26.090  26.983  1.00  0.00     0.057 A 
ATOM     81  C   UNL A   1      49.459  25.616  27.952  1.00  0.00     0.134 A 
ATOM     82  C   UNL A   1      49.062  26.299  25.690  1.00  0.00     0.134 A 
ATOM     83  F   UNL A   1      49.049  25.411  29.213  1.00  0.00    -0.206 F 
ATOM     84  C   UNL A   1      50.802  25.378  27.652  1.00  0.00     0.040 A 
ATOM     85  C   UNL A   1      50.396  26.044  25.373  1.00  0.00     0.040 A 
ATOM     86  F   UNL A   1      48.257  26.750  24.717  1.00  0.00    -0.206 F 
ATOM     87  C   UNL A   1      51.272  25.588  26.357  1.00  0.00     0.006 A 
ENDBRANCH  63  80
ENDBRANCH  37  38
ENDBRANCH  29  32
ENDBRANCH  27  28
ENDBRANCH  26  27
ENDBRANCH   1  26
TORSDOF 13
ENDMDL
MODEL 3
REMARK VINA RESULT:     -12.9      4.012      7.424
REMARK SMILES C[N@H+]1CCO[C@H](c2noc(-c3ccccc3C(=O)NCCCCNC(=O)c3ccc(-c4c5nc(c(-c6c(F)cccc6F)c6ccc([nH]6)c(-c6c(F)cccc6F)c6nc(c(-c7c(F)cccc7F)c7ccc4[nH]7)C=C6)C=C5)cc3)n2)C1
REMARK SMILES IDX 21 1 20 2 19 3 17 4 18 5 16 7 11 8 12 9 13 10 15 11 14 12
REMARK SMILES IDX 10 13 7 14 8 15 81 16 9 17 6 18 1 19 2 20 3 21 82 22 4 24
REMARK SMILES IDX 5 25 22 26 23 27 24 28 25 29 26 31 27 32 28 33 80 34 29 35
REMARK SMILES IDX 79 36 30 37 31 38 32 39 73 40 33 41 78 42 72 43 74 44 34 45
REMARK SMILES IDX 77 46 71 47 70 48 35 50 61 51 44 52 60 53 45 54 48 55 59 56
REMARK SMILES IDX 75 57 46 58 47 59 58 61 76 62 49 63 36 64 37 65 42 66 38 67
REMARK SMILES IDX 39 68 41 69 43 70 40 71 62 72 63 73 68 74 64 75 65 76 67 77
REMARK SMILES IDX 69 78 66 79 50 80 51 81 56 82 52 83 53 84 55 85 57 86 54 87
REMARK H PARENT 19 6 2 23 24 30 74 49 48 60
REMARK Flexibility Score: inf
ROOT
ATOM      1  C   UNL A   1      32.457  29.017  26.829  1.00  0.00     0.023 C 
ENDROOT
BRANCH   1   2
ATOM      2  C   UNL A   1      32.080  29.652  25.489  1.00  0.00     0.116 C 
BRANCH   2   3
ATOM      3  N   UNL A   1      33.021  29.500  24.391  1.00  0.00    -0.352 N 
ATOM      4  C   UNL A   1      33.227  28.479  23.481  1.00  0.00     0.252 C 
ATOM      5  O   UNL A   1      33.855  28.769  22.457  1.00  0.00    -0.269 OA
ATOM      6  H   UNL A   1      33.626  30.269  24.274  1.00  0.00     0.163 HD
BRANCH   4   7
ATOM      7  C   UNL A   1      32.906  27.028  23.697  1.00  0.00     0.052 A 
ATOM      8  C   UNL A   1      31.643  26.411  23.721  1.00  0.00     0.053 A 
ATOM      9  C   UNL A   1      31.544  25.024  23.974  1.00  0.00     0.015 A 
ATOM     10  C   UNL A   1      32.680  24.229  24.100  1.00  0.00     0.001 A 
ATOM     11  C   UNL A   1      34.043  26.193  23.784  1.00  0.00     0.014 A 
ATOM     12  C   UNL A   1      33.933  24.811  23.971  1.00  0.00     0.001 A 
BRANCH   8  13
ATOM     13  C   UNL A   1      30.434  27.106  23.358  1.00  0.00     0.258 A 
ATOM     14  C   UNL A   1      28.946  28.438  22.768  1.00  0.00     0.206 A 
ATOM     15  N   UNL A   1      28.264  27.531  23.482  1.00  0.00    -0.059 NA
ATOM     16  N   UNL A   1      30.286  28.189  22.640  1.00  0.00    -0.189 NA
ATOM     17  O   UNL A   1      29.259  26.625  23.866  1.00  0.00    -0.334 OA
BRANCH  14  18
ATOM     18  C   UNL A   1      28.389  29.763  22.383  1.00  0.00     0.245 C 
ATOM     19  C   UNL A   1      27.877  32.056  20.274  1.00  0.00     0.332 C 
ATOM     20  N   UNL A   1      28.985  31.980  21.227  1.00  0.00    -0.333 N 
ATOM     21  C   UNL A   1      28.643  32.619  22.510  1.00  0.00     0.290 C 
ATOM     22  C   UNL A   1      29.381  30.570  21.503  1.00  0.00     0.303 C 
ATOM     23  H   UNL A   1      29.763  32.474  20.790  1.00  0.00     0.348 HD
ATOM     24  C   UNL A   1      27.638  31.790  23.295  1.00  0.00     0.222 C 
ATOM     25  O   UNL A   1      28.112  30.494  23.596  1.00  0.00    -0.358 OA
ENDBRANCH  14  18
ENDBRANCH   8  13
ENDBRANCH   4   7
ENDBRANCH   2   3
ENDBRANCH   1   2
BRANCH   1  26
ATOM     26  C   UNL A   1      33.870  29.239  27.409  1.00  0.00     0.023 C 
BRANCH  26  27
ATOM     27  C   UNL A   1      34.459  30.664  27.507  1.00  0.00     0.116 C 
BRANCH  27  28
ATOM     28  N   UNL A   1      34.721  31.165  28.852  1.00  0.00    -0.352 N 
ATOM     29  C   UNL A   1      35.839  31.001  29.650  1.00  0.00     0.251 C 
ATOM     30  H   UNL A   1      33.995  31.699  29.251  1.00  0.00     0.163 HD
ATOM     31  O   UNL A   1      35.923  31.576  30.738  1.00  0.00    -0.269 OA
BRANCH  29  32
ATOM     32  C   UNL A   1      36.975  30.159  29.207  1.00  0.00     0.039 A 
ATOM     33  C   UNL A   1      37.553  30.293  27.956  1.00  0.00     0.014 A 
ATOM     34  C   UNL A   1      37.438  29.145  30.034  1.00  0.00     0.014 A 
ATOM     35  C   UNL A   1      38.678  29.511  27.634  1.00  0.00     0.010 A 
ATOM     36  C   UNL A   1      38.638  28.487  29.796  1.00  0.00     0.010 A 
ATOM     37  C   UNL A   1      39.311  28.689  28.598  1.00  0.00    -0.014 A 
BRANCH  37  38
ATOM     38  C   UNL A   1      40.716  28.205  28.419  1.00  0.00     0.031 A 
ATOM     39  C   UNL A   1      41.086  26.796  28.002  1.00  0.00     0.074 A 
ATOM     40  C   UNL A   1      41.708  29.039  28.802  1.00  0.00     0.049 A 
ATOM     41  N   UNL A   1      42.280  26.275  27.841  1.00  0.00    -0.248 NA
ATOM     42  C   UNL A   1      39.997  25.827  27.810  1.00  0.00     0.031 C 
ATOM     43  C   UNL A   1      41.512  30.345  29.439  1.00  0.00     0.029 A 
ATOM     44  N   UNL A   1      43.071  28.932  28.701  1.00  0.00    -0.354 N 
ATOM     45  C   UNL A   1      42.087  24.919  27.594  1.00  0.00     0.074 A 
ATOM     46  C   UNL A   1      40.662  24.686  27.678  1.00  0.00     0.031 C 
ATOM     47  C   UNL A   1      42.690  30.969  29.546  1.00  0.00     0.029 A 
ATOM     48  C   UNL A   1      43.735  30.083  29.056  1.00  0.00     0.049 A 
ATOM     49  H   UNL A   1      43.530  28.113  28.404  1.00  0.00     0.167 HD
ATOM     50  C   UNL A   1      43.004  23.963  27.295  1.00  0.00     0.037 A 
ATOM     51  C   UNL A   1      45.036  30.412  28.976  1.00  0.00     0.037 A 
ATOM     52  C   UNL A   1      44.414  24.222  27.121  1.00  0.00     0.049 A 
ATOM     53  C   UNL A   1      46.009  29.406  28.450  1.00  0.00     0.074 A 
ATOM     54  C   UNL A   1      45.401  23.364  26.663  1.00  0.00     0.029 A 
ATOM     55  N   UNL A   1      45.033  25.433  27.387  1.00  0.00    -0.354 N 
ATOM     56  N   UNL A   1      45.791  28.166  28.087  1.00  0.00    -0.248 NA
ATOM     57  C   UNL A   1      47.405  29.841  28.319  1.00  0.00     0.031 C 
ATOM     58  C   UNL A   1      46.621  24.049  26.678  1.00  0.00     0.029 A 
ATOM     59  C   UNL A   1      46.389  25.344  27.109  1.00  0.00     0.049 A 
ATOM     60  H   UNL A   1      44.579  26.238  27.725  1.00  0.00     0.167 HD
ATOM     61  C   UNL A   1      47.021  27.671  27.682  1.00  0.00     0.074 A 
ATOM     62  C   UNL A   1      47.974  28.755  27.814  1.00  0.00     0.031 C 
ATOM     63  C   UNL A   1      47.331  26.425  27.252  1.00  0.00     0.037 A 
BRANCH  50  64
ATOM     64  C   UNL A   1      42.520  22.549  27.091  1.00  0.00     0.057 A 
ATOM     65  C   UNL A   1      42.135  21.734  28.164  1.00  0.00     0.134 A 
ATOM     66  C   UNL A   1      42.382  22.014  25.802  1.00  0.00     0.134 A 
ATOM     67  F   UNL A   1      42.233  22.179  29.426  1.00  0.00    -0.206 F 
ATOM     68  C   UNL A   1      41.672  20.430  27.968  1.00  0.00     0.040 A 
ATOM     69  C   UNL A   1      41.890  20.722  25.591  1.00  0.00     0.040 A 
ATOM     70  F   UNL A   1      42.708  22.740  24.723  1.00  0.00    -0.206 F 
ATOM     71  C   UNL A   1      41.542  19.923  26.678  1.00  0.00     0.006 A 
ENDBRANCH  50  64
BRANCH  51  72
ATOM     72  C   UNL A   1      45.454  31.791  29.323  1.00  0.00     0.057 A 
ATOM     73  C   UNL A   1      45.355  32.823  28.382  1.00  0.00     0.134 A 
ATOM     74  C   UNL A   1      45.877  32.131  30.613  1.00  0.00     0.134 A 
ATOM     75  F   UNL A   1      44.957  32.555  27.128  1.00  0.00    -0.206 F 
ATOM     76  C   UNL A   1      45.670  34.141  28.707  1.00  0.00     0.040 A 
ATOM     77  C   UNL A   1      46.171  33.450  30.960  1.00  0.00     0.040 A 
ATOM     78  F   UNL A   1      45.963  31.191  31.566  1.00  0.00    -0.206 F 
ATOM     79  C   UNL A   1      46.070  34.459  30.003  1.00  0.00     0.006 A 
ENDBRANCH  51  72
BRANCH  63  80
ATOM     80  C   UNL A   1      48.761  26.172  26.884  1.00  0.00     0.057 A 
ATOM     81  C   UNL A   1      49.253  26.464  25.607  1.00  0.00     0.134 A 
ATOM     82  C   UNL A   1      49.658  25.648  27.823  1.00  0.00     0.134 A 
ATOM     83  F   UNL A   1      48.439  26.953  24.658  1.00  0.00    -0.206 F 
ATOM     84  C   UNL A   1      50.586  26.223  25.267  1.00  0.00     0.040 A 
ATOM     85  C   UNL A   1      50.997  25.424  27.501  1.00  0.00     0.040 A 
ATOM     86  F   UNL A   1      49.249  25.351  29.065  1.00  0.00    -0.206 F 
ATOM     87  C   UNL A   1      51.463  25.706  26.219  1.00  0.00     0.006 A 
ENDBRANCH  63  80
ENDBRANCH  37  38
ENDBRANCH  29  32
ENDBRANCH  27  28
ENDBRANCH  26  27
ENDBRANCH   1  26
TORSDOF 13
ENDMDL
