MODEL 1
REMARK VINA RESULT:     -11.3      0.000      0.000
REMARK SMILES CCn1ncc(CNc2ccccc2C(=O)NCCCCNC(=O)c2ccc(-c3c4nc(c(-c5c(F)cccc5F)c5ccc([nH]5)c(-c5c(F)cccc5F)c5nc(c(-c6c(F)cccc6F)c6ccc3[nH]6)C=C5)C=C4)cc2)c1C
REMARK SMILES IDX 18 1 17 2 15 3 16 4 14 6 9 7 10 8 11 9 13 10 12 11 8 12 7 14
REMARK SMILES IDX 6 15 3 16 4 17 79 18 5 19 80 20 2 21 1 22 19 23 20 24 21 25
REMARK SMILES IDX 22 26 23 27 24 29 25 30 26 31 78 32 27 33 77 34 28 35 29 36
REMARK SMILES IDX 30 37 71 38 31 39 76 40 70 41 72 42 32 43 75 44 69 45 68 46
REMARK SMILES IDX 33 48 59 49 42 50 58 51 43 52 46 53 57 54 73 55 44 56 45 57
REMARK SMILES IDX 56 59 74 60 47 61 34 62 35 63 40 64 36 65 37 66 39 67 41 68
REMARK SMILES IDX 38 69 60 70 61 71 66 72 62 73 63 74 65 75 67 76 64 77 48 78
REMARK SMILES IDX 49 79 54 80 50 81 51 82 53 83 55 84 52 85
REMARK H PARENT 17 5 8 13 22 28 72 47 46 58
REMARK Flexibility Score: inf
ROOT
ATOM      1  C   UNL A   1      37.407  22.619  25.522  1.00  0.00     0.116 C 
ENDROOT
BRANCH   1   2
ATOM      2  N   UNL A   1      36.348  22.405  26.497  1.00  0.00    -0.352 N 
ATOM      3  C   UNL A   1      35.003  22.731  26.400  1.00  0.00     0.253 C 
ATOM      4  O   UNL A   1      34.249  22.403  27.317  1.00  0.00    -0.269 OA
ATOM      5  H   UNL A   1      36.622  21.972  27.338  1.00  0.00     0.163 HD
BRANCH   3   6
ATOM      6  C   UNL A   1      34.449  23.523  25.259  1.00  0.00     0.062 A 
ATOM      7  C   UNL A   1      34.068  22.980  24.022  1.00  0.00     0.047 A 
ATOM      8  C   UNL A   1      33.733  23.860  22.975  1.00  0.00     0.026 A 
ATOM      9  C   UNL A   1      33.677  25.237  23.167  1.00  0.00     0.002 A 
ATOM     10  C   UNL A   1      34.331  24.912  25.464  1.00  0.00     0.016 A 
ATOM     11  C   UNL A   1      33.939  25.761  24.426  1.00  0.00     0.001 A 
BRANCH   7  12
ATOM     12  N   UNL A   1      33.871  21.631  23.775  1.00  0.00    -0.380 N 
ATOM     13  H   UNL A   1      34.642  21.055  23.568  1.00  0.00     0.160 HD
BRANCH  12  14
ATOM     14  C   UNL A   1      32.532  21.058  23.822  1.00  0.00     0.152 C 
BRANCH  14  15
ATOM     15  C   UNL A   1      32.578  19.699  24.424  1.00  0.00     0.012 A 
ATOM     16  N   UNL A   1      32.772  17.530  24.739  1.00  0.00    -0.270 N 
ATOM     17  N   UNL A   1      32.895  18.060  25.967  1.00  0.00    -0.181 NA
ATOM     18  C   UNL A   1      32.584  18.481  23.765  1.00  0.00     0.040 A 
ATOM     19  C   UNL A   1      32.810  19.367  25.762  1.00  0.00     0.141 A 
ATOM     20  C   UNL A   1      32.517  18.208  22.309  1.00  0.00     0.067 C 
BRANCH  16  21
ATOM     21  C   UNL A   1      32.951  16.102  24.555  1.00  0.00     0.141 C 
ATOM     22  C   UNL A   1      32.529  15.250  25.744  1.00  0.00     0.029 C 
ENDBRANCH  16  21
ENDBRANCH  14  15
ENDBRANCH  12  14
ENDBRANCH   7  12
ENDBRANCH   3   6
ENDBRANCH   1   2
BRANCH   1  23
ATOM     23  C   UNL A   1      38.730  21.878  25.763  1.00  0.00     0.023 C 
BRANCH  23  24
ATOM     24  C   UNL A   1      39.672  22.409  26.850  1.00  0.00     0.023 C 
BRANCH  24  25
ATOM     25  C   UNL A   1      40.987  21.672  26.970  1.00  0.00     0.116 C 
BRANCH  25  26
ATOM     26  N   UNL A   1      42.038  21.981  26.005  1.00  0.00    -0.352 N 
ATOM     27  C   UNL A   1      42.540  23.231  25.629  1.00  0.00     0.251 C 
ATOM     28  H   UNL A   1      42.448  21.205  25.559  1.00  0.00     0.163 HD
ATOM     29  O   UNL A   1      43.306  23.324  24.687  1.00  0.00    -0.269 OA
BRANCH  27  30
ATOM     30  C   UNL A   1      42.166  24.451  26.402  1.00  0.00     0.039 A 
ATOM     31  C   UNL A   1      41.247  25.405  25.939  1.00  0.00     0.014 A 
ATOM     32  C   UNL A   1      42.822  24.696  27.596  1.00  0.00     0.014 A 
ATOM     33  C   UNL A   1      41.042  26.580  26.680  1.00  0.00     0.010 A 
ATOM     34  C   UNL A   1      42.532  25.749  28.393  1.00  0.00     0.010 A 
ATOM     35  C   UNL A   1      41.729  26.744  27.883  1.00  0.00    -0.014 A 
BRANCH  35  36
ATOM     36  C   UNL A   1      41.683  27.897  28.755  1.00  0.00     0.031 A 
ATOM     37  C   UNL A   1      42.688  28.935  28.431  1.00  0.00     0.074 A 
ATOM     38  C   UNL A   1      40.536  28.195  29.407  1.00  0.00     0.049 A 
ATOM     39  N   UNL A   1      43.702  29.281  29.147  1.00  0.00    -0.248 NA
ATOM     40  C   UNL A   1      42.676  29.546  27.087  1.00  0.00     0.031 C 
ATOM     41  C   UNL A   1      39.264  27.455  29.433  1.00  0.00     0.029 A 
ATOM     42  N   UNL A   1      40.231  29.331  30.081  1.00  0.00    -0.354 N 
ATOM     43  C   UNL A   1      44.330  30.300  28.441  1.00  0.00     0.074 A 
ATOM     44  C   UNL A   1      43.818  30.236  27.100  1.00  0.00     0.031 C 
ATOM     45  C   UNL A   1      38.287  28.253  29.921  1.00  0.00     0.029 A 
ATOM     46  C   UNL A   1      38.881  29.501  30.362  1.00  0.00     0.049 A 
ATOM     47  H   UNL A   1      40.914  29.986  30.350  1.00  0.00     0.167 HD
ATOM     48  C   UNL A   1      45.014  31.287  29.080  1.00  0.00     0.037 A 
ATOM     49  C   UNL A   1      38.322  30.629  30.871  1.00  0.00     0.037 A 
ATOM     50  C   UNL A   1      45.172  30.979  30.482  1.00  0.00     0.049 A 
ATOM     51  C   UNL A   1      39.431  31.421  31.481  1.00  0.00     0.074 A 
ATOM     52  C   UNL A   1      45.744  29.932  31.180  1.00  0.00     0.029 A 
ATOM     53  N   UNL A   1      44.311  31.589  31.365  1.00  0.00    -0.354 N 
ATOM     54  N   UNL A   1      40.112  31.024  32.524  1.00  0.00    -0.248 NA
ATOM     55  C   UNL A   1      40.110  32.392  30.633  1.00  0.00     0.031 C 
ATOM     56  C   UNL A   1      44.837  29.664  32.247  1.00  0.00     0.029 A 
ATOM     57  C   UNL A   1      43.811  30.610  32.190  1.00  0.00     0.049 A 
ATOM     58  H   UNL A   1      44.092  32.548  31.401  1.00  0.00     0.167 HD
ATOM     59  C   UNL A   1      41.432  31.352  32.240  1.00  0.00     0.074 A 
ATOM     60  C   UNL A   1      41.359  32.260  31.095  1.00  0.00     0.031 C 
ATOM     61  C   UNL A   1      42.474  30.624  32.747  1.00  0.00     0.037 A 
BRANCH  48  62
ATOM     62  C   UNL A   1      45.226  32.675  28.541  1.00  0.00     0.057 A 
ATOM     63  C   UNL A   1      46.539  33.163  28.430  1.00  0.00     0.134 A 
ATOM     64  C   UNL A   1      44.209  33.635  28.367  1.00  0.00     0.134 A 
ATOM     65  F   UNL A   1      47.591  32.347  28.587  1.00  0.00    -0.206 F 
ATOM     66  C   UNL A   1      46.818  34.519  28.226  1.00  0.00     0.040 A 
ATOM     67  C   UNL A   1      44.476  34.981  28.103  1.00  0.00     0.040 A 
ATOM     68  F   UNL A   1      42.913  33.353  28.542  1.00  0.00    -0.206 F 
ATOM     69  C   UNL A   1      45.785  35.434  28.065  1.00  0.00     0.006 A 
ENDBRANCH  48  62
BRANCH  49  70
ATOM     70  C   UNL A   1      36.985  31.200  30.574  1.00  0.00     0.057 A 
ATOM     71  C   UNL A   1      36.097  31.561  31.598  1.00  0.00     0.134 A 
ATOM     72  C   UNL A   1      36.641  31.644  29.284  1.00  0.00     0.134 A 
ATOM     73  F   UNL A   1      36.354  31.225  32.871  1.00  0.00    -0.206 F 
ATOM     74  C   UNL A   1      34.948  32.330  31.355  1.00  0.00     0.040 A 
ATOM     75  C   UNL A   1      35.495  32.405  29.026  1.00  0.00     0.040 A 
ATOM     76  F   UNL A   1      37.450  31.430  28.237  1.00  0.00    -0.206 F 
ATOM     77  C   UNL A   1      34.649  32.763  30.068  1.00  0.00     0.006 A 
ENDBRANCH  49  70
BRANCH  61  78
ATOM     78  C   UNL A   1      42.166  29.572  33.784  1.00  0.00     0.057 A 
ATOM     79  C   UNL A   1      41.966  28.214  33.490  1.00  0.00     0.134 A 
ATOM     80  C   UNL A   1      42.252  29.904  35.139  1.00  0.00     0.134 A 
ATOM     81  F   UNL A   1      41.976  27.770  32.232  1.00  0.00    -0.206 F 
ATOM     82  C   UNL A   1      41.815  27.244  34.484  1.00  0.00     0.040 A 
ATOM     83  C   UNL A   1      42.135  28.941  36.146  1.00  0.00     0.040 A 
ATOM     84  F   UNL A   1      42.508  31.169  35.508  1.00  0.00    -0.206 F 
ATOM     85  C   UNL A   1      41.906  27.607  35.822  1.00  0.00     0.006 A 
ENDBRANCH  61  78
ENDBRANCH  35  36
ENDBRANCH  27  30
ENDBRANCH  25  26
ENDBRANCH  24  25
ENDBRANCH  23  24
ENDBRANCH   1  23
TORSDOF 15
ENDMDL
MODEL 2
REMARK VINA RESULT:     -11.2      3.628      8.189
REMARK SMILES CCn1ncc(CNc2ccccc2C(=O)NCCCCNC(=O)c2ccc(-c3c4nc(c(-c5c(F)cccc5F)c5ccc([nH]5)c(-c5c(F)cccc5F)c5nc(c(-c6c(F)cccc6F)c6ccc3[nH]6)C=C5)C=C4)cc2)c1C
REMARK SMILES IDX 18 1 17 2 15 3 16 4 14 6 9 7 10 8 11 9 13 10 12 11 8 12 7 14
REMARK SMILES IDX 6 15 3 16 4 17 79 18 5 19 80 20 2 21 1 22 19 23 20 24 21 25
REMARK SMILES IDX 22 26 23 27 24 29 25 30 26 31 78 32 27 33 77 34 28 35 29 36
REMARK SMILES IDX 30 37 71 38 31 39 76 40 70 41 72 42 32 43 75 44 69 45 68 46
REMARK SMILES IDX 33 48 59 49 42 50 58 51 43 52 46 53 57 54 73 55 44 56 45 57
REMARK SMILES IDX 56 59 74 60 47 61 34 62 35 63 40 64 36 65 37 66 39 67 41 68
REMARK SMILES IDX 38 69 60 70 61 71 66 72 62 73 63 74 65 75 67 76 64 77 48 78
REMARK SMILES IDX 49 79 54 80 50 81 51 82 53 83 55 84 52 85
REMARK H PARENT 17 5 8 13 22 28 72 47 46 58
REMARK Flexibility Score: inf
ROOT
ATOM      1  C   UNL A   1      31.969  29.349  26.116  1.00  0.00     0.116 C 
ENDROOT
BRANCH   1   2
ATOM      2  N   UNL A   1      32.461  29.139  24.762  1.00  0.00    -0.352 N 
ATOM      3  C   UNL A   1      31.770  29.251  23.565  1.00  0.00     0.253 C 
ATOM      4  O   UNL A   1      32.389  29.096  22.511  1.00  0.00    -0.269 OA
ATOM      5  H   UNL A   1      33.409  28.884  24.687  1.00  0.00     0.163 HD
BRANCH   3   6
ATOM      6  C   UNL A   1      30.294  29.483  23.506  1.00  0.00     0.062 A 
ATOM      7  C   UNL A   1      29.347  28.507  23.157  1.00  0.00     0.047 A 
ATOM      8  C   UNL A   1      28.010  28.905  22.965  1.00  0.00     0.026 A 
ATOM      9  C   UNL A   1      27.594  30.211  23.208  1.00  0.00     0.002 A 
ATOM     10  C   UNL A   1      29.857  30.787  23.809  1.00  0.00     0.016 A 
ATOM     11  C   UNL A   1      28.513  31.145  23.670  1.00  0.00     0.001 A 
BRANCH   7  12
ATOM     12  N   UNL A   1      29.595  27.145  23.103  1.00  0.00    -0.380 N 
ATOM     13  H   UNL A   1      30.195  26.784  22.412  1.00  0.00     0.160 HD
BRANCH  12  14
ATOM     14  C   UNL A   1      28.974  26.242  24.065  1.00  0.00     0.152 C 
BRANCH  14  15
ATOM     15  C   UNL A   1      30.008  25.660  24.960  1.00  0.00     0.012 A 
ATOM     16  N   UNL A   1      31.707  24.519  25.769  1.00  0.00    -0.270 N 
ATOM     17  N   UNL A   1      31.486  25.483  26.678  1.00  0.00    -0.181 NA
ATOM     18  C   UNL A   1      30.842  24.584  24.703  1.00  0.00     0.040 A 
ATOM     19  C   UNL A   1      30.484  26.183  26.166  1.00  0.00     0.141 A 
ATOM     20  C   UNL A   1      30.905  23.720  23.500  1.00  0.00     0.067 C 
BRANCH  16  21
ATOM     21  C   UNL A   1      32.838  23.625  25.934  1.00  0.00     0.141 C 
ATOM     22  C   UNL A   1      32.544  22.372  26.748  1.00  0.00     0.029 C 
ENDBRANCH  16  21
ENDBRANCH  14  15
ENDBRANCH  12  14
ENDBRANCH   7  12
ENDBRANCH   3   6
ENDBRANCH   1   2
BRANCH   1  23
ATOM     23  C   UNL A   1      32.508  30.577  26.865  1.00  0.00     0.023 C 
BRANCH  23  24
ATOM     24  C   UNL A   1      33.980  30.578  27.293  1.00  0.00     0.023 C 
BRANCH  24  25
ATOM     25  C   UNL A   1      34.537  31.936  27.656  1.00  0.00     0.116 C 
BRANCH  25  26
ATOM     26  N   UNL A   1      34.413  32.382  29.040  1.00  0.00    -0.352 N 
ATOM     27  C   UNL A   1      35.163  31.993  30.154  1.00  0.00     0.251 C 
ATOM     28  H   UNL A   1      33.707  33.047  29.212  1.00  0.00     0.163 HD
ATOM     29  O   UNL A   1      34.822  32.340  31.271  1.00  0.00    -0.269 OA
BRANCH  27  30
ATOM     30  C   UNL A   1      36.401  31.180  29.978  1.00  0.00     0.039 A 
ATOM     31  C   UNL A   1      36.403  29.778  29.929  1.00  0.00     0.014 A 
ATOM     32  C   UNL A   1      37.617  31.840  29.945  1.00  0.00     0.014 A 
ATOM     33  C   UNL A   1      37.626  29.091  29.875  1.00  0.00     0.010 A 
ATOM     34  C   UNL A   1      38.794  31.205  29.749  1.00  0.00     0.010 A 
ATOM     35  C   UNL A   1      38.809  29.831  29.827  1.00  0.00    -0.014 A 
BRANCH  35  36
ATOM     36  C   UNL A   1      40.157  29.306  29.815  1.00  0.00     0.031 A 
ATOM     37  C   UNL A   1      40.707  29.033  31.163  1.00  0.00     0.074 A 
ATOM     38  C   UNL A   1      40.612  28.662  28.715  1.00  0.00     0.049 A 
ATOM     39  N   UNL A   1      41.678  29.650  31.742  1.00  0.00    -0.248 NA
ATOM     40  C   UNL A   1      39.998  28.083  32.044  1.00  0.00     0.031 C 
ATOM     41  C   UNL A   1      39.946  28.453  27.420  1.00  0.00     0.029 A 
ATOM     42  N   UNL A   1      41.741  27.922  28.590  1.00  0.00    -0.354 N 
ATOM     43  C   UNL A   1      41.839  29.026  32.972  1.00  0.00     0.074 A 
ATOM     44  C   UNL A   1      40.640  28.266  33.199  1.00  0.00     0.031 C 
ATOM     45  C   UNL A   1      40.596  27.489  26.728  1.00  0.00     0.029 A 
ATOM     46  C   UNL A   1      41.789  27.112  27.463  1.00  0.00     0.049 A 
ATOM     47  H   UNL A   1      42.471  27.956  29.249  1.00  0.00     0.167 HD
ATOM     48  C   UNL A   1      43.054  28.962  33.581  1.00  0.00     0.037 A 
ATOM     49  C   UNL A   1      42.731  26.166  27.217  1.00  0.00     0.037 A 
ATOM     50  C   UNL A   1      44.014  29.802  32.903  1.00  0.00     0.049 A 
ATOM     51  C   UNL A   1      43.896  26.481  28.094  1.00  0.00     0.074 A 
ATOM     52  C   UNL A   1      44.072  31.150  32.604  1.00  0.00     0.029 A 
ATOM     53  N   UNL A   1      44.890  29.190  32.036  1.00  0.00    -0.354 N 
ATOM     54  N   UNL A   1      44.627  27.558  27.967  1.00  0.00    -0.248 NA
ATOM     55  C   UNL A   1      43.928  25.867  29.417  1.00  0.00     0.031 C 
ATOM     56  C   UNL A   1      44.575  31.208  31.271  1.00  0.00     0.029 A 
ATOM     57  C   UNL A   1      44.872  29.906  30.863  1.00  0.00     0.049 A 
ATOM     58  H   UNL A   1      45.430  28.387  32.220  1.00  0.00     0.167 HD
ATOM     59  C   UNL A   1      44.860  27.993  29.265  1.00  0.00     0.074 A 
ATOM     60  C   UNL A   1      44.469  26.870  30.118  1.00  0.00     0.031 C 
ATOM     61  C   UNL A   1      45.049  29.318  29.551  1.00  0.00     0.037 A 
BRANCH  48  62
ATOM     62  C   UNL A   1      43.477  27.891  34.547  1.00  0.00     0.057 A 
ATOM     63  C   UNL A   1      43.597  26.570  34.083  1.00  0.00     0.134 A 
ATOM     64  C   UNL A   1      43.526  28.043  35.948  1.00  0.00     0.134 A 
ATOM     65  F   UNL A   1      43.553  26.297  32.770  1.00  0.00    -0.206 F 
ATOM     66  C   UNL A   1      43.692  25.477  34.951  1.00  0.00     0.040 A 
ATOM     67  C   UNL A   1      43.681  26.964  36.821  1.00  0.00     0.040 A 
ATOM     68  F   UNL A   1      43.326  29.220  36.552  1.00  0.00    -0.206 F 
ATOM     69  C   UNL A   1      43.732  25.672  36.325  1.00  0.00     0.006 A 
ENDBRANCH  48  62
BRANCH  49  70
ATOM     70  C   UNL A   1      42.557  24.859  26.536  1.00  0.00     0.057 A 
ATOM     71  C   UNL A   1      43.304  24.518  25.398  1.00  0.00     0.134 A 
ATOM     72  C   UNL A   1      41.838  23.806  27.131  1.00  0.00     0.134 A 
ATOM     73  F   UNL A   1      44.059  25.438  24.781  1.00  0.00    -0.206 F 
ATOM     74  C   UNL A   1      43.345  23.208  24.895  1.00  0.00     0.040 A 
ATOM     75  C   UNL A   1      41.865  22.497  26.636  1.00  0.00     0.040 A 
ATOM     76  F   UNL A   1      41.151  23.988  28.268  1.00  0.00    -0.206 F 
ATOM     77  C   UNL A   1      42.632  22.191  25.519  1.00  0.00     0.006 A 
ENDBRANCH  49  70
BRANCH  61  78
ATOM     78  C   UNL A   1      45.193  30.280  28.398  1.00  0.00     0.057 A 
ATOM     79  C   UNL A   1      44.132  31.019  27.853  1.00  0.00     0.134 A 
ATOM     80  C   UNL A   1      46.473  30.606  27.939  1.00  0.00     0.134 A 
ATOM     81  F   UNL A   1      42.883  30.865  28.296  1.00  0.00    -0.206 F 
ATOM     82  C   UNL A   1      44.322  31.998  26.874  1.00  0.00     0.040 A 
ATOM     83  C   UNL A   1      46.684  31.605  26.984  1.00  0.00     0.040 A 
ATOM     84  F   UNL A   1      47.551  29.994  28.455  1.00  0.00    -0.206 F 
ATOM     85  C   UNL A   1      45.607  32.299  26.439  1.00  0.00     0.006 A 
ENDBRANCH  61  78
ENDBRANCH  35  36
ENDBRANCH  27  30
ENDBRANCH  25  26
ENDBRANCH  24  25
ENDBRANCH  23  24
ENDBRANCH   1  23
TORSDOF 15
ENDMDL
MODEL 3
REMARK VINA RESULT:     -11.2      3.274      7.803
REMARK SMILES CCn1ncc(CNc2ccccc2C(=O)NCCCCNC(=O)c2ccc(-c3c4nc(c(-c5c(F)cccc5F)c5ccc([nH]5)c(-c5c(F)cccc5F)c5nc(c(-c6c(F)cccc6F)c6ccc3[nH]6)C=C5)C=C4)cc2)c1C
REMARK SMILES IDX 18 1 17 2 15 3 16 4 14 6 9 7 10 8 11 9 13 10 12 11 8 12 7 14
REMARK SMILES IDX 6 15 3 16 4 17 79 18 5 19 80 20 2 21 1 22 19 23 20 24 21 25
REMARK SMILES IDX 22 26 23 27 24 29 25 30 26 31 78 32 27 33 77 34 28 35 29 36
REMARK SMILES IDX 30 37 71 38 31 39 76 40 70 41 72 42 32 43 75 44 69 45 68 46
REMARK SMILES IDX 33 48 59 49 42 50 58 51 43 52 46 53 57 54 73 55 44 56 45 57
REMARK SMILES IDX 56 59 74 60 47 61 34 62 35 63 40 64 36 65 37 66 39 67 41 68
REMARK SMILES IDX 38 69 60 70 61 71 66 72 62 73 63 74 65 75 67 76 64 77 48 78
REMARK SMILES IDX 49 79 54 80 50 81 51 82 53 83 55 84 52 85
REMARK H PARENT 17 5 8 13 22 28 72 47 46 58
REMARK Flexibility Score: inf
ROOT
ATOM      1  C   UNL A   1      34.219  28.839  26.918  1.00  0.00     0.116 C 
ENDROOT
BRANCH   1   2
ATOM      2  N   UNL A   1      33.011  28.527  27.667  1.00  0.00    -0.352 N 
ATOM      3  C   UNL A   1      31.799  28.046  27.194  1.00  0.00     0.253 C 
ATOM      4  O   UNL A   1      30.912  27.781  28.007  1.00  0.00    -0.269 OA
ATOM      5  H   UNL A   1      33.061  28.678  28.639  1.00  0.00     0.163 HD
BRANCH   3   6
ATOM      6  C   UNL A   1      31.506  27.903  25.734  1.00  0.00     0.062 A 
ATOM      7  C   UNL A   1      31.303  26.679  25.078  1.00  0.00     0.047 A 
ATOM      8  C   UNL A   1      31.216  26.675  23.673  1.00  0.00     0.026 A 
ATOM      9  C   UNL A   1      31.227  27.856  22.937  1.00  0.00     0.002 A 
ATOM     10  C   UNL A   1      31.456  29.098  24.990  1.00  0.00     0.016 A 
ATOM     11  C   UNL A   1      31.308  29.073  23.600  1.00  0.00     0.001 A 
BRANCH   7  12
ATOM     12  N   UNL A   1      31.055  25.472  25.712  1.00  0.00    -0.380 N 
ATOM     13  H   UNL A   1      30.668  25.465  26.616  1.00  0.00     0.160 HD
BRANCH  12  14
ATOM     14  C   UNL A   1      31.361  24.211  25.046  1.00  0.00     0.152 C 
BRANCH  14  15
ATOM     15  C   UNL A   1      32.614  23.634  25.600  1.00  0.00     0.012 A 
ATOM     16  N   UNL A   1      34.691  22.963  25.883  1.00  0.00    -0.270 N 
ATOM     17  N   UNL A   1      34.176  22.993  27.123  1.00  0.00    -0.181 NA
ATOM     18  C   UNL A   1      33.787  23.348  24.921  1.00  0.00     0.040 A 
ATOM     19  C   UNL A   1      32.937  23.430  26.945  1.00  0.00     0.141 A 
ATOM     20  C   UNL A   1      34.093  23.510  23.480  1.00  0.00     0.067 C 
BRANCH  16  21
ATOM     21  C   UNL A   1      36.097  22.653  25.698  1.00  0.00     0.141 C 
ATOM     22  C   UNL A   1      37.037  23.836  25.881  1.00  0.00     0.029 C 
ENDBRANCH  16  21
ENDBRANCH  14  15
ENDBRANCH  12  14
ENDBRANCH   7  12
ENDBRANCH   3   6
ENDBRANCH   1   2
BRANCH   1  23
ATOM     23  C   UNL A   1      34.929  30.156  27.265  1.00  0.00     0.023 C 
BRANCH  23  24
ATOM     24  C   UNL A   1      34.068  31.365  27.649  1.00  0.00     0.023 C 
BRANCH  24  25
ATOM     25  C   UNL A   1      34.821  32.504  28.297  1.00  0.00     0.116 C 
BRANCH  25  26
ATOM     26  N   UNL A   1      34.647  32.715  29.731  1.00  0.00    -0.352 N 
ATOM     27  C   UNL A   1      35.320  32.104  30.793  1.00  0.00     0.251 C 
ATOM     28  H   UNL A   1      33.964  33.378  29.983  1.00  0.00     0.163 HD
ATOM     29  O   UNL A   1      34.938  32.274  31.937  1.00  0.00    -0.269 OA
BRANCH  27  30
ATOM     30  C   UNL A   1      36.528  31.268  30.533  1.00  0.00     0.039 A 
ATOM     31  C   UNL A   1      36.507  29.865  30.525  1.00  0.00     0.014 A 
ATOM     32  C   UNL A   1      37.745  31.908  30.374  1.00  0.00     0.014 A 
ATOM     33  C   UNL A   1      37.713  29.159  30.385  1.00  0.00     0.010 A 
ATOM     34  C   UNL A   1      38.892  31.250  30.095  1.00  0.00     0.010 A 
ATOM     35  C   UNL A   1      38.896  29.879  30.212  1.00  0.00    -0.014 A 
BRANCH  35  36
ATOM     36  C   UNL A   1      40.231  29.333  30.098  1.00  0.00     0.031 A 
ATOM     37  C   UNL A   1      40.880  29.055  31.400  1.00  0.00     0.074 A 
ATOM     38  C   UNL A   1      40.590  28.681  28.968  1.00  0.00     0.049 A 
ATOM     39  N   UNL A   1      41.901  29.659  31.901  1.00  0.00    -0.248 NA
ATOM     40  C   UNL A   1      40.227  28.118  32.336  1.00  0.00     0.031 C 
ATOM     41  C   UNL A   1      39.823  28.479  27.729  1.00  0.00     0.029 A 
ATOM     42  N   UNL A   1      41.695  27.923  28.759  1.00  0.00    -0.354 N 
ATOM     43  C   UNL A   1      42.148  29.035  33.117  1.00  0.00     0.074 A 
ATOM     44  C   UNL A   1      40.959  28.294  33.438  1.00  0.00     0.031 C 
ATOM     45  C   UNL A   1      40.404  27.504  26.992  1.00  0.00     0.029 A 
ATOM     46  C   UNL A   1      41.644  27.110  27.634  1.00  0.00     0.049 A 
ATOM     47  H   UNL A   1      42.475  27.948  29.359  1.00  0.00     0.167 HD
ATOM     48  C   UNL A   1      43.405  28.954  33.630  1.00  0.00     0.037 A 
ATOM     49  C   UNL A   1      42.550  26.150  27.319  1.00  0.00     0.037 A 
ATOM     50  C   UNL A   1      44.322  29.778  32.877  1.00  0.00     0.049 A 
ATOM     51  C   UNL A   1      43.784  26.449  28.103  1.00  0.00     0.074 A 
ATOM     52  C   UNL A   1      44.377  31.125  32.571  1.00  0.00     0.029 A 
ATOM     53  N   UNL A   1      45.119  29.151  31.947  1.00  0.00    -0.354 N 
ATOM     54  N   UNL A   1      44.519  27.514  27.916  1.00  0.00    -0.248 NA
ATOM     55  C   UNL A   1      43.909  25.838  29.421  1.00  0.00     0.031 C 
ATOM     56  C   UNL A   1      44.776  31.172  31.202  1.00  0.00     0.029 A 
ATOM     57  C   UNL A   1      45.021  29.865  30.777  1.00  0.00     0.049 A 
ATOM     58  H   UNL A   1      45.660  28.341  32.092  1.00  0.00     0.167 HD
ATOM     59  C   UNL A   1      44.858  27.949  29.191  1.00  0.00     0.074 A 
ATOM     60  C   UNL A   1      44.517  26.834  30.075  1.00  0.00     0.031 C 
ATOM     61  C   UNL A   1      45.088  29.271  29.458  1.00  0.00     0.037 A 
BRANCH  48  62
ATOM     62  C   UNL A   1      43.885  27.879  34.564  1.00  0.00     0.057 A 
ATOM     63  C   UNL A   1      44.458  28.256  35.791  1.00  0.00     0.134 A 
ATOM     64  C   UNL A   1      44.044  26.521  34.218  1.00  0.00     0.134 A 
ATOM     65  F   UNL A   1      44.382  29.523  36.223  1.00  0.00    -0.206 F 
ATOM     66  C   UNL A   1      45.189  27.363  36.582  1.00  0.00     0.040 A 
ATOM     67  C   UNL A   1      44.722  25.608  35.028  1.00  0.00     0.040 A 
ATOM     68  F   UNL A   1      43.647  26.028  33.040  1.00  0.00    -0.206 F 
ATOM     69  C   UNL A   1      45.327  26.035  36.200  1.00  0.00     0.006 A 
ENDBRANCH  48  62
BRANCH  49  70
ATOM     70  C   UNL A   1      42.305  24.844  26.658  1.00  0.00     0.057 A 
ATOM     71  C   UNL A   1      43.053  24.433  25.545  1.00  0.00     0.134 A 
ATOM     72  C   UNL A   1      41.504  23.853  27.255  1.00  0.00     0.134 A 
ATOM     73  F   UNL A   1      43.882  25.288  24.929  1.00  0.00    -0.206 F 
ATOM     74  C   UNL A   1      43.018  23.113  25.066  1.00  0.00     0.040 A 
ATOM     75  C   UNL A   1      41.454  22.536  26.784  1.00  0.00     0.040 A 
ATOM     76  F   UNL A   1      40.805  24.103  28.370  1.00  0.00    -0.206 F 
ATOM     77  C   UNL A   1      42.224  22.158  25.692  1.00  0.00     0.006 A 
ENDBRANCH  49  70
BRANCH  61  78
ATOM     78  C   UNL A   1      45.157  30.229  28.293  1.00  0.00     0.057 A 
ATOM     79  C   UNL A   1      44.069  30.985  27.831  1.00  0.00     0.134 A 
ATOM     80  C   UNL A   1      46.402  30.533  27.734  1.00  0.00     0.134 A 
ATOM     81  F   UNL A   1      42.856  30.853  28.371  1.00  0.00    -0.206 F 
ATOM     82  C   UNL A   1      44.197  31.959  26.837  1.00  0.00     0.040 A 
ATOM     83  C   UNL A   1      46.554  31.526  26.762  1.00  0.00     0.040 A 
ATOM     84  F   UNL A   1      47.506  29.904  28.166  1.00  0.00    -0.206 F 
ATOM     85  C   UNL A   1      45.449  32.237  26.302  1.00  0.00     0.006 A 
ENDBRANCH  61  78
ENDBRANCH  35  36
ENDBRANCH  27  30
ENDBRANCH  25  26
ENDBRANCH  24  25
ENDBRANCH  23  24
ENDBRANCH   1  23
TORSDOF 15
ENDMDL
