MODEL 1
REMARK VINA RESULT:     -12.5      0.000      0.000
REMARK SMILES CCC(=O)Nc1cc(NC(=O)/C=C/C(=O)NCCCCNC(=O)c2ccc(-c3c4nc(c(-c5c(F)cccc5F)c5ccc([nH]5)c(-c5c(F)cccc5F)c5nc(c(-c6c(F)cccc6F)c6ccc3[nH]6)C=C5)C=C4)cc2)ccc1C
REMARK SMILES IDX 17 1 16 2 14 3 15 4 13 6 12 7 10 8 9 9 11 11 8 12 6 13 7 14
REMARK SMILES IDX 80 15 79 16 81 17 78 18 5 19 3 20 4 21 2 23 1 24 18 25 19 26
REMARK SMILES IDX 20 27 21 28 22 29 23 31 24 32 25 33 77 34 26 35 76 36 27 37
REMARK SMILES IDX 28 38 29 39 70 40 30 41 75 42 69 43 71 44 31 45 74 46 68 47
REMARK SMILES IDX 67 48 32 50 58 51 41 52 57 53 42 54 45 55 56 56 72 57 43 58
REMARK SMILES IDX 44 59 55 61 73 62 46 63 33 64 34 65 39 66 35 67 36 68 38 69
REMARK SMILES IDX 40 70 37 71 59 72 60 73 65 74 61 75 62 76 64 77 66 78 63 79
REMARK SMILES IDX 47 80 48 81 53 82 49 83 50 84 52 85 54 86 51 87
REMARK H PARENT 16 5 9 10 5 22 21 30 71 49 45 60
REMARK Flexibility Score: inf
ROOT
ATOM      1  C   UNL A   1      36.424  22.332  25.440  1.00  0.00     0.116 C 
ENDROOT
BRANCH   1   2
ATOM      2  N   UNL A   1      35.545  21.874  26.502  1.00  0.00    -0.353 N 
ATOM      3  C   UNL A   1      34.283  21.385  26.392  1.00  0.00     0.244 C 
ATOM      4  O   UNL A   1      33.569  21.233  27.379  1.00  0.00    -0.270 OA
ATOM      5  H   UNL A   1      35.910  21.922  27.415  1.00  0.00     0.163 HD
BRANCH   3   6
ATOM      6  C   UNL A   1      33.778  20.995  25.063  1.00  0.00     0.077 C 
ATOM      7  C   UNL A   1      32.819  21.766  24.528  1.00  0.00     0.077 C 
BRANCH   7   8
ATOM      8  C   UNL A   1      32.487  21.685  23.099  1.00  0.00     0.248 C 
ATOM      9  N   UNL A   1      32.563  22.797  22.304  1.00  0.00    -0.322 N 
ATOM     10  H   UNL A   1      32.243  22.653  21.384  1.00  0.00     0.170 HD
ATOM     11  O   UNL A   1      32.130  20.607  22.633  1.00  0.00    -0.270 OA
BRANCH   9  12
ATOM     12  C   UNL A   1      33.014  24.111  22.555  1.00  0.00     0.043 A 
ATOM     13  C   UNL A   1      32.665  26.524  22.595  1.00  0.00     0.046 A 
ATOM     14  C   UNL A   1      32.423  25.263  22.042  1.00  0.00     0.052 A 
ATOM     15  C   UNL A   1      33.575  26.642  23.653  1.00  0.00    -0.027 A 
ATOM     16  C   UNL A   1      34.338  25.516  24.009  1.00  0.00     0.008 A 
ATOM     17  C   UNL A   1      33.613  27.811  24.598  1.00  0.00     0.046 C 
ATOM     18  C   UNL A   1      34.058  24.259  23.465  1.00  0.00     0.026 A 
BRANCH  13  19
ATOM     19  N   UNL A   1      31.783  27.544  22.204  1.00  0.00    -0.326 N 
ATOM     20  C   UNL A   1      30.501  27.797  22.602  1.00  0.00     0.224 C 
ATOM     21  O   UNL A   1      29.796  28.564  21.945  1.00  0.00    -0.275 OA
ATOM     22  H   UNL A   1      32.145  28.174  21.541  1.00  0.00     0.169 HD
BRANCH  20  23
ATOM     23  C   UNL A   1      30.012  27.248  23.928  1.00  0.00     0.097 C 
ATOM     24  C   UNL A   1      28.724  26.460  23.847  1.00  0.00     0.014 C 
ENDBRANCH  20  23
ENDBRANCH  13  19
ENDBRANCH   9  12
ENDBRANCH   7   8
ENDBRANCH   3   6
ENDBRANCH   1   2
BRANCH   1  25
ATOM     25  C   UNL A   1      37.436  21.255  25.037  1.00  0.00     0.023 C 
BRANCH  25  26
ATOM     26  C   UNL A   1      38.795  21.356  25.737  1.00  0.00     0.023 C 
BRANCH  26  27
ATOM     27  C   UNL A   1      39.061  22.711  26.374  1.00  0.00     0.116 C 
BRANCH  27  28
ATOM     28  N   UNL A   1      40.456  22.961  26.710  1.00  0.00    -0.352 N 
ATOM     29  C   UNL A   1      41.108  24.146  26.991  1.00  0.00     0.251 C 
ATOM     30  H   UNL A   1      41.024  22.157  26.743  1.00  0.00     0.163 HD
ATOM     31  O   UNL A   1      42.329  24.131  27.162  1.00  0.00    -0.269 OA
BRANCH  29  32
ATOM     32  C   UNL A   1      40.348  25.398  27.242  1.00  0.00     0.039 A 
ATOM     33  C   UNL A   1      40.683  26.531  26.489  1.00  0.00     0.014 A 
ATOM     34  C   UNL A   1      39.494  25.528  28.330  1.00  0.00     0.014 A 
ATOM     35  C   UNL A   1      40.402  27.801  26.992  1.00  0.00     0.010 A 
ATOM     36  C   UNL A   1      39.324  26.775  28.896  1.00  0.00     0.010 A 
ATOM     37  C   UNL A   1      39.839  27.906  28.261  1.00  0.00    -0.014 A 
BRANCH  37  38
ATOM     38  C   UNL A   1      39.852  29.129  29.053  1.00  0.00     0.031 A 
ATOM     39  C   UNL A   1      38.792  30.143  28.895  1.00  0.00     0.074 A 
ATOM     40  C   UNL A   1      40.779  29.286  30.024  1.00  0.00     0.049 A 
ATOM     41  N   UNL A   1      38.942  31.384  29.213  1.00  0.00    -0.248 NA
ATOM     42  C   UNL A   1      37.474  29.838  28.349  1.00  0.00     0.031 C 
ATOM     43  C   UNL A   1      40.789  30.287  31.088  1.00  0.00     0.029 A 
ATOM     44  N   UNL A   1      42.035  28.672  30.116  1.00  0.00    -0.354 N 
ATOM     45  C   UNL A   1      37.702  31.967  29.183  1.00  0.00     0.074 A 
ATOM     46  C   UNL A   1      36.827  30.984  28.584  1.00  0.00     0.031 C 
ATOM     47  C   UNL A   1      42.049  30.438  31.525  1.00  0.00     0.029 A 
ATOM     48  C   UNL A   1      42.905  29.643  30.666  1.00  0.00     0.049 A 
ATOM     49  H   UNL A   1      42.265  27.751  29.852  1.00  0.00     0.167 HD
ATOM     50  C   UNL A   1      37.502  33.173  29.781  1.00  0.00     0.037 A 
ATOM     51  C   UNL A   1      43.957  30.121  29.938  1.00  0.00     0.037 A 
ATOM     52  C   UNL A   1      38.721  33.712  30.371  1.00  0.00     0.049 A 
ATOM     53  C   UNL A   1      43.881  31.599  29.615  1.00  0.00     0.074 A 
ATOM     54  C   UNL A   1      39.246  33.750  31.652  1.00  0.00     0.029 A 
ATOM     55  N   UNL A   1      39.761  34.056  29.528  1.00  0.00    -0.354 N 
ATOM     56  N   UNL A   1      42.893  32.380  29.959  1.00  0.00    -0.248 NA
ATOM     57  C   UNL A   1      44.876  32.298  28.797  1.00  0.00     0.031 C 
ATOM     58  C   UNL A   1      40.621  34.110  31.563  1.00  0.00     0.029 A 
ATOM     59  C   UNL A   1      40.926  34.296  30.228  1.00  0.00     0.049 A 
ATOM     60  H   UNL A   1      39.681  34.121  28.550  1.00  0.00     0.167 HD
ATOM     61  C   UNL A   1      43.062  33.610  29.382  1.00  0.00     0.074 A 
ATOM     62  C   UNL A   1      44.325  33.517  28.675  1.00  0.00     0.031 C 
ATOM     63  C   UNL A   1      42.135  34.605  29.485  1.00  0.00     0.037 A 
BRANCH  50  64
ATOM     64  C   UNL A   1      36.122  33.715  30.006  1.00  0.00     0.057 A 
ATOM     65  C   UNL A   1      35.326  34.155  28.936  1.00  0.00     0.134 A 
ATOM     66  C   UNL A   1      35.550  33.863  31.280  1.00  0.00     0.134 A 
ATOM     67  F   UNL A   1      35.722  34.019  27.664  1.00  0.00    -0.206 F 
ATOM     68  C   UNL A   1      34.092  34.784  29.127  1.00  0.00     0.040 A 
ATOM     69  C   UNL A   1      34.340  34.537  31.490  1.00  0.00     0.040 A 
ATOM     70  F   UNL A   1      36.145  33.354  32.371  1.00  0.00    -0.206 F 
ATOM     71  C   UNL A   1      33.610  35.010  30.409  1.00  0.00     0.006 A 
ENDBRANCH  50  64
BRANCH  51  72
ATOM     72  C   UNL A   1      44.563  29.074  29.074  1.00  0.00     0.057 A 
ATOM     73  C   UNL A   1      44.216  29.053  27.711  1.00  0.00     0.134 A 
ATOM     74  C   UNL A   1      45.729  28.400  29.445  1.00  0.00     0.134 A 
ATOM     75  F   UNL A   1      43.107  29.683  27.287  1.00  0.00    -0.206 F 
ATOM     76  C   UNL A   1      45.058  28.501  26.743  1.00  0.00     0.040 A 
ATOM     77  C   UNL A   1      46.573  27.831  28.485  1.00  0.00     0.040 A 
ATOM     78  F   UNL A   1      46.136  28.394  30.722  1.00  0.00    -0.206 F 
ATOM     79  C   UNL A   1      46.261  27.920  27.129  1.00  0.00     0.006 A 
ENDBRANCH  51  72
BRANCH  63  80
ATOM     80  C   UNL A   1      42.302  35.970  28.887  1.00  0.00     0.057 A 
ATOM     81  C   UNL A   1      41.843  36.288  27.602  1.00  0.00     0.134 A 
ATOM     82  C   UNL A   1      43.063  36.966  29.530  1.00  0.00     0.134 A 
ATOM     83  F   UNL A   1      41.150  35.395  26.878  1.00  0.00    -0.206 F 
ATOM     84  C   UNL A   1      42.105  37.526  27.004  1.00  0.00     0.040 A 
ATOM     85  C   UNL A   1      43.372  38.186  28.924  1.00  0.00     0.040 A 
ATOM     86  F   UNL A   1      43.523  36.802  30.779  1.00  0.00    -0.206 F 
ATOM     87  C   UNL A   1      42.886  38.474  27.658  1.00  0.00     0.006 A 
ENDBRANCH  63  80
ENDBRANCH  37  38
ENDBRANCH  29  32
ENDBRANCH  27  28
ENDBRANCH  26  27
ENDBRANCH  25  26
ENDBRANCH   1  25
TORSDOF 15
ENDMDL
MODEL 2
REMARK VINA RESULT:     -12.3      3.811      9.195
REMARK SMILES CCC(=O)Nc1cc(NC(=O)/C=C/C(=O)NCCCCNC(=O)c2ccc(-c3c4nc(c(-c5c(F)cccc5F)c5ccc([nH]5)c(-c5c(F)cccc5F)c5nc(c(-c6c(F)cccc6F)c6ccc3[nH]6)C=C5)C=C4)cc2)ccc1C
REMARK SMILES IDX 17 1 16 2 14 3 15 4 13 6 12 7 10 8 9 9 11 11 8 12 6 13 7 14
REMARK SMILES IDX 80 15 79 16 81 17 78 18 5 19 3 20 4 21 2 23 1 24 18 25 19 26
REMARK SMILES IDX 20 27 21 28 22 29 23 31 24 32 25 33 77 34 26 35 76 36 27 37
REMARK SMILES IDX 28 38 29 39 70 40 30 41 75 42 69 43 71 44 31 45 74 46 68 47
REMARK SMILES IDX 67 48 32 50 58 51 41 52 57 53 42 54 45 55 56 56 72 57 43 58
REMARK SMILES IDX 44 59 55 61 73 62 46 63 33 64 34 65 39 66 35 67 36 68 38 69
REMARK SMILES IDX 40 70 37 71 59 72 60 73 65 74 61 75 62 76 64 77 66 78 63 79
REMARK SMILES IDX 47 80 48 81 53 82 49 83 50 84 52 85 54 86 51 87
REMARK H PARENT 16 5 9 10 5 22 21 30 71 49 45 60
REMARK Flexibility Score: inf
ROOT
ATOM      1  C   UNL A   1      31.846  27.991  26.118  1.00  0.00     0.116 C 
ENDROOT
BRANCH   1   2
ATOM      2  N   UNL A   1      31.510  26.792  26.864  1.00  0.00    -0.353 N 
ATOM      3  C   UNL A   1      31.696  25.497  26.495  1.00  0.00     0.244 C 
ATOM      4  O   UNL A   1      31.175  24.576  27.118  1.00  0.00    -0.270 OA
ATOM      5  H   UNL A   1      31.097  26.933  27.745  1.00  0.00     0.163 HD
BRANCH   3   6
ATOM      6  C   UNL A   1      32.571  25.196  25.348  1.00  0.00     0.077 C 
ATOM      7  C   UNL A   1      32.069  24.396  24.396  1.00  0.00     0.077 C 
BRANCH   7   8
ATOM      8  C   UNL A   1      32.698  24.303  23.071  1.00  0.00     0.248 C 
ATOM      9  N   UNL A   1      33.803  23.518  22.881  1.00  0.00    -0.322 N 
ATOM     10  H   UNL A   1      34.193  23.589  21.979  1.00  0.00     0.170 HD
ATOM     11  O   UNL A   1      32.221  24.948  22.141  1.00  0.00    -0.270 OA
BRANCH   9  12
ATOM     12  C   UNL A   1      34.490  22.627  23.733  1.00  0.00     0.043 A 
ATOM     13  C   UNL A   1      34.586  20.594  25.076  1.00  0.00     0.046 A 
ATOM     14  C   UNL A   1      33.877  21.675  24.544  1.00  0.00     0.052 A 
ATOM     15  C   UNL A   1      35.964  20.500  24.843  1.00  0.00    -0.027 A 
ATOM     16  C   UNL A   1      36.614  21.582  24.223  1.00  0.00     0.008 A 
ATOM     17  C   UNL A   1      36.751  19.226  24.976  1.00  0.00     0.046 C 
ATOM     18  C   UNL A   1      35.882  22.638  23.671  1.00  0.00     0.026 A 
BRANCH  13  19
ATOM     19  N   UNL A   1      33.809  19.550  25.602  1.00  0.00    -0.326 N 
ATOM     20  C   UNL A   1      33.030  18.628  24.963  1.00  0.00     0.224 C 
ATOM     21  O   UNL A   1      32.207  17.972  25.604  1.00  0.00    -0.275 OA
ATOM     22  H   UNL A   1      33.828  19.471  26.583  1.00  0.00     0.169 HD
BRANCH  20  23
ATOM     23  C   UNL A   1      33.292  18.318  23.502  1.00  0.00     0.097 C 
ATOM     24  C   UNL A   1      34.052  17.033  23.258  1.00  0.00     0.014 C 
ENDBRANCH  20  23
ENDBRANCH  13  19
ENDBRANCH   9  12
ENDBRANCH   7   8
ENDBRANCH   3   6
ENDBRANCH   1   2
BRANCH   1  25
ATOM     25  C   UNL A   1      33.354  28.265  26.134  1.00  0.00     0.023 C 
BRANCH  25  26
ATOM     26  C   UNL A   1      33.741  29.711  26.460  1.00  0.00     0.023 C 
BRANCH  26  27
ATOM     27  C   UNL A   1      33.533  30.092  27.917  1.00  0.00     0.116 C 
BRANCH  27  28
ATOM     28  N   UNL A   1      34.324  31.229  28.366  1.00  0.00    -0.352 N 
ATOM     29  C   UNL A   1      35.616  31.281  28.853  1.00  0.00     0.251 C 
ATOM     30  H   UNL A   1      33.866  32.099  28.313  1.00  0.00     0.163 HD
ATOM     31  O   UNL A   1      36.059  32.356  29.263  1.00  0.00    -0.269 OA
BRANCH  29  32
ATOM     32  C   UNL A   1      36.524  30.110  28.744  1.00  0.00     0.039 A 
ATOM     33  C   UNL A   1      36.758  29.351  29.899  1.00  0.00     0.014 A 
ATOM     34  C   UNL A   1      37.300  29.888  27.612  1.00  0.00     0.014 A 
ATOM     35  C   UNL A   1      37.929  28.601  30.006  1.00  0.00     0.010 A 
ATOM     36  C   UNL A   1      38.517  29.254  27.754  1.00  0.00     0.010 A 
ATOM     37  C   UNL A   1      38.861  28.669  28.974  1.00  0.00    -0.014 A 
BRANCH  37  38
ATOM     38  C   UNL A   1      40.254  28.267  29.115  1.00  0.00     0.031 A 
ATOM     39  C   UNL A   1      40.725  26.975  28.582  1.00  0.00     0.074 A 
ATOM     40  C   UNL A   1      41.150  29.135  29.637  1.00  0.00     0.049 A 
ATOM     41  N   UNL A   1      41.778  26.368  29.016  1.00  0.00    -0.248 NA
ATOM     42  C   UNL A   1      40.034  26.252  27.520  1.00  0.00     0.031 C 
ATOM     43  C   UNL A   1      42.606  29.032  29.605  1.00  0.00     0.029 A 
ATOM     44  N   UNL A   1      40.898  30.211  30.497  1.00  0.00    -0.354 N 
ATOM     45  C   UNL A   1      42.058  25.354  28.137  1.00  0.00     0.074 A 
ATOM     46  C   UNL A   1      40.914  25.281  27.255  1.00  0.00     0.031 C 
ATOM     47  C   UNL A   1      43.113  29.772  30.603  1.00  0.00     0.029 A 
ATOM     48  C   UNL A   1      41.996  30.262  31.388  1.00  0.00     0.049 A 
ATOM     49  H   UNL A   1      40.117  30.810  30.483  1.00  0.00     0.167 HD
ATOM     50  C   UNL A   1      43.279  24.755  28.154  1.00  0.00     0.037 A 
ATOM     51  C   UNL A   1      41.814  30.045  32.724  1.00  0.00     0.037 A 
ATOM     52  C   UNL A   1      44.149  25.293  29.192  1.00  0.00     0.049 A 
ATOM     53  C   UNL A   1      42.517  28.817  33.265  1.00  0.00     0.074 A 
ATOM     54  C   UNL A   1      45.180  26.218  29.213  1.00  0.00     0.029 A 
ATOM     55  N   UNL A   1      43.792  25.099  30.513  1.00  0.00    -0.354 N 
ATOM     56  N   UNL A   1      43.224  27.992  32.541  1.00  0.00    -0.248 NA
ATOM     57  C   UNL A   1      42.406  28.371  34.656  1.00  0.00     0.031 C 
ATOM     58  C   UNL A   1      45.427  26.584  30.567  1.00  0.00     0.029 A 
ATOM     59  C   UNL A   1      44.549  25.876  31.366  1.00  0.00     0.049 A 
ATOM     60  H   UNL A   1      43.084  24.483  30.809  1.00  0.00     0.167 HD
ATOM     61  C   UNL A   1      43.590  26.915  33.302  1.00  0.00     0.074 A 
ATOM     62  C   UNL A   1      43.067  27.202  34.624  1.00  0.00     0.031 C 
ATOM     63  C   UNL A   1      44.256  25.841  32.788  1.00  0.00     0.037 A 
BRANCH  50  64
ATOM     64  C   UNL A   1      43.719  23.842  27.049  1.00  0.00     0.057 A 
ATOM     65  C   UNL A   1      44.499  24.311  25.980  1.00  0.00     0.134 A 
ATOM     66  C   UNL A   1      43.354  22.487  26.977  1.00  0.00     0.134 A 
ATOM     67  F   UNL A   1      44.968  25.565  25.950  1.00  0.00    -0.206 F 
ATOM     68  C   UNL A   1      44.812  23.516  24.873  1.00  0.00     0.040 A 
ATOM     69  C   UNL A   1      43.616  21.695  25.852  1.00  0.00     0.040 A 
ATOM     70  F   UNL A   1      42.731  21.882  28.001  1.00  0.00    -0.206 F 
ATOM     71  C   UNL A   1      44.340  22.214  24.788  1.00  0.00     0.006 A 
ENDBRANCH  50  64
BRANCH  51  72
ATOM     72  C   UNL A   1      40.516  30.585  33.208  1.00  0.00     0.057 A 
ATOM     73  C   UNL A   1      40.382  31.979  33.336  1.00  0.00     0.134 A 
ATOM     74  C   UNL A   1      39.340  29.834  33.147  1.00  0.00     0.134 A 
ATOM     75  F   UNL A   1      41.474  32.759  33.399  1.00  0.00    -0.206 F 
ATOM     76  C   UNL A   1      39.137  32.610  33.273  1.00  0.00     0.040 A 
ATOM     77  C   UNL A   1      38.086  30.455  33.097  1.00  0.00     0.040 A 
ATOM     78  F   UNL A   1      39.387  28.502  33.004  1.00  0.00    -0.206 F 
ATOM     79  C   UNL A   1      37.986  31.845  33.115  1.00  0.00     0.006 A 
ENDBRANCH  51  72
BRANCH  63  80
ATOM     80  C   UNL A   1      44.693  24.659  33.600  1.00  0.00     0.057 A 
ATOM     81  C   UNL A   1      46.042  24.315  33.759  1.00  0.00     0.134 A 
ATOM     82  C   UNL A   1      43.760  23.744  34.127  1.00  0.00     0.134 A 
ATOM     83  F   UNL A   1      47.014  25.089  33.254  1.00  0.00    -0.206 F 
ATOM     84  C   UNL A   1      46.438  23.146  34.419  1.00  0.00     0.040 A 
ATOM     85  C   UNL A   1      44.142  22.550  34.744  1.00  0.00     0.040 A 
ATOM     86  F   UNL A   1      42.441  23.979  34.078  1.00  0.00    -0.206 F 
ATOM     87  C   UNL A   1      45.487  22.251  34.899  1.00  0.00     0.006 A 
ENDBRANCH  63  80
ENDBRANCH  37  38
ENDBRANCH  29  32
ENDBRANCH  27  28
ENDBRANCH  26  27
ENDBRANCH  25  26
ENDBRANCH   1  25
TORSDOF 15
ENDMDL
MODEL 3
REMARK VINA RESULT:     -12.1      1.934      2.798
REMARK SMILES CCC(=O)Nc1cc(NC(=O)/C=C/C(=O)NCCCCNC(=O)c2ccc(-c3c4nc(c(-c5c(F)cccc5F)c5ccc([nH]5)c(-c5c(F)cccc5F)c5nc(c(-c6c(F)cccc6F)c6ccc3[nH]6)C=C5)C=C4)cc2)ccc1C
REMARK SMILES IDX 17 1 16 2 14 3 15 4 13 6 12 7 10 8 9 9 11 11 8 12 6 13 7 14
REMARK SMILES IDX 80 15 79 16 81 17 78 18 5 19 3 20 4 21 2 23 1 24 18 25 19 26
REMARK SMILES IDX 20 27 21 28 22 29 23 31 24 32 25 33 77 34 26 35 76 36 27 37
REMARK SMILES IDX 28 38 29 39 70 40 30 41 75 42 69 43 71 44 31 45 74 46 68 47
REMARK SMILES IDX 67 48 32 50 58 51 41 52 57 53 42 54 45 55 56 56 72 57 43 58
REMARK SMILES IDX 44 59 55 61 73 62 46 63 33 64 34 65 39 66 35 67 36 68 38 69
REMARK SMILES IDX 40 70 37 71 59 72 60 73 65 74 61 75 62 76 64 77 66 78 63 79
REMARK SMILES IDX 47 80 48 81 53 82 49 83 50 84 52 85 54 86 51 87
REMARK H PARENT 16 5 9 10 5 22 21 30 71 49 45 60
REMARK Flexibility Score: inf
ROOT
ATOM      1  C   UNL A   1      35.080  22.338  25.091  1.00  0.00     0.116 C 
ENDROOT
BRANCH   1   2
ATOM      2  N   UNL A   1      34.951  23.277  23.990  1.00  0.00    -0.353 N 
ATOM      3  C   UNL A   1      33.811  23.782  23.451  1.00  0.00     0.244 C 
ATOM      4  O   UNL A   1      33.827  24.399  22.389  1.00  0.00    -0.270 OA
ATOM      5  H   UNL A   1      35.793  23.586  23.586  1.00  0.00     0.163 HD
BRANCH   3   6
ATOM      6  C   UNL A   1      32.539  23.617  24.177  1.00  0.00     0.077 C 
ATOM      7  C   UNL A   1      32.405  24.294  25.327  1.00  0.00     0.077 C 
BRANCH   7   8
ATOM      8  C   UNL A   1      31.088  24.480  25.952  1.00  0.00     0.248 C 
ATOM      9  N   UNL A   1      30.633  25.735  26.254  1.00  0.00    -0.322 N 
ATOM     10  H   UNL A   1      29.777  25.743  26.741  1.00  0.00     0.170 HD
ATOM     11  O   UNL A   1      30.408  23.490  26.206  1.00  0.00    -0.270 OA
BRANCH   9  12
ATOM     12  C   UNL A   1      31.159  27.019  25.999  1.00  0.00     0.043 A 
ATOM     13  C   UNL A   1      31.394  28.996  24.591  1.00  0.00     0.046 A 
ATOM     14  C   UNL A   1      31.213  27.619  24.742  1.00  0.00     0.052 A 
ATOM     15  C   UNL A   1      31.592  29.788  25.729  1.00  0.00    -0.027 A 
ATOM     16  C   UNL A   1      31.768  29.148  26.968  1.00  0.00     0.008 A 
ATOM     17  C   UNL A   1      31.376  31.277  25.761  1.00  0.00     0.046 C 
ATOM     18  C   UNL A   1      31.552  27.774  27.102  1.00  0.00     0.026 A 
BRANCH  13  19
ATOM     19  N   UNL A   1      31.116  29.514  23.316  1.00  0.00    -0.326 N 
ATOM     20  C   UNL A   1      29.922  29.669  22.672  1.00  0.00     0.224 C 
ATOM     21  O   UNL A   1      29.903  29.878  21.458  1.00  0.00    -0.275 OA
ATOM     22  H   UNL A   1      31.905  29.812  22.807  1.00  0.00     0.169 HD
BRANCH  20  23
ATOM     23  C   UNL A   1      28.642  29.730  23.484  1.00  0.00     0.097 C 
ATOM     24  C   UNL A   1      27.972  31.086  23.500  1.00  0.00     0.014 C 
ENDBRANCH  20  23
ENDBRANCH  13  19
ENDBRANCH   9  12
ENDBRANCH   7   8
ENDBRANCH   3   6
ENDBRANCH   1   2
BRANCH   1  25
ATOM     25  C   UNL A   1      35.979  21.153  24.722  1.00  0.00     0.023 C 
BRANCH  25  26
ATOM     26  C   UNL A   1      37.476  21.473  24.672  1.00  0.00     0.023 C 
BRANCH  26  27
ATOM     27  C   UNL A   1      37.948  22.389  25.790  1.00  0.00     0.116 C 
BRANCH  27  28
ATOM     28  N   UNL A   1      39.361  22.265  26.120  1.00  0.00    -0.352 N 
ATOM     29  C   UNL A   1      40.279  23.228  26.492  1.00  0.00     0.251 C 
ATOM     30  H   UNL A   1      39.719  21.349  26.073  1.00  0.00     0.163 HD
ATOM     31  O   UNL A   1      41.460  22.906  26.639  1.00  0.00    -0.269 OA
BRANCH  29  32
ATOM     32  C   UNL A   1      39.842  24.599  26.867  1.00  0.00     0.039 A 
ATOM     33  C   UNL A   1      40.401  25.679  26.170  1.00  0.00     0.014 A 
ATOM     34  C   UNL A   1      39.086  24.839  28.008  1.00  0.00     0.014 A 
ATOM     35  C   UNL A   1      40.445  26.938  26.770  1.00  0.00     0.010 A 
ATOM     36  C   UNL A   1      39.234  26.045  28.662  1.00  0.00     0.010 A 
ATOM     37  C   UNL A   1      39.972  27.073  28.072  1.00  0.00    -0.014 A 
BRANCH  37  38
ATOM     38  C   UNL A   1      40.302  28.196  28.939  1.00  0.00     0.031 A 
ATOM     39  C   UNL A   1      39.328  29.278  29.177  1.00  0.00     0.074 A 
ATOM     40  C   UNL A   1      41.467  28.192  29.624  1.00  0.00     0.049 A 
ATOM     41  N   UNL A   1      39.662  30.465  29.555  1.00  0.00    -0.248 NA
ATOM     42  C   UNL A   1      37.890  29.109  28.994  1.00  0.00     0.031 C 
ATOM     43  C   UNL A   1      41.849  29.064  30.731  1.00  0.00     0.029 A 
ATOM     44  N   UNL A   1      42.645  27.503  29.306  1.00  0.00    -0.354 N 
ATOM     45  C   UNL A   1      38.513  31.115  29.926  1.00  0.00     0.074 A 
ATOM     46  C   UNL A   1      37.429  30.255  29.505  1.00  0.00     0.031 C 
ATOM     47  C   UNL A   1      43.188  29.097  30.813  1.00  0.00     0.029 A 
ATOM     48  C   UNL A   1      43.709  28.357  29.679  1.00  0.00     0.049 A 
ATOM     49  H   UNL A   1      42.717  26.607  28.903  1.00  0.00     0.167 HD
ATOM     50  C   UNL A   1      38.584  32.255  30.665  1.00  0.00     0.037 A 
ATOM     51  C   UNL A   1      44.561  28.856  28.736  1.00  0.00     0.037 A 
ATOM     52  C   UNL A   1      39.958  32.657  30.940  1.00  0.00     0.049 A 
ATOM     53  C   UNL A   1      44.524  30.363  28.584  1.00  0.00     0.074 A 
ATOM     54  C   UNL A   1      40.811  32.521  32.022  1.00  0.00     0.029 A 
ATOM     55  N   UNL A   1      40.756  33.035  29.877  1.00  0.00    -0.354 N 
ATOM     56  N   UNL A   1      43.735  31.153  29.261  1.00  0.00    -0.248 NA
ATOM     57  C   UNL A   1      45.315  31.093  27.591  1.00  0.00     0.031 C 
ATOM     58  C   UNL A   1      42.136  32.814  31.588  1.00  0.00     0.029 A 
ATOM     59  C   UNL A   1      42.082  33.132  30.244  1.00  0.00     0.049 A 
ATOM     60  H   UNL A   1      40.419  33.215  28.970  1.00  0.00     0.167 HD
ATOM     61  C   UNL A   1      43.844  32.429  28.777  1.00  0.00     0.074 A 
ATOM     62  C   UNL A   1      44.856  32.347  27.741  1.00  0.00     0.031 C 
ATOM     63  C   UNL A   1      43.066  33.456  29.226  1.00  0.00     0.037 A 
BRANCH  50  64
ATOM     64  C   UNL A   1      37.367  32.843  31.315  1.00  0.00     0.057 A 
ATOM     65  C   UNL A   1      37.024  32.530  32.641  1.00  0.00     0.134 A 
ATOM     66  C   UNL A   1      36.473  33.697  30.649  1.00  0.00     0.134 A 
ATOM     67  F   UNL A   1      37.816  31.776  33.412  1.00  0.00    -0.206 F 
ATOM     68  C   UNL A   1      35.829  32.958  33.228  1.00  0.00     0.040 A 
ATOM     69  C   UNL A   1      35.250  34.090  31.206  1.00  0.00     0.040 A 
ATOM     70  F   UNL A   1      36.758  34.184  29.431  1.00  0.00    -0.206 F 
ATOM     71  C   UNL A   1      34.919  33.711  32.500  1.00  0.00     0.006 A 
ENDBRANCH  50  64
BRANCH  51  72
ATOM     72  C   UNL A   1      44.821  27.881  27.644  1.00  0.00     0.057 A 
ATOM     73  C   UNL A   1      44.136  28.048  26.425  1.00  0.00     0.134 A 
ATOM     74  C   UNL A   1      45.971  27.089  27.625  1.00  0.00     0.134 A 
ATOM     75  F   UNL A   1      43.023  28.800  26.375  1.00  0.00    -0.206 F 
ATOM     76  C   UNL A   1      44.645  27.560  25.219  1.00  0.00     0.040 A 
ATOM     77  C   UNL A   1      46.482  26.582  26.424  1.00  0.00     0.040 A 
ATOM     78  F   UNL A   1      46.688  26.901  28.741  1.00  0.00    -0.206 F 
ATOM     79  C   UNL A   1      45.844  26.855  25.215  1.00  0.00     0.006 A 
ENDBRANCH  51  72
BRANCH  63  80
ATOM     80  C   UNL A   1      43.179  34.868  28.735  1.00  0.00     0.057 A 
ATOM     81  C   UNL A   1      43.406  35.947  29.600  1.00  0.00     0.134 A 
ATOM     82  C   UNL A   1      42.915  35.203  27.393  1.00  0.00     0.134 A 
ATOM     83  F   UNL A   1      43.618  35.748  30.910  1.00  0.00    -0.206 F 
ATOM     84  C   UNL A   1      43.392  37.274  29.153  1.00  0.00     0.040 A 
ATOM     85  C   UNL A   1      42.851  36.525  26.945  1.00  0.00     0.040 A 
ATOM     86  F   UNL A   1      42.726  34.260  26.458  1.00  0.00    -0.206 F 
ATOM     87  C   UNL A   1      43.099  37.567  27.825  1.00  0.00     0.006 A 
ENDBRANCH  63  80
ENDBRANCH  37  38
ENDBRANCH  29  32
ENDBRANCH  27  28
ENDBRANCH  26  27
ENDBRANCH  25  26
ENDBRANCH   1  25
TORSDOF 15
ENDMDL
