MODEL 1
REMARK VINA RESULT:     -13.2      0.000      0.000
REMARK SMILES Cc1cc(S(F)(F)(F)(F)F)cc2c1O[C@H](C(F)(F)F)C(C(=O)NCCCCNC(=O)c1ccc(-c3c4nc(c(-c5c(F)cccc5F)c5ccc([nH]5)c(-c5c(F)cccc5F)c5nc(c(-c6c(F)cccc6F)c6ccc3[nH]6)C=C5)C=C4)cc1)=C2
REMARK SMILES IDX 26 1 25 2 24 3 23 4 21 5 22 6 20 8 1 9 2 10 3 11 13 12 4 13
REMARK SMILES IDX 12 14 14 15 11 16 85 17 15 18 5 19 6 20 7 21 8 22 9 23 10 24
REMARK SMILES IDX 16 25 17 26 18 27 19 28 27 29 28 30 29 31 30 33 31 34 32 35
REMARK SMILES IDX 84 36 33 37 83 38 34 39 35 40 36 41 77 42 37 43 82 44 76 45
REMARK SMILES IDX 78 46 38 47 81 48 75 49 74 50 39 52 65 53 48 54 64 55 49 56
REMARK SMILES IDX 52 57 63 58 79 59 50 60 51 61 62 63 80 64 53 65 40 66 41 67
REMARK SMILES IDX 46 68 42 69 43 70 45 71 47 72 44 73 66 74 67 75 72 76 68 77
REMARK SMILES IDX 69 78 71 79 73 80 70 81 54 82 55 83 60 84 56 85 57 86 59 87
REMARK SMILES IDX 61 88 58 89
REMARK H PARENT 23 7 28 32 78 51 52 62
REMARK Flexibility Score: inf
ROOT
ATOM      1  C   UNL A   1      37.946  19.814  24.872  1.00  0.00     0.023 C 
ENDROOT
BRANCH   1   2
ATOM      2  C   UNL A   1      37.292  21.114  24.432  1.00  0.00     0.023 C 
BRANCH   2   3
ATOM      3  C   UNL A   1      36.863  21.905  25.657  1.00  0.00     0.116 C 
BRANCH   3   4
ATOM      4  N   UNL A   1      35.741  21.220  26.314  1.00  0.00    -0.352 N 
ATOM      5  C   UNL A   1      34.386  21.784  26.235  1.00  0.00     0.251 C 
ATOM      6  O   UNL A   1      33.416  21.192  26.802  1.00  0.00    -0.270 OA
ATOM      7  H   UNL A   1      35.897  20.383  26.808  1.00  0.00     0.163 HD
BRANCH   5   8
ATOM      8  C   UNL A   1      34.145  23.077  25.471  1.00  0.00     0.067 C 
ATOM      9  C   UNL A   1      33.409  26.610  21.815  1.00  0.00     0.048 C 
ATOM     10  C   UNL A   1      33.486  26.614  23.333  1.00  0.00    -0.007 A 
ATOM     11  C   UNL A   1      33.325  27.787  24.035  1.00  0.00     0.031 A 
ATOM     12  C   UNL A   1      33.707  25.425  24.028  1.00  0.00     0.130 A 
ATOM     13  C   UNL A   1      33.384  27.799  25.423  1.00  0.00     0.108 A 
ATOM     14  C   UNL A   1      33.760  25.440  25.440  1.00  0.00     0.019 A 
ATOM     15  O   UNL A   1      33.887  24.142  23.338  1.00  0.00    -0.475 OA
ATOM     16  C   UNL A   1      33.592  26.645  26.125  1.00  0.00     0.036 A 
ATOM     17  C   UNL A   1      33.993  24.178  26.144  1.00  0.00     0.025 C 
ATOM     18  C   UNL A   1      34.098  23.032  24.078  1.00  0.00     0.314 C 
BRANCH  13  19
ATOM     19  S   UNL A   1      33.181  29.361  26.314  1.00  0.00     0.310 S 
ATOM     20  F   UNL A   1      33.215  28.805  27.799  1.00  0.00    -0.094 F 
ATOM     21  F   UNL A   1      31.616  29.183  26.356  1.00  0.00    -0.094 F 
ATOM     22  F   UNL A   1      33.062  30.790  26.917  1.00  0.00    -0.094 F 
ATOM     23  F   UNL A   1      34.755  29.466  26.395  1.00  0.00    -0.094 F 
ATOM     24  F   UNL A   1      33.321  27.870  25.808  1.00  0.00    -0.094 F 
ENDBRANCH  13  19
BRANCH  18  25
ATOM     25  C   UNL A   1      32.831  22.231  23.824  1.00  0.00     0.429 C 
ATOM     26  F   UNL A   1      31.908  22.566  24.721  1.00  0.00    -0.167 F 
ATOM     27  F   UNL A   1      32.377  22.494  22.602  1.00  0.00    -0.167 F 
ATOM     28  F   UNL A   1      33.098  20.933  23.928  1.00  0.00    -0.167 F 
ENDBRANCH  18  25
ENDBRANCH   5   8
ENDBRANCH   3   4
ENDBRANCH   2   3
ENDBRANCH   1   2
BRANCH   1  29
ATOM     29  C   UNL A   1      39.101  20.120  25.811  1.00  0.00     0.116 C 
BRANCH  29  30
ATOM     30  N   UNL A   1      40.100  19.044  25.726  1.00  0.00    -0.352 N 
ATOM     31  C   UNL A   1      41.493  19.302  26.118  1.00  0.00     0.251 C 
ATOM     32  H   UNL A   1      39.834  18.151  25.408  1.00  0.00     0.163 HD
ATOM     33  O   UNL A   1      42.355  18.371  26.044  1.00  0.00    -0.269 OA
BRANCH  31  34
ATOM     34  C   UNL A   1      41.902  20.680  26.609  1.00  0.00     0.039 A 
ATOM     35  C   UNL A   1      42.410  21.579  25.676  1.00  0.00     0.014 A 
ATOM     36  C   UNL A   1      41.827  21.061  27.867  1.00  0.00     0.014 A 
ATOM     37  C   UNL A   1      42.333  22.949  26.013  1.00  0.00     0.010 A 
ATOM     38  C   UNL A   1      42.257  22.334  28.256  1.00  0.00     0.010 A 
ATOM     39  C   UNL A   1      42.505  23.264  27.359  1.00  0.00    -0.014 A 
BRANCH  39  40
ATOM     40  C   UNL A   1      42.968  24.650  27.781  1.00  0.00     0.031 A 
ATOM     41  C   UNL A   1      41.973  25.577  28.096  1.00  0.00     0.074 A 
ATOM     42  C   UNL A   1      44.320  24.945  27.755  1.00  0.00     0.049 A 
ATOM     43  N   UNL A   1      42.132  26.853  28.448  1.00  0.00    -0.248 NA
ATOM     44  C   UNL A   1      40.533  25.275  28.090  1.00  0.00     0.031 C 
ATOM     45  C   UNL A   1      45.331  24.013  27.447  1.00  0.00     0.029 A 
ATOM     46  N   UNL A   1      44.927  26.154  28.013  1.00  0.00    -0.354 N 
ATOM     47  C   UNL A   1      40.947  27.415  28.692  1.00  0.00     0.074 A 
ATOM     48  C   UNL A   1      39.901  26.410  28.459  1.00  0.00     0.031 C 
ATOM     49  C   UNL A   1      46.527  24.655  27.507  1.00  0.00     0.029 A 
ATOM     50  C   UNL A   1      46.285  25.997  27.854  1.00  0.00     0.049 A 
ATOM     51  H   UNL A   1      44.468  26.987  28.267  1.00  0.00     0.167 HD
ATOM     52  C   UNL A   1      40.696  28.727  29.101  1.00  0.00     0.037 A 
ATOM     53  C   UNL A   1      47.274  26.958  27.997  1.00  0.00     0.037 A 
ATOM     54  C   UNL A   1      41.689  29.676  29.286  1.00  0.00     0.049 A 
ATOM     55  C   UNL A   1      47.019  28.285  28.350  1.00  0.00     0.074 A 
ATOM     56  C   UNL A   1      41.454  31.000  29.705  1.00  0.00     0.029 A 
ATOM     57  N   UNL A   1      43.045  29.525  29.103  1.00  0.00    -0.354 N 
ATOM     58  N   UNL A   1      45.837  28.837  28.631  1.00  0.00    -0.248 NA
ATOM     59  C   UNL A   1      48.054  29.320  28.472  1.00  0.00     0.031 C 
ATOM     60  C   UNL A   1      42.651  31.642  29.765  1.00  0.00     0.029 A 
ATOM     61  C   UNL A   1      43.654  30.729  29.383  1.00  0.00     0.049 A 
ATOM     62  H   UNL A   1      43.502  28.700  28.820  1.00  0.00     0.167 HD
ATOM     63  C   UNL A   1      45.994  30.125  28.943  1.00  0.00     0.074 A 
ATOM     64  C   UNL A   1      47.421  30.456  28.839  1.00  0.00     0.031 C 
ATOM     65  C   UNL A   1      45.004  31.036  29.315  1.00  0.00     0.037 A 
BRANCH  52  66
ATOM     66  C   UNL A   1      39.255  29.136  29.356  1.00  0.00     0.057 A 
ATOM     67  C   UNL A   1      38.524  29.597  28.364  1.00  0.00     0.134 A 
ATOM     68  C   UNL A   1      38.721  29.019  30.644  1.00  0.00     0.134 A 
ATOM     69  F   UNL A   1      39.034  29.717  27.141  1.00  0.00    -0.206 F 
ATOM     70  C   UNL A   1      37.206  29.954  28.624  1.00  0.00     0.040 A 
ATOM     71  C   UNL A   1      37.424  29.121  30.847  1.00  0.00     0.040 A 
ATOM     72  F   UNL A   1      39.532  28.802  31.675  1.00  0.00    -0.206 F 
ATOM     73  C   UNL A   1      36.599  29.351  29.748  1.00  0.00     0.006 A 
ENDBRANCH  52  66
BRANCH  53  74
ATOM     74  C   UNL A   1      48.717  26.544  27.758  1.00  0.00     0.057 A 
ATOM     75  C   UNL A   1      49.436  26.088  28.761  1.00  0.00     0.134 A 
ATOM     76  C   UNL A   1      49.263  26.652  26.475  1.00  0.00     0.134 A 
ATOM     77  F   UNL A   1      48.919  25.992  29.982  1.00  0.00    -0.206 F 
ATOM     78  C   UNL A   1      50.750  25.706  28.510  1.00  0.00     0.040 A 
ATOM     79  C   UNL A   1      50.408  26.074  26.179  1.00  0.00     0.040 A 
ATOM     80  F   UNL A   1      48.618  27.348  25.542  1.00  0.00    -0.206 F 
ATOM     81  C   UNL A   1      51.063  25.355  27.179  1.00  0.00     0.006 A 
ENDBRANCH  53  74
BRANCH  65  82
ATOM     82  C   UNL A   1      45.432  32.452  29.667  1.00  0.00     0.057 A 
ATOM     83  C   UNL A   1      45.741  32.703  30.921  1.00  0.00     0.134 A 
ATOM     84  C   UNL A   1      45.485  33.461  28.699  1.00  0.00     0.134 A 
ATOM     85  F   UNL A   1      45.683  31.746  31.843  1.00  0.00    -0.206 F 
ATOM     86  C   UNL A   1      46.131  33.995  31.258  1.00  0.00     0.040 A 
ATOM     87  C   UNL A   1      46.079  34.607  28.955  1.00  0.00     0.040 A 
ATOM     88  F   UNL A   1      44.929  33.260  27.508  1.00  0.00    -0.206 F 
ATOM     89  C   UNL A   1      46.650  34.792  30.213  1.00  0.00     0.006 A 
ENDBRANCH  65  82
ENDBRANCH  39  40
ENDBRANCH  31  34
ENDBRANCH  29  30
ENDBRANCH   1  29
TORSDOF 13
ENDMDL
MODEL 2
REMARK VINA RESULT:     -13.2      0.802      5.971
REMARK SMILES Cc1cc(S(F)(F)(F)(F)F)cc2c1O[C@H](C(F)(F)F)C(C(=O)NCCCCNC(=O)c1ccc(-c3c4nc(c(-c5c(F)cccc5F)c5ccc([nH]5)c(-c5c(F)cccc5F)c5nc(c(-c6c(F)cccc6F)c6ccc3[nH]6)C=C5)C=C4)cc1)=C2
REMARK SMILES IDX 26 1 25 2 24 3 23 4 21 5 22 6 20 8 1 9 2 10 3 11 13 12 4 13
REMARK SMILES IDX 12 14 14 15 11 16 85 17 15 18 5 19 6 20 7 21 8 22 9 23 10 24
REMARK SMILES IDX 16 25 17 26 18 27 19 28 27 29 28 30 29 31 30 33 31 34 32 35
REMARK SMILES IDX 84 36 33 37 83 38 34 39 35 40 36 41 77 42 37 43 82 44 76 45
REMARK SMILES IDX 78 46 38 47 81 48 75 49 74 50 39 52 65 53 48 54 64 55 49 56
REMARK SMILES IDX 52 57 63 58 79 59 50 60 51 61 62 63 80 64 53 65 40 66 41 67
REMARK SMILES IDX 46 68 42 69 43 70 45 71 47 72 44 73 66 74 67 75 72 76 68 77
REMARK SMILES IDX 69 78 71 79 73 80 70 81 54 82 55 83 60 84 56 85 57 86 59 87
REMARK SMILES IDX 61 88 58 89
REMARK H PARENT 23 7 28 32 78 51 52 62
REMARK Flexibility Score: inf
ROOT
ATOM      1  C   UNL A   1      37.798  19.619  24.893  1.00  0.00     0.023 C 
ENDROOT
BRANCH   1   2
ATOM      2  C   UNL A   1      37.094  20.867  24.385  1.00  0.00     0.023 C 
BRANCH   2   3
ATOM      3  C   UNL A   1      36.756  21.770  25.559  1.00  0.00     0.116 C 
BRANCH   3   4
ATOM      4  N   UNL A   1      35.661  21.173  26.337  1.00  0.00    -0.352 N 
ATOM      5  C   UNL A   1      34.331  21.799  26.337  1.00  0.00     0.251 C 
ATOM      6  O   UNL A   1      33.384  21.283  27.008  1.00  0.00    -0.270 OA
ATOM      7  H   UNL A   1      35.818  20.354  26.859  1.00  0.00     0.163 HD
BRANCH   5   8
ATOM      8  C   UNL A   1      34.088  23.066  25.531  1.00  0.00     0.067 C 
ATOM      9  C   UNL A   1      33.358  26.475  21.758  1.00  0.00     0.048 C 
ATOM     10  C   UNL A   1      33.423  26.528  23.276  1.00  0.00    -0.007 A 
ATOM     11  C   UNL A   1      33.250  27.723  23.939  1.00  0.00     0.031 A 
ATOM     12  C   UNL A   1      33.646  25.364  24.010  1.00  0.00     0.130 A 
ATOM     13  C   UNL A   1      33.297  27.779  25.326  1.00  0.00     0.108 A 
ATOM     14  C   UNL A   1      33.688  25.424  25.421  1.00  0.00     0.019 A 
ATOM     15  O   UNL A   1      33.840  24.061  23.363  1.00  0.00    -0.475 OA
ATOM     16  C   UNL A   1      33.507  26.649  26.066  1.00  0.00     0.036 A 
ATOM     17  C   UNL A   1      33.924  24.187  26.167  1.00  0.00     0.025 C 
ATOM     18  C   UNL A   1      34.052  22.976  24.139  1.00  0.00     0.314 C 
BRANCH  13  19
ATOM     19  S   UNL A   1      33.077  29.367  26.164  1.00  0.00     0.310 S 
ATOM     20  F   UNL A   1      33.010  28.849  27.663  1.00  0.00    -0.094 F 
ATOM     21  F   UNL A   1      31.509  29.224  26.117  1.00  0.00    -0.094 F 
ATOM     22  F   UNL A   1      32.955  30.813  26.725  1.00  0.00    -0.094 F 
ATOM     23  F   UNL A   1      34.646  29.441  26.338  1.00  0.00    -0.094 F 
ATOM     24  F   UNL A   1      33.213  27.861  25.705  1.00  0.00    -0.094 F 
ENDBRANCH  13  19
BRANCH  18  25
ATOM     25  C   UNL A   1      32.792  22.159  23.901  1.00  0.00     0.429 C 
ATOM     26  F   UNL A   1      33.069  20.866  24.042  1.00  0.00    -0.167 F 
ATOM     27  F   UNL A   1      31.862  22.511  24.784  1.00  0.00    -0.167 F 
ATOM     28  F   UNL A   1      32.342  22.384  22.671  1.00  0.00    -0.167 F 
ENDBRANCH  18  25
ENDBRANCH   5   8
ENDBRANCH   3   4
ENDBRANCH   2   3
ENDBRANCH   1   2
BRANCH   1  29
ATOM     29  C   UNL A   1      38.961  20.020  25.786  1.00  0.00     0.116 C 
BRANCH  29  30
ATOM     30  N   UNL A   1      40.022  19.007  25.692  1.00  0.00    -0.352 N 
ATOM     31  C   UNL A   1      41.393  19.338  26.108  1.00  0.00     0.251 C 
ATOM     32  H   UNL A   1      39.814  18.107  25.353  1.00  0.00     0.163 HD
ATOM     33  O   UNL A   1      42.310  18.462  26.027  1.00  0.00    -0.269 OA
BRANCH  31  34
ATOM     34  C   UNL A   1      41.714  20.728  26.631  1.00  0.00     0.039 A 
ATOM     35  C   UNL A   1      42.353  21.616  25.772  1.00  0.00     0.014 A 
ATOM     36  C   UNL A   1      41.444  21.129  27.856  1.00  0.00     0.014 A 
ATOM     37  C   UNL A   1      42.217  22.991  26.069  1.00  0.00     0.010 A 
ATOM     38  C   UNL A   1      41.801  22.411  28.285  1.00  0.00     0.010 A 
ATOM     39  C   UNL A   1      42.179  23.329  27.420  1.00  0.00    -0.014 A 
BRANCH  39  40
ATOM     40  C   UNL A   1      42.563  24.725  27.884  1.00  0.00     0.031 A 
ATOM     41  C   UNL A   1      43.918  24.957  28.129  1.00  0.00     0.074 A 
ATOM     42  C   UNL A   1      41.565  25.656  28.115  1.00  0.00     0.049 A 
ATOM     43  N   UNL A   1      44.483  26.078  28.577  1.00  0.00    -0.248 NA
ATOM     44  C   UNL A   1      44.976  23.958  27.917  1.00  0.00     0.031 C 
ATOM     45  C   UNL A   1      40.197  25.433  27.862  1.00  0.00     0.029 A 
ATOM     46  N   UNL A   1      41.698  26.932  28.616  1.00  0.00    -0.354 N 
ATOM     47  C   UNL A   1      45.806  25.924  28.666  1.00  0.00     0.074 A 
ATOM     48  C   UNL A   1      46.141  24.555  28.248  1.00  0.00     0.031 C 
ATOM     49  C   UNL A   1      39.515  26.554  28.217  1.00  0.00     0.029 A 
ATOM     50  C   UNL A   1      40.445  27.496  28.696  1.00  0.00     0.049 A 
ATOM     51  H   UNL A   1      42.544  27.366  28.872  1.00  0.00     0.167 HD
ATOM     52  C   UNL A   1      46.746  26.871  29.077  1.00  0.00     0.037 A 
ATOM     53  C   UNL A   1      40.110  28.759  29.160  1.00  0.00     0.037 A 
ATOM     54  C   UNL A   1      46.415  28.148  29.500  1.00  0.00     0.049 A 
ATOM     55  C   UNL A   1      41.045  29.686  29.626  1.00  0.00     0.074 A 
ATOM     56  C   UNL A   1      47.351  29.117  29.910  1.00  0.00     0.029 A 
ATOM     57  N   UNL A   1      45.160  28.703  29.603  1.00  0.00    -0.354 N 
ATOM     58  N   UNL A   1      42.370  29.546  29.678  1.00  0.00    -0.248 NA
ATOM     59  C   UNL A   1      40.699  31.014  30.150  1.00  0.00     0.031 C 
ATOM     60  C   UNL A   1      46.669  30.239  30.265  1.00  0.00     0.029 A 
ATOM     61  C   UNL A   1      45.295  29.988  30.082  1.00  0.00     0.049 A 
ATOM     62  H   UNL A   1      44.311  28.260  29.374  1.00  0.00     0.167 HD
ATOM     63  C   UNL A   1      42.932  30.653  30.165  1.00  0.00     0.074 A 
ATOM     64  C   UNL A   1      41.864  31.612  30.483  1.00  0.00     0.031 C 
ATOM     65  C   UNL A   1      44.292  30.905  30.355  1.00  0.00     0.037 A 
BRANCH  52  66
ATOM     66  C   UNL A   1      48.214  26.478  29.060  1.00  0.00     0.057 A 
ATOM     67  C   UNL A   1      48.747  25.908  30.119  1.00  0.00     0.134 A 
ATOM     68  C   UNL A   1      48.984  26.728  27.918  1.00  0.00     0.134 A 
ATOM     69  F   UNL A   1      48.019  25.678  31.208  1.00  0.00    -0.206 F 
ATOM     70  C   UNL A   1      50.090  25.550  30.072  1.00  0.00     0.040 A 
ATOM     71  C   UNL A   1      50.173  26.182  27.774  1.00  0.00     0.040 A 
ATOM     72  F   UNL A   1      48.509  27.528  26.967  1.00  0.00    -0.206 F 
ATOM     73  C   UNL A   1      50.645  25.350  28.788  1.00  0.00     0.006 A 
ENDBRANCH  52  66
BRANCH  53  74
ATOM     74  C   UNL A   1      38.643  29.157  29.161  1.00  0.00     0.057 A 
ATOM     75  C   UNL A   1      37.909  28.929  30.229  1.00  0.00     0.134 A 
ATOM     76  C   UNL A   1      38.090  29.762  28.028  1.00  0.00     0.134 A 
ATOM     77  F   UNL A   1      38.433  28.347  31.304  1.00  0.00    -0.206 F 
ATOM     78  C   UNL A   1      36.573  29.313  30.206  1.00  0.00     0.040 A 
ATOM     79  C   UNL A   1      36.910  30.342  28.082  1.00  0.00     0.040 A 
ATOM     80  F   UNL A   1      38.763  29.749  26.880  1.00  0.00    -0.206 F 
ATOM     81  C   UNL A   1      36.226  30.336  29.297  1.00  0.00     0.006 A 
ENDBRANCH  53  74
BRANCH  65  82
ATOM     82  C   UNL A   1      44.697  32.268  30.893  1.00  0.00     0.057 A 
ATOM     83  C   UNL A   1      44.790  32.408  32.198  1.00  0.00     0.134 A 
ATOM     84  C   UNL A   1      44.951  33.345  30.036  1.00  0.00     0.134 A 
ATOM     85  F   UNL A   1      44.540  31.387  33.013  1.00  0.00    -0.206 F 
ATOM     86  C   UNL A   1      45.156  33.651  32.704  1.00  0.00     0.040 A 
ATOM     87  C   UNL A   1      45.527  34.440  30.485  1.00  0.00     0.040 A 
ATOM     88  F   UNL A   1      44.606  33.261  28.755  1.00  0.00    -0.206 F 
ATOM     89  C   UNL A   1      45.875  34.501  31.834  1.00  0.00     0.006 A 
ENDBRANCH  65  82
ENDBRANCH  39  40
ENDBRANCH  31  34
ENDBRANCH  29  30
ENDBRANCH   1  29
TORSDOF 13
ENDMDL
MODEL 3
REMARK VINA RESULT:     -13.2      4.811      9.556
REMARK SMILES Cc1cc(S(F)(F)(F)(F)F)cc2c1O[C@H](C(F)(F)F)C(C(=O)NCCCCNC(=O)c1ccc(-c3c4nc(c(-c5c(F)cccc5F)c5ccc([nH]5)c(-c5c(F)cccc5F)c5nc(c(-c6c(F)cccc6F)c6ccc3[nH]6)C=C5)C=C4)cc1)=C2
REMARK SMILES IDX 26 1 25 2 24 3 23 4 21 5 22 6 20 8 1 9 2 10 3 11 13 12 4 13
REMARK SMILES IDX 12 14 14 15 11 16 85 17 15 18 5 19 6 20 7 21 8 22 9 23 10 24
REMARK SMILES IDX 16 25 17 26 18 27 19 28 27 29 28 30 29 31 30 33 31 34 32 35
REMARK SMILES IDX 84 36 33 37 83 38 34 39 35 40 36 41 77 42 37 43 82 44 76 45
REMARK SMILES IDX 78 46 38 47 81 48 75 49 74 50 39 52 65 53 48 54 64 55 49 56
REMARK SMILES IDX 52 57 63 58 79 59 50 60 51 61 62 63 80 64 53 65 40 66 41 67
REMARK SMILES IDX 46 68 42 69 43 70 45 71 47 72 44 73 66 74 67 75 72 76 68 77
REMARK SMILES IDX 69 78 71 79 73 80 70 81 54 82 55 83 60 84 56 85 57 86 59 87
REMARK SMILES IDX 61 88 58 89
REMARK H PARENT 23 7 28 32 78 51 52 62
REMARK Flexibility Score: inf
ROOT
ATOM      1  C   UNL A   1      31.392  31.704  26.531  1.00  0.00     0.023 C 
ENDROOT
BRANCH   1   2
ATOM      2  C   UNL A   1      31.629  30.236  26.846  1.00  0.00     0.023 C 
BRANCH   2   3
ATOM      3  C   UNL A   1      32.851  29.747  26.084  1.00  0.00     0.116 C 
BRANCH   3   4
ATOM      4  N   UNL A   1      32.585  29.810  24.640  1.00  0.00    -0.352 N 
ATOM      5  C   UNL A   1      32.516  28.573  23.849  1.00  0.00     0.251 C 
ATOM      6  O   UNL A   1      32.286  28.627  22.601  1.00  0.00    -0.270 OA
ATOM      7  H   UNL A   1      32.454  30.682  24.202  1.00  0.00     0.163 HD
BRANCH   5   8
ATOM      8  C   UNL A   1      32.720  27.226  24.526  1.00  0.00     0.067 C 
ATOM      9  C   UNL A   1      32.209  22.993  27.391  1.00  0.00     0.048 C 
ATOM     10  C   UNL A   1      33.242  23.527  26.412  1.00  0.00    -0.007 A 
ATOM     11  C   UNL A   1      34.368  22.791  26.118  1.00  0.00     0.031 A 
ATOM     12  C   UNL A   1      33.051  24.762  25.794  1.00  0.00     0.130 A 
ATOM     13  C   UNL A   1      35.313  23.267  25.216  1.00  0.00     0.108 A 
ATOM     14  C   UNL A   1      34.011  25.241  24.874  1.00  0.00     0.019 A 
ATOM     15  O   UNL A   1      31.873  25.595  26.066  1.00  0.00    -0.475 OA
ATOM     16  C   UNL A   1      35.142  24.471  24.594  1.00  0.00     0.036 A 
ATOM     17  C   UNL A   1      33.785  26.540  24.240  1.00  0.00     0.025 C 
ATOM     18  C   UNL A   1      31.755  26.780  25.430  1.00  0.00     0.314 C 
BRANCH  13  19
ATOM     19  S   UNL A   1      36.787  22.279  24.862  1.00  0.00     0.310 S 
ATOM     20  F   UNL A   1      36.926  22.590  23.313  1.00  0.00    -0.094 F 
ATOM     21  F   UNL A   1      35.909  21.034  24.464  1.00  0.00    -0.094 F 
ATOM     22  F   UNL A   1      38.088  21.434  24.746  1.00  0.00    -0.094 F 
ATOM     23  F   UNL A   1      37.659  23.571  25.125  1.00  0.00    -0.094 F 
ATOM     24  F   UNL A   1      35.485  23.175  24.872  1.00  0.00    -0.094 F 
ENDBRANCH  13  19
BRANCH  18  25
ATOM     25  C   UNL A   1      30.554  26.545  24.530  1.00  0.00     0.429 C 
ATOM     26  F   UNL A   1      30.955  25.978  23.395  1.00  0.00    -0.167 F 
ATOM     27  F   UNL A   1      29.689  25.742  25.144  1.00  0.00    -0.167 F 
ATOM     28  F   UNL A   1      29.966  27.706  24.261  1.00  0.00    -0.167 F 
ENDBRANCH  18  25
ENDBRANCH   5   8
ENDBRANCH   3   4
ENDBRANCH   2   3
ENDBRANCH   1   2
BRANCH   1  29
ATOM     29  C   UNL A   1      32.641  32.503  26.865  1.00  0.00     0.116 C 
BRANCH  29  30
ATOM     30  N   UNL A   1      32.254  33.829  27.369  1.00  0.00    -0.352 N 
ATOM     31  C   UNL A   1      33.075  34.495  28.390  1.00  0.00     0.251 C 
ATOM     32  H   UNL A   1      31.446  34.271  27.022  1.00  0.00     0.163 HD
ATOM     33  O   UNL A   1      32.741  35.641  28.826  1.00  0.00    -0.269 OA
BRANCH  31  34
ATOM     34  C   UNL A   1      34.323  33.813  28.926  1.00  0.00     0.039 A 
ATOM     35  C   UNL A   1      34.164  32.853  29.921  1.00  0.00     0.014 A 
ATOM     36  C   UNL A   1      35.543  34.097  28.522  1.00  0.00     0.014 A 
ATOM     37  C   UNL A   1      35.209  31.914  30.065  1.00  0.00     0.010 A 
ATOM     38  C   UNL A   1      36.652  33.456  29.086  1.00  0.00     0.010 A 
ATOM     39  C   UNL A   1      36.500  32.388  29.840  1.00  0.00    -0.014 A 
BRANCH  39  40
ATOM     40  C   UNL A   1      37.704  31.688  30.449  1.00  0.00     0.031 A 
ATOM     41  C   UNL A   1      38.354  30.744  29.652  1.00  0.00     0.074 A 
ATOM     42  C   UNL A   1      38.043  31.954  31.765  1.00  0.00     0.049 A 
ATOM     43  N   UNL A   1      39.396  29.980  29.981  1.00  0.00    -0.248 NA
ATOM     44  C   UNL A   1      37.974  30.435  28.265  1.00  0.00     0.031 C 
ATOM     45  C   UNL A   1      37.398  32.911  32.573  1.00  0.00     0.029 A 
ATOM     46  N   UNL A   1      39.033  31.364  32.519  1.00  0.00    -0.354 N 
ATOM     47  C   UNL A   1      39.751  29.214  28.947  1.00  0.00     0.074 A 
ATOM     48  C   UNL A   1      38.837  29.491  27.831  1.00  0.00     0.031 C 
ATOM     49  C   UNL A   1      37.984  32.889  33.799  1.00  0.00     0.029 A 
ATOM     50  C   UNL A   1      39.004  31.921  33.778  1.00  0.00     0.049 A 
ATOM     51  H   UNL A   1      39.655  30.666  32.210  1.00  0.00     0.167 HD
ATOM     52  C   UNL A   1      40.802  28.297  28.892  1.00  0.00     0.037 A 
ATOM     53  C   UNL A   1      39.813  31.613  34.861  1.00  0.00     0.037 A 
ATOM     54  C   UNL A   1      41.638  28.020  29.962  1.00  0.00     0.049 A 
ATOM     55  C   UNL A   1      40.827  30.653  34.823  1.00  0.00     0.074 A 
ATOM     56  C   UNL A   1      42.707  27.103  29.919  1.00  0.00     0.029 A 
ATOM     57  N   UNL A   1      41.593  28.559  31.228  1.00  0.00    -0.354 N 
ATOM     58  N   UNL A   1      41.207  29.915  33.778  1.00  0.00    -0.248 NA
ATOM     59  C   UNL A   1      41.668  30.295  35.973  1.00  0.00     0.031 C 
ATOM     60  C   UNL A   1      43.293  27.083  31.146  1.00  0.00     0.029 A 
ATOM     61  C   UNL A   1      42.599  27.986  31.975  1.00  0.00     0.049 A 
ATOM     62  H   UNL A   1      40.953  29.236  31.546  1.00  0.00     0.167 HD
ATOM     63  C   UNL A   1      42.223  29.122  34.120  1.00  0.00     0.074 A 
ATOM     64  C   UNL A   1      42.530  29.349  35.539  1.00  0.00     0.031 C 
ATOM     65  C   UNL A   1      42.910  28.220  33.306  1.00  0.00     0.037 A 
BRANCH  52  66
ATOM     66  C   UNL A   1      41.042  27.560  27.584  1.00  0.00     0.057 A 
ATOM     67  C   UNL A   1      41.840  28.084  26.679  1.00  0.00     0.134 A 
ATOM     68  C   UNL A   1      40.410  26.332  27.356  1.00  0.00     0.134 A 
ATOM     69  F   UNL A   1      42.434  29.256  26.891  1.00  0.00    -0.206 F 
ATOM     70  C   UNL A   1      42.048  27.384  25.496  1.00  0.00     0.040 A 
ATOM     71  C   UNL A   1      40.785  25.556  26.361  1.00  0.00     0.040 A 
ATOM     72  F   UNL A   1      39.418  25.945  28.153  1.00  0.00    -0.206 F 
ATOM     73  C   UNL A   1      41.825  25.989  25.540  1.00  0.00     0.006 A 
ENDBRANCH  52  66
BRANCH  53  74
ATOM     74  C   UNL A   1      39.583  32.361  36.164  1.00  0.00     0.057 A 
ATOM     75  C   UNL A   1      40.337  33.399  36.458  1.00  0.00     0.134 A 
ATOM     76  C   UNL A   1      38.572  31.940  37.034  1.00  0.00     0.134 A 
ATOM     77  F   UNL A   1      41.303  33.794  35.635  1.00  0.00    -0.206 F 
ATOM     78  C   UNL A   1      40.097  34.071  37.652  1.00  0.00     0.040 A 
ATOM     79  C   UNL A   1      38.182  32.704  38.033  1.00  0.00     0.040 A 
ATOM     80  F   UNL A   1      37.999  30.754  36.852  1.00  0.00    -0.206 F 
ATOM     81  C   UNL A   1      38.803  33.941  38.201  1.00  0.00     0.006 A 
ENDBRANCH  53  74
BRANCH  65  82
ATOM     82  C   UNL A   1      44.070  27.449  33.914  1.00  0.00     0.057 A 
ATOM     83  C   UNL A   1      43.802  26.300  34.498  1.00  0.00     0.134 A 
ATOM     84  C   UNL A   1      45.378  27.943  33.872  1.00  0.00     0.134 A 
ATOM     85  F   UNL A   1      42.557  25.834  34.546  1.00  0.00    -0.206 F 
ATOM     86  C   UNL A   1      44.853  25.586  35.062  1.00  0.00     0.040 A 
ATOM     87  C   UNL A   1      46.399  27.172  34.181  1.00  0.00     0.040 A 
ATOM     88  F   UNL A   1      45.593  29.206  33.515  1.00  0.00    -0.206 F 
ATOM     89  C   UNL A   1      46.144  25.853  34.554  1.00  0.00     0.006 A 
ENDBRANCH  65  82
ENDBRANCH  39  40
ENDBRANCH  31  34
ENDBRANCH  29  30
ENDBRANCH   1  29
TORSDOF 13
ENDMDL
