MODEL 1
REMARK VINA RESULT:     -11.1      0.000      0.000
REMARK SMILES O=C(CCSc1nc(-c2cccs2)cc(C(F)(F)F)n1)NCCCCNC(=O)c1ccc(-c2c3nc(c(-c4c(F)cccc4F)c4ccc([nH]4)c(-c4c(F)cccc4F)c4nc(c(-c5c(F)cccc5F)c5ccc2[nH]5)C=C4)C=C3)cc1
REMARK SMILES IDX 22 1 21 2 1 3 2 4 3 6 4 7 5 8 6 9 7 10 20 11 8 12 15 13
REMARK SMILES IDX 14 14 9 15 10 16 13 17 11 18 12 19 16 20 17 21 18 22 19 23
REMARK SMILES IDX 23 24 24 25 25 26 26 27 27 28 28 30 29 31 30 32 82 33 31 34
REMARK SMILES IDX 81 35 32 36 33 37 34 38 75 39 35 40 80 41 74 42 76 43 36 44
REMARK SMILES IDX 79 45 73 46 72 47 37 49 63 50 46 51 62 52 47 53 50 54 61 55
REMARK SMILES IDX 77 56 48 57 49 58 60 60 78 61 51 62 38 63 39 64 44 65 40 66
REMARK SMILES IDX 41 67 43 68 45 69 42 70 64 71 65 72 70 73 66 74 67 75 69 76
REMARK SMILES IDX 71 77 68 78 52 79 53 80 58 81 54 82 55 83 57 84 59 85 56 86
REMARK H PARENT 21 5 26 29 76 48 50 59
REMARK Flexibility Score: inf
ROOT
ATOM      1  C   UNL A   1      33.644  27.307  24.370  1.00  0.00     0.116 C 
ENDROOT
BRANCH   1   2
ATOM      2  N   UNL A   1      33.042  26.222  23.603  1.00  0.00    -0.356 N 
ATOM      3  O   UNL A   1      33.874  27.014  21.610  1.00  0.00    -0.275 OA
ATOM      4  C   UNL A   1      33.229  26.164  22.231  1.00  0.00     0.220 C 
ATOM      5  H   UNL A   1      32.505  25.534  24.059  1.00  0.00     0.163 HD
BRANCH   4   6
ATOM      6  C   UNL A   1      32.578  25.004  21.499  1.00  0.00     0.111 C 
BRANCH   6   7
ATOM      7  C   UNL A   1      33.092  23.654  22.003  1.00  0.00     0.088 C 
BRANCH   7   8
ATOM      8  S   UNL A   1      31.919  22.814  23.113  1.00  0.00    -0.086 SA
BRANCH   8   9
ATOM      9  C   UNL A   1      33.031  21.680  23.873  1.00  0.00     0.188 A 
ATOM     10  N   UNL A   1      34.168  22.194  24.336  1.00  0.00    -0.222 NA
ATOM     11  N   UNL A   1      32.729  20.378  23.857  1.00  0.00    -0.218 NA
ATOM     12  C   UNL A   1      35.023  21.361  24.943  1.00  0.00     0.085 A 
ATOM     13  C   UNL A   1      33.613  19.531  24.426  1.00  0.00     0.149 A 
ATOM     14  C   UNL A   1      34.748  20.013  25.068  1.00  0.00     0.063 A 
BRANCH  12  15
ATOM     15  C   UNL A   1      36.304  22.009  25.279  1.00  0.00     0.053 A 
ATOM     16  C   UNL A   1      36.577  23.282  25.742  1.00  0.00     0.022 A 
ATOM     17  S   UNL A   1      37.770  21.107  25.208  1.00  0.00    -0.142 S 
ATOM     18  C   UNL A   1      37.926  23.495  26.128  1.00  0.00     0.012 A 
ATOM     19  C   UNL A   1      38.687  22.382  25.882  1.00  0.00     0.065 A 
ENDBRANCH  12  15
BRANCH  13  20
ATOM     20  C   UNL A   1      33.391  18.031  24.246  1.00  0.00     0.433 C 
ATOM     21  F   UNL A   1      34.321  17.260  24.870  1.00  0.00    -0.165 F 
ATOM     22  F   UNL A   1      32.177  17.612  24.704  1.00  0.00    -0.165 F 
ATOM     23  F   UNL A   1      33.415  17.654  22.931  1.00  0.00    -0.165 F 
ENDBRANCH  13  20
ENDBRANCH   8   9
ENDBRANCH   7   8
ENDBRANCH   6   7
ENDBRANCH   4   6
ENDBRANCH   1   2
BRANCH   1  24
ATOM     24  C   UNL A   1      33.837  27.060  25.872  1.00  0.00     0.023 C 
BRANCH  24  25
ATOM     25  C   UNL A   1      33.033  27.920  26.869  1.00  0.00     0.023 C 
BRANCH  25  26
ATOM     26  C   UNL A   1      33.062  29.460  26.697  1.00  0.00     0.116 C 
BRANCH  26  27
ATOM     27  N   UNL A   1      33.408  30.247  27.910  1.00  0.00    -0.352 N 
ATOM     28  C   UNL A   1      34.507  31.009  28.312  1.00  0.00     0.251 C 
ATOM     29  H   UNL A   1      32.696  30.226  28.589  1.00  0.00     0.163 HD
ATOM     30  O   UNL A   1      34.267  32.152  28.711  1.00  0.00    -0.269 OA
BRANCH  28  31
ATOM     31  C   UNL A   1      35.890  30.497  28.614  1.00  0.00     0.039 A 
ATOM     32  C   UNL A   1      36.808  30.428  27.553  1.00  0.00     0.014 A 
ATOM     33  C   UNL A   1      36.276  29.861  29.795  1.00  0.00     0.014 A 
ATOM     34  C   UNL A   1      38.105  29.862  27.705  1.00  0.00     0.010 A 
ATOM     35  C   UNL A   1      37.612  29.378  29.974  1.00  0.00     0.010 A 
ATOM     36  C   UNL A   1      38.574  29.384  28.940  1.00  0.00    -0.014 A 
BRANCH  36  37
ATOM     37  C   UNL A   1      40.022  28.920  29.136  1.00  0.00     0.031 A 
ATOM     38  C   UNL A   1      41.110  29.835  29.697  1.00  0.00     0.074 A 
ATOM     39  C   UNL A   1      40.442  27.676  28.785  1.00  0.00     0.049 A 
ATOM     40  N   UNL A   1      42.389  29.586  29.902  1.00  0.00    -0.248 NA
ATOM     41  C   UNL A   1      40.714  31.195  30.079  1.00  0.00     0.031 C 
ATOM     42  C   UNL A   1      39.607  26.611  28.233  1.00  0.00     0.029 A 
ATOM     43  N   UNL A   1      41.705  27.099  28.816  1.00  0.00    -0.354 N 
ATOM     44  C   UNL A   1      42.939  30.746  30.442  1.00  0.00     0.074 A 
ATOM     45  C   UNL A   1      41.869  31.725  30.455  1.00  0.00     0.031 C 
ATOM     46  C   UNL A   1      40.371  25.544  27.938  1.00  0.00     0.029 A 
ATOM     47  C   UNL A   1      41.762  25.829  28.281  1.00  0.00     0.049 A 
ATOM     48  H   UNL A   1      42.493  27.557  29.187  1.00  0.00     0.167 HD
ATOM     49  C   UNL A   1      44.188  30.988  30.926  1.00  0.00     0.037 A 
ATOM     50  C   UNL A   1      42.787  24.969  28.076  1.00  0.00     0.037 A 
ATOM     51  C   UNL A   1      45.291  30.055  30.955  1.00  0.00     0.049 A 
ATOM     52  C   UNL A   1      44.190  25.284  28.532  1.00  0.00     0.074 A 
ATOM     53  C   UNL A   1      46.549  30.228  31.515  1.00  0.00     0.029 A 
ATOM     54  N   UNL A   1      45.288  28.793  30.389  1.00  0.00    -0.354 N 
ATOM     55  N   UNL A   1      44.639  26.346  29.149  1.00  0.00    -0.248 NA
ATOM     56  C   UNL A   1      45.221  24.256  28.294  1.00  0.00     0.031 C 
ATOM     57  C   UNL A   1      47.326  29.098  31.236  1.00  0.00     0.029 A 
ATOM     58  C   UNL A   1      46.532  28.194  30.555  1.00  0.00     0.049 A 
ATOM     59  H   UNL A   1      44.518  28.379  29.936  1.00  0.00     0.167 HD
ATOM     60  C   UNL A   1      45.981  26.088  29.425  1.00  0.00     0.074 A 
ATOM     61  C   UNL A   1      46.277  24.773  28.905  1.00  0.00     0.031 C 
ATOM     62  C   UNL A   1      46.869  26.879  30.073  1.00  0.00     0.037 A 
BRANCH  49  63
ATOM     63  C   UNL A   1      44.441  32.351  31.516  1.00  0.00     0.057 A 
ATOM     64  C   UNL A   1      44.908  33.412  30.729  1.00  0.00     0.134 A 
ATOM     65  C   UNL A   1      44.154  32.622  32.860  1.00  0.00     0.134 A 
ATOM     66  F   UNL A   1      45.191  33.224  29.431  1.00  0.00    -0.206 F 
ATOM     67  C   UNL A   1      45.127  34.681  31.268  1.00  0.00     0.040 A 
ATOM     68  C   UNL A   1      44.339  33.896  33.403  1.00  0.00     0.040 A 
ATOM     69  F   UNL A   1      43.674  31.662  33.663  1.00  0.00    -0.206 F 
ATOM     70  C   UNL A   1      44.839  34.926  32.609  1.00  0.00     0.006 A 
ENDBRANCH  49  63
BRANCH  50  71
ATOM     71  C   UNL A   1      42.538  23.661  27.405  1.00  0.00     0.057 A 
ATOM     72  C   UNL A   1      42.260  22.507  28.150  1.00  0.00     0.134 A 
ATOM     73  C   UNL A   1      42.650  23.521  26.018  1.00  0.00     0.134 A 
ATOM     74  F   UNL A   1      42.179  22.571  29.487  1.00  0.00    -0.206 F 
ATOM     75  C   UNL A   1      42.129  21.257  27.542  1.00  0.00     0.040 A 
ATOM     76  C   UNL A   1      42.498  22.281  25.393  1.00  0.00     0.040 A 
ATOM     77  F   UNL A   1      42.922  24.586  25.249  1.00  0.00    -0.206 F 
ATOM     78  C   UNL A   1      42.245  21.142  26.158  1.00  0.00     0.006 A 
ENDBRANCH  50  71
BRANCH  62  79
ATOM     79  C   UNL A   1      48.252  26.342  30.333  1.00  0.00     0.057 A 
ATOM     80  C   UNL A   1      49.309  26.515  29.429  1.00  0.00     0.134 A 
ATOM     81  C   UNL A   1      48.543  25.673  31.531  1.00  0.00     0.134 A 
ATOM     82  F   UNL A   1      49.106  27.133  28.255  1.00  0.00    -0.206 F 
ATOM     83  C   UNL A   1      50.593  26.030  29.697  1.00  0.00     0.040 A 
ATOM     84  C   UNL A   1      49.829  25.207  31.822  1.00  0.00     0.040 A 
ATOM     85  F   UNL A   1      47.586  25.471  32.448  1.00  0.00    -0.206 F 
ATOM     86  C   UNL A   1      50.858  25.380  30.901  1.00  0.00     0.006 A 
ENDBRANCH  62  79
ENDBRANCH  36  37
ENDBRANCH  28  31
ENDBRANCH  26  27
ENDBRANCH  25  26
ENDBRANCH  24  25
ENDBRANCH   1  24
TORSDOF 16
ENDMDL
MODEL 2
REMARK VINA RESULT:     -11.0      3.413      8.046
REMARK SMILES O=C(CCSc1nc(-c2cccs2)cc(C(F)(F)F)n1)NCCCCNC(=O)c1ccc(-c2c3nc(c(-c4c(F)cccc4F)c4ccc([nH]4)c(-c4c(F)cccc4F)c4nc(c(-c5c(F)cccc5F)c5ccc2[nH]5)C=C4)C=C3)cc1
REMARK SMILES IDX 22 1 21 2 1 3 2 4 3 6 4 7 5 8 6 9 7 10 20 11 8 12 15 13
REMARK SMILES IDX 14 14 9 15 10 16 13 17 11 18 12 19 16 20 17 21 18 22 19 23
REMARK SMILES IDX 23 24 24 25 25 26 26 27 27 28 28 30 29 31 30 32 82 33 31 34
REMARK SMILES IDX 81 35 32 36 33 37 34 38 75 39 35 40 80 41 74 42 76 43 36 44
REMARK SMILES IDX 79 45 73 46 72 47 37 49 63 50 46 51 62 52 47 53 50 54 61 55
REMARK SMILES IDX 77 56 48 57 49 58 60 60 78 61 51 62 38 63 39 64 44 65 40 66
REMARK SMILES IDX 41 67 43 68 45 69 42 70 64 71 65 72 70 73 66 74 67 75 69 76
REMARK SMILES IDX 71 77 68 78 52 79 53 80 58 81 54 82 55 83 57 84 59 85 56 86
REMARK H PARENT 21 5 26 29 76 48 50 59
REMARK Flexibility Score: inf
ROOT
ATOM      1  C   UNL A   1      34.393  23.732  24.737  1.00  0.00     0.116 C 
ENDROOT
BRANCH   1   2
ATOM      2  N   UNL A   1      33.962  24.949  24.059  1.00  0.00    -0.356 N 
ATOM      3  O   UNL A   1      33.825  23.900  22.016  1.00  0.00    -0.275 OA
ATOM      4  C   UNL A   1      33.693  24.920  22.700  1.00  0.00     0.220 C 
ATOM      5  H   UNL A   1      33.862  25.787  24.565  1.00  0.00     0.163 HD
BRANCH   4   6
ATOM      6  C   UNL A   1      33.243  26.221  22.062  1.00  0.00     0.111 C 
BRANCH   6   7
ATOM      7  C   UNL A   1      31.778  26.162  21.623  1.00  0.00     0.088 C 
BRANCH   7   8
ATOM      8  S   UNL A   1      30.752  27.458  22.386  1.00  0.00    -0.086 SA
BRANCH   8   9
ATOM      9  C   UNL A   1      31.062  27.086  24.078  1.00  0.00     0.188 A 
ATOM     10  N   UNL A   1      31.690  28.026  24.781  1.00  0.00    -0.222 NA
ATOM     11  N   UNL A   1      30.748  25.870  24.535  1.00  0.00    -0.218 NA
ATOM     12  C   UNL A   1      31.917  27.784  26.077  1.00  0.00     0.085 A 
ATOM     13  C   UNL A   1      31.020  25.607  25.832  1.00  0.00     0.149 A 
ATOM     14  C   UNL A   1      31.532  26.594  26.665  1.00  0.00     0.063 A 
BRANCH  12  15
ATOM     15  C   UNL A   1      32.745  28.825  26.712  1.00  0.00     0.053 A 
ATOM     16  C   UNL A   1      34.021  28.767  27.240  1.00  0.00     0.022 A 
ATOM     17  S   UNL A   1      32.174  30.449  26.793  1.00  0.00    -0.142 S 
ATOM     18  C   UNL A   1      34.568  30.023  27.609  1.00  0.00     0.012 A 
ATOM     19  C   UNL A   1      33.655  31.029  27.420  1.00  0.00     0.065 A 
ENDBRANCH  12  15
BRANCH  13  20
ATOM     20  C   UNL A   1      30.857  24.170  26.324  1.00  0.00     0.433 C 
ATOM     21  F   UNL A   1      31.781  23.801  27.251  1.00  0.00    -0.165 F 
ATOM     22  F   UNL A   1      29.637  23.933  26.884  1.00  0.00    -0.165 F 
ATOM     23  F   UNL A   1      30.959  23.256  25.310  1.00  0.00    -0.165 F 
ENDBRANCH  13  20
ENDBRANCH   8   9
ENDBRANCH   7   8
ENDBRANCH   6   7
ENDBRANCH   4   6
ENDBRANCH   1   2
BRANCH   1  24
ATOM     24  C   UNL A   1      35.833  23.715  25.266  1.00  0.00     0.023 C 
BRANCH  24  25
ATOM     25  C   UNL A   1      36.414  22.381  25.779  1.00  0.00     0.023 C 
BRANCH  25  26
ATOM     26  C   UNL A   1      37.402  21.612  24.865  1.00  0.00     0.116 C 
BRANCH  26  27
ATOM     27  N   UNL A   1      38.793  21.475  25.374  1.00  0.00    -0.352 N 
ATOM     28  C   UNL A   1      39.480  21.928  26.502  1.00  0.00     0.251 C 
ATOM     29  H   UNL A   1      39.361  20.940  24.776  1.00  0.00     0.163 HD
ATOM     30  O   UNL A   1      40.095  21.077  27.150  1.00  0.00    -0.269 OA
BRANCH  28  31
ATOM     31  C   UNL A   1      39.819  23.358  26.830  1.00  0.00     0.039 A 
ATOM     32  C   UNL A   1      40.534  23.605  28.013  1.00  0.00     0.014 A 
ATOM     33  C   UNL A   1      39.287  24.481  26.195  1.00  0.00     0.014 A 
ATOM     34  C   UNL A   1      40.815  24.923  28.471  1.00  0.00     0.010 A 
ATOM     35  C   UNL A   1      39.649  25.805  26.604  1.00  0.00     0.010 A 
ATOM     36  C   UNL A   1      40.443  26.065  27.743  1.00  0.00    -0.014 A 
BRANCH  36  37
ATOM     37  C   UNL A   1      40.882  27.474  28.159  1.00  0.00     0.031 A 
ATOM     38  C   UNL A   1      42.347  27.906  28.180  1.00  0.00     0.074 A 
ATOM     39  C   UNL A   1      39.997  28.419  28.573  1.00  0.00     0.049 A 
ATOM     40  N   UNL A   1      42.873  29.064  28.530  1.00  0.00    -0.248 NA
ATOM     41  C   UNL A   1      43.345  26.918  27.757  1.00  0.00     0.031 C 
ATOM     42  C   UNL A   1      38.545  28.267  28.641  1.00  0.00     0.029 A 
ATOM     43  N   UNL A   1      40.199  29.708  29.050  1.00  0.00    -0.354 N 
ATOM     44  C   UNL A   1      44.249  28.945  28.356  1.00  0.00     0.074 A 
ATOM     45  C   UNL A   1      44.483  27.573  27.949  1.00  0.00     0.031 C 
ATOM     46  C   UNL A   1      37.998  29.378  29.164  1.00  0.00     0.029 A 
ATOM     47  C   UNL A   1      39.050  30.343  29.472  1.00  0.00     0.049 A 
ATOM     48  H   UNL A   1      41.087  30.132  29.084  1.00  0.00     0.167 HD
ATOM     49  C   UNL A   1      45.237  29.874  28.473  1.00  0.00     0.037 A 
ATOM     50  C   UNL A   1      38.831  31.551  30.041  1.00  0.00     0.037 A 
ATOM     51  C   UNL A   1      45.071  31.256  28.859  1.00  0.00     0.049 A 
ATOM     52  C   UNL A   1      39.949  32.542  30.254  1.00  0.00     0.074 A 
ATOM     53  C   UNL A   1      46.032  32.257  28.907  1.00  0.00     0.029 A 
ATOM     54  N   UNL A   1      43.889  31.833  29.285  1.00  0.00    -0.354 N 
ATOM     55  N   UNL A   1      41.218  32.432  29.962  1.00  0.00    -0.248 NA
ATOM     56  C   UNL A   1      39.588  33.846  30.843  1.00  0.00     0.031 C 
ATOM     57  C   UNL A   1      45.446  33.420  29.418  1.00  0.00     0.029 A 
ATOM     58  C   UNL A   1      44.104  33.162  29.630  1.00  0.00     0.049 A 
ATOM     59  H   UNL A   1      43.020  31.371  29.335  1.00  0.00     0.167 HD
ATOM     60  C   UNL A   1      41.791  33.664  30.272  1.00  0.00     0.074 A 
ATOM     61  C   UNL A   1      40.735  34.508  30.781  1.00  0.00     0.031 C 
ATOM     62  C   UNL A   1      43.081  34.048  30.122  1.00  0.00     0.037 A 
BRANCH  49  63
ATOM     63  C   UNL A   1      46.637  29.429  28.140  1.00  0.00     0.057 A 
ATOM     64  C   UNL A   1      47.508  28.954  29.130  1.00  0.00     0.134 A 
ATOM     65  C   UNL A   1      47.096  29.413  26.816  1.00  0.00     0.134 A 
ATOM     66  F   UNL A   1      47.128  28.932  30.416  1.00  0.00    -0.206 F 
ATOM     67  C   UNL A   1      48.801  28.525  28.824  1.00  0.00     0.040 A 
ATOM     68  C   UNL A   1      48.376  28.956  26.493  1.00  0.00     0.040 A 
ATOM     69  F   UNL A   1      46.306  29.823  25.814  1.00  0.00    -0.206 F 
ATOM     70  C   UNL A   1      49.237  28.522  27.500  1.00  0.00     0.006 A 
ENDBRANCH  49  63
BRANCH  50  71
ATOM     71  C   UNL A   1      37.452  31.942  30.452  1.00  0.00     0.057 A 
ATOM     72  C   UNL A   1      36.931  31.561  31.696  1.00  0.00     0.134 A 
ATOM     73  C   UNL A   1      36.602  32.632  29.581  1.00  0.00     0.134 A 
ATOM     74  F   UNL A   1      37.686  30.863  32.557  1.00  0.00    -0.206 F 
ATOM     75  C   UNL A   1      35.607  31.829  32.048  1.00  0.00     0.040 A 
ATOM     76  C   UNL A   1      35.282  32.928  29.930  1.00  0.00     0.040 A 
ATOM     77  F   UNL A   1      37.037  33.018  28.373  1.00  0.00    -0.206 F 
ATOM     78  C   UNL A   1      34.779  32.519  31.164  1.00  0.00     0.006 A 
ENDBRANCH  50  71
BRANCH  62  79
ATOM     79  C   UNL A   1      43.447  35.473  30.448  1.00  0.00     0.057 A 
ATOM     80  C   UNL A   1      43.870  35.869  31.724  1.00  0.00     0.134 A 
ATOM     81  C   UNL A   1      43.415  36.462  29.453  1.00  0.00     0.134 A 
ATOM     82  F   UNL A   1      43.913  34.984  32.731  1.00  0.00    -0.206 F 
ATOM     83  C   UNL A   1      44.228  37.192  32.002  1.00  0.00     0.040 A 
ATOM     84  C   UNL A   1      43.796  37.781  29.712  1.00  0.00     0.040 A 
ATOM     85  F   UNL A   1      43.025  36.160  28.205  1.00  0.00    -0.206 F 
ATOM     86  C   UNL A   1      44.200  38.152  30.992  1.00  0.00     0.006 A 
ENDBRANCH  62  79
ENDBRANCH  36  37
ENDBRANCH  28  31
ENDBRANCH  26  27
ENDBRANCH  25  26
ENDBRANCH  24  25
ENDBRANCH   1  24
TORSDOF 16
ENDMDL
MODEL 3
REMARK VINA RESULT:     -10.9      4.238      8.957
REMARK SMILES O=C(CCSc1nc(-c2cccs2)cc(C(F)(F)F)n1)NCCCCNC(=O)c1ccc(-c2c3nc(c(-c4c(F)cccc4F)c4ccc([nH]4)c(-c4c(F)cccc4F)c4nc(c(-c5c(F)cccc5F)c5ccc2[nH]5)C=C4)C=C3)cc1
REMARK SMILES IDX 22 1 21 2 1 3 2 4 3 6 4 7 5 8 6 9 7 10 20 11 8 12 15 13
REMARK SMILES IDX 14 14 9 15 10 16 13 17 11 18 12 19 16 20 17 21 18 22 19 23
REMARK SMILES IDX 23 24 24 25 25 26 26 27 27 28 28 30 29 31 30 32 82 33 31 34
REMARK SMILES IDX 81 35 32 36 33 37 34 38 75 39 35 40 80 41 74 42 76 43 36 44
REMARK SMILES IDX 79 45 73 46 72 47 37 49 63 50 46 51 62 52 47 53 50 54 61 55
REMARK SMILES IDX 77 56 48 57 49 58 60 60 78 61 51 62 38 63 39 64 44 65 40 66
REMARK SMILES IDX 41 67 43 68 45 69 42 70 64 71 65 72 70 73 66 74 67 75 69 76
REMARK SMILES IDX 71 77 68 78 52 79 53 80 58 81 54 82 55 83 57 84 59 85 56 86
REMARK H PARENT 21 5 26 29 76 48 50 59
REMARK Flexibility Score: inf
ROOT
ATOM      1  C   UNL A   1      39.699  21.690  26.293  1.00  0.00     0.116 C 
ENDROOT
BRANCH   1   2
ATOM      2  N   UNL A   1      38.655  22.469  25.639  1.00  0.00    -0.356 N 
ATOM      3  O   UNL A   1      37.676  20.601  24.719  1.00  0.00    -0.275 OA
ATOM      4  C   UNL A   1      37.686  21.825  24.886  1.00  0.00     0.220 C 
ATOM      5  H   UNL A   1      38.638  23.449  25.733  1.00  0.00     0.163 HD
BRANCH   4   6
ATOM      6  C   UNL A   1      36.627  22.699  24.239  1.00  0.00     0.111 C 
BRANCH   6   7
ATOM      7  C   UNL A   1      35.836  23.497  25.278  1.00  0.00     0.088 C 
BRANCH   7   8
ATOM      8  S   UNL A   1      34.998  22.440  26.501  1.00  0.00    -0.086 SA
BRANCH   8   9
ATOM      9  C   UNL A   1      34.035  21.463  25.398  1.00  0.00     0.188 A 
ATOM     10  N   UNL A   1      34.156  20.143  25.523  1.00  0.00    -0.222 NA
ATOM     11  N   UNL A   1      33.324  22.080  24.450  1.00  0.00    -0.218 NA
ATOM     12  C   UNL A   1      33.416  19.373  24.717  1.00  0.00     0.085 A 
ATOM     13  C   UNL A   1      32.614  21.302  23.604  1.00  0.00     0.149 A 
ATOM     14  C   UNL A   1      32.571  19.924  23.773  1.00  0.00     0.063 A 
BRANCH  12  15
ATOM     15  C   UNL A   1      33.744  17.941  24.843  1.00  0.00     0.053 A 
ATOM     16  C   UNL A   1      34.939  17.270  24.674  1.00  0.00     0.022 A 
ATOM     17  S   UNL A   1      32.539  16.826  25.368  1.00  0.00    -0.142 S 
ATOM     18  C   UNL A   1      34.912  15.904  25.057  1.00  0.00     0.012 A 
ATOM     19  C   UNL A   1      33.653  15.531  25.452  1.00  0.00     0.065 A 
ENDBRANCH  12  15
BRANCH  13  20
ATOM     20  C   UNL A   1      31.957  21.966  22.395  1.00  0.00     0.433 C 
ATOM     21  F   UNL A   1      32.779  22.816  21.723  1.00  0.00    -0.165 F 
ATOM     22  F   UNL A   1      31.500  21.068  21.476  1.00  0.00    -0.165 F 
ATOM     23  F   UNL A   1      30.857  22.704  22.738  1.00  0.00    -0.165 F 
ENDBRANCH  13  20
ENDBRANCH   8   9
ENDBRANCH   7   8
ENDBRANCH   6   7
ENDBRANCH   4   6
ENDBRANCH   1   2
BRANCH   1  24
ATOM     24  C   UNL A   1      41.140  22.184  26.110  1.00  0.00     0.023 C 
BRANCH  24  25
ATOM     25  C   UNL A   1      42.289  21.158  26.209  1.00  0.00     0.023 C 
BRANCH  25  26
ATOM     26  C   UNL A   1      43.715  21.614  25.809  1.00  0.00     0.116 C 
BRANCH  26  27
ATOM     27  N   UNL A   1      43.812  22.929  25.121  1.00  0.00    -0.352 N 
ATOM     28  C   UNL A   1      44.354  24.174  25.444  1.00  0.00     0.251 C 
ATOM     29  H   UNL A   1      43.397  22.918  24.229  1.00  0.00     0.163 HD
ATOM     30  O   UNL A   1      45.119  24.673  24.613  1.00  0.00    -0.269 OA
BRANCH  28  31
ATOM     31  C   UNL A   1      43.870  25.110  26.519  1.00  0.00     0.039 A 
ATOM     32  C   UNL A   1      42.920  24.621  27.432  1.00  0.00     0.014 A 
ATOM     33  C   UNL A   1      44.095  26.487  26.555  1.00  0.00     0.014 A 
ATOM     34  C   UNL A   1      42.319  25.450  28.421  1.00  0.00     0.010 A 
ATOM     35  C   UNL A   1      43.562  27.298  27.608  1.00  0.00     0.010 A 
ATOM     36  C   UNL A   1      42.674  26.799  28.585  1.00  0.00    -0.014 A 
BRANCH  36  37
ATOM     37  C   UNL A   1      42.141  27.644  29.748  1.00  0.00     0.031 A 
ATOM     38  C   UNL A   1      40.936  28.572  29.606  1.00  0.00     0.074 A 
ATOM     39  C   UNL A   1      42.732  27.652  30.973  1.00  0.00     0.049 A 
ATOM     40  N   UNL A   1      40.381  29.367  30.501  1.00  0.00    -0.248 NA
ATOM     41  C   UNL A   1      40.270  28.613  28.300  1.00  0.00     0.031 C 
ATOM     42  C   UNL A   1      43.890  26.856  31.374  1.00  0.00     0.029 A 
ATOM     43  N   UNL A   1      42.449  28.390  32.115  1.00  0.00    -0.354 N 
ATOM     44  C   UNL A   1      39.304  29.984  29.871  1.00  0.00     0.074 A 
ATOM     45  C   UNL A   1      39.335  29.534  28.494  1.00  0.00     0.031 C 
ATOM     46  C   UNL A   1      44.244  27.174  32.631  1.00  0.00     0.029 A 
ATOM     47  C   UNL A   1      43.340  28.197  33.150  1.00  0.00     0.049 A 
ATOM     48  H   UNL A   1      41.679  29.000  32.180  1.00  0.00     0.167 HD
ATOM     49  C   UNL A   1      38.346  30.811  30.372  1.00  0.00     0.037 A 
ATOM     50  C   UNL A   1      43.448  28.755  34.378  1.00  0.00     0.037 A 
ATOM     51  C   UNL A   1      38.249  31.285  31.733  1.00  0.00     0.049 A 
ATOM     52  C   UNL A   1      42.430  29.744  34.892  1.00  0.00     0.074 A 
ATOM     53  C   UNL A   1      37.246  32.055  32.307  1.00  0.00     0.029 A 
ATOM     54  N   UNL A   1      39.185  31.065  32.727  1.00  0.00    -0.354 N 
ATOM     55  N   UNL A   1      41.359  30.208  34.305  1.00  0.00    -0.248 NA
ATOM     56  C   UNL A   1      42.624  30.256  36.262  1.00  0.00     0.031 C 
ATOM     57  C   UNL A   1      37.604  32.350  33.627  1.00  0.00     0.029 A 
ATOM     58  C   UNL A   1      38.801  31.713  33.895  1.00  0.00     0.049 A 
ATOM     59  H   UNL A   1      40.004  30.527  32.623  1.00  0.00     0.167 HD
ATOM     60  C   UNL A   1      40.723  31.011  35.249  1.00  0.00     0.074 A 
ATOM     61  C   UNL A   1      41.528  30.980  36.447  1.00  0.00     0.031 C 
ATOM     62  C   UNL A   1      39.560  31.693  35.120  1.00  0.00     0.037 A 
BRANCH  49  63
ATOM     63  C   UNL A   1      37.261  31.254  29.424  1.00  0.00     0.057 A 
ATOM     64  C   UNL A   1      36.169  30.428  29.126  1.00  0.00     0.134 A 
ATOM     65  C   UNL A   1      37.274  32.536  28.859  1.00  0.00     0.134 A 
ATOM     66  F   UNL A   1      36.089  29.193  29.643  1.00  0.00    -0.206 F 
ATOM     67  C   UNL A   1      35.154  30.841  28.262  1.00  0.00     0.040 A 
ATOM     68  C   UNL A   1      36.247  32.972  28.018  1.00  0.00     0.040 A 
ATOM     69  F   UNL A   1      38.271  33.391  29.126  1.00  0.00    -0.206 F 
ATOM     70  C   UNL A   1      35.189  32.120  27.708  1.00  0.00     0.006 A 
ENDBRANCH  49  63
BRANCH  50  71
ATOM     71  C   UNL A   1      44.580  28.376  35.271  1.00  0.00     0.057 A 
ATOM     72  C   UNL A   1      45.795  29.073  35.235  1.00  0.00     0.134 A 
ATOM     73  C   UNL A   1      44.499  27.265  36.117  1.00  0.00     0.134 A 
ATOM     74  F   UNL A   1      45.946  30.122  34.414  1.00  0.00    -0.206 F 
ATOM     75  C   UNL A   1      46.896  28.663  35.990  1.00  0.00     0.040 A 
ATOM     76  C   UNL A   1      45.585  26.858  36.896  1.00  0.00     0.040 A 
ATOM     77  F   UNL A   1      43.366  26.551  36.192  1.00  0.00    -0.206 F 
ATOM     78  C   UNL A   1      46.791  27.553  36.826  1.00  0.00     0.006 A 
ENDBRANCH  50  71
BRANCH  62  79
ATOM     79  C   UNL A   1      39.022  32.428  36.320  1.00  0.00     0.057 A 
ATOM     80  C   UNL A   1      38.143  31.833  37.236  1.00  0.00     0.134 A 
ATOM     81  C   UNL A   1      39.423  33.745  36.588  1.00  0.00     0.134 A 
ATOM     82  F   UNL A   1      37.703  30.581  37.041  1.00  0.00    -0.206 F 
ATOM     83  C   UNL A   1      37.672  32.523  38.358  1.00  0.00     0.040 A 
ATOM     84  C   UNL A   1      38.980  34.436  37.719  1.00  0.00     0.040 A 
ATOM     85  F   UNL A   1      40.264  34.383  35.760  1.00  0.00    -0.206 F 
ATOM     86  C   UNL A   1      38.096  33.826  38.607  1.00  0.00     0.006 A 
ENDBRANCH  62  79
ENDBRANCH  36  37
ENDBRANCH  28  31
ENDBRANCH  26  27
ENDBRANCH  25  26
ENDBRANCH  24  25
ENDBRANCH   1  24
TORSDOF 16
ENDMDL
