MODEL 1
REMARK VINA RESULT:     -11.8      0.000      0.000
REMARK SMILES CC[C@@H]1CCCN(S(=O)(=O)c2cc(C(=O)NCCCCNC(=O)c3ccc(-c4c5nc(c(-c6c(F)cccc6F)c6ccc([nH]6)c(-c6c(F)cccc6F)c6nc(c(-c7c(F)cccc7F)c7ccc4[nH]7)C=C6)C=C5)cc3)ccc2F)C1
REMARK SMILES IDX 18 1 17 2 16 3 14 4 15 5 13 7 11 8 12 9 80 10 79 11 81 12
REMARK SMILES IDX 78 13 8 14 9 15 10 16 7 17 3 18 4 19 82 20 5 21 6 22 2 23
REMARK SMILES IDX 1 24 19 25 20 26 21 27 22 28 23 30 24 31 25 32 77 33 26 34
REMARK SMILES IDX 76 35 27 36 28 37 29 38 70 39 30 40 75 41 69 42 71 43 31 44
REMARK SMILES IDX 74 45 68 46 67 47 32 49 58 50 41 51 57 52 42 53 45 54 56 55
REMARK SMILES IDX 72 56 43 57 44 58 55 60 73 61 46 62 33 63 34 64 39 65 35 66
REMARK SMILES IDX 36 67 38 68 40 69 37 70 59 71 60 72 65 73 61 74 62 75 64 76
REMARK SMILES IDX 66 77 63 78 47 79 48 80 53 81 49 82 50 83 52 84 54 85 51 86
REMARK H PARENT 16 6 21 29 71 48 45 59
REMARK Flexibility Score: inf
ROOT
ATOM      1  C   UNL A   1      33.236  29.317  24.795  1.00  0.00     0.023 C 
ENDROOT
BRANCH   1   2
ATOM      2  C   UNL A   1      33.366  28.954  23.314  1.00  0.00     0.116 C 
BRANCH   2   3
ATOM      3  N   UNL A   1      32.084  29.034  22.648  1.00  0.00    -0.352 N 
ATOM      4  C   UNL A   1      30.996  28.200  22.629  1.00  0.00     0.251 C 
ATOM      5  O   UNL A   1      30.008  28.583  22.002  1.00  0.00    -0.269 OA
ATOM      6  H   UNL A   1      31.971  29.844  22.102  1.00  0.00     0.163 HD
BRANCH   4   7
ATOM      7  C   UNL A   1      30.935  26.879  23.326  1.00  0.00     0.041 A 
ATOM      8  C   UNL A   1      31.702  24.563  23.368  1.00  0.00     0.119 A 
ATOM      9  C   UNL A   1      31.642  25.813  22.737  1.00  0.00     0.038 A 
ATOM     10  C   UNL A   1      31.077  24.376  24.593  1.00  0.00     0.143 A 
ATOM     11  C   UNL A   1      30.356  25.408  25.176  1.00  0.00     0.041 A 
ATOM     12  F   UNL A   1      31.131  23.206  25.243  1.00  0.00    -0.206 F 
ATOM     13  C   UNL A   1      30.307  26.659  24.558  1.00  0.00     0.017 A 
BRANCH   8  14
ATOM     14  S   UNL A   1      32.726  23.286  22.715  1.00  0.00     0.246 S 
ATOM     15  O   UNL A   1      33.282  23.750  21.458  1.00  0.00    -0.207 OA
ATOM     16  O   UNL A   1      31.964  22.056  22.751  1.00  0.00    -0.207 OA
BRANCH  14  17
ATOM     17  N   UNL A   1      34.038  23.097  23.840  1.00  0.00    -0.197 NA
ATOM     18  C   UNL A   1      34.963  21.548  25.614  1.00  0.00     0.004 C 
ATOM     19  C   UNL A   1      36.354  21.704  24.986  1.00  0.00     0.006 C 
ATOM     20  C   UNL A   1      33.880  21.783  24.554  1.00  0.00     0.106 C 
ATOM     21  C   UNL A   1      36.494  23.033  24.256  1.00  0.00     0.017 C 
ATOM     22  C   UNL A   1      35.390  23.215  23.222  1.00  0.00     0.102 C 
BRANCH  18  23
ATOM     23  C   UNL A   1      34.758  22.440  26.855  1.00  0.00     0.001 C 
ATOM     24  C   UNL A   1      33.389  22.229  27.490  1.00  0.00     0.004 C 
ENDBRANCH  18  23
ENDBRANCH  14  17
ENDBRANCH   8  14
ENDBRANCH   4   7
ENDBRANCH   2   3
ENDBRANCH   1   2
BRANCH   1  25
ATOM     25  C   UNL A   1      33.962  28.365  25.748  1.00  0.00     0.023 C 
BRANCH  25  26
ATOM     26  C   UNL A   1      33.629  28.553  27.223  1.00  0.00     0.116 C 
BRANCH  26  27
ATOM     27  N   UNL A   1      33.601  29.947  27.639  1.00  0.00    -0.352 N 
ATOM     28  C   UNL A   1      34.618  30.694  28.182  1.00  0.00     0.251 C 
ATOM     29  H   UNL A   1      32.744  30.416  27.516  1.00  0.00     0.163 HD
ATOM     30  O   UNL A   1      34.414  31.836  28.578  1.00  0.00    -0.269 OA
BRANCH  28  31
ATOM     31  C   UNL A   1      35.953  30.082  28.323  1.00  0.00     0.039 A 
ATOM     32  C   UNL A   1      36.844  30.153  27.250  1.00  0.00     0.014 A 
ATOM     33  C   UNL A   1      36.338  29.495  29.531  1.00  0.00     0.014 A 
ATOM     34  C   UNL A   1      38.152  29.698  27.416  1.00  0.00     0.010 A 
ATOM     35  C   UNL A   1      37.661  29.115  29.718  1.00  0.00     0.010 A 
ATOM     36  C   UNL A   1      38.581  29.214  28.663  1.00  0.00    -0.014 A 
BRANCH  36  37
ATOM     37  C   UNL A   1      39.990  28.814  28.888  1.00  0.00     0.031 A 
ATOM     38  C   UNL A   1      40.952  29.771  29.530  1.00  0.00     0.074 A 
ATOM     39  C   UNL A   1      40.417  27.612  28.458  1.00  0.00     0.049 A 
ATOM     40  N   UNL A   1      42.232  29.623  29.762  1.00  0.00    -0.248 NA
ATOM     41  C   UNL A   1      40.411  31.075  29.942  1.00  0.00     0.031 C 
ATOM     42  C   UNL A   1      39.587  26.614  27.781  1.00  0.00     0.029 A 
ATOM     43  N   UNL A   1      41.655  27.025  28.525  1.00  0.00    -0.354 N 
ATOM     44  C   UNL A   1      42.647  30.814  30.342  1.00  0.00     0.074 A 
ATOM     45  C   UNL A   1      41.503  31.698  30.363  1.00  0.00     0.031 C 
ATOM     46  C   UNL A   1      40.329  25.524  27.531  1.00  0.00     0.029 A 
ATOM     47  C   UNL A   1      41.694  25.760  27.992  1.00  0.00     0.049 A 
ATOM     48  H   UNL A   1      42.441  27.469  28.918  1.00  0.00     0.167 HD
ATOM     49  C   UNL A   1      43.865  31.130  30.842  1.00  0.00     0.037 A 
ATOM     50  C   UNL A   1      42.713  24.887  27.889  1.00  0.00     0.037 A 
ATOM     51  C   UNL A   1      44.997  30.243  30.829  1.00  0.00     0.049 A 
ATOM     52  C   UNL A   1      44.065  25.268  28.420  1.00  0.00     0.074 A 
ATOM     53  C   UNL A   1      46.263  30.455  31.345  1.00  0.00     0.029 A 
ATOM     54  N   UNL A   1      45.001  28.975  30.266  1.00  0.00    -0.354 N 
ATOM     55  N   UNL A   1      44.435  26.379  29.010  1.00  0.00    -0.248 NA
ATOM     56  C   UNL A   1      45.140  24.279  28.273  1.00  0.00     0.031 C 
ATOM     57  C   UNL A   1      47.047  29.334  31.052  1.00  0.00     0.029 A 
ATOM     58  C   UNL A   1      46.254  28.401  30.402  1.00  0.00     0.049 A 
ATOM     59  H   UNL A   1      44.227  28.546  29.833  1.00  0.00     0.167 HD
ATOM     60  C   UNL A   1      45.777  26.216  29.324  1.00  0.00     0.074 A 
ATOM     61  C   UNL A   1      46.155  24.894  28.868  1.00  0.00     0.031 C 
ATOM     62  C   UNL A   1      46.618  27.084  29.939  1.00  0.00     0.037 A 
BRANCH  49  63
ATOM     63  C   UNL A   1      44.024  32.492  31.456  1.00  0.00     0.057 A 
ATOM     64  C   UNL A   1      43.762  32.704  32.815  1.00  0.00     0.134 A 
ATOM     65  C   UNL A   1      44.413  33.601  30.693  1.00  0.00     0.134 A 
ATOM     66  F   UNL A   1      43.380  31.688  33.603  1.00  0.00    -0.206 F 
ATOM     67  C   UNL A   1      43.884  33.969  33.393  1.00  0.00     0.040 A 
ATOM     68  C   UNL A   1      44.568  34.865  31.266  1.00  0.00     0.040 A 
ATOM     69  F   UNL A   1      44.691  33.466  29.387  1.00  0.00    -0.206 F 
ATOM     70  C   UNL A   1      44.296  35.052  32.619  1.00  0.00     0.006 A 
ENDBRANCH  49  63
BRANCH  50  71
ATOM     71  C   UNL A   1      42.463  23.547  27.302  1.00  0.00     0.057 A 
ATOM     72  C   UNL A   1      42.094  22.454  28.095  1.00  0.00     0.134 A 
ATOM     73  C   UNL A   1      42.657  23.319  25.935  1.00  0.00     0.134 A 
ATOM     74  F   UNL A   1      41.905  22.607  29.413  1.00  0.00    -0.206 F 
ATOM     75  C   UNL A   1      41.951  21.175  27.554  1.00  0.00     0.040 A 
ATOM     76  C   UNL A   1      42.497  22.050  25.376  1.00  0.00     0.040 A 
ATOM     77  F   UNL A   1      42.997  24.330  25.124  1.00  0.00    -0.206 F 
ATOM     78  C   UNL A   1      42.153  20.971  26.190  1.00  0.00     0.006 A 
ENDBRANCH  50  71
BRANCH  62  79
ATOM     79  C   UNL A   1      48.032  26.638  30.173  1.00  0.00     0.057 A 
ATOM     80  C   UNL A   1      49.010  26.821  29.187  1.00  0.00     0.134 A 
ATOM     81  C   UNL A   1      48.404  25.949  31.334  1.00  0.00     0.134 A 
ATOM     82  F   UNL A   1      48.716  27.465  28.046  1.00  0.00    -0.206 F 
ATOM     83  C   UNL A   1      50.303  26.319  29.339  1.00  0.00     0.040 A 
ATOM     84  C   UNL A   1      49.701  25.464  31.509  1.00  0.00     0.040 A 
ATOM     85  F   UNL A   1      47.516  25.749  32.319  1.00  0.00    -0.206 F 
ATOM     86  C   UNL A   1      50.651  25.639  30.504  1.00  0.00     0.006 A 
ENDBRANCH  62  79
ENDBRANCH  36  37
ENDBRANCH  28  31
ENDBRANCH  26  27
ENDBRANCH  25  26
ENDBRANCH   1  25
TORSDOF 14
ENDMDL
MODEL 2
REMARK VINA RESULT:     -11.7      2.383      7.777
REMARK SMILES CC[C@@H]1CCCN(S(=O)(=O)c2cc(C(=O)NCCCCNC(=O)c3ccc(-c4c5nc(c(-c6c(F)cccc6F)c6ccc([nH]6)c(-c6c(F)cccc6F)c6nc(c(-c7c(F)cccc7F)c7ccc4[nH]7)C=C6)C=C5)cc3)ccc2F)C1
REMARK SMILES IDX 18 1 17 2 16 3 14 4 15 5 13 7 11 8 12 9 80 10 79 11 81 12
REMARK SMILES IDX 78 13 8 14 9 15 10 16 7 17 3 18 4 19 82 20 5 21 6 22 2 23
REMARK SMILES IDX 1 24 19 25 20 26 21 27 22 28 23 30 24 31 25 32 77 33 26 34
REMARK SMILES IDX 76 35 27 36 28 37 29 38 70 39 30 40 75 41 69 42 71 43 31 44
REMARK SMILES IDX 74 45 68 46 67 47 32 49 58 50 41 51 57 52 42 53 45 54 56 55
REMARK SMILES IDX 72 56 43 57 44 58 55 60 73 61 46 62 33 63 34 64 39 65 35 66
REMARK SMILES IDX 36 67 38 68 40 69 37 70 59 71 60 72 65 73 61 74 62 75 64 76
REMARK SMILES IDX 66 77 63 78 47 79 48 80 53 81 49 82 50 83 52 84 54 85 51 86
REMARK H PARENT 16 6 21 29 71 48 45 59
REMARK Flexibility Score: inf
ROOT
ATOM      1  C   UNL A   1      36.689  19.582  24.944  1.00  0.00     0.023 C 
ENDROOT
BRANCH   1   2
ATOM      2  C   UNL A   1      35.389  20.381  25.056  1.00  0.00     0.116 C 
BRANCH   2   3
ATOM      3  N   UNL A   1      34.249  19.499  25.186  1.00  0.00    -0.352 N 
ATOM      4  C   UNL A   1      32.914  19.667  24.927  1.00  0.00     0.251 C 
ATOM      5  O   UNL A   1      32.186  18.686  25.083  1.00  0.00    -0.269 OA
ATOM      6  H   UNL A   1      34.477  18.604  25.527  1.00  0.00     0.163 HD
BRANCH   4   7
ATOM      7  C   UNL A   1      32.301  20.947  24.458  1.00  0.00     0.041 A 
ATOM      8  C   UNL A   1      31.424  23.134  25.091  1.00  0.00     0.119 A 
ATOM      9  C   UNL A   1      31.931  21.877  25.448  1.00  0.00     0.038 A 
ATOM     10  C   UNL A   1      31.302  23.475  23.752  1.00  0.00     0.143 A 
ATOM     11  C   UNL A   1      31.638  22.563  22.763  1.00  0.00     0.041 A 
ATOM     12  F   UNL A   1      30.846  24.675  23.367  1.00  0.00    -0.206 F 
ATOM     13  C   UNL A   1      32.158  21.316  23.115  1.00  0.00     0.017 A 
BRANCH   8  14
ATOM     14  S   UNL A   1      31.124  24.355  26.327  1.00  0.00     0.246 S 
ATOM     15  O   UNL A   1      31.791  23.939  27.546  1.00  0.00    -0.207 OA
ATOM     16  O   UNL A   1      29.701  24.619  26.342  1.00  0.00    -0.207 OA
BRANCH  14  17
ATOM     17  N   UNL A   1      31.897  25.808  25.767  1.00  0.00    -0.197 NA
ATOM     18  C   UNL A   1      31.605  28.318  25.620  1.00  0.00     0.004 C 
ATOM     19  C   UNL A   1      33.051  28.487  26.108  1.00  0.00     0.006 C 
ATOM     20  C   UNL A   1      31.034  26.986  26.125  1.00  0.00     0.106 C 
ATOM     21  C   UNL A   1      33.907  27.281  25.748  1.00  0.00     0.017 C 
ATOM     22  C   UNL A   1      33.290  25.989  26.267  1.00  0.00     0.102 C 
BRANCH  18  23
ATOM     23  C   UNL A   1      31.463  28.463  24.092  1.00  0.00     0.001 C 
ATOM     24  C   UNL A   1      30.048  28.152  23.618  1.00  0.00     0.004 C 
ENDBRANCH  18  23
ENDBRANCH  14  17
ENDBRANCH   8  14
ENDBRANCH   4   7
ENDBRANCH   2   3
ENDBRANCH   1   2
BRANCH   1  25
ATOM     25  C   UNL A   1      37.942  20.435  24.736  1.00  0.00     0.023 C 
BRANCH  25  26
ATOM     26  C   UNL A   1      38.917  20.444  25.908  1.00  0.00     0.116 C 
BRANCH  26  27
ATOM     27  N   UNL A   1      39.960  19.434  25.802  1.00  0.00    -0.352 N 
ATOM     28  C   UNL A   1      41.301  19.565  26.074  1.00  0.00     0.251 C 
ATOM     29  H   UNL A   1      39.669  18.545  25.497  1.00  0.00     0.163 HD
ATOM     30  O   UNL A   1      42.079  18.648  25.840  1.00  0.00    -0.269 OA
BRANCH  28  31
ATOM     31  C   UNL A   1      41.796  20.847  26.611  1.00  0.00     0.039 A 
ATOM     32  C   UNL A   1      42.250  21.821  25.721  1.00  0.00     0.014 A 
ATOM     33  C   UNL A   1      41.753  21.101  27.985  1.00  0.00     0.014 A 
ATOM     34  C   UNL A   1      42.595  23.083  26.205  1.00  0.00     0.010 A 
ATOM     35  C   UNL A   1      42.021  22.381  28.454  1.00  0.00     0.010 A 
ATOM     36  C   UNL A   1      42.444  23.384  27.569  1.00  0.00    -0.014 A 
BRANCH  36  37
ATOM     37  C   UNL A   1      42.713  24.745  28.089  1.00  0.00     0.031 A 
ATOM     38  C   UNL A   1      44.106  25.139  28.486  1.00  0.00     0.074 A 
ATOM     39  C   UNL A   1      41.692  25.605  28.261  1.00  0.00     0.049 A 
ATOM     40  N   UNL A   1      44.528  26.262  29.010  1.00  0.00    -0.248 NA
ATOM     41  C   UNL A   1      45.158  24.129  28.295  1.00  0.00     0.031 C 
ATOM     42  C   UNL A   1      40.289  25.323  27.953  1.00  0.00     0.029 A 
ATOM     43  N   UNL A   1      41.675  26.891  28.738  1.00  0.00    -0.354 N 
ATOM     44  C   UNL A   1      45.891  26.090  29.212  1.00  0.00     0.074 A 
ATOM     45  C   UNL A   1      46.211  24.736  28.822  1.00  0.00     0.031 C 
ATOM     46  C   UNL A   1      39.555  26.416  28.212  1.00  0.00     0.029 A 
ATOM     47  C   UNL A   1      40.425  27.462  28.740  1.00  0.00     0.049 A 
ATOM     48  H   UNL A   1      42.483  27.361  29.050  1.00  0.00     0.167 HD
ATOM     49  C   UNL A   1      46.800  26.993  29.652  1.00  0.00     0.037 A 
ATOM     50  C   UNL A   1      40.027  28.689  29.123  1.00  0.00     0.037 A 
ATOM     51  C   UNL A   1      46.477  28.344  30.029  1.00  0.00     0.049 A 
ATOM     52  C   UNL A   1      41.044  29.666  29.638  1.00  0.00     0.074 A 
ATOM     53  C   UNL A   1      47.331  29.347  30.451  1.00  0.00     0.029 A 
ATOM     54  N   UNL A   1      45.197  28.879  30.031  1.00  0.00    -0.354 N 
ATOM     55  N   UNL A   1      42.338  29.509  29.781  1.00  0.00    -0.248 NA
ATOM     56  C   UNL A   1      40.549  30.987  30.048  1.00  0.00     0.031 C 
ATOM     57  C   UNL A   1      46.562  30.475  30.755  1.00  0.00     0.029 A 
ATOM     58  C   UNL A   1      45.235  30.192  30.470  1.00  0.00     0.049 A 
ATOM     59  H   UNL A   1      44.382  28.396  29.762  1.00  0.00     0.167 HD
ATOM     60  C   UNL A   1      42.816  30.716  30.275  1.00  0.00     0.074 A 
ATOM     61  C   UNL A   1      41.674  31.598  30.399  1.00  0.00     0.031 C 
ATOM     62  C   UNL A   1      44.089  31.059  30.593  1.00  0.00     0.037 A 
BRANCH  49  63
ATOM     63  C   UNL A   1      48.230  26.543  29.737  1.00  0.00     0.057 A 
ATOM     64  C   UNL A   1      49.106  26.725  28.660  1.00  0.00     0.134 A 
ATOM     65  C   UNL A   1      48.735  25.907  30.879  1.00  0.00     0.134 A 
ATOM     66  F   UNL A   1      48.689  27.321  27.533  1.00  0.00    -0.206 F 
ATOM     67  C   UNL A   1      50.432  26.291  28.717  1.00  0.00     0.040 A 
ATOM     68  C   UNL A   1      50.066  25.497  30.960  1.00  0.00     0.040 A 
ATOM     69  F   UNL A   1      47.952  25.712  31.952  1.00  0.00    -0.206 F 
ATOM     70  C   UNL A   1      50.917  25.683  29.873  1.00  0.00     0.006 A 
ENDBRANCH  49  63
BRANCH  50  71
ATOM     71  C   UNL A   1      38.600  29.067  28.972  1.00  0.00     0.057 A 
ATOM     72  C   UNL A   1      38.090  29.551  27.761  1.00  0.00     0.134 A 
ATOM     73  C   UNL A   1      37.728  29.013  30.065  1.00  0.00     0.134 A 
ATOM     74  F   UNL A   1      38.880  29.638  26.681  1.00  0.00    -0.206 F 
ATOM     75  C   UNL A   1      36.771  29.994  27.649  1.00  0.00     0.040 A 
ATOM     76  C   UNL A   1      36.401  29.432  29.963  1.00  0.00     0.040 A 
ATOM     77  F   UNL A   1      38.155  28.545  31.246  1.00  0.00    -0.206 F 
ATOM     78  C   UNL A   1      35.922  29.935  28.753  1.00  0.00     0.006 A 
ENDBRANCH  50  71
BRANCH  62  79
ATOM     79  C   UNL A   1      44.330  32.454  31.094  1.00  0.00     0.057 A 
ATOM     80  C   UNL A   1      44.249  32.743  32.461  1.00  0.00     0.134 A 
ATOM     81  C   UNL A   1      44.553  33.522  30.217  1.00  0.00     0.134 A 
ATOM     82  F   UNL A   1      44.026  31.765  33.354  1.00  0.00    -0.206 F 
ATOM     83  C   UNL A   1      44.363  34.049  32.939  1.00  0.00     0.040 A 
ATOM     84  C   UNL A   1      44.695  34.830  30.685  1.00  0.00     0.040 A 
ATOM     85  F   UNL A   1      44.651  33.309  28.897  1.00  0.00    -0.206 F 
ATOM     86  C   UNL A   1      44.588  35.097  32.049  1.00  0.00     0.006 A 
ENDBRANCH  62  79
ENDBRANCH  36  37
ENDBRANCH  28  31
ENDBRANCH  26  27
ENDBRANCH  25  26
ENDBRANCH   1  25
TORSDOF 14
ENDMDL
MODEL 3
REMARK VINA RESULT:     -11.7      3.446      4.999
REMARK SMILES CC[C@@H]1CCCN(S(=O)(=O)c2cc(C(=O)NCCCCNC(=O)c3ccc(-c4c5nc(c(-c6c(F)cccc6F)c6ccc([nH]6)c(-c6c(F)cccc6F)c6nc(c(-c7c(F)cccc7F)c7ccc4[nH]7)C=C6)C=C5)cc3)ccc2F)C1
REMARK SMILES IDX 18 1 17 2 16 3 14 4 15 5 13 7 11 8 12 9 80 10 79 11 81 12
REMARK SMILES IDX 78 13 8 14 9 15 10 16 7 17 3 18 4 19 82 20 5 21 6 22 2 23
REMARK SMILES IDX 1 24 19 25 20 26 21 27 22 28 23 30 24 31 25 32 77 33 26 34
REMARK SMILES IDX 76 35 27 36 28 37 29 38 70 39 30 40 75 41 69 42 71 43 31 44
REMARK SMILES IDX 74 45 68 46 67 47 32 49 58 50 41 51 57 52 42 53 45 54 56 55
REMARK SMILES IDX 72 56 43 57 44 58 55 60 73 61 46 62 33 63 34 64 39 65 35 66
REMARK SMILES IDX 36 67 38 68 40 69 37 70 59 71 60 72 65 73 61 74 62 75 64 76
REMARK SMILES IDX 66 77 63 78 47 79 48 80 53 81 49 82 50 83 52 84 54 85 51 86
REMARK H PARENT 16 6 21 29 71 48 45 59
REMARK Flexibility Score: inf
ROOT
ATOM      1  C   UNL A   1      31.623  30.439  26.653  1.00  0.00     0.023 C 
ENDROOT
BRANCH   1   2
ATOM      2  C   UNL A   1      31.952  29.794  25.304  1.00  0.00     0.116 C 
BRANCH   2   3
ATOM      3  N   UNL A   1      30.955  30.134  24.312  1.00  0.00    -0.352 N 
ATOM      4  C   UNL A   1      30.190  29.372  23.467  1.00  0.00     0.251 C 
ATOM      5  O   UNL A   1      29.368  29.965  22.767  1.00  0.00    -0.269 OA
ATOM      6  H   UNL A   1      30.794  31.102  24.226  1.00  0.00     0.163 HD
BRANCH   4   7
ATOM      7  C   UNL A   1      30.284  27.884  23.358  1.00  0.00     0.041 A 
ATOM      8  C   UNL A   1      31.660  25.974  22.716  1.00  0.00     0.119 A 
ATOM      9  C   UNL A   1      31.457  27.359  22.783  1.00  0.00     0.038 A 
ATOM     10  C   UNL A   1      30.708  25.110  23.238  1.00  0.00     0.143 A 
ATOM     11  C   UNL A   1      29.535  25.608  23.786  1.00  0.00     0.041 A 
ATOM     12  F   UNL A   1      30.873  23.781  23.218  1.00  0.00    -0.206 F 
ATOM     13  C   UNL A   1      29.336  26.988  23.868  1.00  0.00     0.017 A 
BRANCH   8  14
ATOM     14  S   UNL A   1      33.200  25.327  22.153  1.00  0.00     0.246 S 
ATOM     15  O   UNL A   1      34.078  26.443  21.857  1.00  0.00    -0.207 OA
ATOM     16  O   UNL A   1      32.912  24.349  21.127  1.00  0.00    -0.207 OA
BRANCH  14  17
ATOM     17  N   UNL A   1      33.879  24.459  23.498  1.00  0.00    -0.197 NA
ATOM     18  C   UNL A   1      35.619  22.725  24.104  1.00  0.00     0.004 C 
ATOM     19  C   UNL A   1      36.067  23.620  25.267  1.00  0.00     0.006 C 
ATOM     20  C   UNL A   1      34.991  23.579  22.996  1.00  0.00     0.106 C 
ATOM     21  C   UNL A   1      34.934  24.512  25.755  1.00  0.00     0.017 C 
ATOM     22  C   UNL A   1      34.344  25.331  24.614  1.00  0.00     0.102 C 
BRANCH  18  23
ATOM     23  C   UNL A   1      34.687  21.580  24.548  1.00  0.00     0.001 C 
ATOM     24  C   UNL A   1      35.464  20.327  24.933  1.00  0.00     0.004 C 
ENDBRANCH  18  23
ENDBRANCH  14  17
ENDBRANCH   8  14
ENDBRANCH   4   7
ENDBRANCH   2   3
ENDBRANCH   1   2
BRANCH   1  25
ATOM     25  C   UNL A   1      31.520  31.965  26.618  1.00  0.00     0.023 C 
BRANCH  25  26
ATOM     26  C   UNL A   1      32.662  32.704  27.305  1.00  0.00     0.116 C 
BRANCH  26  27
ATOM     27  N   UNL A   1      32.349  34.089  27.623  1.00  0.00    -0.352 N 
ATOM     28  C   UNL A   1      32.979  34.920  28.517  1.00  0.00     0.251 C 
ATOM     29  H   UNL A   1      31.588  34.481  27.136  1.00  0.00     0.163 HD
ATOM     30  O   UNL A   1      32.536  36.039  28.752  1.00  0.00    -0.269 OA
BRANCH  28  31
ATOM     31  C   UNL A   1      34.176  34.427  29.224  1.00  0.00     0.039 A 
ATOM     32  C   UNL A   1      34.013  33.728  30.421  1.00  0.00     0.014 A 
ATOM     33  C   UNL A   1      35.447  34.607  28.672  1.00  0.00     0.014 A 
ATOM     34  C   UNL A   1      35.123  33.143  31.029  1.00  0.00     0.010 A 
ATOM     35  C   UNL A   1      36.538  33.957  29.237  1.00  0.00     0.010 A 
ATOM     36  C   UNL A   1      36.386  33.218  30.420  1.00  0.00    -0.014 A 
BRANCH  36  37
ATOM     37  C   UNL A   1      37.561  32.524  30.998  1.00  0.00     0.031 A 
ATOM     38  C   UNL A   1      38.195  33.037  32.258  1.00  0.00     0.074 A 
ATOM     39  C   UNL A   1      38.093  31.468  30.354  1.00  0.00     0.049 A 
ATOM     40  N   UNL A   1      39.256  32.598  32.886  1.00  0.00    -0.248 NA
ATOM     41  C   UNL A   1      37.570  34.214  32.881  1.00  0.00     0.031 C 
ATOM     42  C   UNL A   1      37.592  30.905  29.100  1.00  0.00     0.029 A 
ATOM     43  N   UNL A   1      39.172  30.681  30.666  1.00  0.00    -0.354 N 
ATOM     44  C   UNL A   1      39.426  33.446  33.972  1.00  0.00     0.074 A 
ATOM     45  C   UNL A   1      38.404  34.464  33.880  1.00  0.00     0.031 C 
ATOM     46  C   UNL A   1      38.338  29.839  28.769  1.00  0.00     0.029 A 
ATOM     47  C   UNL A   1      39.393  29.668  29.764  1.00  0.00     0.049 A 
ATOM     48  H   UNL A   1      39.736  30.828  31.459  1.00  0.00     0.167 HD
ATOM     49  C   UNL A   1      40.333  33.363  34.974  1.00  0.00     0.037 A 
ATOM     50  C   UNL A   1      40.336  28.709  29.743  1.00  0.00     0.037 A 
ATOM     51  C   UNL A   1      41.342  32.342  35.066  1.00  0.00     0.049 A 
ATOM     52  C   UNL A   1      41.353  28.653  30.846  1.00  0.00     0.074 A 
ATOM     53  C   UNL A   1      42.282  32.148  36.062  1.00  0.00     0.029 A 
ATOM     54  N   UNL A   1      41.542  31.342  34.125  1.00  0.00    -0.354 N 
ATOM     55  N   UNL A   1      41.476  29.431  31.894  1.00  0.00    -0.248 NA
ATOM     56  C   UNL A   1      42.363  27.589  30.766  1.00  0.00     0.031 C 
ATOM     57  C   UNL A   1      43.084  31.061  35.700  1.00  0.00     0.029 A 
ATOM     58  C   UNL A   1      42.607  30.543  34.506  1.00  0.00     0.049 A 
ATOM     59  H   UNL A   1      41.007  31.220  33.308  1.00  0.00     0.167 HD
ATOM     60  C   UNL A   1      42.560  28.940  32.610  1.00  0.00     0.074 A 
ATOM     61  C   UNL A   1      43.055  27.791  31.881  1.00  0.00     0.031 C 
ATOM     62  C   UNL A   1      43.093  29.402  33.768  1.00  0.00     0.037 A 
BRANCH  49  63
ATOM     63  C   UNL A   1      40.261  34.405  36.054  1.00  0.00     0.057 A 
ATOM     64  C   UNL A   1      40.917  35.633  35.913  1.00  0.00     0.134 A 
ATOM     65  C   UNL A   1      39.560  34.181  37.246  1.00  0.00     0.134 A 
ATOM     66  F   UNL A   1      41.612  35.913  34.800  1.00  0.00    -0.206 F 
ATOM     67  C   UNL A   1      40.878  36.602  36.918  1.00  0.00     0.040 A 
ATOM     68  C   UNL A   1      39.487  35.152  38.245  1.00  0.00     0.040 A 
ATOM     69  F   UNL A   1      38.899  33.029  37.442  1.00  0.00    -0.206 F 
ATOM     70  C   UNL A   1      40.154  36.365  38.085  1.00  0.00     0.006 A 
ENDBRANCH  49  63
BRANCH  50  71
ATOM     71  C   UNL A   1      40.315  27.695  28.660  1.00  0.00     0.057 A 
ATOM     72  C   UNL A   1      40.979  27.903  27.444  1.00  0.00     0.134 A 
ATOM     73  C   UNL A   1      39.567  26.520  28.796  1.00  0.00     0.134 A 
ATOM     74  F   UNL A   1      41.701  29.015  27.249  1.00  0.00    -0.206 F 
ATOM     75  C   UNL A   1      40.878  26.990  26.393  1.00  0.00     0.040 A 
ATOM     76  C   UNL A   1      39.475  25.588  27.761  1.00  0.00     0.040 A 
ATOM     77  F   UNL A   1      38.922  26.261  29.942  1.00  0.00    -0.206 F 
ATOM     78  C   UNL A   1      40.124  25.828  26.550  1.00  0.00     0.006 A 
ENDBRANCH  50  71
BRANCH  62  79
ATOM     79  C   UNL A   1      44.267  28.660  34.339  1.00  0.00     0.057 A 
ATOM     80  C   UNL A   1      45.575  29.080  34.068  1.00  0.00     0.134 A 
ATOM     81  C   UNL A   1      44.104  27.484  35.080  1.00  0.00     0.134 A 
ATOM     82  F   UNL A   1      45.799  30.194  33.354  1.00  0.00    -0.206 F 
ATOM     83  C   UNL A   1      46.681  28.346  34.498  1.00  0.00     0.040 A 
ATOM     84  C   UNL A   1      45.203  26.754  35.538  1.00  0.00     0.040 A 
ATOM     85  F   UNL A   1      42.877  27.034  35.381  1.00  0.00    -0.206 F 
ATOM     86  C   UNL A   1      46.496  27.179  35.237  1.00  0.00     0.006 A 
ENDBRANCH  62  79
ENDBRANCH  36  37
ENDBRANCH  28  31
ENDBRANCH  26  27
ENDBRANCH  25  26
ENDBRANCH   1  25
TORSDOF 14
ENDMDL
