MODEL 1
REMARK VINA RESULT:     -11.9      0.000      0.000
REMARK SMILES C[C@@H](C(=O)NCCCCNC(=O)c1ccc(-c2c3nc(c(-c4c(F)cccc4F)c4ccc([nH]4)c(-c4c(F)cccc4F)c4nc(c(-c5c(F)cccc5F)c5ccc2[nH]5)C=C4)C=C3)cc1)c1ccc(-c2ccccc2)c(F)c1
REMARK SMILES IDX 7 1 6 2 5 3 3 4 4 5 2 7 1 8 67 9 68 10 79 11 69 12 77 13
REMARK SMILES IDX 70 14 78 15 71 16 72 17 76 18 73 19 75 20 74 21 8 22 9 23
REMARK SMILES IDX 10 24 11 25 12 27 13 28 14 29 66 30 15 31 65 32 16 33 17 34
REMARK SMILES IDX 18 35 59 36 19 37 64 38 58 39 60 40 20 41 63 42 57 43 56 44
REMARK SMILES IDX 21 46 47 47 30 48 46 49 31 50 34 51 45 52 61 53 32 54 33 55
REMARK SMILES IDX 44 57 62 58 35 59 22 60 23 61 28 62 24 63 25 64 27 65 29 66
REMARK SMILES IDX 26 67 48 68 49 69 54 70 50 71 51 72 53 73 55 74 52 75 36 76
REMARK SMILES IDX 37 77 42 78 38 79 39 80 41 81 43 82 40 83
REMARK H PARENT 5 6 10 26 60 45 34 56
REMARK Flexibility Score: inf
ROOT
ATOM      1  C   UNL A   1      32.800  29.611  25.103  1.00  0.00     0.023 C 
ENDROOT
BRANCH   1   2
ATOM      2  C   UNL A   1      31.323  29.263  24.891  1.00  0.00     0.116 C 
BRANCH   2   3
ATOM      3  N   UNL A   1      30.838  29.774  23.623  1.00  0.00    -0.356 N 
ATOM      4  C   UNL A   1      30.377  29.104  22.522  1.00  0.00     0.227 C 
ATOM      5  O   UNL A   1      30.219  29.774  21.499  1.00  0.00    -0.274 OA
ATOM      6  H   UNL A   1      30.839  30.755  23.542  1.00  0.00     0.163 HD
BRANCH   4   7
ATOM      7  C   UNL A   1      30.077  27.594  22.609  1.00  0.00     0.105 C 
ATOM      8  C   UNL A   1      28.908  27.390  23.585  1.00  0.00     0.023 C 
BRANCH   7   9
ATOM      9  C   UNL A   1      31.290  26.722  22.966  1.00  0.00    -0.033 A 
ATOM     10  C   UNL A   1      32.513  26.851  22.289  1.00  0.00     0.005 A 
ATOM     11  C   UNL A   1      31.209  25.722  23.948  1.00  0.00     0.044 A 
ATOM     12  C   UNL A   1      33.633  26.083  22.648  1.00  0.00     0.012 A 
ATOM     13  C   UNL A   1      32.319  24.953  24.293  1.00  0.00     0.131 A 
ATOM     14  C   UNL A   1      33.558  25.130  23.672  1.00  0.00     0.017 A 
ATOM     15  F   UNL A   1      32.169  24.041  25.267  1.00  0.00    -0.206 F 
BRANCH  14  16
ATOM     16  C   UNL A   1      34.737  24.362  24.095  1.00  0.00    -0.015 A 
ATOM     17  C   UNL A   1      35.294  24.545  25.371  1.00  0.00     0.009 A 
ATOM     18  C   UNL A   1      35.315  23.397  23.253  1.00  0.00     0.009 A 
ATOM     19  C   UNL A   1      36.387  23.785  25.795  1.00  0.00     0.001 A 
ATOM     20  C   UNL A   1      36.410  22.639  23.674  1.00  0.00     0.001 A 
ATOM     21  C   UNL A   1      36.943  22.832  24.945  1.00  0.00     0.000 A 
ENDBRANCH  14  16
ENDBRANCH   7   9
ENDBRANCH   4   7
ENDBRANCH   2   3
ENDBRANCH   1   2
BRANCH   1  22
ATOM     22  C   UNL A   1      33.637  28.508  25.751  1.00  0.00     0.023 C 
BRANCH  22  23
ATOM     23  C   UNL A   1      33.797  28.629  27.258  1.00  0.00     0.116 C 
BRANCH  23  24
ATOM     24  N   UNL A   1      33.774  30.009  27.722  1.00  0.00    -0.352 N 
ATOM     25  C   UNL A   1      34.780  30.714  28.338  1.00  0.00     0.251 C 
ATOM     26  H   UNL A   1      32.932  30.498  27.576  1.00  0.00     0.163 HD
ATOM     27  O   UNL A   1      34.580  31.840  28.782  1.00  0.00    -0.269 OA
BRANCH  25  28
ATOM     28  C   UNL A   1      36.102  30.077  28.490  1.00  0.00     0.039 A 
ATOM     29  C   UNL A   1      37.013  30.140  27.433  1.00  0.00     0.014 A 
ATOM     30  C   UNL A   1      36.456  29.485  29.705  1.00  0.00     0.014 A 
ATOM     31  C   UNL A   1      38.316  29.672  27.620  1.00  0.00     0.010 A 
ATOM     32  C   UNL A   1      37.770  29.083  29.910  1.00  0.00     0.010 A 
ATOM     33  C   UNL A   1      38.712  29.179  28.873  1.00  0.00    -0.014 A 
BRANCH  33  34
ATOM     34  C   UNL A   1      40.102  28.743  29.144  1.00  0.00     0.031 A 
ATOM     35  C   UNL A   1      41.087  29.727  29.702  1.00  0.00     0.074 A 
ATOM     36  C   UNL A   1      40.507  27.515  28.769  1.00  0.00     0.049 A 
ATOM     37  N   UNL A   1      42.384  29.622  29.825  1.00  0.00    -0.248 NA
ATOM     38  C   UNL A   1      40.540  31.019  30.143  1.00  0.00     0.031 C 
ATOM     39  C   UNL A   1      39.655  26.485  28.175  1.00  0.00     0.029 A 
ATOM     40  N   UNL A   1      41.752  26.939  28.804  1.00  0.00    -0.354 N 
ATOM     41  C   UNL A   1      42.813  30.847  30.317  1.00  0.00     0.074 A 
ATOM     42  C   UNL A   1      41.642  31.690  30.438  1.00  0.00     0.031 C 
ATOM     43  C   UNL A   1      40.402  25.403  27.899  1.00  0.00     0.029 A 
ATOM     44  C   UNL A   1      41.789  25.680  28.257  1.00  0.00     0.049 A 
ATOM     45  H   UNL A   1      42.542  27.386  29.184  1.00  0.00     0.167 HD
ATOM     46  C   UNL A   1      44.068  31.231  30.650  1.00  0.00     0.037 A 
ATOM     47  C   UNL A   1      42.829  24.851  28.049  1.00  0.00     0.037 A 
ATOM     48  C   UNL A   1      45.221  30.376  30.568  1.00  0.00     0.049 A 
ATOM     49  C   UNL A   1      44.211  25.284  28.453  1.00  0.00     0.074 A 
ATOM     50  C   UNL A   1      46.523  30.642  30.952  1.00  0.00     0.029 A 
ATOM     51  N   UNL A   1      45.207  29.082  30.067  1.00  0.00    -0.354 N 
ATOM     52  N   UNL A   1      44.598  26.425  28.967  1.00  0.00    -0.248 NA
ATOM     53  C   UNL A   1      45.297  24.315  28.252  1.00  0.00     0.031 C 
ATOM     54  C   UNL A   1      47.304  29.520  30.656  1.00  0.00     0.029 A 
ATOM     55  C   UNL A   1      46.481  28.542  30.121  1.00  0.00     0.049 A 
ATOM     56  H   UNL A   1      44.409  28.617  29.724  1.00  0.00     0.167 HD
ATOM     57  C   UNL A   1      45.966  26.304  29.175  1.00  0.00     0.074 A 
ATOM     58  C   UNL A   1      46.340  24.977  28.736  1.00  0.00     0.031 C 
ATOM     59  C   UNL A   1      46.831  27.212  29.689  1.00  0.00     0.037 A 
BRANCH  46  60
ATOM     60  C   UNL A   1      44.249  32.643  31.123  1.00  0.00     0.057 A 
ATOM     61  C   UNL A   1      44.137  32.992  32.474  1.00  0.00     0.134 A 
ATOM     62  C   UNL A   1      44.536  33.668  30.212  1.00  0.00     0.134 A 
ATOM     63  F   UNL A   1      43.847  32.060  33.396  1.00  0.00    -0.206 F 
ATOM     64  C   UNL A   1      44.265  34.315  32.901  1.00  0.00     0.040 A 
ATOM     65  C   UNL A   1      44.694  34.990  30.629  1.00  0.00     0.040 A 
ATOM     66  F   UNL A   1      44.660  33.403  28.903  1.00  0.00    -0.206 F 
ATOM     67  C   UNL A   1      44.548  35.318  31.976  1.00  0.00     0.006 A 
ENDBRANCH  46  60
BRANCH  47  68
ATOM     68  C   UNL A   1      42.594  23.521  27.439  1.00  0.00     0.057 A 
ATOM     69  C   UNL A   1      42.268  22.414  28.233  1.00  0.00     0.134 A 
ATOM     70  C   UNL A   1      42.654  23.328  26.054  1.00  0.00     0.134 A 
ATOM     71  F   UNL A   1      42.212  22.535  29.567  1.00  0.00    -0.206 F 
ATOM     72  C   UNL A   1      42.018  21.162  27.672  1.00  0.00     0.040 A 
ATOM     73  C   UNL A   1      42.388  22.086  25.478  1.00  0.00     0.040 A 
ATOM     74  F   UNL A   1      42.952  24.352  25.241  1.00  0.00    -0.206 F 
ATOM     75  C   UNL A   1      42.070  20.997  26.289  1.00  0.00     0.006 A 
ENDBRANCH  47  68
BRANCH  59  76
ATOM     76  C   UNL A   1      48.260  26.790  29.843  1.00  0.00     0.057 A 
ATOM     77  C   UNL A   1      48.700  26.060  30.955  1.00  0.00     0.134 A 
ATOM     78  C   UNL A   1      49.194  27.063  28.836  1.00  0.00     0.134 A 
ATOM     79  F   UNL A   1      47.856  25.778  31.959  1.00  0.00    -0.206 F 
ATOM     80  C   UNL A   1      50.021  25.625  31.063  1.00  0.00     0.040 A 
ATOM     81  C   UNL A   1      50.512  26.615  28.923  1.00  0.00     0.040 A 
ATOM     82  F   UNL A   1      48.833  27.751  27.742  1.00  0.00    -0.206 F 
ATOM     83  C   UNL A   1      50.930  25.895  30.040  1.00  0.00     0.006 A 
ENDBRANCH  59  76
ENDBRANCH  33  34
ENDBRANCH  25  28
ENDBRANCH  23  24
ENDBRANCH  22  23
ENDBRANCH   1  22
TORSDOF 13
ENDMDL
MODEL 2
REMARK VINA RESULT:     -11.8      3.811      6.977
REMARK SMILES C[C@@H](C(=O)NCCCCNC(=O)c1ccc(-c2c3nc(c(-c4c(F)cccc4F)c4ccc([nH]4)c(-c4c(F)cccc4F)c4nc(c(-c5c(F)cccc5F)c5ccc2[nH]5)C=C4)C=C3)cc1)c1ccc(-c2ccccc2)c(F)c1
REMARK SMILES IDX 7 1 6 2 5 3 3 4 4 5 2 7 1 8 67 9 68 10 79 11 69 12 77 13
REMARK SMILES IDX 70 14 78 15 71 16 72 17 76 18 73 19 75 20 74 21 8 22 9 23
REMARK SMILES IDX 10 24 11 25 12 27 13 28 14 29 66 30 15 31 65 32 16 33 17 34
REMARK SMILES IDX 18 35 59 36 19 37 64 38 58 39 60 40 20 41 63 42 57 43 56 44
REMARK SMILES IDX 21 46 47 47 30 48 46 49 31 50 34 51 45 52 61 53 32 54 33 55
REMARK SMILES IDX 44 57 62 58 35 59 22 60 23 61 28 62 24 63 25 64 27 65 29 66
REMARK SMILES IDX 26 67 48 68 49 69 54 70 50 71 51 72 53 73 55 74 52 75 36 76
REMARK SMILES IDX 37 77 42 78 38 79 39 80 41 81 43 82 40 83
REMARK H PARENT 5 6 10 26 60 45 34 56
REMARK Flexibility Score: inf
ROOT
ATOM      1  C   UNL A   1      33.806  35.643  28.897  1.00  0.00     0.023 C 
ENDROOT
BRANCH   1   2
ATOM      2  C   UNL A   1      33.228  35.206  30.246  1.00  0.00     0.116 C 
BRANCH   2   3
ATOM      3  N   UNL A   1      33.853  35.918  31.344  1.00  0.00    -0.356 N 
ATOM      4  C   UNL A   1      34.696  35.464  32.323  1.00  0.00     0.227 C 
ATOM      5  O   UNL A   1      34.919  36.237  33.257  1.00  0.00    -0.274 OA
ATOM      6  H   UNL A   1      33.639  36.877  31.394  1.00  0.00     0.163 HD
BRANCH   4   7
ATOM      7  C   UNL A   1      35.317  34.057  32.212  1.00  0.00     0.105 C 
ATOM      8  C   UNL A   1      35.236  33.384  33.590  1.00  0.00     0.023 C 
BRANCH   7   9
ATOM      9  C   UNL A   1      36.741  34.032  31.636  1.00  0.00    -0.033 A 
ATOM     10  C   UNL A   1      36.998  33.584  30.331  1.00  0.00     0.005 A 
ATOM     11  C   UNL A   1      37.850  34.404  32.411  1.00  0.00     0.044 A 
ATOM     12  C   UNL A   1      38.296  33.604  29.793  1.00  0.00     0.012 A 
ATOM     13  C   UNL A   1      39.138  34.411  31.878  1.00  0.00     0.131 A 
ATOM     14  C   UNL A   1      39.389  34.036  30.556  1.00  0.00     0.017 A 
ATOM     15  F   UNL A   1      40.142  34.814  32.674  1.00  0.00    -0.206 F 
BRANCH  14  16
ATOM     16  C   UNL A   1      40.740  34.116  29.986  1.00  0.00    -0.015 A 
ATOM     17  C   UNL A   1      41.682  33.103  30.224  1.00  0.00     0.009 A 
ATOM     18  C   UNL A   1      41.115  35.187  29.157  1.00  0.00     0.009 A 
ATOM     19  C   UNL A   1      42.954  33.152  29.647  1.00  0.00     0.001 A 
ATOM     20  C   UNL A   1      42.387  35.240  28.582  1.00  0.00     0.001 A 
ATOM     21  C   UNL A   1      43.305  34.221  28.826  1.00  0.00     0.000 A 
ENDBRANCH  14  16
ENDBRANCH   7   9
ENDBRANCH   4   7
ENDBRANCH   2   3
ENDBRANCH   1   2
BRANCH   1  22
ATOM     22  C   UNL A   1      34.304  34.504  28.008  1.00  0.00     0.023 C 
BRANCH  22  23
ATOM     23  C   UNL A   1      34.329  33.138  28.673  1.00  0.00     0.116 C 
BRANCH  23  24
ATOM     24  N   UNL A   1      33.815  32.080  27.815  1.00  0.00    -0.352 N 
ATOM     25  C   UNL A   1      34.387  30.863  27.533  1.00  0.00     0.251 C 
ATOM     26  H   UNL A   1      32.949  32.259  27.382  1.00  0.00     0.163 HD
ATOM     27  O   UNL A   1      33.895  30.114  26.696  1.00  0.00    -0.269 OA
BRANCH  25  28
ATOM     28  C   UNL A   1      35.630  30.485  28.232  1.00  0.00     0.039 A 
ATOM     29  C   UNL A   1      35.547  29.803  29.449  1.00  0.00     0.014 A 
ATOM     30  C   UNL A   1      36.870  30.746  27.643  1.00  0.00     0.014 A 
ATOM     31  C   UNL A   1      36.712  29.312  30.042  1.00  0.00     0.010 A 
ATOM     32  C   UNL A   1      38.018  30.198  28.200  1.00  0.00     0.010 A 
ATOM     33  C   UNL A   1      37.949  29.472  29.400  1.00  0.00    -0.014 A 
BRANCH  33  34
ATOM     34  C   UNL A   1      39.202  28.902  29.951  1.00  0.00     0.031 A 
ATOM     35  C   UNL A   1      39.843  29.548  31.142  1.00  0.00     0.074 A 
ATOM     36  C   UNL A   1      39.822  27.896  29.307  1.00  0.00     0.049 A 
ATOM     37  N   UNL A   1      41.028  29.344  31.658  1.00  0.00    -0.248 NA
ATOM     38  C   UNL A   1      39.061  30.595  31.818  1.00  0.00     0.031 C 
ATOM     39  C   UNL A   1      39.321  27.214  28.113  1.00  0.00     0.029 A 
ATOM     40  N   UNL A   1      41.030  27.294  29.552  1.00  0.00    -0.354 N 
ATOM     41  C   UNL A   1      41.148  30.264  32.691  1.00  0.00     0.074 A 
ATOM     42  C   UNL A   1      39.931  31.049  32.706  1.00  0.00     0.031 C 
ATOM     43  C   UNL A   1      40.216  26.289  27.728  1.00  0.00     0.029 A 
ATOM     44  C   UNL A   1      41.368  26.343  28.621  1.00  0.00     0.049 A 
ATOM     45  H   UNL A   1      41.601  27.523  30.320  1.00  0.00     0.167 HD
ATOM     46  C   UNL A   1      42.176  30.432  33.556  1.00  0.00     0.037 A 
ATOM     47  C   UNL A   1      42.491  25.611  28.490  1.00  0.00     0.037 A 
ATOM     48  C   UNL A   1      43.365  29.623  33.563  1.00  0.00     0.049 A 
ATOM     49  C   UNL A   1      43.608  25.790  29.479  1.00  0.00     0.074 A 
ATOM     50  C   UNL A   1      44.430  29.660  34.445  1.00  0.00     0.029 A 
ATOM     51  N   UNL A   1      43.642  28.623  32.641  1.00  0.00    -0.354 N 
ATOM     52  N   UNL A   1      43.691  26.627  30.485  1.00  0.00    -0.248 NA
ATOM     53  C   UNL A   1      44.784  24.924  29.318  1.00  0.00     0.031 C 
ATOM     54  C   UNL A   1      45.366  28.704  34.038  1.00  0.00     0.029 A 
ATOM     55  C   UNL A   1      44.867  28.046  32.925  1.00  0.00     0.049 A 
ATOM     56  H   UNL A   1      43.053  28.364  31.895  1.00  0.00     0.167 HD
ATOM     57  C   UNL A   1      44.913  26.372  31.092  1.00  0.00     0.074 A 
ATOM     58  C   UNL A   1      45.537  25.300  30.344  1.00  0.00     0.031 C 
ATOM     59  C   UNL A   1      45.466  26.970  32.175  1.00  0.00     0.037 A 
BRANCH  46  60
ATOM     60  C   UNL A   1      42.054  31.543  34.556  1.00  0.00     0.057 A 
ATOM     61  C   UNL A   1      42.544  32.829  34.300  1.00  0.00     0.134 A 
ATOM     62  C   UNL A   1      41.439  31.320  35.795  1.00  0.00     0.134 A 
ATOM     63  F   UNL A   1      43.159  33.104  33.138  1.00  0.00    -0.206 F 
ATOM     64  C   UNL A   1      42.463  33.846  35.253  1.00  0.00     0.040 A 
ATOM     65  C   UNL A   1      41.327  32.336  36.746  1.00  0.00     0.040 A 
ATOM     66  F   UNL A   1      40.945  30.113  36.105  1.00  0.00    -0.206 F 
ATOM     67  C   UNL A   1      41.850  33.600  36.480  1.00  0.00     0.006 A 
ENDBRANCH  46  60
BRANCH  47  68
ATOM     68  C   UNL A   1      42.600  24.630  27.384  1.00  0.00     0.057 A 
ATOM     69  C   UNL A   1      43.142  25.000  26.148  1.00  0.00     0.134 A 
ATOM     70  C   UNL A   1      42.199  23.298  27.542  1.00  0.00     0.134 A 
ATOM     71  F   UNL A   1      43.528  26.266  25.933  1.00  0.00    -0.206 F 
ATOM     72  C   UNL A   1      43.276  24.083  25.106  1.00  0.00     0.040 A 
ATOM     73  C   UNL A   1      42.345  22.366  26.515  1.00  0.00     0.040 A 
ATOM     74  F   UNL A   1      41.681  22.882  28.707  1.00  0.00    -0.206 F 
ATOM     75  C   UNL A   1      42.883  22.759  25.291  1.00  0.00     0.006 A 
ENDBRANCH  47  68
BRANCH  59  76
ATOM     76  C   UNL A   1      46.793  26.456  32.644  1.00  0.00     0.057 A 
ATOM     77  C   UNL A   1      46.895  25.387  33.543  1.00  0.00     0.134 A 
ATOM     78  C   UNL A   1      47.982  26.997  32.141  1.00  0.00     0.134 A 
ATOM     79  F   UNL A   1      45.792  24.834  34.070  1.00  0.00    -0.206 F 
ATOM     80  C   UNL A   1      48.136  24.880  33.931  1.00  0.00     0.040 A 
ATOM     81  C   UNL A   1      49.227  26.486  32.505  1.00  0.00     0.040 A 
ATOM     82  F   UNL A   1      47.950  28.018  31.270  1.00  0.00    -0.206 F 
ATOM     83  C   UNL A   1      49.307  25.425  33.405  1.00  0.00     0.006 A 
ENDBRANCH  59  76
ENDBRANCH  33  34
ENDBRANCH  25  28
ENDBRANCH  23  24
ENDBRANCH  22  23
ENDBRANCH   1  22
TORSDOF 13
ENDMDL
MODEL 3
REMARK VINA RESULT:     -11.7      4.545     10.177
REMARK SMILES C[C@@H](C(=O)NCCCCNC(=O)c1ccc(-c2c3nc(c(-c4c(F)cccc4F)c4ccc([nH]4)c(-c4c(F)cccc4F)c4nc(c(-c5c(F)cccc5F)c5ccc2[nH]5)C=C4)C=C3)cc1)c1ccc(-c2ccccc2)c(F)c1
REMARK SMILES IDX 7 1 6 2 5 3 3 4 4 5 2 7 1 8 67 9 68 10 79 11 69 12 77 13
REMARK SMILES IDX 70 14 78 15 71 16 72 17 76 18 73 19 75 20 74 21 8 22 9 23
REMARK SMILES IDX 10 24 11 25 12 27 13 28 14 29 66 30 15 31 65 32 16 33 17 34
REMARK SMILES IDX 18 35 59 36 19 37 64 38 58 39 60 40 20 41 63 42 57 43 56 44
REMARK SMILES IDX 21 46 47 47 30 48 46 49 31 50 34 51 45 52 61 53 32 54 33 55
REMARK SMILES IDX 44 57 62 58 35 59 22 60 23 61 28 62 24 63 25 64 27 65 29 66
REMARK SMILES IDX 26 67 48 68 49 69 54 70 50 71 51 72 53 73 55 74 52 75 36 76
REMARK SMILES IDX 37 77 42 78 38 79 39 80 41 81 43 82 40 83
REMARK H PARENT 5 6 10 26 60 45 34 56
REMARK Flexibility Score: inf
ROOT
ATOM      1  C   UNL A   1      42.400  19.487  27.016  1.00  0.00     0.023 C 
ENDROOT
BRANCH   1   2
ATOM      2  C   UNL A   1      42.975  19.639  25.604  1.00  0.00     0.116 C 
BRANCH   2   3
ATOM      3  N   UNL A   1      44.396  19.926  25.641  1.00  0.00    -0.356 N 
ATOM      4  C   UNL A   1      45.059  21.117  25.519  1.00  0.00     0.227 C 
ATOM      5  O   UNL A   1      46.282  21.054  25.381  1.00  0.00    -0.274 OA
ATOM      6  H   UNL A   1      44.975  19.141  25.775  1.00  0.00     0.163 HD
BRANCH   4   7
ATOM      7  C   UNL A   1      44.273  22.443  25.568  1.00  0.00     0.105 C 
ATOM      8  C   UNL A   1      44.824  23.371  24.476  1.00  0.00     0.023 C 
BRANCH   7   9
ATOM      9  C   UNL A   1      44.247  23.119  26.947  1.00  0.00    -0.033 A 
ATOM     10  C   UNL A   1      43.061  23.230  27.690  1.00  0.00     0.005 A 
ATOM     11  C   UNL A   1      45.399  23.702  27.497  1.00  0.00     0.044 A 
ATOM     12  C   UNL A   1      43.050  23.809  28.969  1.00  0.00     0.012 A 
ATOM     13  C   UNL A   1      45.382  24.287  28.762  1.00  0.00     0.131 A 
ATOM     14  C   UNL A   1      44.220  24.334  29.536  1.00  0.00     0.017 A 
ATOM     15  F   UNL A   1      46.534  24.792  29.233  1.00  0.00    -0.206 F 
BRANCH  14  16
ATOM     16  C   UNL A   1      44.233  24.889  30.896  1.00  0.00    -0.015 A 
ATOM     17  C   UNL A   1      44.499  24.069  32.004  1.00  0.00     0.009 A 
ATOM     18  C   UNL A   1      44.019  26.259  31.122  1.00  0.00     0.009 A 
ATOM     19  C   UNL A   1      44.558  24.601  33.295  1.00  0.00     0.001 A 
ATOM     20  C   UNL A   1      44.074  26.791  32.412  1.00  0.00     0.001 A 
ATOM     21  C   UNL A   1      44.345  25.962  33.497  1.00  0.00     0.000 A 
ENDBRANCH  14  16
ENDBRANCH   7   9
ENDBRANCH   4   7
ENDBRANCH   2   3
ENDBRANCH   1   2
BRANCH   1  22
ATOM     22  C   UNL A   1      41.092  20.239  27.265  1.00  0.00     0.023 C 
BRANCH  22  23
ATOM     23  C   UNL A   1      40.818  21.381  26.299  1.00  0.00     0.116 C 
BRANCH  23  24
ATOM     24  N   UNL A   1      39.398  21.582  26.048  1.00  0.00    -0.352 N 
ATOM     25  C   UNL A   1      38.651  22.716  26.259  1.00  0.00     0.251 C 
ATOM     26  H   UNL A   1      38.911  20.808  25.682  1.00  0.00     0.163 HD
ATOM     27  O   UNL A   1      37.434  22.706  26.111  1.00  0.00    -0.269 OA
BRANCH  25  28
ATOM     28  C   UNL A   1      39.337  23.944  26.703  1.00  0.00     0.039 A 
ATOM     29  C   UNL A   1      39.974  24.749  25.756  1.00  0.00     0.014 A 
ATOM     30  C   UNL A   1      39.284  24.327  28.046  1.00  0.00     0.014 A 
ATOM     31  C   UNL A   1      40.496  25.985  26.143  1.00  0.00     0.010 A 
ATOM     32  C   UNL A   1      39.743  25.585  28.415  1.00  0.00     0.010 A 
ATOM     33  C   UNL A   1      40.348  26.426  27.467  1.00  0.00    -0.014 A 
BRANCH  33  34
ATOM     34  C   UNL A   1      40.816  27.762  27.909  1.00  0.00     0.031 A 
ATOM     35  C   UNL A   1      42.287  28.047  27.958  1.00  0.00     0.074 A 
ATOM     36  C   UNL A   1      39.933  28.660  28.384  1.00  0.00     0.049 A 
ATOM     37  N   UNL A   1      42.918  29.059  28.495  1.00  0.00    -0.248 NA
ATOM     38  C   UNL A   1      43.169  27.035  27.356  1.00  0.00     0.031 C 
ATOM     39  C   UNL A   1      38.482  28.482  28.431  1.00  0.00     0.029 A 
ATOM     40  N   UNL A   1      40.136  29.892  28.952  1.00  0.00    -0.354 N 
ATOM     41  C   UNL A   1      44.269  28.785  28.334  1.00  0.00     0.074 A 
ATOM     42  C   UNL A   1      44.367  27.497  27.680  1.00  0.00     0.031 C 
ATOM     43  C   UNL A   1      37.925  29.564  28.999  1.00  0.00     0.029 A 
ATOM     44  C   UNL A   1      38.982  30.491  29.392  1.00  0.00     0.049 A 
ATOM     45  H   UNL A   1      41.025  30.307  29.037  1.00  0.00     0.167 HD
ATOM     46  C   UNL A   1      45.333  29.544  28.689  1.00  0.00     0.037 A 
ATOM     47  C   UNL A   1      38.797  31.647  30.057  1.00  0.00     0.037 A 
ATOM     48  C   UNL A   1      45.229  30.841  29.300  1.00  0.00     0.049 A 
ATOM     49  C   UNL A   1      39.989  32.490  30.415  1.00  0.00     0.074 A 
ATOM     50  C   UNL A   1      46.242  31.725  29.628  1.00  0.00     0.029 A 
ATOM     51  N   UNL A   1      44.035  31.443  29.673  1.00  0.00    -0.354 N 
ATOM     52  N   UNL A   1      41.261  32.247  30.211  1.00  0.00    -0.248 NA
ATOM     53  C   UNL A   1      39.721  33.767  31.091  1.00  0.00     0.031 C 
ATOM     54  C   UNL A   1      45.663  32.848  30.228  1.00  0.00     0.029 A 
ATOM     55  C   UNL A   1      44.288  32.680  30.240  1.00  0.00     0.049 A 
ATOM     56  H   UNL A   1      43.142  31.047  29.552  1.00  0.00     0.167 HD
ATOM     57  C   UNL A   1      41.943  33.349  30.709  1.00  0.00     0.074 A 
ATOM     58  C   UNL A   1      40.944  34.263  31.221  1.00  0.00     0.031 C 
ATOM     59  C   UNL A   1      43.278  33.582  30.734  1.00  0.00     0.037 A 
BRANCH  46  60
ATOM     60  C   UNL A   1      46.696  28.976  28.428  1.00  0.00     0.057 A 
ATOM     61  C   UNL A   1      47.384  29.218  27.232  1.00  0.00     0.134 A 
ATOM     62  C   UNL A   1      47.328  28.172  29.386  1.00  0.00     0.134 A 
ATOM     63  F   UNL A   1      46.827  29.966  26.267  1.00  0.00    -0.206 F 
ATOM     64  C   UNL A   1      48.634  28.651  26.981  1.00  0.00     0.040 A 
ATOM     65  C   UNL A   1      48.590  27.622  29.158  1.00  0.00     0.040 A 
ATOM     66  F   UNL A   1      46.727  27.903  30.554  1.00  0.00    -0.206 F 
ATOM     67  C   UNL A   1      49.242  27.853  27.947  1.00  0.00     0.006 A 
ENDBRANCH  46  60
BRANCH  47  68
ATOM     68  C   UNL A   1      37.424  32.076  30.412  1.00  0.00     0.057 A 
ATOM     69  C   UNL A   1      36.665  32.856  29.532  1.00  0.00     0.134 A 
ATOM     70  C   UNL A   1      36.824  31.693  31.618  1.00  0.00     0.134 A 
ATOM     71  F   UNL A   1      37.192  33.265  28.370  1.00  0.00    -0.206 F 
ATOM     72  C   UNL A   1      35.361  33.245  29.840  1.00  0.00     0.040 A 
ATOM     73  C   UNL A   1      35.515  32.059  31.931  1.00  0.00     0.040 A 
ATOM     74  F   UNL A   1      37.498  30.938  32.498  1.00  0.00    -0.206 F 
ATOM     75  C   UNL A   1      34.781  32.840  31.041  1.00  0.00     0.006 A 
ENDBRANCH  47  68
BRANCH  59  76
ATOM     76  C   UNL A   1      43.737  34.892  31.296  1.00  0.00     0.057 A 
ATOM     77  C   UNL A   1      43.821  36.047  30.508  1.00  0.00     0.134 A 
ATOM     78  C   UNL A   1      44.039  35.013  32.659  1.00  0.00     0.134 A 
ATOM     79  F   UNL A   1      43.556  35.993  29.194  1.00  0.00    -0.206 F 
ATOM     80  C   UNL A   1      44.197  37.274  31.054  1.00  0.00     0.040 A 
ATOM     81  C   UNL A   1      44.397  36.239  33.220  1.00  0.00     0.040 A 
ATOM     82  F   UNL A   1      43.971  33.945  33.468  1.00  0.00    -0.206 F 
ATOM     83  C   UNL A   1      44.479  37.374  32.417  1.00  0.00     0.006 A 
ENDBRANCH  59  76
ENDBRANCH  33  34
ENDBRANCH  25  28
ENDBRANCH  23  24
ENDBRANCH  22  23
ENDBRANCH   1  22
TORSDOF 13
ENDMDL
