MODEL 1
REMARK VINA RESULT:     -13.0      0.000      0.000
REMARK SMILES CCOc1cc2c(cc1/C=C1/C(=O)N(c3cccc(C(=O)NCCCCNC(=O)c4ccc(-c5c6nc(c(-c7c(F)cccc7F)c7ccc([nH]7)c(-c7c(F)cccc7F)c7nc(c(-c8c(F)cccc8F)c8ccc5[nH]8)C=C7)C=C6)cc4)c3)C(=S)N=C1O)OCO2
REMARK SMILES IDX 23 1 22 2 20 3 21 4 19 6 15 7 16 8 84 9 17 10 18 11 14 12
REMARK SMILES IDX 10 13 11 14 12 15 88 16 13 17 87 18 85 19 86 20 9 21 4 22
REMARK SMILES IDX 5 23 6 24 8 25 7 26 92 27 90 28 91 29 3 30 2 31 1 32 89 33
REMARK SMILES IDX 24 35 25 36 26 37 27 38 28 39 29 41 30 42 31 43 83 44 32 45
REMARK SMILES IDX 82 46 33 47 34 48 35 49 76 50 36 51 81 52 75 53 77 54 37 55
REMARK SMILES IDX 80 56 74 57 73 58 38 60 64 61 47 62 63 63 48 64 51 65 62 66
REMARK SMILES IDX 78 67 49 68 50 69 61 71 79 72 52 73 39 74 40 75 45 76 41 77
REMARK SMILES IDX 42 78 44 79 46 80 43 81 65 82 66 83 71 84 67 85 68 86 70 87
REMARK SMILES IDX 72 88 69 89 53 90 54 91 59 92 55 93 56 94 58 95 60 96 57 97
REMARK H PARENT 22 5 89 34 27 40 77 59 51 70
REMARK Flexibility Score: inf
ROOT
ATOM      1  C   UNL A   1      32.828  29.768  26.736  1.00  0.00     0.116 C 
ENDROOT
BRANCH   1   2
ATOM      2  N   UNL A   1      33.529  29.487  25.493  1.00  0.00    -0.352 N 
ATOM      3  C   UNL A   1      33.308  28.536  24.519  1.00  0.00     0.251 C 
ATOM      4  O   UNL A   1      34.060  28.506  23.546  1.00  0.00    -0.269 OA
ATOM      5  H   UNL A   1      34.295  30.080  25.317  1.00  0.00     0.163 HD
BRANCH   3   6
ATOM      6  C   UNL A   1      32.245  27.499  24.647  1.00  0.00     0.041 A 
ATOM      7  C   UNL A   1      31.525  25.195  24.403  1.00  0.00     0.052 A 
ATOM      8  C   UNL A   1      30.190  25.625  24.461  1.00  0.00     0.027 A 
ATOM      9  C   UNL A   1      32.532  26.134  24.652  1.00  0.00     0.040 A 
ATOM     10  C   UNL A   1      29.883  26.976  24.638  1.00  0.00     0.003 A 
ATOM     11  C   UNL A   1      30.910  27.918  24.687  1.00  0.00     0.014 A 
BRANCH   7  12
ATOM     12  N   UNL A   1      31.874  23.863  23.954  1.00  0.00    -0.251 N 
ATOM     13  C   UNL A   1      32.777  20.572  25.298  1.00  0.00     0.031 C 
ATOM     14  C   UNL A   1      32.397  21.505  24.393  1.00  0.00     0.103 C 
ATOM     15  C   UNL A   1      31.955  22.838  24.915  1.00  0.00     0.270 C 
ATOM     16  C   UNL A   1      32.322  21.398  22.941  1.00  0.00     0.226 C 
ATOM     17  O   UNL A   1      31.705  22.975  26.112  1.00  0.00    -0.268 OA
ATOM     18  N   UNL A   1      32.245  22.368  22.116  1.00  0.00    -0.184 NA
ATOM     19  C   UNL A   1      32.267  23.648  22.610  1.00  0.00     0.210 C 
ATOM     20  S   UNL A   1      32.859  24.853  21.560  1.00  0.00    -0.038 S 
BRANCH  13  21
ATOM     21  C   UNL A   1      33.185  19.159  25.106  1.00  0.00     0.021 A 
ATOM     22  C   UNL A   1      34.540  18.836  24.821  1.00  0.00     0.130 A 
ATOM     23  C   UNL A   1      35.006  17.518  24.877  1.00  0.00     0.097 A 
ATOM     24  C   UNL A   1      34.085  16.527  25.102  1.00  0.00     0.169 A 
ATOM     25  C   UNL A   1      32.266  18.102  25.205  1.00  0.00     0.062 A 
ATOM     26  C   UNL A   1      32.748  16.807  25.234  1.00  0.00     0.166 A 
ATOM     27  O   UNL A   1      34.356  15.201  25.214  1.00  0.00    -0.453 OA
ATOM     28  O   UNL A   1      32.006  15.687  25.442  1.00  0.00    -0.454 OA
ATOM     29  C   UNL A   1      33.044  14.686  25.517  1.00  0.00     0.468 C 
BRANCH  22  30
ATOM     30  O   UNL A   1      35.460  19.823  24.549  1.00  0.00    -0.493 OA
BRANCH  30  31
ATOM     31  C   UNL A   1      36.793  19.411  24.911  1.00  0.00     0.226 C 
ATOM     32  C   UNL A   1      37.788  20.562  24.854  1.00  0.00     0.049 C 
ENDBRANCH  30  31
ENDBRANCH  22  30
ENDBRANCH  13  21
BRANCH  16  33
ATOM     33  O   UNL A   1      32.290  20.179  22.407  1.00  0.00    -0.493 OA
ATOM     34  H   UNL A   1      31.742  19.519  22.780  1.00  0.00     0.295 HD
ENDBRANCH  16  33
ENDBRANCH   7  12
ENDBRANCH   3   6
ENDBRANCH   1   2
BRANCH   1  35
ATOM     35  C   UNL A   1      31.471  30.438  26.576  1.00  0.00     0.023 C 
BRANCH  35  36
ATOM     36  C   UNL A   1      31.462  31.959  26.537  1.00  0.00     0.023 C 
BRANCH  36  37
ATOM     37  C   UNL A   1      32.630  32.657  27.223  1.00  0.00     0.116 C 
BRANCH  37  38
ATOM     38  N   UNL A   1      32.343  34.021  27.642  1.00  0.00    -0.352 N 
ATOM     39  C   UNL A   1      33.009  34.840  28.528  1.00  0.00     0.251 C 
ATOM     40  H   UNL A   1      31.546  34.423  27.227  1.00  0.00     0.163 HD
ATOM     41  O   UNL A   1      32.553  35.942  28.792  1.00  0.00    -0.269 OA
BRANCH  39  42
ATOM     42  C   UNL A   1      34.248  34.373  29.196  1.00  0.00     0.039 A 
ATOM     43  C   UNL A   1      34.127  33.659  30.392  1.00  0.00     0.014 A 
ATOM     44  C   UNL A   1      35.512  34.622  28.658  1.00  0.00     0.014 A 
ATOM     45  C   UNL A   1      35.268  33.129  31.000  1.00  0.00     0.010 A 
ATOM     46  C   UNL A   1      36.636  34.016  29.216  1.00  0.00     0.010 A 
ATOM     47  C   UNL A   1      36.527  33.262  30.393  1.00  0.00    -0.014 A 
BRANCH  47  48
ATOM     48  C   UNL A   1      37.721  32.595  30.975  1.00  0.00     0.031 A 
ATOM     49  C   UNL A   1      38.308  33.060  32.279  1.00  0.00     0.074 A 
ATOM     50  C   UNL A   1      38.305  31.583  30.301  1.00  0.00     0.049 A 
ATOM     51  N   UNL A   1      39.322  32.572  32.949  1.00  0.00    -0.248 NA
ATOM     52  C   UNL A   1      37.693  34.243  32.903  1.00  0.00     0.031 C 
ATOM     53  C   UNL A   1      37.884  31.087  28.989  1.00  0.00     0.029 A 
ATOM     54  N   UNL A   1      39.374  30.787  30.628  1.00  0.00    -0.354 N 
ATOM     55  C   UNL A   1      39.469  33.389  34.063  1.00  0.00     0.074 A 
ATOM     56  C   UNL A   1      38.481  34.439  33.948  1.00  0.00     0.031 C 
ATOM     57  C   UNL A   1      38.657  30.046  28.642  1.00  0.00     0.029 A 
ATOM     58  C   UNL A   1      39.645  29.818  29.692  1.00  0.00     0.049 A 
ATOM     59  H   UNL A   1      39.897  30.899  31.454  1.00  0.00     0.167 HD
ATOM     60  C   UNL A   1      40.329  33.261  35.103  1.00  0.00     0.037 A 
ATOM     61  C   UNL A   1      40.577  28.847  29.685  1.00  0.00     0.037 A 
ATOM     62  C   UNL A   1      41.302  32.206  35.223  1.00  0.00     0.049 A 
ATOM     63  C   UNL A   1      41.502  28.709  30.861  1.00  0.00     0.074 A 
ATOM     64  C   UNL A   1      42.176  31.954  36.267  1.00  0.00     0.029 A 
ATOM     65  N   UNL A   1      41.533  31.231  34.265  1.00  0.00    -0.354 N 
ATOM     66  N   UNL A   1      41.568  29.434  31.951  1.00  0.00    -0.248 NA
ATOM     67  C   UNL A   1      42.471  27.607  30.812  1.00  0.00     0.031 C 
ATOM     68  C   UNL A   1      42.967  30.852  35.920  1.00  0.00     0.029 A 
ATOM     69  C   UNL A   1      42.550  30.386  34.684  1.00  0.00     0.049 A 
ATOM     70  H   UNL A   1      41.046  31.150  33.413  1.00  0.00     0.167 HD
ATOM     71  C   UNL A   1      42.566  28.863  32.729  1.00  0.00     0.074 A 
ATOM     72  C   UNL A   1      43.059  27.715  31.995  1.00  0.00     0.031 C 
ATOM     73  C   UNL A   1      43.035  29.251  33.939  1.00  0.00     0.037 A 
BRANCH  60  74
ATOM     74  C   UNL A   1      40.249  34.288  36.197  1.00  0.00     0.057 A 
ATOM     75  C   UNL A   1      40.924  35.514  36.110  1.00  0.00     0.134 A 
ATOM     76  C   UNL A   1      39.466  34.064  37.335  1.00  0.00     0.134 A 
ATOM     77  F   UNL A   1      41.702  35.788  35.052  1.00  0.00    -0.206 F 
ATOM     78  C   UNL A   1      40.846  36.466  37.127  1.00  0.00     0.040 A 
ATOM     79  C   UNL A   1      39.356  35.021  38.347  1.00  0.00     0.040 A 
ATOM     80  F   UNL A   1      38.789  32.916  37.483  1.00  0.00    -0.206 F 
ATOM     81  C   UNL A   1      40.053  36.223  38.248  1.00  0.00     0.006 A 
ENDBRANCH  60  74
BRANCH  61  82
ATOM     82  C   UNL A   1      40.656  27.899  28.543  1.00  0.00     0.057 A 
ATOM     83  C   UNL A   1      41.463  28.170  27.432  1.00  0.00     0.134 A 
ATOM     84  C   UNL A   1      39.921  26.707  28.531  1.00  0.00     0.134 A 
ATOM     85  F   UNL A   1      42.177  29.304  27.377  1.00  0.00    -0.206 F 
ATOM     86  C   UNL A   1      41.520  27.303  26.340  1.00  0.00     0.040 A 
ATOM     87  C   UNL A   1      39.990  25.818  27.457  1.00  0.00     0.040 A 
ATOM     88  F   UNL A   1      39.136  26.384  29.569  1.00  0.00    -0.206 F 
ATOM     89  C   UNL A   1      40.785  26.120  26.353  1.00  0.00     0.006 A 
ENDBRANCH  61  82
BRANCH  73  90
ATOM     90  C   UNL A   1      44.117  28.410  34.552  1.00  0.00     0.057 A 
ATOM     91  C   UNL A   1      45.476  28.672  34.333  1.00  0.00     0.134 A 
ATOM     92  C   UNL A   1      43.795  27.319  35.371  1.00  0.00     0.134 A 
ATOM     93  F   UNL A   1      45.853  29.694  33.548  1.00  0.00    -0.206 F 
ATOM     94  C   UNL A   1      46.474  27.858  34.872  1.00  0.00     0.040 A 
ATOM     95  C   UNL A   1      44.785  26.517  35.942  1.00  0.00     0.040 A 
ATOM     96  F   UNL A   1      42.515  27.017  35.633  1.00  0.00    -0.206 F 
ATOM     97  C   UNL A   1      46.128  26.779  35.681  1.00  0.00     0.006 A 
ENDBRANCH  73  90
ENDBRANCH  47  48
ENDBRANCH  39  42
ENDBRANCH  37  38
ENDBRANCH  36  37
ENDBRANCH  35  36
ENDBRANCH   1  35
TORSDOF 16
ENDMDL
MODEL 2
REMARK VINA RESULT:     -12.9      4.584      8.224
REMARK SMILES CCOc1cc2c(cc1/C=C1/C(=O)N(c3cccc(C(=O)NCCCCNC(=O)c4ccc(-c5c6nc(c(-c7c(F)cccc7F)c7ccc([nH]7)c(-c7c(F)cccc7F)c7nc(c(-c8c(F)cccc8F)c8ccc5[nH]8)C=C7)C=C6)cc4)c3)C(=S)N=C1O)OCO2
REMARK SMILES IDX 23 1 22 2 20 3 21 4 19 6 15 7 16 8 84 9 17 10 18 11 14 12
REMARK SMILES IDX 10 13 11 14 12 15 88 16 13 17 87 18 85 19 86 20 9 21 4 22
REMARK SMILES IDX 5 23 6 24 8 25 7 26 92 27 90 28 91 29 3 30 2 31 1 32 89 33
REMARK SMILES IDX 24 35 25 36 26 37 27 38 28 39 29 41 30 42 31 43 83 44 32 45
REMARK SMILES IDX 82 46 33 47 34 48 35 49 76 50 36 51 81 52 75 53 77 54 37 55
REMARK SMILES IDX 80 56 74 57 73 58 38 60 64 61 47 62 63 63 48 64 51 65 62 66
REMARK SMILES IDX 78 67 49 68 50 69 61 71 79 72 52 73 39 74 40 75 45 76 41 77
REMARK SMILES IDX 42 78 44 79 46 80 43 81 65 82 66 83 71 84 67 85 68 86 70 87
REMARK SMILES IDX 72 88 69 89 53 90 54 91 59 92 55 93 56 94 58 95 60 96 57 97
REMARK H PARENT 22 5 89 34 27 40 77 59 51 70
REMARK Flexibility Score: inf
ROOT
ATOM      1  C   UNL A   1      32.146  28.842  27.230  1.00  0.00     0.116 C 
ENDROOT
BRANCH   1   2
ATOM      2  N   UNL A   1      31.787  30.199  26.848  1.00  0.00    -0.352 N 
ATOM      3  C   UNL A   1      31.107  30.686  25.749  1.00  0.00     0.251 C 
ATOM      4  O   UNL A   1      30.931  31.900  25.658  1.00  0.00    -0.269 OA
ATOM      5  H   UNL A   1      32.081  30.891  27.483  1.00  0.00     0.163 HD
BRANCH   3   6
ATOM      6  C   UNL A   1      30.654  29.800  24.640  1.00  0.00     0.041 A 
ATOM      7  C   UNL A   1      30.920  27.769  23.340  1.00  0.00     0.052 A 
ATOM      8  C   UNL A   1      30.125  28.333  22.330  1.00  0.00     0.027 A 
ATOM      9  C   UNL A   1      31.043  28.463  24.548  1.00  0.00     0.040 A 
ATOM     10  C   UNL A   1      29.575  29.608  22.484  1.00  0.00     0.003 A 
ATOM     11  C   UNL A   1      29.876  30.358  23.619  1.00  0.00     0.014 A 
BRANCH   7  12
ATOM     12  N   UNL A   1      31.717  26.583  23.103  1.00  0.00    -0.251 N 
ATOM     13  C   UNL A   1      31.884  23.048  24.068  1.00  0.00     0.031 C 
ATOM     14  C   UNL A   1      32.148  24.182  23.375  1.00  0.00     0.103 C 
ATOM     15  C   UNL A   1      31.237  25.352  23.586  1.00  0.00     0.270 C 
ATOM     16  C   UNL A   1      33.202  24.437  22.401  1.00  0.00     0.226 C 
ATOM     17  O   UNL A   1      30.159  25.194  24.158  1.00  0.00    -0.268 OA
ATOM     18  N   UNL A   1      33.594  25.582  21.995  1.00  0.00    -0.184 NA
ATOM     19  C   UNL A   1      33.010  26.700  22.536  1.00  0.00     0.210 C 
ATOM     20  S   UNL A   1      33.958  28.117  22.545  1.00  0.00    -0.038 S 
BRANCH  13  21
ATOM     21  C   UNL A   1      32.543  21.720  24.022  1.00  0.00     0.021 A 
ATOM     22  C   UNL A   1      33.593  21.409  24.928  1.00  0.00     0.130 A 
ATOM     23  C   UNL A   1      34.066  20.100  25.079  1.00  0.00     0.097 A 
ATOM     24  C   UNL A   1      33.562  19.142  24.238  1.00  0.00     0.169 A 
ATOM     25  C   UNL A   1      32.154  20.732  23.103  1.00  0.00     0.062 A 
ATOM     26  C   UNL A   1      32.652  19.453  23.259  1.00  0.00     0.166 A 
ATOM     27  O   UNL A   1      33.881  17.821  24.256  1.00  0.00    -0.453 OA
ATOM     28  O   UNL A   1      32.288  18.363  22.531  1.00  0.00    -0.454 OA
ATOM     29  C   UNL A   1      33.003  17.321  23.228  1.00  0.00     0.468 C 
BRANCH  22  30
ATOM     30  O   UNL A   1      34.135  22.377  25.742  1.00  0.00    -0.493 OA
BRANCH  30  31
ATOM     31  C   UNL A   1      35.324  22.946  25.159  1.00  0.00     0.226 C 
ATOM     32  C   UNL A   1      35.406  24.452  25.369  1.00  0.00     0.049 C 
ENDBRANCH  30  31
ENDBRANCH  22  30
ENDBRANCH  13  21
BRANCH  16  33
ATOM     33  O   UNL A   1      33.798  23.388  21.839  1.00  0.00    -0.493 OA
ATOM     34  H   UNL A   1      33.633  23.181  20.941  1.00  0.00     0.295 HD
ENDBRANCH  16  33
ENDBRANCH   7  12
ENDBRANCH   3   6
ENDBRANCH   1   2
BRANCH   1  35
ATOM     35  C   UNL A   1      33.481  28.351  26.690  1.00  0.00     0.023 C 
BRANCH  35  36
ATOM     36  C   UNL A   1      34.724  28.766  27.463  1.00  0.00     0.023 C 
BRANCH  36  37
ATOM     37  C   UNL A   1      35.005  30.262  27.535  1.00  0.00     0.116 C 
BRANCH  37  38
ATOM     38  N   UNL A   1      35.048  30.793  28.889  1.00  0.00    -0.352 N 
ATOM     39  C   UNL A   1      36.045  30.731  29.839  1.00  0.00     0.251 C 
ATOM     40  H   UNL A   1      34.237  31.272  29.172  1.00  0.00     0.163 HD
ATOM     41  O   UNL A   1      35.847  31.191  30.953  1.00  0.00    -0.269 OA
BRANCH  39  42
ATOM     42  C   UNL A   1      37.336  30.071  29.530  1.00  0.00     0.039 A 
ATOM     43  C   UNL A   1      37.862  30.213  28.243  1.00  0.00     0.014 A 
ATOM     44  C   UNL A   1      38.030  29.328  30.488  1.00  0.00     0.014 A 
ATOM     45  C   UNL A   1      39.118  29.679  27.946  1.00  0.00     0.010 A 
ATOM     46  C   UNL A   1      39.320  28.876  30.216  1.00  0.00     0.010 A 
ATOM     47  C   UNL A   1      39.879  29.047  28.943  1.00  0.00    -0.014 A 
BRANCH  47  48
ATOM     48  C   UNL A   1      41.264  28.587  28.659  1.00  0.00     0.031 A 
ATOM     49  C   UNL A   1      41.542  27.160  28.273  1.00  0.00     0.074 A 
ATOM     50  C   UNL A   1      42.287  29.457  28.787  1.00  0.00     0.049 A 
ATOM     51  N   UNL A   1      42.681  26.597  27.956  1.00  0.00    -0.248 NA
ATOM     52  C   UNL A   1      40.396  26.237  28.266  1.00  0.00     0.031 C 
ATOM     53  C   UNL A   1      42.163  30.847  29.231  1.00  0.00     0.029 A 
ATOM     54  N   UNL A   1      43.630  29.303  28.553  1.00  0.00    -0.354 N 
ATOM     55  C   UNL A   1      42.390  25.260  27.720  1.00  0.00     0.074 A 
ATOM     56  C   UNL A   1      40.981  25.081  27.989  1.00  0.00     0.031 C 
ATOM     57  C   UNL A   1      43.371  31.430  29.195  1.00  0.00     0.029 A 
ATOM     58  C   UNL A   1      44.359  30.450  28.755  1.00  0.00     0.049 A 
ATOM     59  H   UNL A   1      44.033  28.453  28.267  1.00  0.00     0.167 HD
ATOM     60  C   UNL A   1      43.215  24.274  27.290  1.00  0.00     0.037 A 
ATOM     61  C   UNL A   1      45.674  30.690  28.592  1.00  0.00     0.037 A 
ATOM     62  C   UNL A   1      44.616  24.457  27.007  1.00  0.00     0.049 A 
ATOM     63  C   UNL A   1      46.563  29.588  28.090  1.00  0.00     0.074 A 
ATOM     64  C   UNL A   1      45.522  23.536  26.508  1.00  0.00     0.029 A 
ATOM     65  N   UNL A   1      45.315  25.638  27.204  1.00  0.00    -0.354 N 
ATOM     66  N   UNL A   1      46.256  28.352  27.781  1.00  0.00    -0.248 NA
ATOM     67  C   UNL A   1      47.980  29.922  27.895  1.00  0.00     0.031 C 
ATOM     68  C   UNL A   1      46.779  24.149  26.446  1.00  0.00     0.029 A 
ATOM     69  C   UNL A   1      46.645  25.465  26.856  1.00  0.00     0.049 A 
ATOM     70  H   UNL A   1      44.922  26.475  27.542  1.00  0.00     0.167 HD
ATOM     71  C   UNL A   1      47.433  27.767  27.335  1.00  0.00     0.074 A 
ATOM     72  C   UNL A   1      48.454  28.793  27.387  1.00  0.00     0.031 C 
ATOM     73  C   UNL A   1      47.652  26.495  26.920  1.00  0.00     0.037 A 
BRANCH  60  74
ATOM     74  C   UNL A   1      42.618  22.909  27.093  1.00  0.00     0.057 A 
ATOM     75  C   UNL A   1      42.391  22.379  25.814  1.00  0.00     0.134 A 
ATOM     76  C   UNL A   1      42.296  22.102  28.190  1.00  0.00     0.134 A 
ATOM     77  F   UNL A   1      42.666  23.104  24.719  1.00  0.00    -0.206 F 
ATOM     78  C   UNL A   1      41.838  21.111  25.636  1.00  0.00     0.040 A 
ATOM     79  C   UNL A   1      41.769  20.819  28.024  1.00  0.00     0.040 A 
ATOM     80  F   UNL A   1      42.492  22.542  29.442  1.00  0.00    -0.206 F 
ATOM     81  C   UNL A   1      41.532  20.323  26.744  1.00  0.00     0.006 A 
ENDBRANCH  60  74
BRANCH  61  82
ATOM     82  C   UNL A   1      46.223  32.042  28.867  1.00  0.00     0.057 A 
ATOM     83  C   UNL A   1      46.287  33.015  27.862  1.00  0.00     0.134 A 
ATOM     84  C   UNL A   1      46.704  32.393  30.134  1.00  0.00     0.134 A 
ATOM     85  F   UNL A   1      45.858  32.734  26.623  1.00  0.00    -0.206 F 
ATOM     86  C   UNL A   1      46.830  34.279  28.099  1.00  0.00     0.040 A 
ATOM     87  C   UNL A   1      47.225  33.662  30.393  1.00  0.00     0.040 A 
ATOM     88  F   UNL A   1      46.663  31.510  31.143  1.00  0.00    -0.206 F 
ATOM     89  C   UNL A   1      47.296  34.607  29.370  1.00  0.00     0.006 A 
ENDBRANCH  61  82
BRANCH  73  90
ATOM     90  C   UNL A   1      49.043  26.158  26.466  1.00  0.00     0.057 A 
ATOM     91  C   UNL A   1      49.952  25.485  27.294  1.00  0.00     0.134 A 
ATOM     92  C   UNL A   1      49.481  26.512  25.183  1.00  0.00     0.134 A 
ATOM     93  F   UNL A   1      49.600  25.128  28.539  1.00  0.00    -0.206 F 
ATOM     94  C   UNL A   1      51.256  25.214  26.879  1.00  0.00     0.040 A 
ATOM     95  C   UNL A   1      50.773  26.219  24.745  1.00  0.00     0.040 A 
ATOM     96  F   UNL A   1      48.660  27.149  24.334  1.00  0.00    -0.206 F 
ATOM     97  C   UNL A   1      51.669  25.579  25.599  1.00  0.00     0.006 A 
ENDBRANCH  73  90
ENDBRANCH  47  48
ENDBRANCH  39  42
ENDBRANCH  37  38
ENDBRANCH  36  37
ENDBRANCH  35  36
ENDBRANCH   1  35
TORSDOF 16
ENDMDL
MODEL 3
REMARK VINA RESULT:     -12.9      6.169      9.526
REMARK SMILES CCOc1cc2c(cc1/C=C1/C(=O)N(c3cccc(C(=O)NCCCCNC(=O)c4ccc(-c5c6nc(c(-c7c(F)cccc7F)c7ccc([nH]7)c(-c7c(F)cccc7F)c7nc(c(-c8c(F)cccc8F)c8ccc5[nH]8)C=C7)C=C6)cc4)c3)C(=S)N=C1O)OCO2
REMARK SMILES IDX 23 1 22 2 20 3 21 4 19 6 15 7 16 8 84 9 17 10 18 11 14 12
REMARK SMILES IDX 10 13 11 14 12 15 88 16 13 17 87 18 85 19 86 20 9 21 4 22
REMARK SMILES IDX 5 23 6 24 8 25 7 26 92 27 90 28 91 29 3 30 2 31 1 32 89 33
REMARK SMILES IDX 24 35 25 36 26 37 27 38 28 39 29 41 30 42 31 43 83 44 32 45
REMARK SMILES IDX 82 46 33 47 34 48 35 49 76 50 36 51 81 52 75 53 77 54 37 55
REMARK SMILES IDX 80 56 74 57 73 58 38 60 64 61 47 62 63 63 48 64 51 65 62 66
REMARK SMILES IDX 78 67 49 68 50 69 61 71 79 72 52 73 39 74 40 75 45 76 41 77
REMARK SMILES IDX 42 78 44 79 46 80 43 81 65 82 66 83 71 84 67 85 68 86 70 87
REMARK SMILES IDX 72 88 69 89 53 90 54 91 59 92 55 93 56 94 58 95 60 96 57 97
REMARK H PARENT 22 5 89 34 27 40 77 59 51 70
REMARK Flexibility Score: inf
ROOT
ATOM      1  C   UNL A   1      35.220  33.744  29.965  1.00  0.00     0.116 C 
ENDROOT
BRANCH   1   2
ATOM      2  N   UNL A   1      36.608  34.096  29.711  1.00  0.00    -0.352 N 
ATOM      3  C   UNL A   1      37.668  33.343  29.247  1.00  0.00     0.251 C 
ATOM      4  O   UNL A   1      38.763  33.887  29.119  1.00  0.00    -0.269 OA
ATOM      5  H   UNL A   1      36.831  35.035  29.905  1.00  0.00     0.163 HD
BRANCH   3   6
ATOM      6  C   UNL A   1      37.545  31.883  28.976  1.00  0.00     0.041 A 
ATOM      7  C   UNL A   1      38.585  29.706  28.720  1.00  0.00     0.052 A 
ATOM      8  C   UNL A   1      37.433  29.253  28.059  1.00  0.00     0.027 A 
ATOM      9  C   UNL A   1      38.555  30.977  29.302  1.00  0.00     0.040 A 
ATOM     10  C   UNL A   1      36.334  30.098  27.882  1.00  0.00     0.003 A 
ATOM     11  C   UNL A   1      36.408  31.425  28.301  1.00  0.00     0.014 A 
BRANCH   7  12
ATOM     12  N   UNL A   1      39.824  28.957  28.682  1.00  0.00    -0.251 N 
ATOM     13  C   UNL A   1      42.355  27.797  26.293  1.00  0.00     0.031 C 
ATOM     14  C   UNL A   1      41.784  28.085  27.487  1.00  0.00     0.103 C 
ATOM     15  C   UNL A   1      40.554  28.943  27.480  1.00  0.00     0.270 C 
ATOM     16  C   UNL A   1      42.212  27.700  28.826  1.00  0.00     0.226 C 
ATOM     17  O   UNL A   1      40.245  29.561  26.461  1.00  0.00    -0.268 OA
ATOM     18  N   UNL A   1      41.503  27.739  29.886  1.00  0.00    -0.184 NA
ATOM     19  C   UNL A   1      40.196  28.144  29.781  1.00  0.00     0.210 C 
ATOM     20  S   UNL A   1      39.122  27.546  30.962  1.00  0.00    -0.038 S 
BRANCH  13  21
ATOM     21  C   UNL A   1      43.598  27.051  25.979  1.00  0.00     0.021 A 
ATOM     22  C   UNL A   1      43.566  25.639  25.821  1.00  0.00     0.130 A 
ATOM     23  C   UNL A   1      44.654  24.938  25.289  1.00  0.00     0.097 A 
ATOM     24  C   UNL A   1      45.801  25.644  25.031  1.00  0.00     0.169 A 
ATOM     25  C   UNL A   1      44.831  27.703  25.819  1.00  0.00     0.062 A 
ATOM     26  C   UNL A   1      45.897  26.983  25.314  1.00  0.00     0.166 A 
ATOM     27  O   UNL A   1      46.941  25.138  24.491  1.00  0.00    -0.453 OA
ATOM     28  O   UNL A   1      47.118  27.489  24.992  1.00  0.00    -0.454 OA
ATOM     29  C   UNL A   1      47.740  26.334  24.389  1.00  0.00     0.468 C 
BRANCH  22  30
ATOM     30  O   UNL A   1      42.433  24.919  26.122  1.00  0.00    -0.493 OA
BRANCH  30  31
ATOM     31  C   UNL A   1      42.574  24.220  27.375  1.00  0.00     0.226 C 
ATOM     32  C   UNL A   1      41.265  24.154  28.150  1.00  0.00     0.049 C 
ENDBRANCH  30  31
ENDBRANCH  22  30
ENDBRANCH  13  21
BRANCH  16  33
ATOM     33  O   UNL A   1      43.473  27.304  28.987  1.00  0.00    -0.493 OA
ATOM     34  H   UNL A   1      43.874  27.350  29.832  1.00  0.00     0.295 HD
ENDBRANCH  16  33
ENDBRANCH   7  12
ENDBRANCH   3   6
ENDBRANCH   1   2
BRANCH   1  35
ATOM     35  C   UNL A   1      34.750  33.958  31.396  1.00  0.00     0.023 C 
BRANCH  35  36
ATOM     36  C   UNL A   1      35.507  33.205  32.482  1.00  0.00     0.023 C 
BRANCH  36  37
ATOM     37  C   UNL A   1      36.383  34.049  33.400  1.00  0.00     0.116 C 
BRANCH  37  38
ATOM     38  N   UNL A   1      36.511  33.520  34.749  1.00  0.00    -0.352 N 
ATOM     39  C   UNL A   1      37.432  32.642  35.278  1.00  0.00     0.251 C 
ATOM     40  H   UNL A   1      35.831  33.839  35.385  1.00  0.00     0.163 HD
ATOM     41  O   UNL A   1      37.317  32.270  36.435  1.00  0.00    -0.269 OA
BRANCH  39  42
ATOM     42  C   UNL A   1      38.534  32.114  34.439  1.00  0.00     0.039 A 
ATOM     43  C   UNL A   1      39.830  32.582  34.675  1.00  0.00     0.014 A 
ATOM     44  C   UNL A   1      38.308  31.167  33.437  1.00  0.00     0.014 A 
ATOM     45  C   UNL A   1      40.903  32.040  33.963  1.00  0.00     0.010 A 
ATOM     46  C   UNL A   1      39.387  30.564  32.794  1.00  0.00     0.010 A 
ATOM     47  C   UNL A   1      40.697  30.992  33.049  1.00  0.00    -0.014 A 
BRANCH  47  48
ATOM     48  C   UNL A   1      41.850  30.333  32.383  1.00  0.00     0.031 A 
ATOM     49  C   UNL A   1      42.484  30.936  31.160  1.00  0.00     0.074 A 
ATOM     50  C   UNL A   1      42.306  29.158  32.863  1.00  0.00     0.049 A 
ATOM     51  N   UNL A   1      43.518  30.516  30.473  1.00  0.00    -0.248 NA
ATOM     52  C   UNL A   1      41.863  32.157  30.620  1.00  0.00     0.031 C 
ATOM     53  C   UNL A   1      41.730  28.427  33.994  1.00  0.00     0.029 A 
ATOM     54  N   UNL A   1      43.361  28.375  32.465  1.00  0.00    -0.354 N 
ATOM     55  C   UNL A   1      43.665  31.414  29.423  1.00  0.00     0.074 A 
ATOM     56  C   UNL A   1      42.580  32.364  29.526  1.00  0.00     0.031 C 
ATOM     57  C   UNL A   1      42.463  27.326  34.225  1.00  0.00     0.029 A 
ATOM     58  C   UNL A   1      43.541  27.258  33.245  1.00  0.00     0.049 A 
ATOM     59  H   UNL A   1      43.933  28.593  31.696  1.00  0.00     0.167 HD
ATOM     60  C   UNL A   1      44.633  31.460  28.475  1.00  0.00     0.037 A 
ATOM     61  C   UNL A   1      44.477  26.293  33.184  1.00  0.00     0.037 A 
ATOM     62  C   UNL A   1      45.721  30.522  28.383  1.00  0.00     0.049 A 
ATOM     63  C   UNL A   1      45.554  26.380  32.140  1.00  0.00     0.074 A 
ATOM     64  C   UNL A   1      46.786  30.520  27.497  1.00  0.00     0.029 A 
ATOM     65  N   UNL A   1      45.883  29.415  29.202  1.00  0.00    -0.354 N 
ATOM     66  N   UNL A   1      45.734  27.286  31.210  1.00  0.00    -0.248 NA
ATOM     67  C   UNL A   1      46.570  25.319  32.150  1.00  0.00     0.031 C 
ATOM     68  C   UNL A   1      47.566  29.386  27.752  1.00  0.00     0.029 A 
ATOM     69  C   UNL A   1      47.018  28.711  28.831  1.00  0.00     0.049 A 
ATOM     70  H   UNL A   1      45.279  29.167  29.940  1.00  0.00     0.167 HD
ATOM     71  C   UNL A   1      46.893  26.920  30.540  1.00  0.00     0.074 A 
ATOM     72  C   UNL A   1      47.388  25.723  31.188  1.00  0.00     0.031 C 
ATOM     73  C   UNL A   1      47.494  27.517  29.482  1.00  0.00     0.037 A 
BRANCH  60  74
ATOM     74  C   UNL A   1      44.557  32.569  27.463  1.00  0.00     0.057 A 
ATOM     75  C   UNL A   1      45.109  33.835  27.712  1.00  0.00     0.134 A 
ATOM     76  C   UNL A   1      43.956  32.363  26.216  1.00  0.00     0.134 A 
ATOM     77  F   UNL A   1      45.689  34.103  28.892  1.00  0.00    -0.206 F 
ATOM     78  C   UNL A   1      45.038  34.861  26.770  1.00  0.00     0.040 A 
ATOM     79  C   UNL A   1      43.905  33.374  25.253  1.00  0.00     0.040 A 
ATOM     80  F   UNL A   1      43.414  31.176  25.908  1.00  0.00    -0.206 F 
ATOM     81  C   UNL A   1      44.441  34.630  25.532  1.00  0.00     0.006 A 
ENDBRANCH  60  74
BRANCH  61  82
ATOM     82  C   UNL A   1      44.464  25.181  34.169  1.00  0.00     0.057 A 
ATOM     83  C   UNL A   1      44.937  25.365  35.474  1.00  0.00     0.134 A 
ATOM     84  C   UNL A   1      43.989  23.908  33.830  1.00  0.00     0.134 A 
ATOM     85  F   UNL A   1      45.422  26.556  35.854  1.00  0.00    -0.206 F 
ATOM     86  C   UNL A   1      44.960  24.320  36.399  1.00  0.00     0.040 A 
ATOM     87  C   UNL A   1      43.981  22.861  34.753  1.00  0.00     0.040 A 
ATOM     88  F   UNL A   1      43.514  23.669  32.599  1.00  0.00    -0.206 F 
ATOM     89  C   UNL A   1      44.475  23.064  36.040  1.00  0.00     0.006 A 
ENDBRANCH  61  82
BRANCH  73  90
ATOM     90  C   UNL A   1      48.767  26.895  28.983  1.00  0.00     0.057 A 
ATOM     91  C   UNL A   1      50.027  27.360  29.384  1.00  0.00     0.134 A 
ATOM     92  C   UNL A   1      48.732  25.818  28.088  1.00  0.00     0.134 A 
ATOM     93  F   UNL A   1      50.131  28.397  30.230  1.00  0.00    -0.206 F 
ATOM     94  C   UNL A   1      51.205  26.804  28.882  1.00  0.00     0.040 A 
ATOM     95  C   UNL A   1      49.903  25.233  27.603  1.00  0.00     0.040 A 
ATOM     96  F   UNL A   1      47.561  25.315  27.671  1.00  0.00    -0.206 F 
ATOM     97  C   UNL A   1      51.144  25.735  27.991  1.00  0.00     0.006 A 
ENDBRANCH  73  90
ENDBRANCH  47  48
ENDBRANCH  39  42
ENDBRANCH  37  38
ENDBRANCH  36  37
ENDBRANCH  35  36
ENDBRANCH   1  35
TORSDOF 16
ENDMDL
