MODEL 1
REMARK VINA RESULT:     -13.3      0.000      0.000
REMARK SMILES COc1cc2c(cc1OC)[C@H](C(=O)NCCCCNC(=O)c1ccc(-c3c4nc(c(-c5c(F)cccc5F)c5ccc([nH]5)c(-c5c(F)cccc5F)c5nc(c(-c6c(F)cccc6F)c6ccc3[nH]6)C=C5)C=C4)cc1)[C@H](c1cccc(Cl)c1)N(C)C2=O
REMARK SMILES IDX 17 1 16 2 15 3 14 4 12 5 13 6 11 8 3 9 4 10 8 11 5 12 7 13
REMARK SMILES IDX 6 14 86 15 84 16 87 17 76 18 85 19 2 20 1 21 9 22 10 23
REMARK SMILES IDX 77 24 78 25 83 26 79 27 81 28 80 29 82 30 18 31 19 32 20 33
REMARK SMILES IDX 21 35 22 36 23 37 75 38 24 39 74 40 25 41 26 42 27 43 68 44
REMARK SMILES IDX 28 45 73 46 67 47 69 48 29 49 72 50 66 51 65 52 30 54 56 55
REMARK SMILES IDX 39 56 55 57 40 58 43 59 54 60 70 61 41 62 42 63 53 65 71 66
REMARK SMILES IDX 44 67 31 68 32 69 37 70 33 71 34 72 36 73 38 74 35 75 57 76
REMARK SMILES IDX 58 77 63 78 59 79 60 80 62 81 64 82 61 83 45 84 46 85 51 86
REMARK SMILES IDX 47 87 48 88 50 89 52 90 49 91
REMARK H PARENT 14 7 19 34 69 53 43 64
REMARK Flexibility Score: inf
ROOT
ATOM      1  C   UNL A   1      31.856  31.977  26.865  1.00  0.00     0.023 C 
ENDROOT
BRANCH   1   2
ATOM      2  C   UNL A   1      32.403  30.718  26.213  1.00  0.00     0.023 C 
BRANCH   2   3
ATOM      3  C   UNL A   1      33.335  29.871  27.088  1.00  0.00     0.116 C 
BRANCH   3   4
ATOM      4  N   UNL A   1      32.631  28.675  27.504  1.00  0.00    -0.355 N 
ATOM      5  C   UNL A   1      32.320  27.512  26.888  1.00  0.00     0.230 C 
ATOM      6  O   UNL A   1      31.525  26.805  27.530  1.00  0.00    -0.274 OA
ATOM      7  H   UNL A   1      32.311  28.718  28.434  1.00  0.00     0.163 HD
BRANCH   5   8
ATOM      8  C   UNL A   1      32.925  26.924  25.617  1.00  0.00     0.136 C 
ATOM      9  C   UNL A   1      32.590  22.775  24.457  1.00  0.00     0.161 A 
ATOM     10  C   UNL A   1      32.837  23.764  23.505  1.00  0.00     0.064 A 
ATOM     11  C   UNL A   1      32.701  23.085  25.814  1.00  0.00     0.161 A 
ATOM     12  C   UNL A   1      33.058  25.083  23.915  1.00  0.00     0.048 A 
ATOM     13  C   UNL A   1      32.980  24.409  26.192  1.00  0.00     0.056 A 
ATOM     14  C   UNL A   1      32.949  25.449  25.268  1.00  0.00    -0.016 A 
ATOM     15  C   UNL A   1      33.489  26.098  22.909  1.00  0.00     0.254 C 
ATOM     16  N   UNL A   1      33.266  27.427  23.248  1.00  0.00    -0.333 N 
ATOM     17  O   UNL A   1      34.010  25.738  21.860  1.00  0.00    -0.269 OA
ATOM     18  C   UNL A   1      32.403  27.757  24.395  1.00  0.00     0.132 C 
ATOM     19  C   UNL A   1      33.716  28.484  22.362  1.00  0.00     0.147 C 
BRANCH   9  20
ATOM     20  O   UNL A   1      32.185  21.542  24.032  1.00  0.00    -0.493 OA
ATOM     21  C   UNL A   1      32.044  21.495  22.615  1.00  0.00     0.278 C 
ENDBRANCH   9  20
BRANCH  11  22
ATOM     22  O   UNL A   1      32.578  22.222  26.871  1.00  0.00    -0.493 OA
ATOM     23  C   UNL A   1      33.787  21.754  27.467  1.00  0.00     0.278 C 
ENDBRANCH  11  22
BRANCH  18  24
ATOM     24  C   UNL A   1      30.906  27.629  24.039  1.00  0.00    -0.023 A 
ATOM     25  C   UNL A   1      30.163  26.521  24.485  1.00  0.00     0.006 A 
ATOM     26  C   UNL A   1      30.205  28.614  23.311  1.00  0.00     0.026 A 
ATOM     27  C   UNL A   1      28.808  26.371  24.158  1.00  0.00     0.002 A 
ATOM     28  C   UNL A   1      28.853  28.466  22.992  1.00  0.00     0.041 A 
ATOM     29  C   UNL A   1      28.155  27.341  23.403  1.00  0.00     0.020 A 
ATOM     30  Cl  UNL A   1      28.050  29.694  22.092  1.00  0.00    -0.084 Cl
ENDBRANCH  18  24
ENDBRANCH   5   8
ENDBRANCH   3   4
ENDBRANCH   2   3
ENDBRANCH   1   2
BRANCH   1  31
ATOM     31  C   UNL A   1      32.920  32.861  27.496  1.00  0.00     0.116 C 
BRANCH  31  32
ATOM     32  N   UNL A   1      32.478  34.222  27.778  1.00  0.00    -0.352 N 
ATOM     33  C   UNL A   1      33.009  35.128  28.670  1.00  0.00     0.251 C 
ATOM     34  H   UNL A   1      31.699  34.534  27.264  1.00  0.00     0.163 HD
ATOM     35  O   UNL A   1      32.499  36.223  28.842  1.00  0.00    -0.269 OA
BRANCH  33  36
ATOM     36  C   UNL A   1      34.186  34.710  29.457  1.00  0.00     0.039 A 
ATOM     37  C   UNL A   1      33.989  34.153  30.721  1.00  0.00     0.014 A 
ATOM     38  C   UNL A   1      35.454  34.741  28.874  1.00  0.00     0.014 A 
ATOM     39  C   UNL A   1      35.057  33.527  31.361  1.00  0.00     0.010 A 
ATOM     40  C   UNL A   1      36.488  34.034  29.468  1.00  0.00     0.010 A 
ATOM     41  C   UNL A   1      36.297  33.413  30.712  1.00  0.00    -0.014 A 
BRANCH  41  42
ATOM     42  C   UNL A   1      37.415  32.638  31.301  1.00  0.00     0.031 A 
ATOM     43  C   UNL A   1      37.994  33.058  32.621  1.00  0.00     0.074 A 
ATOM     44  C   UNL A   1      37.969  31.625  30.606  1.00  0.00     0.049 A 
ATOM     45  N   UNL A   1      39.043  32.595  33.249  1.00  0.00    -0.248 NA
ATOM     46  C   UNL A   1      37.328  34.178  33.305  1.00  0.00     0.031 C 
ATOM     47  C   UNL A   1      37.535  31.163  29.285  1.00  0.00     0.029 A 
ATOM     48  N   UNL A   1      39.026  30.808  30.912  1.00  0.00    -0.354 N 
ATOM     49  C   UNL A   1      39.178  33.383  34.384  1.00  0.00     0.074 A 
ATOM     50  C   UNL A   1      38.141  34.390  34.326  1.00  0.00     0.031 C 
ATOM     51  C   UNL A   1      38.297  30.120  28.913  1.00  0.00     0.029 A 
ATOM     52  C   UNL A   1      39.294  29.867  29.948  1.00  0.00     0.049 A 
ATOM     53  H   UNL A   1      39.546  30.889  31.744  1.00  0.00     0.167 HD
ATOM     54  C   UNL A   1      40.066  33.263  35.397  1.00  0.00     0.037 A 
ATOM     55  C   UNL A   1      40.237  28.908  29.906  1.00  0.00     0.037 A 
ATOM     56  C   UNL A   1      41.065  32.233  35.472  1.00  0.00     0.049 A 
ATOM     57  C   UNL A   1      41.199  28.778  31.054  1.00  0.00     0.074 A 
ATOM     58  C   UNL A   1      41.970  31.978  36.487  1.00  0.00     0.029 A 
ATOM     59  N   UNL A   1      41.287  31.280  34.489  1.00  0.00    -0.354 N 
ATOM     60  N   UNL A   1      41.280  29.495  32.148  1.00  0.00    -0.248 NA
ATOM     61  C   UNL A   1      42.201  27.707  30.959  1.00  0.00     0.031 C 
ATOM     62  C   UNL A   1      42.757  30.885  36.106  1.00  0.00     0.029 A 
ATOM     63  C   UNL A   1      42.321  30.441  34.868  1.00  0.00     0.049 A 
ATOM     64  H   UNL A   1      40.783  31.210  33.646  1.00  0.00     0.167 HD
ATOM     65  C   UNL A   1      42.323  28.949  32.883  1.00  0.00     0.074 A 
ATOM     66  C   UNL A   1      42.839  27.834  32.114  1.00  0.00     0.031 C 
ATOM     67  C   UNL A   1      42.812  29.336  34.087  1.00  0.00     0.037 A 
BRANCH  54  68
ATOM     68  C   UNL A   1      39.975  34.270  36.504  1.00  0.00     0.057 A 
ATOM     69  C   UNL A   1      39.145  34.070  37.616  1.00  0.00     0.134 A 
ATOM     70  C   UNL A   1      40.710  35.461  36.452  1.00  0.00     0.134 A 
ATOM     71  F   UNL A   1      38.400  32.959  37.716  1.00  0.00    -0.206 F 
ATOM     72  C   UNL A   1      39.021  35.033  38.618  1.00  0.00     0.040 A 
ATOM     73  C   UNL A   1      40.615  36.420  37.462  1.00  0.00     0.040 A 
ATOM     74  F   UNL A   1      41.523  35.715  35.416  1.00  0.00    -0.206 F 
ATOM     75  C   UNL A   1      39.761  36.212  38.543  1.00  0.00     0.006 A 
ENDBRANCH  54  68
BRANCH  55  76
ATOM     76  C   UNL A   1      40.286  27.965  28.763  1.00  0.00     0.057 A 
ATOM     77  C   UNL A   1      39.600  26.746  28.814  1.00  0.00     0.134 A 
ATOM     78  C   UNL A   1      41.007  28.254  27.599  1.00  0.00     0.134 A 
ATOM     79  F   UNL A   1      38.906  26.409  29.912  1.00  0.00    -0.206 F 
ATOM     80  C   UNL A   1      39.636  25.841  27.752  1.00  0.00     0.040 A 
ATOM     81  C   UNL A   1      41.037  27.365  26.522  1.00  0.00     0.040 A 
ATOM     82  F   UNL A   1      41.680  29.408  27.488  1.00  0.00    -0.206 F 
ATOM     83  C   UNL A   1      40.354  26.153  26.600  1.00  0.00     0.006 A 
ENDBRANCH  55  76
BRANCH  67  84
ATOM     84  C   UNL A   1      43.941  28.529  34.653  1.00  0.00     0.057 A 
ATOM     85  C   UNL A   1      45.278  28.883  34.437  1.00  0.00     0.134 A 
ATOM     86  C   UNL A   1      43.685  27.410  35.456  1.00  0.00     0.134 A 
ATOM     87  F   UNL A   1      45.587  29.937  33.665  1.00  0.00    -0.206 F 
ATOM     88  C   UNL A   1      46.325  28.142  34.987  1.00  0.00     0.040 A 
ATOM     89  C   UNL A   1      44.722  26.674  36.028  1.00  0.00     0.040 A 
ATOM     90  F   UNL A   1      42.425  27.025  35.704  1.00  0.00    -0.206 F 
ATOM     91  C   UNL A   1      46.046  27.037  35.792  1.00  0.00     0.006 A 
ENDBRANCH  67  84
ENDBRANCH  41  42
ENDBRANCH  33  36
ENDBRANCH  31  32
ENDBRANCH   1  31
TORSDOF 14
ENDMDL
MODEL 2
REMARK VINA RESULT:     -13.2      0.805      5.935
REMARK SMILES COc1cc2c(cc1OC)[C@H](C(=O)NCCCCNC(=O)c1ccc(-c3c4nc(c(-c5c(F)cccc5F)c5ccc([nH]5)c(-c5c(F)cccc5F)c5nc(c(-c6c(F)cccc6F)c6ccc3[nH]6)C=C5)C=C4)cc1)[C@H](c1cccc(Cl)c1)N(C)C2=O
REMARK SMILES IDX 17 1 16 2 15 3 14 4 12 5 13 6 11 8 3 9 4 10 8 11 5 12 7 13
REMARK SMILES IDX 6 14 86 15 84 16 87 17 76 18 85 19 2 20 1 21 9 22 10 23
REMARK SMILES IDX 77 24 78 25 83 26 79 27 81 28 80 29 82 30 18 31 19 32 20 33
REMARK SMILES IDX 21 35 22 36 23 37 75 38 24 39 74 40 25 41 26 42 27 43 68 44
REMARK SMILES IDX 28 45 73 46 67 47 69 48 29 49 72 50 66 51 65 52 30 54 56 55
REMARK SMILES IDX 39 56 55 57 40 58 43 59 54 60 70 61 41 62 42 63 53 65 71 66
REMARK SMILES IDX 44 67 31 68 32 69 37 70 33 71 34 72 36 73 38 74 35 75 57 76
REMARK SMILES IDX 58 77 63 78 59 79 60 80 62 81 64 82 61 83 45 84 46 85 51 86
REMARK SMILES IDX 47 87 48 88 50 89 52 90 49 91
REMARK H PARENT 14 7 19 34 69 53 43 64
REMARK Flexibility Score: inf
ROOT
ATOM      1  C   UNL A   1      31.401  32.220  26.863  1.00  0.00     0.023 C 
ENDROOT
BRANCH   1   2
ATOM      2  C   UNL A   1      31.782  30.875  26.267  1.00  0.00     0.023 C 
BRANCH   2   3
ATOM      3  C   UNL A   1      32.875  30.105  27.017  1.00  0.00     0.116 C 
BRANCH   3   4
ATOM      4  N   UNL A   1      32.321  28.860  27.509  1.00  0.00    -0.355 N 
ATOM      5  C   UNL A   1      32.130  27.640  26.958  1.00  0.00     0.230 C 
ATOM      6  O   UNL A   1      31.434  26.881  27.654  1.00  0.00    -0.274 OA
ATOM      7  H   UNL A   1      32.016  28.914  28.443  1.00  0.00     0.163 HD
BRANCH   5   8
ATOM      8  C   UNL A   1      32.771  27.059  25.702  1.00  0.00     0.136 C 
ATOM      9  C   UNL A   1      32.461  22.920  24.502  1.00  0.00     0.161 A 
ATOM     10  C   UNL A   1      32.739  23.915  23.564  1.00  0.00     0.064 A 
ATOM     11  C   UNL A   1      32.532  23.219  25.864  1.00  0.00     0.161 A 
ATOM     12  C   UNL A   1      32.950  25.230  23.990  1.00  0.00     0.048 A 
ATOM     13  C   UNL A   1      32.803  24.540  26.260  1.00  0.00     0.056 A 
ATOM     14  C   UNL A   1      32.802  25.586  25.342  1.00  0.00    -0.016 A 
ATOM     15  C   UNL A   1      33.414  26.252  23.006  1.00  0.00     0.254 C 
ATOM     16  N   UNL A   1      33.185  27.579  23.347  1.00  0.00    -0.333 N 
ATOM     17  O   UNL A   1      33.966  25.898  21.970  1.00  0.00    -0.269 OA
ATOM     18  C   UNL A   1      32.289  27.902  24.471  1.00  0.00     0.132 C 
ATOM     19  C   UNL A   1      33.663  28.641  22.483  1.00  0.00     0.147 C 
BRANCH   9  20
ATOM     20  O   UNL A   1      32.065  21.691  24.056  1.00  0.00    -0.493 OA
ATOM     21  C   UNL A   1      33.172  20.806  23.903  1.00  0.00     0.278 C 
ENDBRANCH   9  20
BRANCH  11  22
ATOM     22  O   UNL A   1      32.375  22.349  26.910  1.00  0.00    -0.493 OA
ATOM     23  C   UNL A   1      33.555  21.975  27.621  1.00  0.00     0.278 C 
ENDBRANCH  11  22
BRANCH  18  24
ATOM     24  C   UNL A   1      30.802  27.781  24.069  1.00  0.00    -0.023 A 
ATOM     25  C   UNL A   1      30.056  26.650  24.445  1.00  0.00     0.006 A 
ATOM     26  C   UNL A   1      30.114  28.793  23.366  1.00  0.00     0.026 A 
ATOM     27  C   UNL A   1      28.712  26.506  24.075  1.00  0.00     0.002 A 
ATOM     28  C   UNL A   1      28.772  28.651  23.004  1.00  0.00     0.041 A 
ATOM     29  C   UNL A   1      28.071  27.504  23.346  1.00  0.00     0.020 A 
ATOM     30  Cl  UNL A   1      27.985  29.913  22.138  1.00  0.00    -0.084 Cl
ENDBRANCH  18  24
ENDBRANCH   5   8
ENDBRANCH   3   4
ENDBRANCH   2   3
ENDBRANCH   1   2
BRANCH   1  31
ATOM     31  C   UNL A   1      32.522  33.248  26.841  1.00  0.00     0.116 C 
BRANCH  31  32
ATOM     32  N   UNL A   1      32.332  34.362  27.762  1.00  0.00    -0.352 N 
ATOM     33  C   UNL A   1      33.112  34.728  28.838  1.00  0.00     0.251 C 
ATOM     34  H   UNL A   1      31.543  34.926  27.594  1.00  0.00     0.163 HD
ATOM     35  O   UNL A   1      32.800  35.660  29.560  1.00  0.00    -0.269 OA
BRANCH  33  36
ATOM     36  C   UNL A   1      34.313  33.918  29.124  1.00  0.00     0.039 A 
ATOM     37  C   UNL A   1      35.571  34.473  28.892  1.00  0.00     0.014 A 
ATOM     38  C   UNL A   1      34.177  32.679  29.753  1.00  0.00     0.014 A 
ATOM     39  C   UNL A   1      36.701  33.826  29.390  1.00  0.00     0.010 A 
ATOM     40  C   UNL A   1      35.291  32.089  30.330  1.00  0.00     0.010 A 
ATOM     41  C   UNL A   1      36.562  32.662  30.163  1.00  0.00    -0.014 A 
BRANCH  41  42
ATOM     42  C   UNL A   1      37.724  32.022  30.823  1.00  0.00     0.031 A 
ATOM     43  C   UNL A   1      38.497  30.959  30.096  1.00  0.00     0.074 A 
ATOM     44  C   UNL A   1      38.021  32.324  32.101  1.00  0.00     0.049 A 
ATOM     45  N   UNL A   1      39.465  30.195  30.532  1.00  0.00    -0.248 NA
ATOM     46  C   UNL A   1      38.098  30.691  28.705  1.00  0.00     0.031 C 
ATOM     47  C   UNL A   1      37.306  33.295  32.934  1.00  0.00     0.029 A 
ATOM     48  N   UNL A   1      38.999  31.836  32.929  1.00  0.00    -0.354 N 
ATOM     49  C   UNL A   1      39.769  29.341  29.481  1.00  0.00     0.074 A 
ATOM     50  C   UNL A   1      38.844  29.640  28.409  1.00  0.00     0.031 C 
ATOM     51  C   UNL A   1      37.893  33.356  34.140  1.00  0.00     0.029 A 
ATOM     52  C   UNL A   1      38.999  32.404  34.179  1.00  0.00     0.049 A 
ATOM     53  H   UNL A   1      39.641  31.142  32.653  1.00  0.00     0.167 HD
ATOM     54  C   UNL A   1      40.748  28.410  29.403  1.00  0.00     0.037 A 
ATOM     55  C   UNL A   1      39.801  32.183  35.236  1.00  0.00     0.037 A 
ATOM     56  C   UNL A   1      41.693  28.148  30.454  1.00  0.00     0.049 A 
ATOM     57  C   UNL A   1      40.897  31.160  35.120  1.00  0.00     0.074 A 
ATOM     58  C   UNL A   1      42.767  27.276  30.453  1.00  0.00     0.029 A 
ATOM     59  N   UNL A   1      41.678  28.765  31.696  1.00  0.00    -0.354 N 
ATOM     60  N   UNL A   1      41.210  30.398  34.101  1.00  0.00    -0.248 NA
ATOM     61  C   UNL A   1      41.750  30.967  36.302  1.00  0.00     0.031 C 
ATOM     62  C   UNL A   1      43.387  27.347  31.706  1.00  0.00     0.029 A 
ATOM     63  C   UNL A   1      42.717  28.286  32.475  1.00  0.00     0.049 A 
ATOM     64  H   UNL A   1      41.024  29.444  31.982  1.00  0.00     0.167 HD
ATOM     65  C   UNL A   1      42.309  29.652  34.507  1.00  0.00     0.074 A 
ATOM     66  C   UNL A   1      42.613  30.062  35.864  1.00  0.00     0.031 C 
ATOM     67  C   UNL A   1      43.003  28.713  33.820  1.00  0.00     0.037 A 
BRANCH  54  68
ATOM     68  C   UNL A   1      40.840  27.625  28.129  1.00  0.00     0.057 A 
ATOM     69  C   UNL A   1      40.178  26.399  27.970  1.00  0.00     0.134 A 
ATOM     70  C   UNL A   1      41.612  28.087  27.056  1.00  0.00     0.134 A 
ATOM     71  F   UNL A   1      39.439  25.892  28.968  1.00  0.00    -0.206 F 
ATOM     72  C   UNL A   1      40.310  25.645  26.804  1.00  0.00     0.040 A 
ATOM     73  C   UNL A   1      41.729  27.354  25.875  1.00  0.00     0.040 A 
ATOM     74  F   UNL A   1      42.270  29.252  27.144  1.00  0.00    -0.206 F 
ATOM     75  C   UNL A   1      41.085  26.125  25.750  1.00  0.00     0.006 A 
ENDBRANCH  54  68
BRANCH  55  76
ATOM     76  C   UNL A   1      39.632  32.977  36.477  1.00  0.00     0.057 A 
ATOM     77  C   UNL A   1      38.728  32.571  37.465  1.00  0.00     0.134 A 
ATOM     78  C   UNL A   1      40.366  34.144  36.711  1.00  0.00     0.134 A 
ATOM     79  F   UNL A   1      37.986  31.468  37.287  1.00  0.00    -0.206 F 
ATOM     80  C   UNL A   1      38.550  33.304  38.639  1.00  0.00     0.040 A 
ATOM     81  C   UNL A   1      40.211  34.878  37.889  1.00  0.00     0.040 A 
ATOM     82  F   UNL A   1      41.252  34.581  35.805  1.00  0.00    -0.206 F 
ATOM     83  C   UNL A   1      39.296  34.460  38.854  1.00  0.00     0.006 A 
ENDBRANCH  55  76
BRANCH  67  84
ATOM     84  C   UNL A   1      44.173  28.087  34.517  1.00  0.00     0.057 A 
ATOM     85  C   UNL A   1      45.444  28.674  34.491  1.00  0.00     0.134 A 
ATOM     86  C   UNL A   1      44.016  26.906  35.252  1.00  0.00     0.134 A 
ATOM     87  F   UNL A   1      45.659  29.799  33.791  1.00  0.00    -0.206 F 
ATOM     88  C   UNL A   1      46.524  28.099  35.162  1.00  0.00     0.040 A 
ATOM     89  C   UNL A   1      45.083  26.333  35.944  1.00  0.00     0.040 A 
ATOM     90  F   UNL A   1      42.821  26.300  35.319  1.00  0.00    -0.206 F 
ATOM     91  C   UNL A   1      46.342  26.928  35.897  1.00  0.00     0.006 A 
ENDBRANCH  67  84
ENDBRANCH  41  42
ENDBRANCH  33  36
ENDBRANCH  31  32
ENDBRANCH   1  31
TORSDOF 14
ENDMDL
MODEL 3
REMARK VINA RESULT:     -13.1      5.323     10.310
REMARK SMILES COc1cc2c(cc1OC)[C@H](C(=O)NCCCCNC(=O)c1ccc(-c3c4nc(c(-c5c(F)cccc5F)c5ccc([nH]5)c(-c5c(F)cccc5F)c5nc(c(-c6c(F)cccc6F)c6ccc3[nH]6)C=C5)C=C4)cc1)[C@H](c1cccc(Cl)c1)N(C)C2=O
REMARK SMILES IDX 17 1 16 2 15 3 14 4 12 5 13 6 11 8 3 9 4 10 8 11 5 12 7 13
REMARK SMILES IDX 6 14 86 15 84 16 87 17 76 18 85 19 2 20 1 21 9 22 10 23
REMARK SMILES IDX 77 24 78 25 83 26 79 27 81 28 80 29 82 30 18 31 19 32 20 33
REMARK SMILES IDX 21 35 22 36 23 37 75 38 24 39 74 40 25 41 26 42 27 43 68 44
REMARK SMILES IDX 28 45 73 46 67 47 69 48 29 49 72 50 66 51 65 52 30 54 56 55
REMARK SMILES IDX 39 56 55 57 40 58 43 59 54 60 70 61 41 62 42 63 53 65 71 66
REMARK SMILES IDX 44 67 31 68 32 69 37 70 33 71 34 72 36 73 38 74 35 75 57 76
REMARK SMILES IDX 58 77 63 78 59 79 60 80 62 81 64 82 61 83 45 84 46 85 51 86
REMARK SMILES IDX 47 87 48 88 50 89 52 90 49 91
REMARK H PARENT 14 7 19 34 69 53 43 64
REMARK Flexibility Score: inf
ROOT
ATOM      1  C   UNL A   1      38.208  20.010  25.149  1.00  0.00     0.023 C 
ENDROOT
BRANCH   1   2
ATOM      2  C   UNL A   1      37.153  21.042  25.508  1.00  0.00     0.023 C 
BRANCH   2   3
ATOM      3  C   UNL A   1      37.629  22.499  25.517  1.00  0.00     0.116 C 
BRANCH   3   4
ATOM      4  N   UNL A   1      37.099  23.174  24.349  1.00  0.00    -0.355 N 
ATOM      5  C   UNL A   1      35.884  23.674  24.029  1.00  0.00     0.230 C 
ATOM      6  O   UNL A   1      35.780  24.005  22.836  1.00  0.00    -0.274 OA
ATOM      7  H   UNL A   1      37.767  23.293  23.635  1.00  0.00     0.163 HD
BRANCH   5   8
ATOM      8  C   UNL A   1      34.723  24.005  24.961  1.00  0.00     0.136 C 
ATOM      9  C   UNL A   1      31.324  26.429  23.847  1.00  0.00     0.161 A 
ATOM     10  C   UNL A   1      31.233  25.512  24.894  1.00  0.00     0.064 A 
ATOM     11  C   UNL A   1      32.577  26.750  23.320  1.00  0.00     0.161 A 
ATOM     12  C   UNL A   1      32.375  24.823  25.314  1.00  0.00     0.048 A 
ATOM     13  C   UNL A   1      33.713  26.079  23.805  1.00  0.00     0.056 A 
ATOM     14  C   UNL A   1      33.600  24.973  24.641  1.00  0.00    -0.016 A 
ATOM     15  C   UNL A   1      32.307  23.975  26.541  1.00  0.00     0.254 C 
ATOM     16  N   UNL A   1      33.284  22.994  26.662  1.00  0.00    -0.333 N 
ATOM     17  O   UNL A   1      31.427  24.169  27.372  1.00  0.00    -0.269 OA
ATOM     18  C   UNL A   1      34.132  22.658  25.505  1.00  0.00     0.132 C 
ATOM     19  C   UNL A   1      33.337  22.169  27.853  1.00  0.00     0.147 C 
BRANCH   9  20
ATOM     20  O   UNL A   1      30.172  26.943  23.323  1.00  0.00    -0.493 OA
ATOM     21  C   UNL A   1      29.019  26.426  23.982  1.00  0.00     0.278 C 
ENDBRANCH   9  20
BRANCH  11  22
ATOM     22  O   UNL A   1      32.855  27.684  22.358  1.00  0.00    -0.493 OA
ATOM     23  C   UNL A   1      33.407  28.923  22.801  1.00  0.00     0.278 C 
ENDBRANCH  11  22
BRANCH  18  24
ATOM     24  C   UNL A   1      33.391  21.752  24.497  1.00  0.00    -0.023 A 
ATOM     25  C   UNL A   1      32.854  22.295  23.316  1.00  0.00     0.006 A 
ATOM     26  C   UNL A   1      33.258  20.358  24.674  1.00  0.00     0.026 A 
ATOM     27  C   UNL A   1      32.159  21.499  22.396  1.00  0.00     0.002 A 
ATOM     28  C   UNL A   1      32.571  19.565  23.752  1.00  0.00     0.041 A 
ATOM     29  C   UNL A   1      32.010  20.133  22.619  1.00  0.00     0.020 A 
ATOM     30  Cl  UNL A   1      32.431  17.871  24.024  1.00  0.00    -0.084 Cl
ENDBRANCH  18  24
ENDBRANCH   5   8
ENDBRANCH   3   4
ENDBRANCH   2   3
ENDBRANCH   1   2
BRANCH   1  31
ATOM     31  C   UNL A   1      39.553  20.237  25.823  1.00  0.00     0.116 C 
BRANCH  31  32
ATOM     32  N   UNL A   1      40.425  19.068  25.829  1.00  0.00    -0.352 N 
ATOM     33  C   UNL A   1      41.776  19.008  26.096  1.00  0.00     0.251 C 
ATOM     34  H   UNL A   1      39.992  18.211  25.616  1.00  0.00     0.163 HD
ATOM     35  O   UNL A   1      42.393  17.959  26.012  1.00  0.00    -0.269 OA
BRANCH  33  36
ATOM     36  C   UNL A   1      42.468  20.268  26.433  1.00  0.00     0.039 A 
ATOM     37  C   UNL A   1      43.062  21.005  25.409  1.00  0.00     0.014 A 
ATOM     38  C   UNL A   1      42.391  20.772  27.732  1.00  0.00     0.014 A 
ATOM     39  C   UNL A   1      43.491  22.306  25.669  1.00  0.00     0.010 A 
ATOM     40  C   UNL A   1      42.728  22.097  27.964  1.00  0.00     0.010 A 
ATOM     41  C   UNL A   1      43.272  22.880  26.933  1.00  0.00    -0.014 A 
BRANCH  41  42
ATOM     42  C   UNL A   1      43.589  24.301  27.208  1.00  0.00     0.031 A 
ATOM     43  C   UNL A   1      45.011  24.774  27.119  1.00  0.00     0.074 A 
ATOM     44  C   UNL A   1      42.620  25.135  27.630  1.00  0.00     0.049 A 
ATOM     45  N   UNL A   1      45.517  25.938  27.433  1.00  0.00    -0.248 NA
ATOM     46  C   UNL A   1      46.004  23.791  26.655  1.00  0.00     0.031 C 
ATOM     47  C   UNL A   1      41.211  24.778  27.816  1.00  0.00     0.029 A 
ATOM     48  N   UNL A   1      42.676  26.456  27.991  1.00  0.00    -0.354 N 
ATOM     49  C   UNL A   1      46.885  25.817  27.232  1.00  0.00     0.074 A 
ATOM     50  C   UNL A   1      47.137  24.451  26.827  1.00  0.00     0.031 C 
ATOM     51  C   UNL A   1      40.531  25.864  28.220  1.00  0.00     0.029 A 
ATOM     52  C   UNL A   1      41.461  26.981  28.358  1.00  0.00     0.049 A 
ATOM     53  H   UNL A   1      43.509  26.981  27.987  1.00  0.00     0.167 HD
ATOM     54  C   UNL A   1      47.844  26.765  27.345  1.00  0.00     0.037 A 
ATOM     55  C   UNL A   1      41.135  28.223  28.760  1.00  0.00     0.037 A 
ATOM     56  C   UNL A   1      47.584  28.132  27.705  1.00  0.00     0.049 A 
ATOM     57  C   UNL A   1      42.212  29.267  28.858  1.00  0.00     0.074 A 
ATOM     58  C   UNL A   1      48.473  29.190  27.781  1.00  0.00     0.029 A 
ATOM     59  N   UNL A   1      46.335  28.632  28.042  1.00  0.00    -0.354 N 
ATOM     60  N   UNL A   1      43.494  29.155  28.610  1.00  0.00    -0.248 NA
ATOM     61  C   UNL A   1      41.797  30.608  29.291  1.00  0.00     0.031 C 
ATOM     62  C   UNL A   1      47.764  30.325  28.191  1.00  0.00     0.029 A 
ATOM     63  C   UNL A   1      46.430  29.981  28.339  1.00  0.00     0.049 A 
ATOM     64  H   UNL A   1      45.504  28.105  28.067  1.00  0.00     0.167 HD
ATOM     65  C   UNL A   1      44.036  30.413  28.834  1.00  0.00     0.074 A 
ATOM     66  C   UNL A   1      42.940  31.275  29.228  1.00  0.00     0.031 C 
ATOM     67  C   UNL A   1      45.324  30.819  28.724  1.00  0.00     0.037 A 
BRANCH  54  68
ATOM     68  C   UNL A   1      49.255  26.343  27.064  1.00  0.00     0.057 A 
ATOM     69  C   UNL A   1      50.105  25.887  28.082  1.00  0.00     0.134 A 
ATOM     70  C   UNL A   1      49.778  26.407  25.767  1.00  0.00     0.134 A 
ATOM     71  F   UNL A   1      49.671  25.820  29.350  1.00  0.00    -0.206 F 
ATOM     72  C   UNL A   1      51.433  25.546  27.827  1.00  0.00     0.040 A 
ATOM     73  C   UNL A   1      51.097  26.044  25.494  1.00  0.00     0.040 A 
ATOM     74  F   UNL A   1      49.018  26.834  24.747  1.00  0.00    -0.206 F 
ATOM     75  C   UNL A   1      51.932  25.621  26.527  1.00  0.00     0.006 A 
ENDBRANCH  54  68
BRANCH  55  76
ATOM     76  C   UNL A   1      39.721  28.562  29.052  1.00  0.00     0.057 A 
ATOM     77  C   UNL A   1      39.190  28.366  30.332  1.00  0.00     0.134 A 
ATOM     78  C   UNL A   1      38.873  29.093  28.074  1.00  0.00     0.134 A 
ATOM     79  F   UNL A   1      39.952  27.844  31.304  1.00  0.00    -0.206 F 
ATOM     80  C   UNL A   1      37.862  28.674  30.627  1.00  0.00     0.040 A 
ATOM     81  C   UNL A   1      37.547  29.423  28.361  1.00  0.00     0.040 A 
ATOM     82  F   UNL A   1      39.325  29.310  26.831  1.00  0.00    -0.206 F 
ATOM     83  C   UNL A   1      37.037  29.208  29.640  1.00  0.00     0.006 A 
ENDBRANCH  55  76
BRANCH  67  84
ATOM     84  C   UNL A   1      45.609  32.263  29.008  1.00  0.00     0.057 A 
ATOM     85  C   UNL A   1      45.985  32.701  30.283  1.00  0.00     0.134 A 
ATOM     86  C   UNL A   1      45.545  33.216  27.984  1.00  0.00     0.134 A 
ATOM     87  F   UNL A   1      46.050  31.836  31.307  1.00  0.00    -0.206 F 
ATOM     88  C   UNL A   1      46.272  34.043  30.535  1.00  0.00     0.040 A 
ATOM     89  C   UNL A   1      45.849  34.556  28.219  1.00  0.00     0.040 A 
ATOM     90  F   UNL A   1      45.196  32.856  26.740  1.00  0.00    -0.206 F 
ATOM     91  C   UNL A   1      46.211  34.973  29.498  1.00  0.00     0.006 A 
ENDBRANCH  67  84
ENDBRANCH  41  42
ENDBRANCH  33  36
ENDBRANCH  31  32
ENDBRANCH   1  31
TORSDOF 14
ENDMDL
