MODEL 1
REMARK VINA RESULT:     -10.9      0.000      0.000
REMARK SMILES COc1ccc([C@H](C(=O)NCCCCNC(=O)c2ccc(-c3c4nc(c(-c5c(F)cccc5F)c5ccc([nH]5)c(-c5c(F)cccc5F)c5nc(c(-c6c(F)cccc6F)c6ccc3[nH]6)C=C5)C=C4)cc2)[NH+]2CCOCC2)c(OC)n1
REMARK SMILES IDX 12 1 11 2 10 3 8 4 9 5 7 7 6 8 3 9 4 10 81 11 5 12 78 13
REMARK SMILES IDX 2 14 1 15 79 16 80 17 72 18 73 19 77 20 74 22 76 23 75 24
REMARK SMILES IDX 13 25 14 26 15 27 16 28 17 30 18 31 19 32 71 33 20 34 70 35
REMARK SMILES IDX 21 36 22 37 23 38 64 39 24 40 69 41 63 42 65 43 25 44 68 45
REMARK SMILES IDX 62 46 61 47 26 49 52 50 35 51 51 52 36 53 39 54 50 55 66 56
REMARK SMILES IDX 37 57 38 58 49 60 67 61 40 62 27 63 28 64 33 65 29 66 30 67
REMARK SMILES IDX 32 68 34 69 31 70 53 71 54 72 59 73 55 74 56 75 58 76 60 77
REMARK SMILES IDX 57 78 41 79 42 80 47 81 43 82 44 83 46 84 48 85 45 86
REMARK H PARENT 10 6 72 21 15 29 65 48 39 59
REMARK Flexibility Score: inf
ROOT
ATOM      1  C   UNL A   1      36.046  21.312  25.342  1.00  0.00     0.023 C 
ENDROOT
BRANCH   1   2
ATOM      2  C   UNL A   1      35.690  22.794  25.353  1.00  0.00     0.116 C 
BRANCH   2   3
ATOM      3  N   UNL A   1      35.429  23.335  24.027  1.00  0.00    -0.351 N 
ATOM      4  C   UNL A   1      34.402  24.116  23.579  1.00  0.00     0.283 C 
ATOM      5  O   UNL A   1      34.407  24.433  22.383  1.00  0.00    -0.268 OA
ATOM      6  H   UNL A   1      36.099  23.101  23.345  1.00  0.00     0.163 HD
BRANCH   4   7
ATOM      7  C   UNL A   1      33.289  24.609  24.522  1.00  0.00     0.311 C 
BRANCH   7   8
ATOM      8  C   UNL A   1      33.288  26.129  24.756  1.00  0.00     0.081 A 
ATOM      9  C   UNL A   1      32.903  28.801  25.286  1.00  0.00     0.216 A 
ATOM     10  C   UNL A   1      33.514  28.022  26.252  1.00  0.00     0.069 A 
ATOM     11  N   UNL A   1      32.555  28.354  24.068  1.00  0.00    -0.177 NA
ATOM     12  C   UNL A   1      33.748  26.678  25.964  1.00  0.00     0.022 A 
ATOM     13  C   UNL A   1      32.761  27.041  23.814  1.00  0.00     0.226 A 
BRANCH   9  14
ATOM     14  O   UNL A   1      32.362  30.004  25.669  1.00  0.00    -0.481 OA
ATOM     15  C   UNL A   1      32.965  30.467  26.869  1.00  0.00     0.280 C 
ENDBRANCH   9  14
BRANCH  13  16
ATOM     16  O   UNL A   1      32.016  26.598  22.753  1.00  0.00    -0.481 OA
ATOM     17  C   UNL A   1      30.712  27.139  22.649  1.00  0.00     0.280 C 
ENDBRANCH  13  16
ENDBRANCH   7   8
BRANCH   7  18
ATOM     18  N   UNL A   1      31.961  23.966  24.220  1.00  0.00    -0.317 N 
ATOM     19  C   UNL A   1      30.927  24.245  25.249  1.00  0.00     0.292 C 
ATOM     20  C   UNL A   1      31.923  22.519  23.924  1.00  0.00     0.292 C 
ATOM     21  H   UNL A   1      31.757  24.433  23.337  1.00  0.00     0.349 HD
ATOM     22  C   UNL A   1      30.884  23.271  26.442  1.00  0.00     0.221 C 
ATOM     23  C   UNL A   1      31.851  21.569  25.142  1.00  0.00     0.221 C 
ATOM     24  O   UNL A   1      30.759  21.915  25.999  1.00  0.00    -0.370 OA
ENDBRANCH   7  18
ENDBRANCH   4   7
ENDBRANCH   2   3
ENDBRANCH   1   2
BRANCH   1  25
ATOM     25  C   UNL A   1      37.395  21.023  24.704  1.00  0.00     0.023 C 
BRANCH  25  26
ATOM     26  C   UNL A   1      38.552  21.127  25.683  1.00  0.00     0.116 C 
BRANCH  26  27
ATOM     27  N   UNL A   1      39.396  19.937  25.662  1.00  0.00    -0.352 N 
ATOM     28  C   UNL A   1      40.729  19.839  25.956  1.00  0.00     0.251 C 
ATOM     29  H   UNL A   1      38.949  19.099  25.403  1.00  0.00     0.163 HD
ATOM     30  O   UNL A   1      41.362  18.818  25.714  1.00  0.00    -0.269 OA
BRANCH  28  31
ATOM     31  C   UNL A   1      41.384  21.015  26.544  1.00  0.00     0.039 A 
ATOM     32  C   UNL A   1      41.965  21.959  25.699  1.00  0.00     0.014 A 
ATOM     33  C   UNL A   1      41.301  21.227  27.923  1.00  0.00     0.014 A 
ATOM     34  C   UNL A   1      42.413  23.162  26.241  1.00  0.00     0.010 A 
ATOM     35  C   UNL A   1      41.649  22.463  28.439  1.00  0.00     0.010 A 
ATOM     36  C   UNL A   1      42.220  23.438  27.605  1.00  0.00    -0.014 A 
BRANCH  36  37
ATOM     37  C   UNL A   1      42.624  24.734  28.193  1.00  0.00     0.031 A 
ATOM     38  C   UNL A   1      41.588  25.799  28.416  1.00  0.00     0.074 A 
ATOM     39  C   UNL A   1      43.922  24.977  28.456  1.00  0.00     0.049 A 
ATOM     40  N   UNL A   1      41.742  27.027  28.838  1.00  0.00    -0.248 NA
ATOM     41  C   UNL A   1      40.195  25.447  28.089  1.00  0.00     0.031 C 
ATOM     42  C   UNL A   1      45.025  24.038  28.230  1.00  0.00     0.029 A 
ATOM     43  N   UNL A   1      44.536  26.094  28.962  1.00  0.00    -0.354 N 
ATOM     44  C   UNL A   1      40.476  27.595  28.808  1.00  0.00     0.074 A 
ATOM     45  C   UNL A   1      39.575  26.603  28.267  1.00  0.00     0.031 C 
ATOM     46  C   UNL A   1      46.175  24.611  28.619  1.00  0.00     0.029 A 
ATOM     47  C   UNL A   1      45.899  25.968  29.080  1.00  0.00     0.049 A 
ATOM     48  H   UNL A   1      44.047  26.910  29.215  1.00  0.00     0.167 HD
ATOM     49  C   UNL A   1      40.093  28.825  29.221  1.00  0.00     0.037 A 
ATOM     50  C   UNL A   1      46.821  26.853  29.503  1.00  0.00     0.037 A 
ATOM     51  C   UNL A   1      40.991  29.796  29.785  1.00  0.00     0.049 A 
ATOM     52  C   UNL A   1      46.371  28.217  29.949  1.00  0.00     0.074 A 
ATOM     53  C   UNL A   1      40.695  31.048  30.295  1.00  0.00     0.029 A 
ATOM     54  N   UNL A   1      42.362  29.624  29.908  1.00  0.00    -0.354 N 
ATOM     55  N   UNL A   1      45.159  28.717  29.988  1.00  0.00    -0.248 NA
ATOM     56  C   UNL A   1      47.416  29.140  30.416  1.00  0.00     0.031 C 
ATOM     57  C   UNL A   1      41.894  31.655  30.679  1.00  0.00     0.029 A 
ATOM     58  C   UNL A   1      42.930  30.758  30.463  1.00  0.00     0.049 A 
ATOM     59  H   UNL A   1      42.856  28.817  29.641  1.00  0.00     0.167 HD
ATOM     60  C   UNL A   1      45.291  29.997  30.510  1.00  0.00     0.074 A 
ATOM     61  C   UNL A   1      46.700  30.191  30.786  1.00  0.00     0.031 C 
ATOM     62  C   UNL A   1      44.334  30.929  30.740  1.00  0.00     0.037 A 
BRANCH  49  63
ATOM     63  C   UNL A   1      38.643  29.183  29.080  1.00  0.00     0.057 A 
ATOM     64  C   UNL A   1      37.754  29.113  30.161  1.00  0.00     0.134 A 
ATOM     65  C   UNL A   1      38.135  29.634  27.856  1.00  0.00     0.134 A 
ATOM     66  F   UNL A   1      38.171  28.673  31.358  1.00  0.00    -0.206 F 
ATOM     67  C   UNL A   1      36.406  29.452  30.023  1.00  0.00     0.040 A 
ATOM     68  C   UNL A   1      36.797  30.006  27.713  1.00  0.00     0.040 A 
ATOM     69  F   UNL A   1      38.931  29.729  26.780  1.00  0.00    -0.206 F 
ATOM     70  C   UNL A   1      35.928  29.908  28.796  1.00  0.00     0.006 A 
ENDBRANCH  49  63
BRANCH  50  71
ATOM     71  C   UNL A   1      48.257  26.476  29.541  1.00  0.00     0.057 A 
ATOM     72  C   UNL A   1      49.109  26.760  28.468  1.00  0.00     0.134 A 
ATOM     73  C   UNL A   1      48.810  25.813  30.643  1.00  0.00     0.134 A 
ATOM     74  F   UNL A   1      48.635  27.378  27.376  1.00  0.00    -0.206 F 
ATOM     75  C   UNL A   1      50.451  26.378  28.477  1.00  0.00     0.040 A 
ATOM     76  C   UNL A   1      50.157  25.449  30.677  1.00  0.00     0.040 A 
ATOM     77  F   UNL A   1      48.051  25.519  31.709  1.00  0.00    -0.206 F 
ATOM     78  C   UNL A   1      50.981  25.724  29.587  1.00  0.00     0.006 A 
ENDBRANCH  50  71
BRANCH  62  79
ATOM     79  C   UNL A   1      44.768  32.225  31.357  1.00  0.00     0.057 A 
ATOM     80  C   UNL A   1      44.844  32.398  32.745  1.00  0.00     0.134 A 
ATOM     81  C   UNL A   1      45.162  33.299  30.549  1.00  0.00     0.134 A 
ATOM     82  F   UNL A   1      44.469  31.413  33.575  1.00  0.00    -0.206 F 
ATOM     83  C   UNL A   1      45.277  33.600  33.307  1.00  0.00     0.040 A 
ATOM     84  C   UNL A   1      45.626  34.495  31.098  1.00  0.00     0.040 A 
ATOM     85  F   UNL A   1      45.124  33.196  29.212  1.00  0.00    -0.206 F 
ATOM     86  C   UNL A   1      45.677  34.650  32.481  1.00  0.00     0.006 A 
ENDBRANCH  62  79
ENDBRANCH  36  37
ENDBRANCH  28  31
ENDBRANCH  26  27
ENDBRANCH  25  26
ENDBRANCH   1  25
TORSDOF 15
ENDMDL
MODEL 2
REMARK VINA RESULT:     -10.9      2.842      8.264
REMARK SMILES COc1ccc([C@H](C(=O)NCCCCNC(=O)c2ccc(-c3c4nc(c(-c5c(F)cccc5F)c5ccc([nH]5)c(-c5c(F)cccc5F)c5nc(c(-c6c(F)cccc6F)c6ccc3[nH]6)C=C5)C=C4)cc2)[NH+]2CCOCC2)c(OC)n1
REMARK SMILES IDX 12 1 11 2 10 3 8 4 9 5 7 7 6 8 3 9 4 10 81 11 5 12 78 13
REMARK SMILES IDX 2 14 1 15 79 16 80 17 72 18 73 19 77 20 74 22 76 23 75 24
REMARK SMILES IDX 13 25 14 26 15 27 16 28 17 30 18 31 19 32 71 33 20 34 70 35
REMARK SMILES IDX 21 36 22 37 23 38 64 39 24 40 69 41 63 42 65 43 25 44 68 45
REMARK SMILES IDX 62 46 61 47 26 49 52 50 35 51 51 52 36 53 39 54 50 55 66 56
REMARK SMILES IDX 37 57 38 58 49 60 67 61 40 62 27 63 28 64 33 65 29 66 30 67
REMARK SMILES IDX 32 68 34 69 31 70 53 71 54 72 59 73 55 74 56 75 58 76 60 77
REMARK SMILES IDX 57 78 41 79 42 80 47 81 43 82 44 83 46 84 48 85 45 86
REMARK H PARENT 10 6 72 21 15 29 65 48 39 59
REMARK Flexibility Score: inf
ROOT
ATOM      1  C   UNL A   1      32.034  28.923  27.276  1.00  0.00     0.023 C 
ENDROOT
BRANCH   1   2
ATOM      2  C   UNL A   1      31.748  27.838  26.246  1.00  0.00     0.116 C 
BRANCH   2   3
ATOM      3  N   UNL A   1      31.344  26.571  26.838  1.00  0.00    -0.351 N 
ATOM      4  C   UNL A   1      31.621  25.290  26.454  1.00  0.00     0.283 C 
ATOM      5  O   UNL A   1      31.137  24.375  27.132  1.00  0.00    -0.268 OA
ATOM      6  H   UNL A   1      30.783  26.650  27.643  1.00  0.00     0.163 HD
BRANCH   4   7
ATOM      7  C   UNL A   1      32.518  24.984  25.241  1.00  0.00     0.311 C 
BRANCH   7   8
ATOM      8  C   UNL A   1      33.747  24.119  25.568  1.00  0.00     0.081 A 
ATOM      9  C   UNL A   1      35.953  22.486  25.759  1.00  0.00     0.216 A 
ATOM     10  C   UNL A   1      36.151  23.854  25.700  1.00  0.00     0.069 A 
ATOM     11  N   UNL A   1      34.743  21.903  25.810  1.00  0.00    -0.177 NA
ATOM     12  C   UNL A   1      35.031  24.681  25.647  1.00  0.00     0.022 A 
ATOM     13  C   UNL A   1      33.666  22.717  25.728  1.00  0.00     0.226 A 
BRANCH   9  14
ATOM     14  O   UNL A   1      37.012  21.663  25.466  1.00  0.00    -0.481 OA
ATOM     15  C   UNL A   1      36.556  20.402  25.001  1.00  0.00     0.280 C 
ENDBRANCH   9  14
BRANCH  13  16
ATOM     16  O   UNL A   1      32.532  22.036  25.370  1.00  0.00    -0.481 OA
ATOM     17  C   UNL A   1      32.724  20.938  24.498  1.00  0.00     0.280 C 
ENDBRANCH  13  16
ENDBRANCH   7   8
BRANCH   7  18
ATOM     18  N   UNL A   1      31.719  24.599  24.024  1.00  0.00    -0.317 N 
ATOM     19  C   UNL A   1      32.543  24.484  22.794  1.00  0.00     0.292 C 
ATOM     20  C   UNL A   1      30.514  25.386  23.688  1.00  0.00     0.292 C 
ATOM     21  H   UNL A   1      31.376  23.693  24.341  1.00  0.00     0.349 HD
ATOM     22  C   UNL A   1      32.738  25.784  21.990  1.00  0.00     0.221 C 
ATOM     23  C   UNL A   1      30.741  26.669  22.855  1.00  0.00     0.221 C 
ATOM     24  O   UNL A   1      31.479  26.385  21.663  1.00  0.00    -0.370 OA
ENDBRANCH   7  18
ENDBRANCH   4   7
ENDBRANCH   2   3
ENDBRANCH   1   2
BRANCH   1  25
ATOM     25  C   UNL A   1      31.843  30.332  26.736  1.00  0.00     0.023 C 
BRANCH  25  26
ATOM     26  C   UNL A   1      32.968  31.276  27.124  1.00  0.00     0.116 C 
BRANCH  26  27
ATOM     27  N   UNL A   1      32.491  32.640  27.327  1.00  0.00    -0.352 N 
ATOM     28  C   UNL A   1      33.038  33.621  28.108  1.00  0.00     0.251 C 
ATOM     29  H   UNL A   1      31.672  32.886  26.839  1.00  0.00     0.163 HD
ATOM     30  O   UNL A   1      32.435  34.662  28.342  1.00  0.00    -0.269 OA
BRANCH  28  31
ATOM     31  C   UNL A   1      34.366  33.369  28.687  1.00  0.00     0.039 A 
ATOM     32  C   UNL A   1      34.457  32.715  29.913  1.00  0.00     0.014 A 
ATOM     33  C   UNL A   1      35.507  33.674  27.938  1.00  0.00     0.014 A 
ATOM     34  C   UNL A   1      35.709  32.306  30.367  1.00  0.00     0.010 A 
ATOM     35  C   UNL A   1      36.732  33.173  28.341  1.00  0.00     0.010 A 
ATOM     36  C   UNL A   1      36.847  32.495  29.565  1.00  0.00    -0.014 A 
BRANCH  36  37
ATOM     37  C   UNL A   1      38.178  32.009  29.992  1.00  0.00     0.031 A 
ATOM     38  C   UNL A   1      38.683  30.690  29.478  1.00  0.00     0.074 A 
ATOM     39  C   UNL A   1      38.894  32.713  30.889  1.00  0.00     0.049 A 
ATOM     40  N   UNL A   1      39.777  30.046  29.789  1.00  0.00    -0.248 NA
ATOM     41  C   UNL A   1      37.826  29.986  28.508  1.00  0.00     0.031 C 
ATOM     42  C   UNL A   1      38.482  33.980  31.499  1.00  0.00     0.029 A 
ATOM     43  N   UNL A   1      40.117  32.455  31.454  1.00  0.00    -0.354 N 
ATOM     44  C   UNL A   1      39.729  28.858  29.072  1.00  0.00     0.074 A 
ATOM     45  C   UNL A   1      38.471  28.840  28.359  1.00  0.00     0.031 C 
ATOM     46  C   UNL A   1      39.447  34.400  32.333  1.00  0.00     0.029 A 
ATOM     47  C   UNL A   1      40.523  33.414  32.350  1.00  0.00     0.049 A 
ATOM     48  H   UNL A   1      40.653  31.658  31.239  1.00  0.00     0.167 HD
ATOM     49  C   UNL A   1      40.662  27.883  28.992  1.00  0.00     0.037 A 
ATOM     50  C   UNL A   1      41.634  33.482  33.107  1.00  0.00     0.037 A 
ATOM     51  C   UNL A   1      41.923  27.922  29.682  1.00  0.00     0.049 A 
ATOM     52  C   UNL A   1      42.654  32.381  33.006  1.00  0.00     0.074 A 
ATOM     53  C   UNL A   1      42.968  27.017  29.619  1.00  0.00     0.029 A 
ATOM     54  N   UNL A   1      42.308  28.920  30.565  1.00  0.00    -0.354 N 
ATOM     55  N   UNL A   1      42.632  31.298  32.266  1.00  0.00    -0.248 NA
ATOM     56  C   UNL A   1      43.855  32.512  33.842  1.00  0.00     0.031 C 
ATOM     57  C   UNL A   1      43.964  27.440  30.504  1.00  0.00     0.029 A 
ATOM     58  C   UNL A   1      43.565  28.640  31.074  1.00  0.00     0.049 A 
ATOM     59  H   UNL A   1      41.769  29.710  30.795  1.00  0.00     0.167 HD
ATOM     60  C   UNL A   1      43.826  30.637  32.522  1.00  0.00     0.074 A 
ATOM     61  C   UNL A   1      44.554  31.447  33.477  1.00  0.00     0.031 C 
ATOM     62  C   UNL A   1      44.279  29.465  32.015  1.00  0.00     0.037 A 
BRANCH  49  63
ATOM     63  C   UNL A   1      40.353  26.696  28.127  1.00  0.00     0.057 A 
ATOM     64  C   UNL A   1      39.486  25.679  28.546  1.00  0.00     0.134 A 
ATOM     65  C   UNL A   1      40.905  26.585  26.845  1.00  0.00     0.134 A 
ATOM     66  F   UNL A   1      38.936  25.715  29.770  1.00  0.00    -0.206 F 
ATOM     67  C   UNL A   1      39.200  24.580  27.734  1.00  0.00     0.040 A 
ATOM     68  C   UNL A   1      40.603  25.507  26.011  1.00  0.00     0.040 A 
ATOM     69  F   UNL A   1      41.741  27.525  26.378  1.00  0.00    -0.206 F 
ATOM     70  C   UNL A   1      39.754  24.498  26.458  1.00  0.00     0.006 A 
ENDBRANCH  49  63
BRANCH  50  71
ATOM     71  C   UNL A   1      41.851  34.639  34.013  1.00  0.00     0.057 A 
ATOM     72  C   UNL A   1      42.464  35.811  33.557  1.00  0.00     0.134 A 
ATOM     73  C   UNL A   1      41.464  34.597  35.358  1.00  0.00     0.134 A 
ATOM     74  F   UNL A   1      42.874  35.906  32.283  1.00  0.00    -0.206 F 
ATOM     75  C   UNL A   1      42.707  36.890  34.409  1.00  0.00     0.040 A 
ATOM     76  C   UNL A   1      41.675  35.679  36.214  1.00  0.00     0.040 A 
ATOM     77  F   UNL A   1      40.862  33.507  35.858  1.00  0.00    -0.206 F 
ATOM     78  C   UNL A   1      42.307  36.828  35.742  1.00  0.00     0.006 A 
ENDBRANCH  50  71
BRANCH  62  79
ATOM     79  C   UNL A   1      45.641  29.007  32.447  1.00  0.00     0.057 A 
ATOM     80  C   UNL A   1      45.824  28.161  33.548  1.00  0.00     0.134 A 
ATOM     81  C   UNL A   1      46.778  29.379  31.720  1.00  0.00     0.134 A 
ATOM     82  F   UNL A   1      44.777  27.777  34.294  1.00  0.00    -0.206 F 
ATOM     83  C   UNL A   1      47.093  27.718  33.923  1.00  0.00     0.040 A 
ATOM     84  C   UNL A   1      48.049  28.919  32.066  1.00  0.00     0.040 A 
ATOM     85  F   UNL A   1      46.671  30.179  30.648  1.00  0.00    -0.206 F 
ATOM     86  C   UNL A   1      48.210  28.092  33.176  1.00  0.00     0.006 A 
ENDBRANCH  62  79
ENDBRANCH  36  37
ENDBRANCH  28  31
ENDBRANCH  26  27
ENDBRANCH  25  26
ENDBRANCH   1  25
TORSDOF 15
ENDMDL
MODEL 3
REMARK VINA RESULT:     -10.6      2.767      8.214
REMARK SMILES COc1ccc([C@H](C(=O)NCCCCNC(=O)c2ccc(-c3c4nc(c(-c5c(F)cccc5F)c5ccc([nH]5)c(-c5c(F)cccc5F)c5nc(c(-c6c(F)cccc6F)c6ccc3[nH]6)C=C5)C=C4)cc2)[NH+]2CCOCC2)c(OC)n1
REMARK SMILES IDX 12 1 11 2 10 3 8 4 9 5 7 7 6 8 3 9 4 10 81 11 5 12 78 13
REMARK SMILES IDX 2 14 1 15 79 16 80 17 72 18 73 19 77 20 74 22 76 23 75 24
REMARK SMILES IDX 13 25 14 26 15 27 16 28 17 30 18 31 19 32 71 33 20 34 70 35
REMARK SMILES IDX 21 36 22 37 23 38 64 39 24 40 69 41 63 42 65 43 25 44 68 45
REMARK SMILES IDX 62 46 61 47 26 49 52 50 35 51 51 52 36 53 39 54 50 55 66 56
REMARK SMILES IDX 37 57 38 58 49 60 67 61 40 62 27 63 28 64 33 65 29 66 30 67
REMARK SMILES IDX 32 68 34 69 31 70 53 71 54 72 59 73 55 74 56 75 58 76 60 77
REMARK SMILES IDX 57 78 41 79 42 80 47 81 43 82 44 83 46 84 48 85 45 86
REMARK H PARENT 10 6 72 21 15 29 65 48 39 59
REMARK Flexibility Score: inf
ROOT
ATOM      1  C   UNL A   1      31.756  29.389  27.277  1.00  0.00     0.023 C 
ENDROOT
BRANCH   1   2
ATOM      2  C   UNL A   1      31.850  28.252  26.266  1.00  0.00     0.116 C 
BRANCH   2   3
ATOM      3  N   UNL A   1      31.400  26.972  26.794  1.00  0.00    -0.351 N 
ATOM      4  C   UNL A   1      31.511  25.715  26.272  1.00  0.00     0.283 C 
ATOM      5  O   UNL A   1      31.024  24.783  26.923  1.00  0.00    -0.268 OA
ATOM      6  H   UNL A   1      30.945  27.020  27.665  1.00  0.00     0.163 HD
BRANCH   4   7
ATOM      7  C   UNL A   1      32.232  25.453  24.937  1.00  0.00     0.311 C 
BRANCH   7   8
ATOM      8  C   UNL A   1      33.383  24.438  25.030  1.00  0.00     0.081 A 
ATOM      9  C   UNL A   1      35.455  22.643  24.796  1.00  0.00     0.216 A 
ATOM     10  C   UNL A   1      35.757  23.957  25.107  1.00  0.00     0.069 A 
ATOM     11  N   UNL A   1      34.205  22.166  24.680  1.00  0.00    -0.177 NA
ATOM     12  C   UNL A   1      34.703  24.855  25.268  1.00  0.00     0.022 A 
ATOM     13  C   UNL A   1      33.194  23.055  24.809  1.00  0.00     0.226 A 
BRANCH   9  14
ATOM     14  O   UNL A   1      36.459  21.846  24.303  1.00  0.00    -0.481 OA
ATOM     15  C   UNL A   1      37.591  21.873  25.160  1.00  0.00     0.280 C 
ENDBRANCH   9  14
BRANCH  13  16
ATOM     16  O   UNL A   1      32.023  22.586  24.273  1.00  0.00    -0.481 OA
ATOM     17  C   UNL A   1      32.161  21.695  23.181  1.00  0.00     0.280 C 
ENDBRANCH  13  16
ENDBRANCH   7   8
BRANCH   7  18
ATOM     18  N   UNL A   1      31.269  25.286  23.792  1.00  0.00    -0.317 N 
ATOM     19  C   UNL A   1      31.880  25.556  22.466  1.00  0.00     0.292 C 
ATOM     20  C   UNL A   1      29.974  25.996  23.844  1.00  0.00     0.292 C 
ATOM     21  H   UNL A   1      31.046  24.299  23.916  1.00  0.00     0.349 HD
ATOM     22  C   UNL A   1      31.849  27.023  21.996  1.00  0.00     0.221 C 
ATOM     23  C   UNL A   1      29.970  27.457  23.337  1.00  0.00     0.221 C 
ATOM     24  O   UNL A   1      30.516  27.546  22.018  1.00  0.00    -0.370 OA
ENDBRANCH   7  18
ENDBRANCH   4   7
ENDBRANCH   2   3
ENDBRANCH   1   2
BRANCH   1  25
ATOM     25  C   UNL A   1      31.766  30.767  26.634  1.00  0.00     0.023 C 
BRANCH  25  26
ATOM     26  C   UNL A   1      32.936  31.626  27.085  1.00  0.00     0.116 C 
BRANCH  26  27
ATOM     27  N   UNL A   1      32.523  32.988  27.405  1.00  0.00    -0.352 N 
ATOM     28  C   UNL A   1      33.113  33.871  28.267  1.00  0.00     0.251 C 
ATOM     29  H   UNL A   1      31.718  33.313  26.941  1.00  0.00     0.163 HD
ATOM     30  O   UNL A   1      32.558  34.916  28.590  1.00  0.00    -0.269 OA
BRANCH  28  31
ATOM     31  C   UNL A   1      34.425  33.509  28.820  1.00  0.00     0.039 A 
ATOM     32  C   UNL A   1      34.483  32.823  30.032  1.00  0.00     0.014 A 
ATOM     33  C   UNL A   1      35.576  33.744  28.062  1.00  0.00     0.014 A 
ATOM     34  C   UNL A   1      35.707  32.312  30.459  1.00  0.00     0.010 A 
ATOM     35  C   UNL A   1      36.766  33.144  28.437  1.00  0.00     0.010 A 
ATOM     36  C   UNL A   1      36.846  32.433  29.644  1.00  0.00    -0.014 A 
BRANCH  36  37
ATOM     37  C   UNL A   1      38.142  31.840  30.041  1.00  0.00     0.031 A 
ATOM     38  C   UNL A   1      39.056  32.606  30.956  1.00  0.00     0.074 A 
ATOM     39  C   UNL A   1      38.525  30.656  29.526  1.00  0.00     0.049 A 
ATOM     40  N   UNL A   1      40.263  32.308  31.357  1.00  0.00    -0.248 NA
ATOM     41  C   UNL A   1      38.557  33.897  31.461  1.00  0.00     0.031 C 
ATOM     42  C   UNL A   1      37.745  29.847  28.586  1.00  0.00     0.029 A 
ATOM     43  N   UNL A   1      39.675  29.933  29.713  1.00  0.00    -0.354 N 
ATOM     44  C   UNL A   1      40.673  33.379  32.141  1.00  0.00     0.074 A 
ATOM     45  C   UNL A   1      39.613  34.362  32.108  1.00  0.00     0.031 C 
ATOM     46  C   UNL A   1      38.430  28.728  28.299  1.00  0.00     0.029 A 
ATOM     47  C   UNL A   1      39.710  28.760  28.997  1.00  0.00     0.049 A 
ATOM     48  H   UNL A   1      40.407  30.226  30.302  1.00  0.00     0.167 HD
ATOM     49  C   UNL A   1      41.817  33.517  32.847  1.00  0.00     0.037 A 
ATOM     50  C   UNL A   1      40.673  27.824  28.910  1.00  0.00     0.037 A 
ATOM     51  C   UNL A   1      42.854  32.522  32.897  1.00  0.00     0.049 A 
ATOM     52  C   UNL A   1      41.941  28.005  29.700  1.00  0.00     0.074 A 
ATOM     53  C   UNL A   1      44.025  32.535  33.634  1.00  0.00     0.029 A 
ATOM     54  N   UNL A   1      42.844  31.337  32.176  1.00  0.00    -0.354 N 
ATOM     55  N   UNL A   1      42.284  28.987  30.499  1.00  0.00    -0.248 NA
ATOM     56  C   UNL A   1      42.953  26.946  29.580  1.00  0.00     0.031 C 
ATOM     57  C   UNL A   1      44.749  31.381  33.319  1.00  0.00     0.029 A 
ATOM     58  C   UNL A   1      44.002  30.622  32.431  1.00  0.00     0.049 A 
ATOM     59  H   UNL A   1      42.122  31.048  31.574  1.00  0.00     0.167 HD
ATOM     60  C   UNL A   1      43.535  28.650  31.000  1.00  0.00     0.074 A 
ATOM     61  C   UNL A   1      43.883  27.367  30.424  1.00  0.00     0.031 C 
ATOM     62  C   UNL A   1      44.325  29.340  31.857  1.00  0.00     0.037 A 
BRANCH  49  63
ATOM     63  C   UNL A   1      42.003  34.788  33.624  1.00  0.00     0.057 A 
ATOM     64  C   UNL A   1      41.517  34.937  34.929  1.00  0.00     0.134 A 
ATOM     65  C   UNL A   1      42.704  35.866  33.070  1.00  0.00     0.134 A 
ATOM     66  F   UNL A   1      40.823  33.948  35.513  1.00  0.00    -0.206 F 
ATOM     67  C   UNL A   1      41.697  36.120  35.647  1.00  0.00     0.040 A 
ATOM     68  C   UNL A   1      42.918  37.044  33.788  1.00  0.00     0.040 A 
ATOM     69  F   UNL A   1      43.200  35.791  31.826  1.00  0.00    -0.206 F 
ATOM     70  C   UNL A   1      42.408  37.175  35.078  1.00  0.00     0.006 A 
ENDBRANCH  49  63
BRANCH  50  71
ATOM     71  C   UNL A   1      40.473  26.624  28.057  1.00  0.00     0.057 A 
ATOM     72  C   UNL A   1      41.106  26.506  26.815  1.00  0.00     0.134 A 
ATOM     73  C   UNL A   1      39.638  25.574  28.456  1.00  0.00     0.134 A 
ATOM     74  F   UNL A   1      41.905  27.487  26.368  1.00  0.00    -0.206 F 
ATOM     75  C   UNL A   1      40.897  25.400  25.988  1.00  0.00     0.040 A 
ATOM     76  C   UNL A   1      39.442  24.449  27.653  1.00  0.00     0.040 A 
ATOM     77  F   UNL A   1      39.010  25.619  29.640  1.00  0.00    -0.206 F 
ATOM     78  C   UNL A   1      40.066  24.365  26.409  1.00  0.00     0.006 A 
ENDBRANCH  50  71
BRANCH  62  79
ATOM     79  C   UNL A   1      45.624  28.706  32.260  1.00  0.00     0.057 A 
ATOM     80  C   UNL A   1      46.813  28.940  31.559  1.00  0.00     0.134 A 
ATOM     81  C   UNL A   1      45.692  27.889  33.396  1.00  0.00     0.134 A 
ATOM     82  F   UNL A   1      46.814  29.703  30.455  1.00  0.00    -0.206 F 
ATOM     83  C   UNL A   1      48.021  28.367  31.961  1.00  0.00     0.040 A 
ATOM     84  C   UNL A   1      46.899  27.336  33.826  1.00  0.00     0.040 A 
ATOM     85  F   UNL A   1      44.592  27.633  34.119  1.00  0.00    -0.206 F 
ATOM     86  C   UNL A   1      48.066  27.568  33.103  1.00  0.00     0.006 A 
ENDBRANCH  62  79
ENDBRANCH  36  37
ENDBRANCH  28  31
ENDBRANCH  26  27
ENDBRANCH  25  26
ENDBRANCH   1  25
TORSDOF 15
ENDMDL
