MODEL 1
REMARK VINA RESULT:     -10.9      0.000      0.000
REMARK SMILES Cc1ccc(OCCn2ccnc2)c(/C=C/C(=O)NCCCCNC(=O)c2ccc(-c3c4nc(c(-c5c(F)cccc5F)c5ccc([nH]5)c(-c5c(F)cccc5F)c5nc(c(-c6c(F)cccc6F)c6ccc3[nH]6)C=C5)C=C4)cc2)n1
REMARK SMILES IDX 20 1 19 2 17 3 18 4 16 6 15 7 14 8 1 9 2 10 3 11 81 12 4 13
REMARK SMILES IDX 5 14 6 15 7 16 8 17 9 18 10 19 13 20 11 21 12 22 21 23 22 24
REMARK SMILES IDX 23 25 24 26 25 27 26 29 27 30 28 31 80 32 29 33 79 34 30 35
REMARK SMILES IDX 31 36 32 37 73 38 33 39 78 40 72 41 74 42 34 43 77 44 71 45
REMARK SMILES IDX 70 46 35 48 61 49 44 50 60 51 45 52 48 53 59 54 75 55 46 56
REMARK SMILES IDX 47 57 58 59 76 60 49 61 36 62 37 63 42 64 38 65 39 66 41 67
REMARK SMILES IDX 43 68 40 69 62 70 63 71 68 72 64 73 65 74 67 75 69 76 66 77
REMARK SMILES IDX 50 78 51 79 56 80 52 81 53 82 55 83 57 84 54 85
REMARK H PARENT 19 5 24 28 74 47 48 58
REMARK Flexibility Score: inf
ROOT
ATOM      1  C   UNL A   1      39.709  20.964  26.297  1.00  0.00     0.116 C 
ENDROOT
BRANCH   1   2
ATOM      2  N   UNL A   1      39.292  22.349  26.202  1.00  0.00    -0.353 N 
ATOM      3  C   UNL A   1      38.149  22.956  25.795  1.00  0.00     0.244 C 
ATOM      4  O   UNL A   1      38.069  24.176  25.953  1.00  0.00    -0.270 OA
ATOM      5  H   UNL A   1      39.985  22.984  26.496  1.00  0.00     0.163 HD
BRANCH   3   6
ATOM      6  C   UNL A   1      36.988  22.252  25.191  1.00  0.00     0.073 C 
ATOM      7  C   UNL A   1      35.788  22.749  24.862  1.00  0.00     0.038 C 
BRANCH   7   8
ATOM      8  C   UNL A   1      34.636  21.978  24.357  1.00  0.00     0.105 A 
ATOM      9  C   UNL A   1      33.112  18.704  25.095  1.00  0.00     0.067 C 
ATOM     10  C   UNL A   1      33.298  20.090  24.552  1.00  0.00     0.038 A 
ATOM     11  C   UNL A   1      32.344  20.640  23.706  1.00  0.00     0.027 A 
ATOM     12  N   UNL A   1      34.413  20.764  24.925  1.00  0.00    -0.250 NA
ATOM     13  C   UNL A   1      32.596  21.877  23.117  1.00  0.00     0.050 A 
ATOM     14  C   UNL A   1      33.797  22.528  23.371  1.00  0.00     0.145 A 
BRANCH  14  15
ATOM     15  O   UNL A   1      34.224  23.655  22.718  1.00  0.00    -0.489 OA
BRANCH  15  16
ATOM     16  C   UNL A   1      33.281  24.399  21.935  1.00  0.00     0.251 C 
BRANCH  16  17
ATOM     17  C   UNL A   1      33.123  25.868  22.356  1.00  0.00     0.164 C 
BRANCH  17  18
ATOM     18  N   UNL A   1      31.938  26.138  23.144  1.00  0.00    -0.334 N 
ATOM     19  C   UNL A   1      30.883  25.288  23.336  1.00  0.00     0.107 A 
ATOM     20  C   UNL A   1      31.686  27.276  23.856  1.00  0.00     0.199 A 
ATOM     21  C   UNL A   1      30.079  25.926  24.250  1.00  0.00     0.130 A 
ATOM     22  N   UNL A   1      30.585  27.163  24.563  1.00  0.00    -0.245 NA
ENDBRANCH  17  18
ENDBRANCH  16  17
ENDBRANCH  15  16
ENDBRANCH  14  15
ENDBRANCH   7   8
ENDBRANCH   3   6
ENDBRANCH   1   2
BRANCH   1  23
ATOM     23  C   UNL A   1      41.233  20.796  26.345  1.00  0.00     0.023 C 
BRANCH  23  24
ATOM     24  C   UNL A   1      41.774  19.476  25.773  1.00  0.00     0.023 C 
BRANCH  24  25
ATOM     25  C   UNL A   1      43.217  19.130  26.140  1.00  0.00     0.116 C 
BRANCH  25  26
ATOM     26  N   UNL A   1      44.118  19.047  24.986  1.00  0.00    -0.352 N 
ATOM     27  C   UNL A   1      44.581  20.083  24.191  1.00  0.00     0.251 C 
ATOM     28  H   UNL A   1      44.432  18.145  24.747  1.00  0.00     0.163 HD
ATOM     29  O   UNL A   1      45.009  19.885  23.064  1.00  0.00    -0.269 OA
BRANCH  27  30
ATOM     30  C   UNL A   1      44.570  21.443  24.756  1.00  0.00     0.039 A 
ATOM     31  C   UNL A   1      43.717  22.440  24.284  1.00  0.00     0.014 A 
ATOM     32  C   UNL A   1      45.389  21.666  25.854  1.00  0.00     0.014 A 
ATOM     33  C   UNL A   1      43.621  23.633  25.003  1.00  0.00     0.010 A 
ATOM     34  C   UNL A   1      45.167  22.762  26.650  1.00  0.00     0.010 A 
ATOM     35  C   UNL A   1      44.324  23.779  26.211  1.00  0.00    -0.014 A 
BRANCH  35  36
ATOM     36  C   UNL A   1      44.130  24.961  27.055  1.00  0.00     0.031 A 
ATOM     37  C   UNL A   1      45.220  25.984  27.018  1.00  0.00     0.074 A 
ATOM     38  C   UNL A   1      42.971  25.237  27.693  1.00  0.00     0.049 A 
ATOM     39  N   UNL A   1      45.998  26.350  27.984  1.00  0.00    -0.248 NA
ATOM     40  C   UNL A   1      45.538  26.622  25.731  1.00  0.00     0.031 C 
ATOM     41  C   UNL A   1      41.680  24.539  27.625  1.00  0.00     0.029 A 
ATOM     42  N   UNL A   1      42.687  26.295  28.500  1.00  0.00    -0.354 N 
ATOM     43  C   UNL A   1      46.800  27.377  27.484  1.00  0.00     0.074 A 
ATOM     44  C   UNL A   1      46.558  27.416  26.064  1.00  0.00     0.031 C 
ATOM     45  C   UNL A   1      40.710  25.318  28.152  1.00  0.00     0.029 A 
ATOM     46  C   UNL A   1      41.340  26.462  28.777  1.00  0.00     0.049 A 
ATOM     47  H   UNL A   1      43.383  26.894  28.858  1.00  0.00     0.167 HD
ATOM     48  C   UNL A   1      47.469  28.233  28.307  1.00  0.00     0.037 A 
ATOM     49  C   UNL A   1      40.771  27.472  29.477  1.00  0.00     0.037 A 
ATOM     50  C   UNL A   1      47.541  27.718  29.650  1.00  0.00     0.049 A 
ATOM     51  C   UNL A   1      41.833  28.084  30.306  1.00  0.00     0.074 A 
ATOM     52  C   UNL A   1      48.099  26.599  30.234  1.00  0.00     0.029 A 
ATOM     53  N   UNL A   1      46.660  28.217  30.577  1.00  0.00    -0.354 N 
ATOM     54  N   UNL A   1      42.420  27.478  31.300  1.00  0.00    -0.248 NA
ATOM     55  C   UNL A   1      42.558  29.213  29.745  1.00  0.00     0.031 C 
ATOM     56  C   UNL A   1      47.163  26.205  31.234  1.00  0.00     0.029 A 
ATOM     57  C   UNL A   1      46.127  27.141  31.236  1.00  0.00     0.049 A 
ATOM     58  H   UNL A   1      46.452  29.167  30.738  1.00  0.00     0.167 HD
ATOM     59  C   UNL A   1      43.749  27.866  31.217  1.00  0.00     0.074 A 
ATOM     60  C   UNL A   1      43.754  29.004  30.300  1.00  0.00     0.031 C 
ATOM     61  C   UNL A   1      44.753  27.064  31.677  1.00  0.00     0.037 A 
BRANCH  48  62
ATOM     62  C   UNL A   1      47.783  29.678  28.002  1.00  0.00     0.057 A 
ATOM     63  C   UNL A   1      46.737  30.559  27.657  1.00  0.00     0.134 A 
ATOM     64  C   UNL A   1      49.080  30.163  27.743  1.00  0.00     0.134 A 
ATOM     65  F   UNL A   1      45.455  30.215  27.847  1.00  0.00    -0.206 F 
ATOM     66  C   UNL A   1      46.966  31.790  27.029  1.00  0.00     0.040 A 
ATOM     67  C   UNL A   1      49.320  31.412  27.160  1.00  0.00     0.040 A 
ATOM     68  F   UNL A   1      50.173  29.418  27.944  1.00  0.00    -0.206 F 
ATOM     69  C   UNL A   1      48.261  32.216  26.769  1.00  0.00     0.006 A 
ENDBRANCH  48  62
BRANCH  49  70
ATOM     70  C   UNL A   1      39.459  28.111  29.251  1.00  0.00     0.057 A 
ATOM     71  C   UNL A   1      38.499  28.180  30.267  1.00  0.00     0.134 A 
ATOM     72  C   UNL A   1      39.229  28.916  28.120  1.00  0.00     0.134 A 
ATOM     73  F   UNL A   1      38.654  27.474  31.396  1.00  0.00    -0.206 F 
ATOM     74  C   UNL A   1      37.386  29.026  30.180  1.00  0.00     0.040 A 
ATOM     75  C   UNL A   1      38.120  29.761  28.018  1.00  0.00     0.040 A 
ATOM     76  F   UNL A   1      40.121  28.974  27.120  1.00  0.00    -0.206 F 
ATOM     77  C   UNL A   1      37.201  29.830  29.058  1.00  0.00     0.006 A 
ENDBRANCH  49  70
BRANCH  61  78
ATOM     78  C   UNL A   1      44.382  25.854  32.490  1.00  0.00     0.057 A 
ATOM     79  C   UNL A   1      44.263  24.560  31.962  1.00  0.00     0.134 A 
ATOM     80  C   UNL A   1      44.327  25.975  33.883  1.00  0.00     0.134 A 
ATOM     81  F   UNL A   1      44.396  24.330  30.651  1.00  0.00    -0.206 F 
ATOM     82  C   UNL A   1      44.072  23.442  32.781  1.00  0.00     0.040 A 
ATOM     83  C   UNL A   1      44.168  24.863  34.714  1.00  0.00     0.040 A 
ATOM     84  F   UNL A   1      44.490  27.174  34.464  1.00  0.00    -0.206 F 
ATOM     85  C   UNL A   1      44.034  23.591  34.164  1.00  0.00     0.006 A 
ENDBRANCH  61  78
ENDBRANCH  35  36
ENDBRANCH  27  30
ENDBRANCH  25  26
ENDBRANCH  24  25
ENDBRANCH  23  24
ENDBRANCH   1  23
TORSDOF 16
ENDMDL
MODEL 2
REMARK VINA RESULT:     -10.9      2.788      8.428
REMARK SMILES Cc1ccc(OCCn2ccnc2)c(/C=C/C(=O)NCCCCNC(=O)c2ccc(-c3c4nc(c(-c5c(F)cccc5F)c5ccc([nH]5)c(-c5c(F)cccc5F)c5nc(c(-c6c(F)cccc6F)c6ccc3[nH]6)C=C5)C=C4)cc2)n1
REMARK SMILES IDX 20 1 19 2 17 3 18 4 16 6 15 7 14 8 1 9 2 10 3 11 81 12 4 13
REMARK SMILES IDX 5 14 6 15 7 16 8 17 9 18 10 19 13 20 11 21 12 22 21 23 22 24
REMARK SMILES IDX 23 25 24 26 25 27 26 29 27 30 28 31 80 32 29 33 79 34 30 35
REMARK SMILES IDX 31 36 32 37 73 38 33 39 78 40 72 41 74 42 34 43 77 44 71 45
REMARK SMILES IDX 70 46 35 48 61 49 44 50 60 51 45 52 48 53 59 54 75 55 46 56
REMARK SMILES IDX 47 57 58 59 76 60 49 61 36 62 37 63 42 64 38 65 39 66 41 67
REMARK SMILES IDX 43 68 40 69 62 70 63 71 68 72 64 73 65 74 67 75 69 76 66 77
REMARK SMILES IDX 50 78 51 79 56 80 52 81 53 82 55 83 57 84 54 85
REMARK H PARENT 19 5 24 28 74 47 48 58
REMARK Flexibility Score: inf
ROOT
ATOM      1  C   UNL A   1      33.113  28.786  25.525  1.00  0.00     0.116 C 
ENDROOT
BRANCH   1   2
ATOM      2  N   UNL A   1      32.103  27.837  25.948  1.00  0.00    -0.353 N 
ATOM      3  C   UNL A   1      32.103  26.493  26.136  1.00  0.00     0.244 C 
ATOM      4  O   UNL A   1      31.090  25.991  26.627  1.00  0.00    -0.270 OA
ATOM      5  H   UNL A   1      31.233  28.256  26.141  1.00  0.00     0.163 HD
BRANCH   3   6
ATOM      6  C   UNL A   1      33.239  25.594  25.807  1.00  0.00     0.073 C 
ATOM      7  C   UNL A   1      33.245  24.258  25.704  1.00  0.00     0.038 C 
BRANCH   7   8
ATOM      8  C   UNL A   1      34.431  23.409  25.474  1.00  0.00     0.105 A 
ATOM      9  C   UNL A   1      38.050  23.682  26.115  1.00  0.00     0.067 C 
ATOM     10  C   UNL A   1      36.712  23.096  25.774  1.00  0.00     0.038 A 
ATOM     11  C   UNL A   1      36.613  21.769  25.377  1.00  0.00     0.027 A 
ATOM     12  N   UNL A   1      35.629  23.904  25.878  1.00  0.00    -0.250 NA
ATOM     13  C   UNL A   1      35.381  21.282  24.947  1.00  0.00     0.050 A 
ATOM     14  C   UNL A   1      34.281  22.130  24.909  1.00  0.00     0.145 A 
BRANCH  14  15
ATOM     15  O   UNL A   1      33.073  21.810  24.347  1.00  0.00    -0.489 OA
BRANCH  15  16
ATOM     16  C   UNL A   1      32.873  20.483  23.844  1.00  0.00     0.251 C 
BRANCH  16  17
ATOM     17  C   UNL A   1      32.529  19.441  24.920  1.00  0.00     0.164 C 
BRANCH  17  18
ATOM     18  N   UNL A   1      33.010  18.106  24.630  1.00  0.00    -0.334 N 
ATOM     19  C   UNL A   1      33.154  17.085  25.529  1.00  0.00     0.107 A 
ATOM     20  C   UNL A   1      33.372  17.629  23.402  1.00  0.00     0.199 A 
ATOM     21  C   UNL A   1      33.508  15.995  24.770  1.00  0.00     0.130 A 
ATOM     22  N   UNL A   1      33.645  16.345  23.450  1.00  0.00    -0.245 NA
ENDBRANCH  17  18
ENDBRANCH  16  17
ENDBRANCH  15  16
ENDBRANCH  14  15
ENDBRANCH   7   8
ENDBRANCH   3   6
ENDBRANCH   1   2
BRANCH   1  23
ATOM     23  C   UNL A   1      34.092  29.164  26.643  1.00  0.00     0.023 C 
BRANCH  23  24
ATOM     24  C   UNL A   1      33.588  30.223  27.638  1.00  0.00     0.023 C 
BRANCH  24  25
ATOM     25  C   UNL A   1      34.336  31.556  27.631  1.00  0.00     0.116 C 
BRANCH  25  26
ATOM     26  N   UNL A   1      34.403  32.204  28.943  1.00  0.00    -0.352 N 
ATOM     27  C   UNL A   1      35.219  31.877  30.015  1.00  0.00     0.251 C 
ATOM     28  H   UNL A   1      33.794  32.965  29.081  1.00  0.00     0.163 HD
ATOM     29  O   UNL A   1      34.948  32.219  31.155  1.00  0.00    -0.269 OA
BRANCH  27  30
ATOM     30  C   UNL A   1      36.451  31.119  29.736  1.00  0.00     0.039 A 
ATOM     31  C   UNL A   1      37.679  31.744  29.519  1.00  0.00     0.014 A 
ATOM     32  C   UNL A   1      36.355  29.736  29.792  1.00  0.00     0.014 A 
ATOM     33  C   UNL A   1      38.829  30.955  29.466  1.00  0.00     0.010 A 
ATOM     34  C   UNL A   1      37.497  28.984  29.913  1.00  0.00     0.010 A 
ATOM     35  C   UNL A   1      38.740  29.572  29.700  1.00  0.00    -0.014 A 
BRANCH  35  36
ATOM     36  C   UNL A   1      39.947  28.747  29.792  1.00  0.00     0.031 A 
ATOM     37  C   UNL A   1      40.509  28.551  31.164  1.00  0.00     0.074 A 
ATOM     38  C   UNL A   1      40.443  28.036  28.755  1.00  0.00     0.049 A 
ATOM     39  N   UNL A   1      41.654  28.947  31.617  1.00  0.00    -0.248 NA
ATOM     40  C   UNL A   1      39.663  27.906  32.181  1.00  0.00     0.031 C 
ATOM     41  C   UNL A   1      39.885  27.836  27.410  1.00  0.00     0.029 A 
ATOM     42  N   UNL A   1      41.552  27.248  28.730  1.00  0.00    -0.354 N 
ATOM     43  C   UNL A   1      41.753  28.469  32.924  1.00  0.00     0.074 A 
ATOM     44  C   UNL A   1      40.454  27.943  33.256  1.00  0.00     0.031 C 
ATOM     45  C   UNL A   1      40.517  26.809  26.802  1.00  0.00     0.029 A 
ATOM     46  C   UNL A   1      41.648  26.424  27.620  1.00  0.00     0.049 A 
ATOM     47  H   UNL A   1      42.231  27.261  29.444  1.00  0.00     0.167 HD
ATOM     48  C   UNL A   1      42.952  28.382  33.569  1.00  0.00     0.037 A 
ATOM     49  C   UNL A   1      42.594  25.486  27.381  1.00  0.00     0.037 A 
ATOM     50  C   UNL A   1      43.960  29.166  32.905  1.00  0.00     0.049 A 
ATOM     51  C   UNL A   1      43.762  25.815  28.228  1.00  0.00     0.074 A 
ATOM     52  C   UNL A   1      44.122  30.508  32.624  1.00  0.00     0.029 A 
ATOM     53  N   UNL A   1      44.852  28.509  32.093  1.00  0.00    -0.354 N 
ATOM     54  N   UNL A   1      44.506  26.874  28.062  1.00  0.00    -0.248 NA
ATOM     55  C   UNL A   1      43.836  25.197  29.542  1.00  0.00     0.031 C 
ATOM     56  C   UNL A   1      44.707  30.539  31.324  1.00  0.00     0.029 A 
ATOM     57  C   UNL A   1      44.920  29.219  30.924  1.00  0.00     0.049 A 
ATOM     58  H   UNL A   1      45.349  27.687  32.311  1.00  0.00     0.167 HD
ATOM     59  C   UNL A   1      44.807  27.300  29.347  1.00  0.00     0.074 A 
ATOM     60  C   UNL A   1      44.447  26.178  30.212  1.00  0.00     0.031 C 
ATOM     61  C   UNL A   1      45.058  28.614  29.619  1.00  0.00     0.037 A 
BRANCH  48  62
ATOM     62  C   UNL A   1      43.316  27.348  34.607  1.00  0.00     0.057 A 
ATOM     63  C   UNL A   1      43.457  25.999  34.225  1.00  0.00     0.134 A 
ATOM     64  C   UNL A   1      43.241  27.569  35.996  1.00  0.00     0.134 A 
ATOM     65  F   UNL A   1      43.534  25.653  32.931  1.00  0.00    -0.206 F 
ATOM     66  C   UNL A   1      43.442  24.948  35.151  1.00  0.00     0.040 A 
ATOM     67  C   UNL A   1      43.274  26.529  36.932  1.00  0.00     0.040 A 
ATOM     68  F   UNL A   1      43.031  28.785  36.515  1.00  0.00    -0.206 F 
ATOM     69  C   UNL A   1      43.340  25.211  36.510  1.00  0.00     0.006 A 
ENDBRANCH  48  62
BRANCH  49  70
ATOM     70  C   UNL A   1      42.436  24.185  26.701  1.00  0.00     0.057 A 
ATOM     71  C   UNL A   1      43.198  23.856  25.574  1.00  0.00     0.134 A 
ATOM     72  C   UNL A   1      41.736  23.128  27.309  1.00  0.00     0.134 A 
ATOM     73  F   UNL A   1      43.926  24.793  24.950  1.00  0.00    -0.206 F 
ATOM     74  C   UNL A   1      43.286  22.542  25.095  1.00  0.00     0.040 A 
ATOM     75  C   UNL A   1      41.811  21.813  26.839  1.00  0.00     0.040 A 
ATOM     76  F   UNL A   1      41.029  23.323  28.433  1.00  0.00    -0.206 F 
ATOM     77  C   UNL A   1      42.601  21.514  25.737  1.00  0.00     0.006 A 
ENDBRANCH  49  70
BRANCH  61  78
ATOM     78  C   UNL A   1      45.237  29.558  28.462  1.00  0.00     0.057 A 
ATOM     79  C   UNL A   1      44.192  30.293  27.881  1.00  0.00     0.134 A 
ATOM     80  C   UNL A   1      46.536  29.873  28.049  1.00  0.00     0.134 A 
ATOM     81  F   UNL A   1      42.925  30.131  28.278  1.00  0.00    -0.206 F 
ATOM     82  C   UNL A   1      44.428  31.276  26.914  1.00  0.00     0.040 A 
ATOM     83  C   UNL A   1      46.788  30.874  27.106  1.00  0.00     0.040 A 
ATOM     84  F   UNL A   1      47.589  29.252  28.601  1.00  0.00    -0.206 F 
ATOM     85  C   UNL A   1      45.731  31.575  26.531  1.00  0.00     0.006 A 
ENDBRANCH  61  78
ENDBRANCH  35  36
ENDBRANCH  27  30
ENDBRANCH  25  26
ENDBRANCH  24  25
ENDBRANCH  23  24
ENDBRANCH   1  23
TORSDOF 16
ENDMDL
MODEL 3
REMARK VINA RESULT:     -10.9      1.486      3.410
REMARK SMILES Cc1ccc(OCCn2ccnc2)c(/C=C/C(=O)NCCCCNC(=O)c2ccc(-c3c4nc(c(-c5c(F)cccc5F)c5ccc([nH]5)c(-c5c(F)cccc5F)c5nc(c(-c6c(F)cccc6F)c6ccc3[nH]6)C=C5)C=C4)cc2)n1
REMARK SMILES IDX 20 1 19 2 17 3 18 4 16 6 15 7 14 8 1 9 2 10 3 11 81 12 4 13
REMARK SMILES IDX 5 14 6 15 7 16 8 17 9 18 10 19 13 20 11 21 12 22 21 23 22 24
REMARK SMILES IDX 23 25 24 26 25 27 26 29 27 30 28 31 80 32 29 33 79 34 30 35
REMARK SMILES IDX 31 36 32 37 73 38 33 39 78 40 72 41 74 42 34 43 77 44 71 45
REMARK SMILES IDX 70 46 35 48 61 49 44 50 60 51 45 52 48 53 59 54 75 55 46 56
REMARK SMILES IDX 47 57 58 59 76 60 49 61 36 62 37 63 42 64 38 65 39 66 41 67
REMARK SMILES IDX 43 68 40 69 62 70 63 71 68 72 64 73 65 74 67 75 69 76 66 77
REMARK SMILES IDX 50 78 51 79 56 80 52 81 53 82 55 83 57 84 54 85
REMARK H PARENT 19 5 24 28 74 47 48 58
REMARK Flexibility Score: inf
ROOT
ATOM      1  C   UNL A   1      38.781  20.489  25.530  1.00  0.00     0.116 C 
ENDROOT
BRANCH   1   2
ATOM      2  N   UNL A   1      38.830  21.886  25.913  1.00  0.00    -0.353 N 
ATOM      3  C   UNL A   1      38.019  22.949  25.680  1.00  0.00     0.244 C 
ATOM      4  O   UNL A   1      38.288  24.003  26.261  1.00  0.00    -0.270 OA
ATOM      5  H   UNL A   1      39.618  22.111  26.458  1.00  0.00     0.163 HD
BRANCH   3   6
ATOM      6  C   UNL A   1      36.828  22.925  24.792  1.00  0.00     0.073 C 
ATOM      7  C   UNL A   1      35.682  23.607  24.912  1.00  0.00     0.038 C 
BRANCH   7   8
ATOM      8  C   UNL A   1      34.491  23.465  24.052  1.00  0.00     0.105 A 
ATOM      9  C   UNL A   1      32.774  25.545  21.540  1.00  0.00     0.067 C 
ATOM     10  C   UNL A   1      33.171  24.354  22.361  1.00  0.00     0.038 A 
ATOM     11  C   UNL A   1      32.502  23.147  22.206  1.00  0.00     0.027 A 
ATOM     12  N   UNL A   1      34.195  24.509  23.235  1.00  0.00    -0.250 NA
ATOM     13  C   UNL A   1      32.804  22.092  23.064  1.00  0.00     0.050 A 
ATOM     14  C   UNL A   1      33.752  22.269  24.064  1.00  0.00     0.145 A 
BRANCH  14  15
ATOM     15  O   UNL A   1      34.003  21.366  25.065  1.00  0.00    -0.489 OA
BRANCH  15  16
ATOM     16  C   UNL A   1      34.148  19.980  24.727  1.00  0.00     0.251 C 
BRANCH  16  17
ATOM     17  C   UNL A   1      33.041  19.071  25.282  1.00  0.00     0.164 C 
BRANCH  17  18
ATOM     18  N   UNL A   1      33.321  17.654  25.165  1.00  0.00    -0.334 N 
ATOM     19  C   UNL A   1      32.552  16.635  25.654  1.00  0.00     0.107 A 
ATOM     20  C   UNL A   1      34.387  17.095  24.519  1.00  0.00     0.199 A 
ATOM     21  C   UNL A   1      33.148  15.488  25.184  1.00  0.00     0.130 A 
ATOM     22  N   UNL A   1      34.290  15.785  24.485  1.00  0.00    -0.245 NA
ENDBRANCH  17  18
ENDBRANCH  16  17
ENDBRANCH  15  16
ENDBRANCH  14  15
ENDBRANCH   7   8
ENDBRANCH   3   6
ENDBRANCH   1   2
BRANCH   1  23
ATOM     23  C   UNL A   1      40.073  19.730  25.855  1.00  0.00     0.023 C 
BRANCH  23  24
ATOM     24  C   UNL A   1      41.312  20.604  26.109  1.00  0.00     0.023 C 
BRANCH  24  25
ATOM     25  C   UNL A   1      42.518  19.893  26.723  1.00  0.00     0.116 C 
BRANCH  25  26
ATOM     26  N   UNL A   1      43.603  19.639  25.772  1.00  0.00    -0.352 N 
ATOM     27  C   UNL A   1      44.257  20.553  24.961  1.00  0.00     0.251 C 
ATOM     28  H   UNL A   1      43.905  18.704  25.699  1.00  0.00     0.163 HD
ATOM     29  O   UNL A   1      44.867  20.203  23.963  1.00  0.00    -0.269 OA
BRANCH  27  30
ATOM     30  C   UNL A   1      44.221  21.972  25.354  1.00  0.00     0.039 A 
ATOM     31  C   UNL A   1      43.498  22.926  24.638  1.00  0.00     0.014 A 
ATOM     32  C   UNL A   1      44.868  22.306  26.536  1.00  0.00     0.014 A 
ATOM     33  C   UNL A   1      43.347  24.200  25.188  1.00  0.00     0.010 A 
ATOM     34  C   UNL A   1      44.574  23.497  27.152  1.00  0.00     0.010 A 
ATOM     35  C   UNL A   1      43.858  24.475  26.468  1.00  0.00    -0.014 A 
BRANCH  35  36
ATOM     36  C   UNL A   1      43.590  25.756  27.125  1.00  0.00     0.031 A 
ATOM     37  C   UNL A   1      44.535  26.870  26.810  1.00  0.00     0.074 A 
ATOM     38  C   UNL A   1      42.464  26.009  27.830  1.00  0.00     0.049 A 
ATOM     39  N   UNL A   1      45.340  27.482  27.617  1.00  0.00    -0.248 NA
ATOM     40  C   UNL A   1      44.659  27.307  25.410  1.00  0.00     0.031 C 
ATOM     41  C   UNL A   1      41.269  25.172  28.010  1.00  0.00     0.029 A 
ATOM     42  N   UNL A   1      42.119  27.153  28.480  1.00  0.00    -0.354 N 
ATOM     43  C   UNL A   1      45.961  28.488  26.876  1.00  0.00     0.074 A 
ATOM     44  C   UNL A   1      45.595  28.255  25.502  1.00  0.00     0.031 C 
ATOM     45  C   UNL A   1      40.258  25.919  28.503  1.00  0.00     0.029 A 
ATOM     46  C   UNL A   1      40.789  27.217  28.867  1.00  0.00     0.049 A 
ATOM     47  H   UNL A   1      42.761  27.877  28.661  1.00  0.00     0.167 HD
ATOM     48  C   UNL A   1      46.584  29.542  27.476  1.00  0.00     0.037 A 
ATOM     49  C   UNL A   1      40.159  28.263  29.450  1.00  0.00     0.037 A 
ATOM     50  C   UNL A   1      46.834  29.277  28.869  1.00  0.00     0.049 A 
ATOM     51  C   UNL A   1      41.203  29.122  30.053  1.00  0.00     0.074 A 
ATOM     52  C   UNL A   1      47.577  28.345  29.564  1.00  0.00     0.029 A 
ATOM     53  N   UNL A   1      45.980  29.829  29.790  1.00  0.00    -0.354 N 
ATOM     54  N   UNL A   1      41.944  28.765  31.065  1.00  0.00    -0.248 NA
ATOM     55  C   UNL A   1      41.729  30.210  29.244  1.00  0.00     0.031 C 
ATOM     56  C   UNL A   1      46.786  28.029  30.707  1.00  0.00     0.029 A 
ATOM     57  C   UNL A   1      45.645  28.831  30.667  1.00  0.00     0.049 A 
ATOM     58  H   UNL A   1      45.668  30.764  29.817  1.00  0.00     0.167 HD
ATOM     59  C   UNL A   1      43.201  29.277  30.781  1.00  0.00     0.074 A 
ATOM     60  C   UNL A   1      42.985  30.233  29.697  1.00  0.00     0.031 C 
ATOM     61  C   UNL A   1      44.334  28.681  31.256  1.00  0.00     0.037 A 
BRANCH  48  62
ATOM     62  C   UNL A   1      46.687  30.938  26.910  1.00  0.00     0.057 A 
ATOM     63  C   UNL A   1      47.932  31.597  26.908  1.00  0.00     0.134 A 
ATOM     64  C   UNL A   1      45.576  31.763  26.646  1.00  0.00     0.134 A 
ATOM     65  F   UNL A   1      49.068  30.927  27.152  1.00  0.00    -0.206 F 
ATOM     66  C   UNL A   1      48.051  32.983  26.737  1.00  0.00     0.040 A 
ATOM     67  C   UNL A   1      45.688  33.140  26.426  1.00  0.00     0.040 A 
ATOM     68  F   UNL A   1      44.320  31.302  26.687  1.00  0.00    -0.206 F 
ATOM     69  C   UNL A   1      46.925  33.761  26.505  1.00  0.00     0.006 A 
ENDBRANCH  48  62
BRANCH  49  70
ATOM     70  C   UNL A   1      38.763  28.706  29.263  1.00  0.00     0.057 A 
ATOM     71  C   UNL A   1      37.861  28.739  30.332  1.00  0.00     0.134 A 
ATOM     72  C   UNL A   1      38.364  29.372  28.090  1.00  0.00     0.134 A 
ATOM     73  F   UNL A   1      38.173  28.160  31.501  1.00  0.00    -0.206 F 
ATOM     74  C   UNL A   1      36.641  29.423  30.254  1.00  0.00     0.040 A 
ATOM     75  C   UNL A   1      37.147  30.056  27.996  1.00  0.00     0.040 A 
ATOM     76  F   UNL A   1      39.182  29.457  27.031  1.00  0.00    -0.206 F 
ATOM     77  C   UNL A   1      36.288  30.096  29.087  1.00  0.00     0.006 A 
ENDBRANCH  49  70
BRANCH  61  78
ATOM     78  C   UNL A   1      44.189  27.597  32.289  1.00  0.00     0.057 A 
ATOM     79  C   UNL A   1      44.164  26.227  31.989  1.00  0.00     0.134 A 
ATOM     80  C   UNL A   1      44.265  27.946  33.641  1.00  0.00     0.134 A 
ATOM     81  F   UNL A   1      44.185  25.792  30.724  1.00  0.00    -0.206 F 
ATOM     82  C   UNL A   1      44.187  25.250  32.991  1.00  0.00     0.040 A 
ATOM     83  C   UNL A   1      44.320  26.980  34.650  1.00  0.00     0.040 A 
ATOM     84  F   UNL A   1      44.350  29.236  34.002  1.00  0.00    -0.206 F 
ATOM     85  C   UNL A   1      44.275  25.626  34.327  1.00  0.00     0.006 A 
ENDBRANCH  61  78
ENDBRANCH  35  36
ENDBRANCH  27  30
ENDBRANCH  25  26
ENDBRANCH  24  25
ENDBRANCH  23  24
ENDBRANCH   1  23
TORSDOF 16
ENDMDL
