MODEL 1
REMARK VINA RESULT:      -9.7      0.000      0.000
REMARK SMILES O=C(C[C@H]1C[N@@H+](Cc2c(F)cccc2F)CCO1)NCCCCNC(=O)c1ccc(-c2c3nc(c(-c4c(F)cccc4F)c4ccc([nH]4)c(-c4c(F)cccc4F)c4nc(c(-c5c(F)cccc5F)c5ccc2[nH]5)C=C4)C=C3)cc1
REMARK SMILES IDX 21 1 20 2 19 3 1 4 2 5 3 7 4 8 5 9 18 10 6 11 17 12 16 13
REMARK SMILES IDX 7 15 8 16 9 17 14 18 10 19 11 20 13 21 15 22 12 23 22 24
REMARK SMILES IDX 23 25 24 26 25 27 26 29 27 30 28 31 80 32 29 33 79 34 30 35
REMARK SMILES IDX 31 36 32 37 73 38 33 39 78 40 72 41 74 42 34 43 77 44 71 45
REMARK SMILES IDX 70 46 35 48 61 49 44 50 60 51 45 52 48 53 59 54 75 55 46 56
REMARK SMILES IDX 47 57 58 59 76 60 49 61 36 62 37 63 42 64 38 65 39 66 41 67
REMARK SMILES IDX 43 68 40 69 62 70 63 71 68 72 64 73 65 74 67 75 69 76 66 77
REMARK SMILES IDX 50 78 51 79 56 80 52 81 53 82 55 83 57 84 54 85
REMARK H PARENT 19 6 6 14 24 28 74 47 48 58
REMARK Flexibility Score: inf
ROOT
ATOM      1  C   UNL A   1      33.857  36.825  32.581  1.00  0.00     0.023 C 
ENDROOT
BRANCH   1   2
ATOM      2  C   UNL A   1      34.159  35.386  33.014  1.00  0.00     0.116 C 
BRANCH   2   3
ATOM      3  N   UNL A   1      35.425  35.240  33.702  1.00  0.00    -0.356 N 
ATOM      4  O   UNL A   1      35.101  33.085  34.392  1.00  0.00    -0.275 OA
ATOM      5  C   UNL A   1      35.827  34.069  34.304  1.00  0.00     0.222 C 
ATOM      6  H   UNL A   1      36.027  36.018  33.740  1.00  0.00     0.163 HD
BRANCH   5   7
ATOM      7  C   UNL A   1      37.251  34.074  34.837  1.00  0.00     0.138 C 
BRANCH   7   8
ATOM      8  C   UNL A   1      37.380  33.297  36.148  1.00  0.00     0.182 C 
ATOM      9  C   UNL A   1      37.810  31.812  36.038  1.00  0.00     0.295 C 
ATOM     10  O   UNL A   1      38.213  34.007  37.094  1.00  0.00    -0.366 OA
ATOM     11  N   UNL A   1      39.243  31.547  35.905  1.00  0.00    -0.327 N 
ATOM     12  C   UNL A   1      39.620  33.782  36.922  1.00  0.00     0.222 C 
ATOM     13  C   UNL A   1      39.974  32.288  36.928  1.00  0.00     0.291 C 
ATOM     14  H   UNL A   1      39.334  30.548  36.090  1.00  0.00     0.348 HD
BRANCH  11  15
ATOM     15  C   UNL A   1      39.870  31.361  34.594  1.00  0.00     0.305 C 
BRANCH  15  16
ATOM     16  C   UNL A   1      39.507  30.181  33.727  1.00  0.00     0.078 A 
ATOM     17  C   UNL A   1      38.253  30.069  33.125  1.00  0.00     0.135 A 
ATOM     18  C   UNL A   1      40.429  29.177  33.420  1.00  0.00     0.135 A 
ATOM     19  F   UNL A   1      37.361  31.063  33.241  1.00  0.00    -0.206 F 
ATOM     20  C   UNL A   1      37.883  28.946  32.384  1.00  0.00     0.040 A 
ATOM     21  C   UNL A   1      40.079  28.036  32.695  1.00  0.00     0.040 A 
ATOM     22  F   UNL A   1      41.694  29.291  33.837  1.00  0.00    -0.206 F 
ATOM     23  C   UNL A   1      38.789  27.909  32.193  1.00  0.00     0.006 A 
ENDBRANCH  15  16
ENDBRANCH  11  15
ENDBRANCH   7   8
ENDBRANCH   5   7
ENDBRANCH   2   3
ENDBRANCH   1   2
BRANCH   1  24
ATOM     24  C   UNL A   1      32.933  37.027  31.372  1.00  0.00     0.023 C 
BRANCH  24  25
ATOM     25  C   UNL A   1      33.522  36.780  29.986  1.00  0.00     0.116 C 
BRANCH  25  26
ATOM     26  N   UNL A   1      32.779  35.780  29.244  1.00  0.00    -0.352 N 
ATOM     27  C   UNL A   1      33.170  34.560  28.746  1.00  0.00     0.251 C 
ATOM     28  H   UNL A   1      31.838  36.014  29.066  1.00  0.00     0.163 HD
ATOM     29  O   UNL A   1      32.417  33.966  27.978  1.00  0.00    -0.269 OA
BRANCH  27  30
ATOM     30  C   UNL A   1      34.476  33.940  29.097  1.00  0.00     0.039 A 
ATOM     31  C   UNL A   1      35.513  34.008  28.157  1.00  0.00     0.014 A 
ATOM     32  C   UNL A   1      34.675  33.220  30.277  1.00  0.00     0.014 A 
ATOM     33  C   UNL A   1      36.747  33.397  28.413  1.00  0.00     0.010 A 
ATOM     34  C   UNL A   1      35.925  32.652  30.557  1.00  0.00     0.010 A 
ATOM     35  C   UNL A   1      36.974  32.730  29.626  1.00  0.00    -0.014 A 
BRANCH  35  36
ATOM     36  C   UNL A   1      38.297  32.114  29.929  1.00  0.00     0.031 A 
ATOM     37  C   UNL A   1      39.323  32.853  30.746  1.00  0.00     0.074 A 
ATOM     38  C   UNL A   1      38.597  30.894  29.441  1.00  0.00     0.049 A 
ATOM     39  N   UNL A   1      40.548  32.501  31.052  1.00  0.00    -0.248 NA
ATOM     40  C   UNL A   1      38.926  34.165  31.279  1.00  0.00     0.031 C 
ATOM     41  C   UNL A   1      37.709  30.069  28.622  1.00  0.00     0.029 A 
ATOM     42  N   UNL A   1      39.740  30.138  29.556  1.00  0.00    -0.354 N 
ATOM     43  C   UNL A   1      41.072  33.550  31.798  1.00  0.00     0.074 A 
ATOM     44  C   UNL A   1      40.044  34.567  31.870  1.00  0.00     0.031 C 
ATOM     45  C   UNL A   1      38.329  28.917  28.326  1.00  0.00     0.029 A 
ATOM     46  C   UNL A   1      39.672  28.934  28.899  1.00  0.00     0.049 A 
ATOM     47  H   UNL A   1      40.531  30.432  30.062  1.00  0.00     0.167 HD
ATOM     48  C   UNL A   1      42.289  33.651  32.384  1.00  0.00     0.037 A 
ATOM     49  C   UNL A   1      40.588  27.954  28.763  1.00  0.00     0.037 A 
ATOM     50  C   UNL A   1      43.307  32.633  32.341  1.00  0.00     0.049 A 
ATOM     51  C   UNL A   1      41.939  28.099  29.403  1.00  0.00     0.074 A 
ATOM     52  C   UNL A   1      44.553  32.636  32.948  1.00  0.00     0.029 A 
ATOM     53  N   UNL A   1      43.200  31.433  31.657  1.00  0.00    -0.354 N 
ATOM     54  N   UNL A   1      42.406  29.084  30.131  1.00  0.00    -0.248 NA
ATOM     55  C   UNL A   1      42.892  26.997  29.203  1.00  0.00     0.031 C 
ATOM     56  C   UNL A   1      45.212  31.453  32.602  1.00  0.00     0.029 A 
ATOM     57  C   UNL A   1      44.363  30.696  31.813  1.00  0.00     0.049 A 
ATOM     58  H   UNL A   1      42.414  31.147  31.139  1.00  0.00     0.167 HD
ATOM     59  C   UNL A   1      43.695  28.712  30.492  1.00  0.00     0.074 A 
ATOM     60  C   UNL A   1      43.935  27.408  29.912  1.00  0.00     0.031 C 
ATOM     61  C   UNL A   1      44.596  29.397  31.236  1.00  0.00     0.037 A 
BRANCH  48  62
ATOM     62  C   UNL A   1      42.595  34.913  33.137  1.00  0.00     0.057 A 
ATOM     63  C   UNL A   1      42.349  35.003  34.514  1.00  0.00     0.134 A 
ATOM     64  C   UNL A   1      43.072  36.058  32.488  1.00  0.00     0.134 A 
ATOM     65  F   UNL A   1      41.882  33.945  35.193  1.00  0.00    -0.206 F 
ATOM     66  C   UNL A   1      42.563  36.191  35.215  1.00  0.00     0.040 A 
ATOM     67  C   UNL A   1      43.311  37.244  33.184  1.00  0.00     0.040 A 
ATOM     68  F   UNL A   1      43.333  36.034  31.172  1.00  0.00    -0.206 F 
ATOM     69  C   UNL A   1      43.048  37.315  34.550  1.00  0.00     0.006 A 
ENDBRANCH  48  62
BRANCH  49  70
ATOM     70  C   UNL A   1      40.244  26.732  27.995  1.00  0.00     0.057 A 
ATOM     71  C   UNL A   1      39.447  25.721  28.545  1.00  0.00     0.134 A 
ATOM     72  C   UNL A   1      40.719  26.544  26.693  1.00  0.00     0.134 A 
ATOM     73  F   UNL A   1      38.963  25.842  29.790  1.00  0.00    -0.206 F 
ATOM     74  C   UNL A   1      39.149  24.559  27.833  1.00  0.00     0.040 A 
ATOM     75  C   UNL A   1      40.411  25.396  25.961  1.00  0.00     0.040 A 
ATOM     76  F   UNL A   1      41.469  27.489  26.106  1.00  0.00    -0.206 F 
ATOM     77  C   UNL A   1      39.629  24.396  26.535  1.00  0.00     0.006 A 
ENDBRANCH  49  70
BRANCH  61  78
ATOM     78  C   UNL A   1      45.923  28.747  31.490  1.00  0.00     0.057 A 
ATOM     79  C   UNL A   1      46.122  27.945  32.621  1.00  0.00     0.134 A 
ATOM     80  C   UNL A   1      47.021  28.966  30.649  1.00  0.00     0.134 A 
ATOM     81  F   UNL A   1      45.112  27.703  33.471  1.00  0.00    -0.206 F 
ATOM     82  C   UNL A   1      47.370  27.394  32.913  1.00  0.00     0.040 A 
ATOM     83  C   UNL A   1      48.269  28.401  30.920  1.00  0.00     0.040 A 
ATOM     84  F   UNL A   1      46.892  29.714  29.543  1.00  0.00    -0.206 F 
ATOM     85  C   UNL A   1      48.448  27.620  32.060  1.00  0.00     0.006 A 
ENDBRANCH  61  78
ENDBRANCH  35  36
ENDBRANCH  27  30
ENDBRANCH  25  26
ENDBRANCH  24  25
ENDBRANCH   1  24
TORSDOF 14
ENDMDL
MODEL 2
REMARK VINA RESULT:      -9.5      0.466      6.133
REMARK SMILES O=C(C[C@H]1C[N@@H+](Cc2c(F)cccc2F)CCO1)NCCCCNC(=O)c1ccc(-c2c3nc(c(-c4c(F)cccc4F)c4ccc([nH]4)c(-c4c(F)cccc4F)c4nc(c(-c5c(F)cccc5F)c5ccc2[nH]5)C=C4)C=C3)cc1
REMARK SMILES IDX 21 1 20 2 19 3 1 4 2 5 3 7 4 8 5 9 18 10 6 11 17 12 16 13
REMARK SMILES IDX 7 15 8 16 9 17 14 18 10 19 11 20 13 21 15 22 12 23 22 24
REMARK SMILES IDX 23 25 24 26 25 27 26 29 27 30 28 31 80 32 29 33 79 34 30 35
REMARK SMILES IDX 31 36 32 37 73 38 33 39 78 40 72 41 74 42 34 43 77 44 71 45
REMARK SMILES IDX 70 46 35 48 61 49 44 50 60 51 45 52 48 53 59 54 75 55 46 56
REMARK SMILES IDX 47 57 58 59 76 60 49 61 36 62 37 63 42 64 38 65 39 66 41 67
REMARK SMILES IDX 43 68 40 69 62 70 63 71 68 72 64 73 65 74 67 75 69 76 66 77
REMARK SMILES IDX 50 78 51 79 56 80 52 81 53 82 55 83 57 84 54 85
REMARK H PARENT 19 6 6 14 24 28 74 47 48 58
REMARK Flexibility Score: inf
ROOT
ATOM      1  C   UNL A   1      33.820  36.642  32.696  1.00  0.00     0.023 C 
ENDROOT
BRANCH   1   2
ATOM      2  C   UNL A   1      34.240  35.196  32.984  1.00  0.00     0.116 C 
BRANCH   2   3
ATOM      3  N   UNL A   1      35.443  35.091  33.784  1.00  0.00    -0.356 N 
ATOM      4  O   UNL A   1      35.364  32.824  34.075  1.00  0.00    -0.275 OA
ATOM      5  C   UNL A   1      35.947  33.891  34.233  1.00  0.00     0.222 C 
ATOM      6  H   UNL A   1      35.922  35.918  34.018  1.00  0.00     0.163 HD
BRANCH   5   7
ATOM      7  C   UNL A   1      37.299  33.979  34.925  1.00  0.00     0.138 C 
BRANCH   7   8
ATOM      8  C   UNL A   1      37.324  33.206  36.245  1.00  0.00     0.182 C 
ATOM      9  C   UNL A   1      37.872  31.757  36.192  1.00  0.00     0.295 C 
ATOM     10  O   UNL A   1      37.982  33.969  37.283  1.00  0.00    -0.366 OA
ATOM     11  N   UNL A   1      39.325  31.598  36.236  1.00  0.00    -0.327 N 
ATOM     12  C   UNL A   1      39.412  33.849  37.283  1.00  0.00     0.222 C 
ATOM     13  C   UNL A   1      39.871  32.384  37.337  1.00  0.00     0.291 C 
ATOM     14  H   UNL A   1      39.466  30.606  36.433  1.00  0.00     0.348 HD
BRANCH  11  15
ATOM     15  C   UNL A   1      40.118  31.465  35.010  1.00  0.00     0.305 C 
BRANCH  15  16
ATOM     16  C   UNL A   1      40.005  30.232  34.149  1.00  0.00     0.078 A 
ATOM     17  C   UNL A   1      38.902  30.012  33.322  1.00  0.00     0.135 A 
ATOM     18  C   UNL A   1      41.029  29.284  34.076  1.00  0.00     0.135 A 
ATOM     19  F   UNL A   1      37.947  30.945  33.214  1.00  0.00    -0.206 F 
ATOM     20  C   UNL A   1      38.754  28.839  32.579  1.00  0.00     0.040 A 
ATOM     21  C   UNL A   1      40.898  28.096  33.354  1.00  0.00     0.040 A 
ATOM     22  F   UNL A   1      42.179  29.500  34.724  1.00  0.00    -0.206 F 
ATOM     23  C   UNL A   1      39.742  27.861  32.618  1.00  0.00     0.006 A 
ENDBRANCH  15  16
ENDBRANCH  11  15
ENDBRANCH   7   8
ENDBRANCH   5   7
ENDBRANCH   2   3
ENDBRANCH   1   2
BRANCH   1  24
ATOM     24  C   UNL A   1      32.892  36.890  31.497  1.00  0.00     0.023 C 
BRANCH  24  25
ATOM     25  C   UNL A   1      33.484  36.716  30.101  1.00  0.00     0.116 C 
BRANCH  25  26
ATOM     26  N   UNL A   1      32.789  35.700  29.333  1.00  0.00    -0.352 N 
ATOM     27  C   UNL A   1      33.231  34.500  28.828  1.00  0.00     0.251 C 
ATOM     28  H   UNL A   1      31.845  35.904  29.141  1.00  0.00     0.163 HD
ATOM     29  O   UNL A   1      32.514  33.890  28.039  1.00  0.00    -0.269 OA
BRANCH  27  30
ATOM     30  C   UNL A   1      34.551  33.921  29.196  1.00  0.00     0.039 A 
ATOM     31  C   UNL A   1      35.643  34.181  28.358  1.00  0.00     0.014 A 
ATOM     32  C   UNL A   1      34.719  33.060  30.284  1.00  0.00     0.014 A 
ATOM     33  C   UNL A   1      36.897  33.620  28.628  1.00  0.00     0.010 A 
ATOM     34  C   UNL A   1      35.985  32.539  30.584  1.00  0.00     0.010 A 
ATOM     35  C   UNL A   1      37.087  32.809  29.757  1.00  0.00    -0.014 A 
BRANCH  35  36
ATOM     36  C   UNL A   1      38.427  32.240  30.080  1.00  0.00     0.031 A 
ATOM     37  C   UNL A   1      38.843  30.896  29.546  1.00  0.00     0.074 A 
ATOM     38  C   UNL A   1      39.268  32.919  30.885  1.00  0.00     0.049 A 
ATOM     39  N   UNL A   1      39.940  30.217  29.776  1.00  0.00    -0.248 NA
ATOM     40  C   UNL A   1      37.897  30.218  28.647  1.00  0.00     0.031 C 
ATOM     41  C   UNL A   1      38.994  34.224  31.487  1.00  0.00     0.029 A 
ATOM     42  N   UNL A   1      40.524  32.599  31.343  1.00  0.00    -0.354 N 
ATOM     43  C   UNL A   1      39.812  29.030  29.065  1.00  0.00     0.074 A 
ATOM     44  C   UNL A   1      38.515  29.066  28.422  1.00  0.00     0.031 C 
ATOM     45  C   UNL A   1      40.054  34.602  32.217  1.00  0.00     0.029 A 
ATOM     46  C   UNL A   1      41.069  33.553  32.168  1.00  0.00     0.049 A 
ATOM     47  H   UNL A   1      40.990  31.766  31.102  1.00  0.00     0.167 HD
ATOM     48  C   UNL A   1      40.697  28.013  28.942  1.00  0.00     0.037 A 
ATOM     49  C   UNL A   1      42.248  33.581  32.821  1.00  0.00     0.037 A 
ATOM     50  C   UNL A   1      42.001  27.981  29.555  1.00  0.00     0.049 A 
ATOM     51  C   UNL A   1      43.204  32.431  32.688  1.00  0.00     0.074 A 
ATOM     52  C   UNL A   1      42.981  27.007  29.444  1.00  0.00     0.029 A 
ATOM     53  N   UNL A   1      42.508  28.964  30.389  1.00  0.00    -0.354 N 
ATOM     54  N   UNL A   1      43.079  31.331  31.986  1.00  0.00    -0.248 NA
ATOM     55  C   UNL A   1      44.466  32.523  33.438  1.00  0.00     0.031 C 
ATOM     56  C   UNL A   1      44.067  27.385  30.240  1.00  0.00     0.029 A 
ATOM     57  C   UNL A   1      43.780  28.612  30.814  1.00  0.00     0.049 A 
ATOM     58  H   UNL A   1      42.036  29.790  30.642  1.00  0.00     0.167 HD
ATOM     59  C   UNL A   1      44.250  30.613  32.193  1.00  0.00     0.074 A 
ATOM     60  C   UNL A   1      45.079  31.404  33.077  1.00  0.00     0.031 C 
ATOM     61  C   UNL A   1      44.601  29.404  31.693  1.00  0.00     0.037 A 
BRANCH  48  62
ATOM     62  C   UNL A   1      40.293  26.836  28.102  1.00  0.00     0.057 A 
ATOM     63  C   UNL A   1      39.455  25.840  28.622  1.00  0.00     0.134 A 
ATOM     64  C   UNL A   1      40.785  26.657  26.804  1.00  0.00     0.134 A 
ATOM     65  F   UNL A   1      38.958  25.946  29.864  1.00  0.00    -0.206 F 
ATOM     66  C   UNL A   1      39.127  24.705  27.879  1.00  0.00     0.040 A 
ATOM     67  C   UNL A   1      40.445  25.536  26.044  1.00  0.00     0.040 A 
ATOM     68  F   UNL A   1      41.587  27.578  26.248  1.00  0.00    -0.206 F 
ATOM     69  C   UNL A   1      39.619  24.552  26.585  1.00  0.00     0.006 A 
ENDBRANCH  48  62
BRANCH  49  70
ATOM     70  C   UNL A   1      42.597  34.760  33.653  1.00  0.00     0.057 A 
ATOM     71  C   UNL A   1      42.550  34.711  35.051  1.00  0.00     0.134 A 
ATOM     72  C   UNL A   1      42.975  35.970  33.060  1.00  0.00     0.134 A 
ATOM     73  F   UNL A   1      42.194  33.579  35.677  1.00  0.00    -0.206 F 
ATOM     74  C   UNL A   1      42.850  35.828  35.831  1.00  0.00     0.040 A 
ATOM     75  C   UNL A   1      43.298  37.089  33.828  1.00  0.00     0.040 A 
ATOM     76  F   UNL A   1      43.058  36.070  31.725  1.00  0.00    -0.206 F 
ATOM     77  C   UNL A   1      43.230  37.021  35.218  1.00  0.00     0.006 A 
ENDBRANCH  49  70
BRANCH  61  78
ATOM     78  C   UNL A   1      45.948  28.862  32.068  1.00  0.00     0.057 A 
ATOM     79  C   UNL A   1      46.106  28.069  33.212  1.00  0.00     0.134 A 
ATOM     80  C   UNL A   1      47.097  29.177  31.334  1.00  0.00     0.134 A 
ATOM     81  F   UNL A   1      45.045  27.738  33.963  1.00  0.00    -0.206 F 
ATOM     82  C   UNL A   1      47.363  27.618  33.619  1.00  0.00     0.040 A 
ATOM     83  C   UNL A   1      48.357  28.713  31.719  1.00  0.00     0.040 A 
ATOM     84  F   UNL A   1      47.011  29.922  30.222  1.00  0.00    -0.206 F 
ATOM     85  C   UNL A   1      48.492  27.939  32.870  1.00  0.00     0.006 A 
ENDBRANCH  61  78
ENDBRANCH  35  36
ENDBRANCH  27  30
ENDBRANCH  25  26
ENDBRANCH  24  25
ENDBRANCH   1  24
TORSDOF 14
ENDMDL
MODEL 3
REMARK VINA RESULT:      -9.3      4.494      8.154
REMARK SMILES O=C(C[C@H]1C[N@@H+](Cc2c(F)cccc2F)CCO1)NCCCCNC(=O)c1ccc(-c2c3nc(c(-c4c(F)cccc4F)c4ccc([nH]4)c(-c4c(F)cccc4F)c4nc(c(-c5c(F)cccc5F)c5ccc2[nH]5)C=C4)C=C3)cc1
REMARK SMILES IDX 21 1 20 2 19 3 1 4 2 5 3 7 4 8 5 9 18 10 6 11 17 12 16 13
REMARK SMILES IDX 7 15 8 16 9 17 14 18 10 19 11 20 13 21 15 22 12 23 22 24
REMARK SMILES IDX 23 25 24 26 25 27 26 29 27 30 28 31 80 32 29 33 79 34 30 35
REMARK SMILES IDX 31 36 32 37 73 38 33 39 78 40 72 41 74 42 34 43 77 44 71 45
REMARK SMILES IDX 70 46 35 48 61 49 44 50 60 51 45 52 48 53 59 54 75 55 46 56
REMARK SMILES IDX 47 57 58 59 76 60 49 61 36 62 37 63 42 64 38 65 39 66 41 67
REMARK SMILES IDX 43 68 40 69 62 70 63 71 68 72 64 73 65 74 67 75 69 76 66 77
REMARK SMILES IDX 50 78 51 79 56 80 52 81 53 82 55 83 57 84 54 85
REMARK H PARENT 19 6 6 14 24 28 74 47 48 58
REMARK Flexibility Score: inf
ROOT
ATOM      1  C   UNL A   1      33.181  28.583  24.628  1.00  0.00     0.023 C 
ENDROOT
BRANCH   1   2
ATOM      2  C   UNL A   1      33.214  27.674  23.394  1.00  0.00     0.116 C 
BRANCH   2   3
ATOM      3  N   UNL A   1      33.404  26.273  23.710  1.00  0.00    -0.356 N 
ATOM      4  O   UNL A   1      33.702  25.558  21.558  1.00  0.00    -0.275 OA
ATOM      5  C   UNL A   1      33.687  25.317  22.760  1.00  0.00     0.222 C 
ATOM      6  H   UNL A   1      33.327  25.992  24.650  1.00  0.00     0.163 HD
BRANCH   5   7
ATOM      7  C   UNL A   1      34.003  23.935  23.312  1.00  0.00     0.138 C 
BRANCH   7   8
ATOM      8  C   UNL A   1      32.848  22.953  23.107  1.00  0.00     0.182 C 
ATOM      9  C   UNL A   1      33.014  21.544  23.731  1.00  0.00     0.295 C 
ATOM     10  O   UNL A   1      31.587  23.544  23.497  1.00  0.00    -0.366 OA
ATOM     11  N   UNL A   1      32.691  21.407  25.151  1.00  0.00    -0.327 N 
ATOM     12  C   UNL A   1      31.304  23.452  24.901  1.00  0.00     0.222 C 
ATOM     13  C   UNL A   1      31.388  22.008  25.416  1.00  0.00     0.291 C 
ATOM     14  H   UNL A   1      32.629  20.399  25.300  1.00  0.00     0.348 HD
BRANCH  11  15
ATOM     15  C   UNL A   1      33.726  21.496  26.184  1.00  0.00     0.305 C 
BRANCH  15  16
ATOM     16  C   UNL A   1      35.158  21.795  25.816  1.00  0.00     0.078 A 
ATOM     17  C   UNL A   1      35.979  20.837  25.219  1.00  0.00     0.135 A 
ATOM     18  C   UNL A   1      35.717  23.065  25.985  1.00  0.00     0.135 A 
ATOM     19  F   UNL A   1      35.478  19.641  24.880  1.00  0.00    -0.206 F 
ATOM     20  C   UNL A   1      37.326  21.081  24.944  1.00  0.00     0.040 A 
ATOM     21  C   UNL A   1      37.064  23.329  25.734  1.00  0.00     0.040 A 
ATOM     22  F   UNL A   1      34.949  24.073  26.413  1.00  0.00    -0.206 F 
ATOM     23  C   UNL A   1      37.881  22.323  25.231  1.00  0.00     0.006 A 
ENDBRANCH  15  16
ENDBRANCH  11  15
ENDBRANCH   7   8
ENDBRANCH   5   7
ENDBRANCH   2   3
ENDBRANCH   1   2
BRANCH   1  24
ATOM     24  C   UNL A   1      34.138  28.252  25.782  1.00  0.00     0.023 C 
BRANCH  24  25
ATOM     25  C   UNL A   1      33.611  28.426  27.204  1.00  0.00     0.116 C 
BRANCH  25  26
ATOM     26  N   UNL A   1      33.572  29.819  27.608  1.00  0.00    -0.352 N 
ATOM     27  C   UNL A   1      34.524  30.602  28.216  1.00  0.00     0.251 C 
ATOM     28  H   UNL A   1      32.723  30.280  27.416  1.00  0.00     0.163 HD
ATOM     29  O   UNL A   1      34.198  31.708  28.641  1.00  0.00    -0.269 OA
BRANCH  27  30
ATOM     30  C   UNL A   1      35.933  30.153  28.386  1.00  0.00     0.039 A 
ATOM     31  C   UNL A   1      36.335  29.706  29.652  1.00  0.00     0.014 A 
ATOM     32  C   UNL A   1      36.882  30.247  27.366  1.00  0.00     0.014 A 
ATOM     33  C   UNL A   1      37.661  29.320  29.882  1.00  0.00     0.010 A 
ATOM     34  C   UNL A   1      38.197  29.813  27.581  1.00  0.00     0.010 A 
ATOM     35  C   UNL A   1      38.603  29.349  28.842  1.00  0.00    -0.014 A 
BRANCH  35  36
ATOM     36  C   UNL A   1      40.007  28.899  29.063  1.00  0.00     0.031 A 
ATOM     37  C   UNL A   1      41.022  29.820  29.687  1.00  0.00     0.074 A 
ATOM     38  C   UNL A   1      40.387  27.667  28.672  1.00  0.00     0.049 A 
ATOM     39  N   UNL A   1      42.301  29.622  29.894  1.00  0.00    -0.248 NA
ATOM     40  C   UNL A   1      40.541  31.139  30.122  1.00  0.00     0.031 C 
ATOM     41  C   UNL A   1      39.516  26.674  28.042  1.00  0.00     0.029 A 
ATOM     42  N   UNL A   1      41.609  27.041  28.741  1.00  0.00    -0.354 N 
ATOM     43  C   UNL A   1      42.780  30.793  30.469  1.00  0.00     0.074 A 
ATOM     44  C   UNL A   1      41.661  31.709  30.546  1.00  0.00     0.031 C 
ATOM     45  C   UNL A   1      40.224  25.560  27.799  1.00  0.00     0.029 A 
ATOM     46  C   UNL A   1      41.607  25.769  28.221  1.00  0.00     0.049 A 
ATOM     47  H   UNL A   1      42.409  27.464  29.127  1.00  0.00     0.167 HD
ATOM     48  C   UNL A   1      44.029  31.075  30.908  1.00  0.00     0.037 A 
ATOM     49  C   UNL A   1      42.604  24.872  28.088  1.00  0.00     0.037 A 
ATOM     50  C   UNL A   1      45.142  30.161  30.860  1.00  0.00     0.049 A 
ATOM     51  C   UNL A   1      43.987  25.216  28.563  1.00  0.00     0.074 A 
ATOM     52  C   UNL A   1      46.433  30.350  31.327  1.00  0.00     0.029 A 
ATOM     53  N   UNL A   1      45.097  28.886  30.318  1.00  0.00    -0.354 N 
ATOM     54  N   UNL A   1      44.414  26.316  29.132  1.00  0.00    -0.248 NA
ATOM     55  C   UNL A   1      45.028  24.194  28.375  1.00  0.00     0.031 C 
ATOM     56  C   UNL A   1      47.178  29.203  31.035  1.00  0.00     0.029 A 
ATOM     57  C   UNL A   1      46.342  28.285  30.423  1.00  0.00     0.049 A 
ATOM     58  H   UNL A   1      44.300  28.470  29.918  1.00  0.00     0.167 HD
ATOM     59  C   UNL A   1      45.764  26.112  29.389  1.00  0.00     0.074 A 
ATOM     60  C   UNL A   1      46.085  24.780  28.923  1.00  0.00     0.031 C 
ATOM     61  C   UNL A   1      46.655  26.958  29.959  1.00  0.00     0.037 A 
BRANCH  48  62
ATOM     62  C   UNL A   1      44.271  32.437  31.492  1.00  0.00     0.057 A 
ATOM     63  C   UNL A   1      44.054  32.681  32.855  1.00  0.00     0.134 A 
ATOM     64  C   UNL A   1      44.656  33.520  30.693  1.00  0.00     0.134 A 
ATOM     65  F   UNL A   1      43.673  31.688  33.673  1.00  0.00    -0.206 F 
ATOM     66  C   UNL A   1      44.206  33.957  33.399  1.00  0.00     0.040 A 
ATOM     67  C   UNL A   1      44.834  34.796  31.232  1.00  0.00     0.040 A 
ATOM     68  F   UNL A   1      44.886  33.350  29.382  1.00  0.00    -0.206 F 
ATOM     69  C   UNL A   1      44.600  35.018  32.587  1.00  0.00     0.006 A 
ENDBRANCH  48  62
BRANCH  49  70
ATOM     70  C   UNL A   1      42.320  23.544  27.491  1.00  0.00     0.057 A 
ATOM     71  C   UNL A   1      42.349  23.342  26.106  1.00  0.00     0.134 A 
ATOM     72  C   UNL A   1      41.999  22.447  28.298  1.00  0.00     0.134 A 
ATOM     73  F   UNL A   1      42.648  24.356  25.280  1.00  0.00    -0.206 F 
ATOM     74  C   UNL A   1      42.053  22.100  25.543  1.00  0.00     0.040 A 
ATOM     75  C   UNL A   1      41.722  21.194  27.750  1.00  0.00     0.040 A 
ATOM     76  F   UNL A   1      41.977  22.576  29.633  1.00  0.00    -0.206 F 
ATOM     77  C   UNL A   1      41.742  21.020  26.367  1.00  0.00     0.006 A 
ENDBRANCH  49  70
BRANCH  61  78
ATOM     78  C   UNL A   1      48.062  26.470  30.135  1.00  0.00     0.057 A 
ATOM     79  C   UNL A   1      49.002  26.614  29.107  1.00  0.00     0.134 A 
ATOM     80  C   UNL A   1      48.468  25.801  31.296  1.00  0.00     0.134 A 
ATOM     81  F   UNL A   1      48.673  27.239  27.965  1.00  0.00    -0.206 F 
ATOM     82  C   UNL A   1      50.294  26.100  29.223  1.00  0.00     0.040 A 
ATOM     83  C   UNL A   1      49.765  25.301  31.432  1.00  0.00     0.040 A 
ATOM     84  F   UNL A   1      47.618  25.641  32.321  1.00  0.00    -0.206 F 
ATOM     85  C   UNL A   1      50.679  25.443  30.389  1.00  0.00     0.006 A 
ENDBRANCH  61  78
ENDBRANCH  35  36
ENDBRANCH  27  30
ENDBRANCH  25  26
ENDBRANCH  24  25
ENDBRANCH   1  24
TORSDOF 14
ENDMDL
