MODEL 1
REMARK VINA RESULT:     -11.2      0.000      0.000
REMARK SMILES CC(C)(C)N(CC(=O)NCCCCNC(=O)c1ccc(-c2c3nc(c(-c4c(F)cccc4F)c4ccc([nH]4)c(-c4c(F)cccc4F)c4nc(c(-c5c(F)cccc5F)c5ccc2[nH]5)C=C4)C=C3)cc1)C(=O)NCCc1cnc[nH]1
REMARK SMILES IDX 10 1 9 2 7 3 8 4 6 6 5 7 2 8 1 9 3 10 4 11 71 12 72 13 73 14
REMARK SMILES IDX 74 16 75 17 76 18 77 19 80 20 78 21 79 22 11 24 12 25 13 26
REMARK SMILES IDX 14 27 15 28 16 30 17 31 18 32 70 33 19 34 69 35 20 36 21 37
REMARK SMILES IDX 22 38 63 39 23 40 68 41 62 42 64 43 24 44 67 45 61 46 60 47
REMARK SMILES IDX 25 49 51 50 34 51 50 52 35 53 38 54 49 55 65 56 36 57 37 58
REMARK SMILES IDX 48 60 66 61 39 62 26 63 27 64 32 65 28 66 29 67 31 68 33 69
REMARK SMILES IDX 30 70 52 71 53 72 58 73 54 74 55 75 57 76 59 77 56 78 40 79
REMARK SMILES IDX 41 80 46 81 42 82 43 83 45 84 47 85 44 86
REMARK H PARENT 9 5 73 15 80 23 14 29 64 48 38 59
REMARK Flexibility Score: inf
ROOT
ATOM      1  C   UNL A   1      32.817  29.815  26.011  1.00  0.00     0.116 C 
ENDROOT
BRANCH   1   2
ATOM      2  N   UNL A   1      33.497  29.727  24.742  1.00  0.00    -0.355 N 
ATOM      3  C   UNL A   1      33.577  28.654  23.908  1.00  0.00     0.239 C 
ATOM      4  O   UNL A   1      33.924  28.872  22.741  1.00  0.00    -0.273 OA
ATOM      5  H   UNL A   1      33.960  30.542  24.443  1.00  0.00     0.163 HD
BRANCH   3   6
ATOM      6  C   UNL A   1      33.084  27.255  24.332  1.00  0.00     0.221 C 
BRANCH   6   7
ATOM      7  N   UNL A   1      31.834  26.746  23.743  1.00  0.00    -0.311 N 
BRANCH   7   8
ATOM      8  C   UNL A   1      30.786  26.107  24.656  1.00  0.00     0.037 C 
ATOM      9  C   UNL A   1      30.863  24.558  24.748  1.00  0.00     0.034 C 
ATOM     10  C   UNL A   1      29.335  26.413  24.203  1.00  0.00     0.034 C 
ATOM     11  C   UNL A   1      30.976  26.611  26.107  1.00  0.00     0.034 C 
ENDBRANCH   7   8
BRANCH   7  12
ATOM     12  C   UNL A   1      31.445  27.042  22.452  1.00  0.00     0.318 C 
ATOM     13  O   UNL A   1      31.554  26.230  21.528  1.00  0.00    -0.249 OA
ATOM     14  N   UNL A   1      30.911  28.207  22.056  1.00  0.00    -0.338 N 
ATOM     15  H   UNL A   1      30.877  28.243  21.073  1.00  0.00     0.165 HD
BRANCH  14  16
ATOM     16  C   UNL A   1      30.366  29.438  22.617  1.00  0.00     0.124 C 
BRANCH  16  17
ATOM     17  C   UNL A   1      29.102  29.898  21.876  1.00  0.00     0.077 C 
BRANCH  17  18
ATOM     18  C   UNL A   1      28.812  31.345  22.092  1.00  0.00     0.036 A 
ATOM     19  C   UNL A   1      28.022  32.247  21.411  1.00  0.00     0.134 A 
ATOM     20  N   UNL A   1      29.372  32.076  23.111  1.00  0.00    -0.348 N 
ATOM     21  N   UNL A   1      28.077  33.485  21.999  1.00  0.00    -0.245 NA
ATOM     22  C   UNL A   1      28.895  33.352  23.016  1.00  0.00     0.196 A 
ATOM     23  H   UNL A   1      30.003  31.740  23.788  1.00  0.00     0.167 HD
ENDBRANCH  17  18
ENDBRANCH  16  17
ENDBRANCH  14  16
ENDBRANCH   7  12
ENDBRANCH   6   7
ENDBRANCH   3   6
ENDBRANCH   1   2
BRANCH   1  24
ATOM     24  C   UNL A   1      31.415  30.402  25.897  1.00  0.00     0.023 C 
BRANCH  24  25
ATOM     25  C   UNL A   1      31.222  31.753  26.582  1.00  0.00     0.023 C 
BRANCH  25  26
ATOM     26  C   UNL A   1      32.426  32.687  26.537  1.00  0.00     0.116 C 
BRANCH  26  27
ATOM     27  N   UNL A   1      32.292  33.877  27.365  1.00  0.00    -0.352 N 
ATOM     28  C   UNL A   1      33.108  34.308  28.385  1.00  0.00     0.251 C 
ATOM     29  H   UNL A   1      31.515  34.450  27.169  1.00  0.00     0.163 HD
ATOM     30  O   UNL A   1      32.832  35.318  29.024  1.00  0.00    -0.269 OA
BRANCH  28  31
ATOM     31  C   UNL A   1      34.294  33.506  28.737  1.00  0.00     0.039 A 
ATOM     32  C   UNL A   1      35.538  34.139  28.797  1.00  0.00     0.014 A 
ATOM     33  C   UNL A   1      34.164  32.159  29.083  1.00  0.00     0.014 A 
ATOM     34  C   UNL A   1      36.641  33.440  29.290  1.00  0.00     0.010 A 
ATOM     35  C   UNL A   1      35.244  31.489  29.644  1.00  0.00     0.010 A 
ATOM     36  C   UNL A   1      36.489  32.126  29.762  1.00  0.00    -0.014 A 
BRANCH  36  37
ATOM     37  C   UNL A   1      37.615  31.401  30.400  1.00  0.00     0.031 A 
ATOM     38  C   UNL A   1      37.976  31.685  31.830  1.00  0.00     0.074 A 
ATOM     39  C   UNL A   1      38.367  30.560  29.665  1.00  0.00     0.049 A 
ATOM     40  N   UNL A   1      38.983  31.233  32.533  1.00  0.00    -0.248 NA
ATOM     41  C   UNL A   1      37.112  32.630  32.553  1.00  0.00     0.031 C 
ATOM     42  C   UNL A   1      38.157  30.252  28.249  1.00  0.00     0.029 A 
ATOM     43  N   UNL A   1      39.472  29.822  30.006  1.00  0.00    -0.354 N 
ATOM     44  C   UNL A   1      38.887  31.859  33.769  1.00  0.00     0.074 A 
ATOM     45  C   UNL A   1      37.755  32.756  33.704  1.00  0.00     0.031 C 
ATOM     46  C   UNL A   1      39.091  29.372  27.848  1.00  0.00     0.029 A 
ATOM     47  C   UNL A   1      39.981  29.082  28.967  1.00  0.00     0.049 A 
ATOM     48  H   UNL A   1      39.864  29.823  30.909  1.00  0.00     0.167 HD
ATOM     49  C   UNL A   1      39.661  31.684  34.867  1.00  0.00     0.037 A 
ATOM     50  C   UNL A   1      41.049  28.263  28.921  1.00  0.00     0.037 A 
ATOM     51  C   UNL A   1      40.761  30.760  34.941  1.00  0.00     0.049 A 
ATOM     52  C   UNL A   1      41.871  28.059  30.161  1.00  0.00     0.074 A 
ATOM     53  C   UNL A   1      41.555  30.450  36.031  1.00  0.00     0.029 A 
ATOM     54  N   UNL A   1      41.220  29.994  33.879  1.00  0.00    -0.354 N 
ATOM     55  N   UNL A   1      41.728  28.602  31.345  1.00  0.00    -0.248 NA
ATOM     56  C   UNL A   1      43.000  27.122  30.061  1.00  0.00     0.031 C 
ATOM     57  C   UNL A   1      42.515  29.518  35.620  1.00  0.00     0.029 A 
ATOM     58  C   UNL A   1      42.296  29.222  34.284  1.00  0.00     0.049 A 
ATOM     59  H   UNL A   1      40.836  29.998  32.972  1.00  0.00     0.167 HD
ATOM     60  C   UNL A   1      42.731  28.058  32.137  1.00  0.00     0.074 A 
ATOM     61  C   UNL A   1      43.469  27.135  31.301  1.00  0.00     0.031 C 
ATOM     62  C   UNL A   1      43.016  28.304  33.439  1.00  0.00     0.037 A 
BRANCH  49  63
ATOM     63  C   UNL A   1      39.333  32.510  36.075  1.00  0.00     0.057 A 
ATOM     64  C   UNL A   1      39.948  33.746  36.313  1.00  0.00     0.134 A 
ATOM     65  C   UNL A   1      38.385  32.069  37.006  1.00  0.00     0.134 A 
ATOM     66  F   UNL A   1      40.877  34.217  35.467  1.00  0.00    -0.206 F 
ATOM     67  C   UNL A   1      39.655  34.499  37.451  1.00  0.00     0.040 A 
ATOM     68  C   UNL A   1      38.065  32.826  38.134  1.00  0.00     0.040 A 
ATOM     69  F   UNL A   1      37.756  30.896  36.836  1.00  0.00    -0.206 F 
ATOM     70  C   UNL A   1      38.707  34.041  38.363  1.00  0.00     0.006 A 
ENDBRANCH  49  63
BRANCH  50  71
ATOM     71  C   UNL A   1      41.378  27.550  27.663  1.00  0.00     0.057 A 
ATOM     72  C   UNL A   1      42.178  28.152  26.686  1.00  0.00     0.134 A 
ATOM     73  C   UNL A   1      40.913  26.255  27.412  1.00  0.00     0.134 A 
ATOM     74  F   UNL A   1      42.637  29.400  26.864  1.00  0.00    -0.206 F 
ATOM     75  C   UNL A   1      42.497  27.496  25.496  1.00  0.00     0.040 A 
ATOM     76  C   UNL A   1      41.242  25.578  26.235  1.00  0.00     0.040 A 
ATOM     77  F   UNL A   1      40.148  25.622  28.314  1.00  0.00    -0.206 F 
ATOM     78  C   UNL A   1      42.031  26.202  25.272  1.00  0.00     0.006 A 
ENDBRANCH  50  71
BRANCH  62  79
ATOM     79  C   UNL A   1      44.155  27.544  34.045  1.00  0.00     0.057 A 
ATOM     80  C   UNL A   1      43.975  26.279  34.618  1.00  0.00     0.134 A 
ATOM     81  C   UNL A   1      45.455  28.066  34.018  1.00  0.00     0.134 A 
ATOM     82  F   UNL A   1      42.751  25.732  34.686  1.00  0.00    -0.206 F 
ATOM     83  C   UNL A   1      45.045  25.566  35.158  1.00  0.00     0.040 A 
ATOM     84  C   UNL A   1      46.537  27.352  34.535  1.00  0.00     0.040 A 
ATOM     85  F   UNL A   1      45.694  29.270  33.477  1.00  0.00    -0.206 F 
ATOM     86  C   UNL A   1      46.332  26.100  35.111  1.00  0.00     0.006 A 
ENDBRANCH  62  79
ENDBRANCH  36  37
ENDBRANCH  28  31
ENDBRANCH  26  27
ENDBRANCH  25  26
ENDBRANCH  24  25
ENDBRANCH   1  24
TORSDOF 17
ENDMDL
MODEL 2
REMARK VINA RESULT:     -11.2      0.589      6.317
REMARK SMILES CC(C)(C)N(CC(=O)NCCCCNC(=O)c1ccc(-c2c3nc(c(-c4c(F)cccc4F)c4ccc([nH]4)c(-c4c(F)cccc4F)c4nc(c(-c5c(F)cccc5F)c5ccc2[nH]5)C=C4)C=C3)cc1)C(=O)NCCc1cnc[nH]1
REMARK SMILES IDX 10 1 9 2 7 3 8 4 6 6 5 7 2 8 1 9 3 10 4 11 71 12 72 13 73 14
REMARK SMILES IDX 74 16 75 17 76 18 77 19 80 20 78 21 79 22 11 24 12 25 13 26
REMARK SMILES IDX 14 27 15 28 16 30 17 31 18 32 70 33 19 34 69 35 20 36 21 37
REMARK SMILES IDX 22 38 63 39 23 40 68 41 62 42 64 43 24 44 67 45 61 46 60 47
REMARK SMILES IDX 25 49 51 50 34 51 50 52 35 53 38 54 49 55 65 56 36 57 37 58
REMARK SMILES IDX 48 60 66 61 39 62 26 63 27 64 32 65 28 66 29 67 31 68 33 69
REMARK SMILES IDX 30 70 52 71 53 72 58 73 54 74 55 75 57 76 59 77 56 78 40 79
REMARK SMILES IDX 41 80 46 81 42 82 43 83 45 84 47 85 44 86
REMARK H PARENT 9 5 73 15 80 23 14 29 64 48 38 59
REMARK Flexibility Score: inf
ROOT
ATOM      1  C   UNL A   1      32.796  29.754  25.885  1.00  0.00     0.116 C 
ENDROOT
BRANCH   1   2
ATOM      2  N   UNL A   1      33.485  29.685  24.619  1.00  0.00    -0.355 N 
ATOM      3  C   UNL A   1      33.582  28.619  23.776  1.00  0.00     0.239 C 
ATOM      4  O   UNL A   1      33.934  28.852  22.613  1.00  0.00    -0.273 OA
ATOM      5  H   UNL A   1      33.942  30.507  24.331  1.00  0.00     0.163 HD
BRANCH   3   6
ATOM      6  C   UNL A   1      33.100  27.212  24.184  1.00  0.00     0.221 C 
BRANCH   6   7
ATOM      7  N   UNL A   1      31.827  26.721  23.631  1.00  0.00    -0.311 N 
BRANCH   7   8
ATOM      8  C   UNL A   1      30.788  26.117  24.577  1.00  0.00     0.037 C 
ATOM      9  C   UNL A   1      29.311  26.398  24.184  1.00  0.00     0.034 C 
ATOM     10  C   UNL A   1      30.926  26.641  26.030  1.00  0.00     0.034 C 
ATOM     11  C   UNL A   1      30.920  24.574  24.586  1.00  0.00     0.034 C 
ENDBRANCH   7   8
BRANCH   7  12
ATOM     12  C   UNL A   1      31.413  27.008  22.346  1.00  0.00     0.318 C 
ATOM     13  O   UNL A   1      31.482  26.181  21.431  1.00  0.00    -0.249 OA
ATOM     14  N   UNL A   1      30.895  28.180  21.947  1.00  0.00    -0.338 N 
ATOM     15  H   UNL A   1      30.839  28.203  20.964  1.00  0.00     0.165 HD
BRANCH  14  16
ATOM     16  C   UNL A   1      30.391  29.430  22.503  1.00  0.00     0.124 C 
BRANCH  16  17
ATOM     17  C   UNL A   1      28.881  29.592  22.277  1.00  0.00     0.077 C 
BRANCH  17  18
ATOM     18  C   UNL A   1      28.507  30.991  21.916  1.00  0.00     0.036 A 
ATOM     19  C   UNL A   1      28.483  32.163  22.640  1.00  0.00     0.134 A 
ATOM     20  N   UNL A   1      28.064  31.347  20.667  1.00  0.00    -0.348 N 
ATOM     21  N   UNL A   1      28.058  33.209  21.861  1.00  0.00    -0.245 NA
ATOM     22  C   UNL A   1      27.814  32.689  20.682  1.00  0.00     0.196 A 
ATOM     23  H   UNL A   1      27.948  30.743  19.897  1.00  0.00     0.167 HD
ENDBRANCH  17  18
ENDBRANCH  16  17
ENDBRANCH  14  16
ENDBRANCH   7  12
ENDBRANCH   6   7
ENDBRANCH   3   6
ENDBRANCH   1   2
BRANCH   1  24
ATOM     24  C   UNL A   1      31.401  30.358  25.772  1.00  0.00     0.023 C 
BRANCH  24  25
ATOM     25  C   UNL A   1      31.200  31.666  26.533  1.00  0.00     0.023 C 
BRANCH  25  26
ATOM     26  C   UNL A   1      32.414  32.586  26.584  1.00  0.00     0.116 C 
BRANCH  26  27
ATOM     27  N   UNL A   1      32.200  33.818  27.332  1.00  0.00    -0.352 N 
ATOM     28  C   UNL A   1      32.977  34.362  28.328  1.00  0.00     0.251 C 
ATOM     29  H   UNL A   1      31.394  34.330  27.092  1.00  0.00     0.163 HD
ATOM     30  O   UNL A   1      32.635  35.393  28.897  1.00  0.00    -0.269 OA
BRANCH  28  31
ATOM     31  C   UNL A   1      34.204  33.656  28.742  1.00  0.00     0.039 A 
ATOM     32  C   UNL A   1      35.412  34.358  28.749  1.00  0.00     0.014 A 
ATOM     33  C   UNL A   1      34.146  32.336  29.194  1.00  0.00     0.014 A 
ATOM     34  C   UNL A   1      36.549  33.761  29.296  1.00  0.00     0.010 A 
ATOM     35  C   UNL A   1      35.258  31.773  29.806  1.00  0.00     0.010 A 
ATOM     36  C   UNL A   1      36.467  32.483  29.872  1.00  0.00    -0.014 A 
BRANCH  36  37
ATOM     37  C   UNL A   1      37.628  31.874  30.564  1.00  0.00     0.031 A 
ATOM     38  C   UNL A   1      38.449  30.824  29.872  1.00  0.00     0.074 A 
ATOM     39  C   UNL A   1      37.882  32.196  31.847  1.00  0.00     0.049 A 
ATOM     40  N   UNL A   1      39.435  30.104  30.341  1.00  0.00    -0.248 NA
ATOM     41  C   UNL A   1      38.091  30.521  28.478  1.00  0.00     0.031 C 
ATOM     42  C   UNL A   1      37.116  33.151  32.650  1.00  0.00     0.029 A 
ATOM     43  N   UNL A   1      38.849  31.739  32.707  1.00  0.00    -0.354 N 
ATOM     44  C   UNL A   1      39.795  29.245  29.310  1.00  0.00     0.074 A 
ATOM     45  C   UNL A   1      38.893  29.501  28.210  1.00  0.00     0.031 C 
ATOM     46  C   UNL A   1      37.656  33.225  33.878  1.00  0.00     0.029 A 
ATOM     47  C   UNL A   1      38.782  32.301  33.958  1.00  0.00     0.049 A 
ATOM     48  H   UNL A   1      39.527  31.073  32.451  1.00  0.00     0.167 HD
ATOM     49  C   UNL A   1      40.802  28.339  29.277  1.00  0.00     0.037 A 
ATOM     50  C   UNL A   1      39.542  32.090  35.050  1.00  0.00     0.037 A 
ATOM     51  C   UNL A   1      41.723  28.116  30.359  1.00  0.00     0.049 A 
ATOM     52  C   UNL A   1      40.674  31.107  34.978  1.00  0.00     0.074 A 
ATOM     53  C   UNL A   1      42.826  27.281  30.395  1.00  0.00     0.029 A 
ATOM     54  N   UNL A   1      41.650  28.737  31.598  1.00  0.00    -0.354 N 
ATOM     55  N   UNL A   1      41.049  30.352  33.974  1.00  0.00    -0.248 NA
ATOM     56  C   UNL A   1      41.493  30.949  36.189  1.00  0.00     0.031 C 
ATOM     57  C   UNL A   1      43.402  27.373  31.667  1.00  0.00     0.029 A 
ATOM     58  C   UNL A   1      42.679  28.292  32.411  1.00  0.00     0.049 A 
ATOM     59  H   UNL A   1      40.967  29.396  31.859  1.00  0.00     0.167 HD
ATOM     60  C   UNL A   1      42.160  29.648  34.422  1.00  0.00     0.074 A 
ATOM     61  C   UNL A   1      42.403  30.074  35.784  1.00  0.00     0.031 C 
ATOM     62  C   UNL A   1      42.908  28.730  33.763  1.00  0.00     0.037 A 
BRANCH  49  63
ATOM     63  C   UNL A   1      40.955  27.531  28.024  1.00  0.00     0.057 A 
ATOM     64  C   UNL A   1      41.750  27.968  26.956  1.00  0.00     0.134 A 
ATOM     65  C   UNL A   1      40.308  26.297  27.885  1.00  0.00     0.134 A 
ATOM     66  F   UNL A   1      42.384  29.149  27.020  1.00  0.00    -0.206 F 
ATOM     67  C   UNL A   1      41.870  27.222  25.783  1.00  0.00     0.040 A 
ATOM     68  C   UNL A   1      40.442  25.530  26.727  1.00  0.00     0.040 A 
ATOM     69  F   UNL A   1      39.534  25.818  28.871  1.00  0.00    -0.206 F 
ATOM     70  C   UNL A   1      41.218  25.996  25.669  1.00  0.00     0.006 A 
ENDBRANCH  49  63
BRANCH  50  71
ATOM     71  C   UNL A   1      39.274  32.854  36.293  1.00  0.00     0.057 A 
ATOM     72  C   UNL A   1      38.429  32.339  37.283  1.00  0.00     0.134 A 
ATOM     73  C   UNL A   1      39.859  34.103  36.526  1.00  0.00     0.134 A 
ATOM     74  F   UNL A   1      37.826  31.155  37.106  1.00  0.00    -0.206 F 
ATOM     75  C   UNL A   1      38.166  33.045  38.458  1.00  0.00     0.040 A 
ATOM     76  C   UNL A   1      39.622  34.810  37.706  1.00  0.00     0.040 A 
ATOM     77  F   UNL A   1      40.684  34.645  35.618  1.00  0.00    -0.206 F 
ATOM     78  C   UNL A   1      38.768  34.283  38.673  1.00  0.00     0.006 A 
ENDBRANCH  50  71
BRANCH  62  79
ATOM     79  C   UNL A   1      44.076  28.146  34.498  1.00  0.00     0.057 A 
ATOM     80  C   UNL A   1      45.333  28.763  34.492  1.00  0.00     0.134 A 
ATOM     81  C   UNL A   1      43.929  26.976  35.253  1.00  0.00     0.134 A 
ATOM     82  F   UNL A   1      45.539  29.878  33.776  1.00  0.00    -0.206 F 
ATOM     83  C   UNL A   1      46.409  28.226  35.199  1.00  0.00     0.040 A 
ATOM     84  C   UNL A   1      44.993  26.442  35.983  1.00  0.00     0.040 A 
ATOM     85  F   UNL A   1      42.749  26.341  35.305  1.00  0.00    -0.206 F 
ATOM     86  C   UNL A   1      46.238  27.066  35.953  1.00  0.00     0.006 A 
ENDBRANCH  62  79
ENDBRANCH  36  37
ENDBRANCH  28  31
ENDBRANCH  26  27
ENDBRANCH  25  26
ENDBRANCH  24  25
ENDBRANCH   1  24
TORSDOF 17
ENDMDL
MODEL 3
REMARK VINA RESULT:     -11.1      5.626     10.754
REMARK SMILES CC(C)(C)N(CC(=O)NCCCCNC(=O)c1ccc(-c2c3nc(c(-c4c(F)cccc4F)c4ccc([nH]4)c(-c4c(F)cccc4F)c4nc(c(-c5c(F)cccc5F)c5ccc2[nH]5)C=C4)C=C3)cc1)C(=O)NCCc1cnc[nH]1
REMARK SMILES IDX 10 1 9 2 7 3 8 4 6 6 5 7 2 8 1 9 3 10 4 11 71 12 72 13 73 14
REMARK SMILES IDX 74 16 75 17 76 18 77 19 80 20 78 21 79 22 11 24 12 25 13 26
REMARK SMILES IDX 14 27 15 28 16 30 17 31 18 32 70 33 19 34 69 35 20 36 21 37
REMARK SMILES IDX 22 38 63 39 23 40 68 41 62 42 64 43 24 44 67 45 61 46 60 47
REMARK SMILES IDX 25 49 51 50 34 51 50 52 35 53 38 54 49 55 65 56 36 57 37 58
REMARK SMILES IDX 48 60 66 61 39 62 26 63 27 64 32 65 28 66 29 67 31 68 33 69
REMARK SMILES IDX 30 70 52 71 53 72 58 73 54 74 55 75 57 76 59 77 56 78 40 79
REMARK SMILES IDX 41 80 46 81 42 82 43 83 45 84 47 85 44 86
REMARK H PARENT 9 5 73 15 80 23 14 29 64 48 38 59
REMARK Flexibility Score: inf
ROOT
ATOM      1  C   UNL A   1      36.997  22.345  25.475  1.00  0.00     0.116 C 
ENDROOT
BRANCH   1   2
ATOM      2  N   UNL A   1      36.021  22.066  26.500  1.00  0.00    -0.355 N 
ATOM      3  C   UNL A   1      34.721  22.471  26.550  1.00  0.00     0.239 C 
ATOM      4  O   UNL A   1      33.974  21.870  27.332  1.00  0.00    -0.273 OA
ATOM      5  H   UNL A   1      36.332  21.517  27.255  1.00  0.00     0.163 HD
BRANCH   3   6
ATOM      6  C   UNL A   1      34.151  23.502  25.555  1.00  0.00     0.221 C 
BRANCH   6   7
ATOM      7  N   UNL A   1      32.935  23.148  24.802  1.00  0.00    -0.311 N 
BRANCH   7   8
ATOM      8  C   UNL A   1      31.616  23.839  25.149  1.00  0.00     0.037 C 
ATOM      9  C   UNL A   1      30.675  24.089  23.937  1.00  0.00     0.034 C 
ATOM     10  C   UNL A   1      31.825  25.235  25.791  1.00  0.00     0.034 C 
ATOM     11  C   UNL A   1      30.799  22.956  26.124  1.00  0.00     0.034 C 
ENDBRANCH   7   8
BRANCH   7  12
ATOM     12  C   UNL A   1      32.971  22.414  23.633  1.00  0.00     0.318 C 
ATOM     13  O   UNL A   1      33.252  22.923  22.544  1.00  0.00    -0.249 OA
ATOM     14  N   UNL A   1      32.720  21.099  23.541  1.00  0.00    -0.338 N 
ATOM     15  H   UNL A   1      32.636  20.840  22.596  1.00  0.00     0.165 HD
BRANCH  14  16
ATOM     16  C   UNL A   1      32.529  19.932  24.395  1.00  0.00     0.124 C 
BRANCH  16  17
ATOM     17  C   UNL A   1      33.842  19.173  24.633  1.00  0.00     0.077 C 
BRANCH  17  18
ATOM     18  C   UNL A   1      33.628  17.707  24.808  1.00  0.00     0.036 A 
ATOM     19  C   UNL A   1      33.908  16.623  24.004  1.00  0.00     0.134 A 
ATOM     20  N   UNL A   1      33.033  17.167  25.921  1.00  0.00    -0.348 N 
ATOM     21  N   UNL A   1      33.518  15.455  24.606  1.00  0.00    -0.245 NA
ATOM     22  C   UNL A   1      32.996  15.813  25.756  1.00  0.00     0.196 A 
ATOM     23  H   UNL A   1      32.695  17.667  26.700  1.00  0.00     0.167 HD
ENDBRANCH  17  18
ENDBRANCH  16  17
ENDBRANCH  14  16
ENDBRANCH   7  12
ENDBRANCH   6   7
ENDBRANCH   3   6
ENDBRANCH   1   2
BRANCH   1  24
ATOM     24  C   UNL A   1      37.134  21.217  24.459  1.00  0.00     0.023 C 
BRANCH  24  25
ATOM     25  C   UNL A   1      37.888  19.985  24.958  1.00  0.00     0.023 C 
BRANCH  25  26
ATOM     26  C   UNL A   1      39.158  20.274  25.750  1.00  0.00     0.116 C 
BRANCH  26  27
ATOM     27  N   UNL A   1      40.099  19.163  25.797  1.00  0.00    -0.352 N 
ATOM     28  C   UNL A   1      41.441  19.189  26.095  1.00  0.00     0.251 C 
ATOM     29  H   UNL A   1      39.725  18.276  25.588  1.00  0.00     0.163 HD
ATOM     30  O   UNL A   1      42.113  18.164  26.047  1.00  0.00    -0.269 OA
BRANCH  28  31
ATOM     31  C   UNL A   1      42.075  20.480  26.422  1.00  0.00     0.039 A 
ATOM     32  C   UNL A   1      42.522  21.292  25.376  1.00  0.00     0.014 A 
ATOM     33  C   UNL A   1      42.153  20.918  27.745  1.00  0.00     0.014 A 
ATOM     34  C   UNL A   1      42.968  22.585  25.653  1.00  0.00     0.010 A 
ATOM     35  C   UNL A   1      42.525  22.230  28.011  1.00  0.00     0.010 A 
ATOM     36  C   UNL A   1      42.926  23.078  26.967  1.00  0.00    -0.014 A 
BRANCH  36  37
ATOM     37  C   UNL A   1      43.281  24.485  27.274  1.00  0.00     0.031 A 
ATOM     38  C   UNL A   1      44.712  24.933  27.193  1.00  0.00     0.074 A 
ATOM     39  C   UNL A   1      42.331  25.330  27.717  1.00  0.00     0.049 A 
ATOM     40  N   UNL A   1      45.237  26.086  27.517  1.00  0.00    -0.248 NA
ATOM     41  C   UNL A   1      45.688  23.940  26.717  1.00  0.00     0.031 C 
ATOM     42  C   UNL A   1      40.918  24.996  27.903  1.00  0.00     0.029 A 
ATOM     43  N   UNL A   1      42.416  26.642  28.108  1.00  0.00    -0.354 N 
ATOM     44  C   UNL A   1      46.603  25.948  27.311  1.00  0.00     0.074 A 
ATOM     45  C   UNL A   1      46.832  24.587  26.879  1.00  0.00     0.031 C 
ATOM     46  C   UNL A   1      40.264  26.081  28.351  1.00  0.00     0.029 A 
ATOM     47  C   UNL A   1      41.216  27.174  28.516  1.00  0.00     0.049 A 
ATOM     48  H   UNL A   1      43.256  27.155  28.097  1.00  0.00     0.167 HD
ATOM     49  C   UNL A   1      47.577  26.880  27.448  1.00  0.00     0.037 A 
ATOM     50  C   UNL A   1      40.920  28.405  28.974  1.00  0.00     0.037 A 
ATOM     51  C   UNL A   1      47.341  28.244  27.837  1.00  0.00     0.049 A 
ATOM     52  C   UNL A   1      42.011  29.430  29.084  1.00  0.00     0.074 A 
ATOM     53  C   UNL A   1      48.248  29.285  27.925  1.00  0.00     0.029 A 
ATOM     54  N   UNL A   1      46.104  28.758  28.200  1.00  0.00    -0.354 N 
ATOM     55  N   UNL A   1      43.288  29.309  28.817  1.00  0.00    -0.248 NA
ATOM     56  C   UNL A   1      41.618  30.768  29.552  1.00  0.00     0.031 C 
ATOM     57  C   UNL A   1      47.565  30.422  28.372  1.00  0.00     0.029 A 
ATOM     58  C   UNL A   1      46.227  30.097  28.528  1.00  0.00     0.049 A 
ATOM     59  H   UNL A   1      45.264  28.245  28.221  1.00  0.00     0.167 HD
ATOM     60  C   UNL A   1      43.848  30.555  29.063  1.00  0.00     0.074 A 
ATOM     61  C   UNL A   1      42.769  31.422  29.489  1.00  0.00     0.031 C 
ATOM     62  C   UNL A   1      45.141  30.946  28.946  1.00  0.00     0.037 A 
BRANCH  49  63
ATOM     63  C   UNL A   1      48.984  26.446  27.165  1.00  0.00     0.057 A 
ATOM     64  C   UNL A   1      49.824  25.959  28.176  1.00  0.00     0.134 A 
ATOM     65  C   UNL A   1      49.504  26.505  25.867  1.00  0.00     0.134 A 
ATOM     66  F   UNL A   1      49.391  25.891  29.445  1.00  0.00    -0.206 F 
ATOM     67  C   UNL A   1      51.140  25.578  27.911  1.00  0.00     0.040 A 
ATOM     68  C   UNL A   1      50.811  26.103  25.585  1.00  0.00     0.040 A 
ATOM     69  F   UNL A   1      48.753  26.958  24.851  1.00  0.00    -0.206 F 
ATOM     70  C   UNL A   1      51.634  25.645  26.611  1.00  0.00     0.006 A 
ENDBRANCH  49  63
BRANCH  50  71
ATOM     71  C   UNL A   1      39.519  28.740  29.331  1.00  0.00     0.057 A 
ATOM     72  C   UNL A   1      38.635  29.239  28.369  1.00  0.00     0.134 A 
ATOM     73  C   UNL A   1      39.031  28.561  30.630  1.00  0.00     0.134 A 
ATOM     74  F   UNL A   1      39.052  29.449  27.112  1.00  0.00    -0.206 F 
ATOM     75  C   UNL A   1      37.314  29.561  28.688  1.00  0.00     0.040 A 
ATOM     76  C   UNL A   1      37.707  28.858  30.958  1.00  0.00     0.040 A 
ATOM     77  F   UNL A   1      39.830  28.078  31.593  1.00  0.00    -0.206 F 
ATOM     78  C   UNL A   1      36.846  29.365  29.986  1.00  0.00     0.006 A 
ENDBRANCH  50  71
BRANCH  62  79
ATOM     79  C   UNL A   1      45.454  32.377  29.259  1.00  0.00     0.057 A 
ATOM     80  C   UNL A   1      45.864  32.779  30.535  1.00  0.00     0.134 A 
ATOM     81  C   UNL A   1      45.383  33.357  28.260  1.00  0.00     0.134 A 
ATOM     82  F   UNL A   1      45.938  31.890  31.537  1.00  0.00    -0.206 F 
ATOM     83  C   UNL A   1      46.178  34.110  30.813  1.00  0.00     0.040 A 
ATOM     84  C   UNL A   1      45.715  34.687  28.520  1.00  0.00     0.040 A 
ATOM     85  F   UNL A   1      45.002  33.034  27.015  1.00  0.00    -0.206 F 
ATOM     86  C   UNL A   1      46.110  35.067  29.801  1.00  0.00     0.006 A 
ENDBRANCH  62  79
ENDBRANCH  36  37
ENDBRANCH  28  31
ENDBRANCH  26  27
ENDBRANCH  25  26
ENDBRANCH  24  25
ENDBRANCH   1  24
TORSDOF 17
ENDMDL
