MODEL 1
REMARK VINA RESULT:     -11.6      0.000      0.000
REMARK SMILES [NH3+]C1(C(=O)N2[C@@H](C(=O)NCCCCNC(=O)c3ccc(-c4c5nc(c(-c6c(F)cccc6F)c6ccc([nH]6)c(-c6c(F)cccc6F)c6nc(c(-c7c(F)cccc7F)c7ccc4[nH]7)C=C6)C=C5)cc3)CC[C@@H]3CCCC[C@@H]32)CC1
REMARK SMILES IDX 11 1 10 2 9 3 7 4 8 5 6 7 5 8 78 9 71 10 73 11 77 12 72 13
REMARK SMILES IDX 74 14 76 15 75 16 3 17 4 18 2 19 79 20 80 21 1 22 12 26
REMARK SMILES IDX 13 27 14 28 15 29 16 31 17 32 18 33 70 34 19 35 69 36 20 37
REMARK SMILES IDX 21 38 22 39 63 40 23 41 68 42 62 43 64 44 24 45 67 46 61 47
REMARK SMILES IDX 60 48 25 50 51 51 34 52 50 53 35 54 38 55 49 56 65 57 36 58
REMARK SMILES IDX 37 59 48 61 66 62 39 63 26 64 27 65 32 66 28 67 29 68 31 69
REMARK SMILES IDX 33 70 30 71 52 72 53 73 58 74 54 75 55 76 57 77 59 78 56 79
REMARK SMILES IDX 40 80 41 81 46 82 42 83 43 84 45 85 47 86 44 87
REMARK H PARENT 9 6 1 23 1 24 1 25 14 30 64 49 38 60
REMARK Flexibility Score: inf
ROOT
ATOM      1  C   UNL A   1      31.400  27.524  26.529  1.00  0.00     0.023 C 
ENDROOT
BRANCH   1   2
ATOM      2  C   UNL A   1      32.142  26.254  26.115  1.00  0.00     0.116 C 
BRANCH   2   3
ATOM      3  N   UNL A   1      31.486  25.084  26.659  1.00  0.00    -0.354 N 
ATOM      4  C   UNL A   1      31.810  23.772  26.522  1.00  0.00     0.242 C 
ATOM      5  O   UNL A   1      30.920  22.946  26.752  1.00  0.00    -0.273 OA
ATOM      6  H   UNL A   1      30.691  25.266  27.209  1.00  0.00     0.163 HD
BRANCH   4   7
ATOM      7  C   UNL A   1      33.167  23.313  25.951  1.00  0.00     0.175 C 
ATOM      8  N   UNL A   1      33.175  22.597  24.647  1.00  0.00    -0.322 N 
ATOM      9  C   UNL A   1      34.436  21.906  24.292  1.00  0.00     0.089 C 
ATOM     10  C   UNL A   1      33.811  22.471  27.086  1.00  0.00     0.036 C 
ATOM     11  C   UNL A   1      34.894  20.964  25.400  1.00  0.00     0.012 C 
ATOM     12  C   UNL A   1      35.526  22.931  23.902  1.00  0.00     0.025 C 
ATOM     13  C   UNL A   1      35.089  21.739  26.704  1.00  0.00     0.008 C 
ATOM     14  C   UNL A   1      36.160  20.240  24.934  1.00  0.00     0.006 C 
ATOM     15  C   UNL A   1      36.960  22.399  23.815  1.00  0.00     0.002 C 
ATOM     16  C   UNL A   1      37.317  21.198  24.691  1.00  0.00     0.000 C 
BRANCH   8  17
ATOM     17  C   UNL A   1      32.353  22.857  23.539  1.00  0.00     0.284 C 
ATOM     18  O   UNL A   1      31.748  21.945  22.971  1.00  0.00    -0.268 OA
BRANCH  17  19
ATOM     19  C   UNL A   1      32.123  24.246  22.972  1.00  0.00     0.174 C 
ATOM     20  C   UNL A   1      32.912  24.505  21.690  1.00  0.00     0.086 C 
ATOM     21  C   UNL A   1      33.111  25.376  22.881  1.00  0.00     0.086 C 
BRANCH  19  22
ATOM     22  N   UNL A   1      30.671  24.583  22.883  1.00  0.00    -0.345 N 
ATOM     23  H   UNL A   1      30.213  23.948  22.230  1.00  0.00     0.345 HD
ATOM     24  H   UNL A   1      30.565  25.543  22.556  1.00  0.00     0.345 HD
ATOM     25  H   UNL A   1      30.243  24.490  23.805  1.00  0.00     0.345 HD
ENDBRANCH  19  22
ENDBRANCH  17  19
ENDBRANCH   8  17
ENDBRANCH   4   7
ENDBRANCH   2   3
ENDBRANCH   1   2
BRANCH   1  26
ATOM     26  C   UNL A   1      32.049  28.286  27.688  1.00  0.00     0.023 C 
BRANCH  26  27
ATOM     27  C   UNL A   1      33.420  28.876  27.380  1.00  0.00     0.116 C 
BRANCH  27  28
ATOM     28  N   UNL A   1      33.516  30.284  27.733  1.00  0.00    -0.352 N 
ATOM     29  C   UNL A   1      34.578  30.959  28.283  1.00  0.00     0.251 C 
ATOM     30  H   UNL A   1      32.714  30.825  27.553  1.00  0.00     0.163 HD
ATOM     31  O   UNL A   1      34.452  32.120  28.661  1.00  0.00    -0.269 OA
BRANCH  29  32
ATOM     32  C   UNL A   1      35.861  30.254  28.454  1.00  0.00     0.039 A 
ATOM     33  C   UNL A   1      36.772  30.246  27.397  1.00  0.00     0.014 A 
ATOM     34  C   UNL A   1      36.186  29.666  29.680  1.00  0.00     0.014 A 
ATOM     35  C   UNL A   1      38.050  29.725  27.597  1.00  0.00     0.010 A 
ATOM     36  C   UNL A   1      37.480  29.206  29.897  1.00  0.00     0.010 A 
ATOM     37  C   UNL A   1      38.429  29.249  28.863  1.00  0.00    -0.014 A 
BRANCH  37  38
ATOM     38  C   UNL A   1      39.827  28.838  29.142  1.00  0.00     0.031 A 
ATOM     39  C   UNL A   1      40.785  29.802  29.783  1.00  0.00     0.074 A 
ATOM     40  C   UNL A   1      40.251  27.623  28.744  1.00  0.00     0.049 A 
ATOM     41  N   UNL A   1      42.065  29.660  30.012  1.00  0.00    -0.248 NA
ATOM     42  C   UNL A   1      40.237  31.101  30.202  1.00  0.00     0.031 C 
ATOM     43  C   UNL A   1      39.425  26.615  28.072  1.00  0.00     0.029 A 
ATOM     44  N   UNL A   1      41.486  27.032  28.831  1.00  0.00    -0.354 N 
ATOM     45  C   UNL A   1      42.476  30.849  30.599  1.00  0.00     0.074 A 
ATOM     46  C   UNL A   1      41.322  31.722  30.645  1.00  0.00     0.031 C 
ATOM     47  C   UNL A   1      40.174  25.529  27.820  1.00  0.00     0.029 A 
ATOM     48  C   UNL A   1      41.539  25.777  28.272  1.00  0.00     0.049 A 
ATOM     49  H   UNL A   1      42.262  27.466  29.254  1.00  0.00     0.167 HD
ATOM     50  C   UNL A   1      43.699  31.175  31.079  1.00  0.00     0.037 A 
ATOM     51  C   UNL A   1      42.575  24.930  28.124  1.00  0.00     0.037 A 
ATOM     52  C   UNL A   1      44.842  30.301  31.046  1.00  0.00     0.049 A 
ATOM     53  C   UNL A   1      43.932  25.337  28.631  1.00  0.00     0.074 A 
ATOM     54  C   UNL A   1      46.112  30.525  31.550  1.00  0.00     0.029 A 
ATOM     55  N   UNL A   1      44.854  29.038  30.476  1.00  0.00    -0.354 N 
ATOM     56  N   UNL A   1      44.290  26.440  29.240  1.00  0.00    -0.248 NA
ATOM     57  C   UNL A   1      45.029  24.380  28.426  1.00  0.00     0.031 C 
ATOM     58  C   UNL A   1      46.904  29.411  31.250  1.00  0.00     0.029 A 
ATOM     59  C   UNL A   1      46.116  28.479  30.595  1.00  0.00     0.049 A 
ATOM     60  H   UNL A   1      44.081  28.602  30.050  1.00  0.00     0.167 HD
ATOM     61  C   UNL A   1      45.645  26.302  29.510  1.00  0.00     0.074 A 
ATOM     62  C   UNL A   1      46.040  24.999  29.017  1.00  0.00     0.031 C 
ATOM     63  C   UNL A   1      46.490  27.178  30.106  1.00  0.00     0.037 A 
BRANCH  50  64
ATOM     64  C   UNL A   1      43.865  32.529  31.701  1.00  0.00     0.057 A 
ATOM     65  C   UNL A   1      44.224  33.645  30.935  1.00  0.00     0.134 A 
ATOM     66  C   UNL A   1      43.599  32.734  33.060  1.00  0.00     0.134 A 
ATOM     67  F   UNL A   1      44.503  33.513  29.629  1.00  0.00    -0.206 F 
ATOM     68  C   UNL A   1      44.326  34.917  31.501  1.00  0.00     0.040 A 
ATOM     69  C   UNL A   1      43.674  34.005  33.633  1.00  0.00     0.040 A 
ATOM     70  F   UNL A   1      43.246  31.707  33.848  1.00  0.00    -0.206 F 
ATOM     71  C   UNL A   1      44.040  35.101  32.853  1.00  0.00     0.006 A 
ENDBRANCH  50  64
BRANCH  51  72
ATOM     72  C   UNL A   1      42.384  23.617  27.459  1.00  0.00     0.057 A 
ATOM     73  C   UNL A   1      42.108  22.463  28.203  1.00  0.00     0.134 A 
ATOM     74  C   UNL A   1      42.513  23.474  26.072  1.00  0.00     0.134 A 
ATOM     75  F   UNL A   1      41.994  22.532  29.537  1.00  0.00    -0.206 F 
ATOM     76  C   UNL A   1      41.997  21.211  27.596  1.00  0.00     0.040 A 
ATOM     77  C   UNL A   1      42.376  22.232  25.449  1.00  0.00     0.040 A 
ATOM     78  F   UNL A   1      42.770  24.541  25.301  1.00  0.00    -0.206 F 
ATOM     79  C   UNL A   1      42.128  21.094  26.214  1.00  0.00     0.006 A 
ENDBRANCH  51  72
BRANCH  63  80
ATOM     80  C   UNL A   1      47.915  26.748  30.275  1.00  0.00     0.057 A 
ATOM     81  C   UNL A   1      48.333  26.012  31.390  1.00  0.00     0.134 A 
ATOM     82  C   UNL A   1      48.871  27.038  29.292  1.00  0.00     0.134 A 
ATOM     83  F   UNL A   1      47.469  25.715  32.372  1.00  0.00    -0.206 F 
ATOM     84  C   UNL A   1      49.657  25.593  31.531  1.00  0.00     0.040 A 
ATOM     85  C   UNL A   1      50.191  26.604  29.410  1.00  0.00     0.040 A 
ATOM     86  F   UNL A   1      48.532  27.733  28.196  1.00  0.00    -0.206 F 
ATOM     87  C   UNL A   1      50.588  25.883  30.535  1.00  0.00     0.006 A 
ENDBRANCH  63  80
ENDBRANCH  37  38
ENDBRANCH  29  32
ENDBRANCH  27  28
ENDBRANCH  26  27
ENDBRANCH   1  26
TORSDOF 14
ENDMDL
MODEL 2
REMARK VINA RESULT:     -11.5      2.091      7.302
REMARK SMILES [NH3+]C1(C(=O)N2[C@@H](C(=O)NCCCCNC(=O)c3ccc(-c4c5nc(c(-c6c(F)cccc6F)c6ccc([nH]6)c(-c6c(F)cccc6F)c6nc(c(-c7c(F)cccc7F)c7ccc4[nH]7)C=C6)C=C5)cc3)CC[C@@H]3CCCC[C@@H]32)CC1
REMARK SMILES IDX 11 1 10 2 9 3 7 4 8 5 6 7 5 8 78 9 71 10 73 11 77 12 72 13
REMARK SMILES IDX 74 14 76 15 75 16 3 17 4 18 2 19 79 20 80 21 1 22 12 26
REMARK SMILES IDX 13 27 14 28 15 29 16 31 17 32 18 33 70 34 19 35 69 36 20 37
REMARK SMILES IDX 21 38 22 39 63 40 23 41 68 42 62 43 64 44 24 45 67 46 61 47
REMARK SMILES IDX 60 48 25 50 51 51 34 52 50 53 35 54 38 55 49 56 65 57 36 58
REMARK SMILES IDX 37 59 48 61 66 62 39 63 26 64 27 65 32 66 28 67 29 68 31 69
REMARK SMILES IDX 33 70 30 71 52 72 53 73 58 74 54 75 55 76 57 77 59 78 56 79
REMARK SMILES IDX 40 80 41 81 46 82 42 83 43 84 45 85 47 86 44 87
REMARK H PARENT 9 6 1 23 1 24 1 25 14 30 64 49 38 60
REMARK Flexibility Score: inf
ROOT
ATOM      1  C   UNL A   1      37.020  22.226  23.920  1.00  0.00     0.023 C 
ENDROOT
BRANCH   1   2
ATOM      2  C   UNL A   1      35.750  22.990  24.292  1.00  0.00     0.116 C 
BRANCH   2   3
ATOM      3  N   UNL A   1      34.860  23.080  23.154  1.00  0.00    -0.354 N 
ATOM      4  C   UNL A   1      33.896  23.997  22.884  1.00  0.00     0.242 C 
ATOM      5  O   UNL A   1      33.027  23.676  22.066  1.00  0.00    -0.273 OA
ATOM      6  H   UNL A   1      34.972  22.375  22.477  1.00  0.00     0.163 HD
BRANCH   4   7
ATOM      7  C   UNL A   1      33.773  25.320  23.668  1.00  0.00     0.175 C 
ATOM      8  N   UNL A   1      32.754  25.405  24.749  1.00  0.00    -0.322 N 
ATOM      9  C   UNL A   1      32.455  26.764  25.255  1.00  0.00     0.089 C 
ATOM     10  C   UNL A   1      33.566  26.409  22.580  1.00  0.00     0.036 C 
ATOM     11  C   UNL A   1      32.088  27.719  24.124  1.00  0.00     0.012 C 
ATOM     12  C   UNL A   1      33.625  27.293  26.117  1.00  0.00     0.025 C 
ATOM     13  C   UNL A   1      33.228  27.795  23.107  1.00  0.00     0.008 C 
ATOM     14  C   UNL A   1      31.728  29.079  24.729  1.00  0.00     0.006 C 
ATOM     15  C   UNL A   1      33.604  28.789  26.447  1.00  0.00     0.002 C 
ATOM     16  C   UNL A   1      32.904  29.717  25.454  1.00  0.00     0.000 C 
BRANCH   8  17
ATOM     17  C   UNL A   1      32.388  24.386  25.643  1.00  0.00     0.284 C 
ATOM     18  O   UNL A   1      33.164  24.008  26.524  1.00  0.00    -0.268 OA
BRANCH  17  19
ATOM     19  C   UNL A   1      31.037  23.696  25.622  1.00  0.00     0.174 C 
ATOM     20  C   UNL A   1      29.992  24.404  26.482  1.00  0.00     0.086 C 
ATOM     21  C   UNL A   1      30.351  22.985  26.756  1.00  0.00     0.086 C 
BRANCH  19  22
ATOM     22  N   UNL A   1      30.586  23.386  24.233  1.00  0.00    -0.345 N 
ATOM     23  H   UNL A   1      31.204  23.844  23.564  1.00  0.00     0.345 HD
ATOM     24  H   UNL A   1      29.633  23.722  24.102  1.00  0.00     0.345 HD
ATOM     25  H   UNL A   1      30.614  22.377  24.084  1.00  0.00     0.345 HD
ENDBRANCH  19  22
ENDBRANCH  17  19
ENDBRANCH   8  17
ENDBRANCH   4   7
ENDBRANCH   2   3
ENDBRANCH   1   2
BRANCH   1  26
ATOM     26  C   UNL A   1      37.296  20.995  24.787  1.00  0.00     0.023 C 
BRANCH  26  27
ATOM     27  C   UNL A   1      38.503  21.118  25.709  1.00  0.00     0.116 C 
BRANCH  27  28
ATOM     28  N   UNL A   1      39.377  19.957  25.645  1.00  0.00    -0.352 N 
ATOM     29  C   UNL A   1      40.711  19.869  25.960  1.00  0.00     0.251 C 
ATOM     30  H   UNL A   1      38.957  19.123  25.335  1.00  0.00     0.163 HD
ATOM     31  O   UNL A   1      41.347  18.849  25.713  1.00  0.00    -0.269 OA
BRANCH  29  32
ATOM     32  C   UNL A   1      41.381  21.037  26.563  1.00  0.00     0.039 A 
ATOM     33  C   UNL A   1      41.969  21.984  25.723  1.00  0.00     0.014 A 
ATOM     34  C   UNL A   1      41.363  21.224  27.948  1.00  0.00     0.014 A 
ATOM     35  C   UNL A   1      42.461  23.170  26.267  1.00  0.00     0.010 A 
ATOM     36  C   UNL A   1      41.796  22.434  28.481  1.00  0.00     0.010 A 
ATOM     37  C   UNL A   1      42.331  23.424  27.642  1.00  0.00    -0.014 A 
BRANCH  37  38
ATOM     38  C   UNL A   1      42.703  24.740  28.218  1.00  0.00     0.031 A 
ATOM     39  C   UNL A   1      41.659  25.804  28.410  1.00  0.00     0.074 A 
ATOM     40  C   UNL A   1      43.996  25.000  28.493  1.00  0.00     0.049 A 
ATOM     41  N   UNL A   1      41.808  27.043  28.802  1.00  0.00    -0.248 NA
ATOM     42  C   UNL A   1      40.270  25.432  28.100  1.00  0.00     0.031 C 
ATOM     43  C   UNL A   1      45.107  24.062  28.309  1.00  0.00     0.029 A 
ATOM     44  N   UNL A   1      44.600  26.136  28.972  1.00  0.00    -0.354 N 
ATOM     45  C   UNL A   1      40.537  27.599  28.785  1.00  0.00     0.074 A 
ATOM     46  C   UNL A   1      39.634  26.579  28.296  1.00  0.00     0.031 C 
ATOM     47  C   UNL A   1      46.252  24.657  28.681  1.00  0.00     0.029 A 
ATOM     48  C   UNL A   1      45.965  26.028  29.090  1.00  0.00     0.049 A 
ATOM     49  H   UNL A   1      44.101  26.951  29.209  1.00  0.00     0.167 HD
ATOM     50  C   UNL A   1      40.153  28.839  29.167  1.00  0.00     0.037 A 
ATOM     51  C   UNL A   1      46.883  26.938  29.466  1.00  0.00     0.037 A 
ATOM     52  C   UNL A   1      41.051  29.847  29.667  1.00  0.00     0.049 A 
ATOM     53  C   UNL A   1      46.430  28.322  29.846  1.00  0.00     0.074 A 
ATOM     54  C   UNL A   1      40.748  31.119  30.124  1.00  0.00     0.029 A 
ATOM     55  N   UNL A   1      42.424  29.699  29.775  1.00  0.00    -0.354 N 
ATOM     56  N   UNL A   1      45.216  28.813  29.885  1.00  0.00    -0.248 NA
ATOM     57  C   UNL A   1      47.478  29.278  30.231  1.00  0.00     0.031 C 
ATOM     58  C   UNL A   1      41.945  31.755  30.471  1.00  0.00     0.029 A 
ATOM     59  C   UNL A   1      42.987  30.864  30.269  1.00  0.00     0.049 A 
ATOM     60  H   UNL A   1      42.926  28.886  29.537  1.00  0.00     0.167 HD
ATOM     61  C   UNL A   1      45.351  30.125  30.318  1.00  0.00     0.074 A 
ATOM     62  C   UNL A   1      46.763  30.347  30.549  1.00  0.00     0.031 C 
ATOM     63  C   UNL A   1      44.393  31.065  30.501  1.00  0.00     0.037 A 
BRANCH  50  64
ATOM     64  C   UNL A   1      38.695  29.175  29.078  1.00  0.00     0.057 A 
ATOM     65  C   UNL A   1      37.858  29.099  30.200  1.00  0.00     0.134 A 
ATOM     66  C   UNL A   1      38.135  29.643  27.883  1.00  0.00     0.134 A 
ATOM     67  F   UNL A   1      38.331  28.648  31.371  1.00  0.00    -0.206 F 
ATOM     68  C   UNL A   1      36.513  29.463  30.132  1.00  0.00     0.040 A 
ATOM     69  C   UNL A   1      36.797  30.033  27.809  1.00  0.00     0.040 A 
ATOM     70  F   UNL A   1      38.884  29.745  26.774  1.00  0.00    -0.206 F 
ATOM     71  C   UNL A   1      35.981  29.942  28.935  1.00  0.00     0.006 A 
ENDBRANCH  50  64
BRANCH  51  72
ATOM     72  C   UNL A   1      48.324  26.585  29.495  1.00  0.00     0.057 A 
ATOM     73  C   UNL A   1      49.152  26.832  28.393  1.00  0.00     0.134 A 
ATOM     74  C   UNL A   1      48.900  25.955  30.605  1.00  0.00     0.134 A 
ATOM     75  F   UNL A   1      48.653  27.414  27.292  1.00  0.00    -0.206 F 
ATOM     76  C   UNL A   1      50.491  26.441  28.381  1.00  0.00     0.040 A 
ATOM     77  C   UNL A   1      50.246  25.583  30.618  1.00  0.00     0.040 A 
ATOM     78  F   UNL A   1      48.164  25.695  31.695  1.00  0.00    -0.206 F 
ATOM     79  C   UNL A   1      51.043  25.816  29.498  1.00  0.00     0.006 A 
ENDBRANCH  51  72
BRANCH  63  80
ATOM     80  C   UNL A   1      44.838  32.410  30.992  1.00  0.00     0.057 A 
ATOM     81  C   UNL A   1      44.961  32.688  32.359  1.00  0.00     0.134 A 
ATOM     82  C   UNL A   1      45.185  33.422  30.089  1.00  0.00     0.134 A 
ATOM     83  F   UNL A   1      44.630  31.765  33.274  1.00  0.00    -0.206 F 
ATOM     84  C   UNL A   1      45.399  33.934  32.811  1.00  0.00     0.040 A 
ATOM     85  C   UNL A   1      45.647  34.663  30.529  1.00  0.00     0.040 A 
ATOM     86  F   UNL A   1      45.096  33.216  28.767  1.00  0.00    -0.206 F 
ATOM     87  C   UNL A   1      45.750  34.923  31.894  1.00  0.00     0.006 A 
ENDBRANCH  63  80
ENDBRANCH  37  38
ENDBRANCH  29  32
ENDBRANCH  27  28
ENDBRANCH  26  27
ENDBRANCH   1  26
TORSDOF 14
ENDMDL
MODEL 3
REMARK VINA RESULT:     -11.4      0.611      1.447
REMARK SMILES [NH3+]C1(C(=O)N2[C@@H](C(=O)NCCCCNC(=O)c3ccc(-c4c5nc(c(-c6c(F)cccc6F)c6ccc([nH]6)c(-c6c(F)cccc6F)c6nc(c(-c7c(F)cccc7F)c7ccc4[nH]7)C=C6)C=C5)cc3)CC[C@@H]3CCCC[C@@H]32)CC1
REMARK SMILES IDX 11 1 10 2 9 3 7 4 8 5 6 7 5 8 78 9 71 10 73 11 77 12 72 13
REMARK SMILES IDX 74 14 76 15 75 16 3 17 4 18 2 19 79 20 80 21 1 22 12 26
REMARK SMILES IDX 13 27 14 28 15 29 16 31 17 32 18 33 70 34 19 35 69 36 20 37
REMARK SMILES IDX 21 38 22 39 63 40 23 41 68 42 62 43 64 44 24 45 67 46 61 47
REMARK SMILES IDX 60 48 25 50 51 51 34 52 50 53 35 54 38 55 49 56 65 57 36 58
REMARK SMILES IDX 37 59 48 61 66 62 39 63 26 64 27 65 32 66 28 67 29 68 31 69
REMARK SMILES IDX 33 70 30 71 52 72 53 73 58 74 54 75 55 76 57 77 59 78 56 79
REMARK SMILES IDX 40 80 41 81 46 82 42 83 43 84 45 85 47 86 44 87
REMARK H PARENT 9 6 1 23 1 24 1 25 14 30 64 49 38 60
REMARK Flexibility Score: inf
ROOT
ATOM      1  C   UNL A   1      31.794  27.822  27.202  1.00  0.00     0.023 C 
ENDROOT
BRANCH   1   2
ATOM      2  C   UNL A   1      32.161  26.573  26.401  1.00  0.00     0.116 C 
BRANCH   2   3
ATOM      3  N   UNL A   1      31.431  25.424  26.891  1.00  0.00    -0.354 N 
ATOM      4  C   UNL A   1      31.681  24.102  26.708  1.00  0.00     0.242 C 
ATOM      5  O   UNL A   1      30.742  23.320  26.894  1.00  0.00    -0.273 OA
ATOM      6  H   UNL A   1      30.639  25.630  27.437  1.00  0.00     0.163 HD
BRANCH   4   7
ATOM      7  C   UNL A   1      33.019  23.587  26.137  1.00  0.00     0.175 C 
ATOM      8  N   UNL A   1      33.013  22.966  24.785  1.00  0.00    -0.322 N 
ATOM      9  C   UNL A   1      34.232  22.212  24.411  1.00  0.00     0.089 C 
ATOM     10  C   UNL A   1      33.569  22.622  27.223  1.00  0.00     0.036 C 
ATOM     11  C   UNL A   1      34.591  21.163  25.458  1.00  0.00     0.012 C 
ATOM     12  C   UNL A   1      35.402  23.181  24.121  1.00  0.00     0.025 C 
ATOM     13  C   UNL A   1      34.802  21.829  26.819  1.00  0.00     0.008 C 
ATOM     14  C   UNL A   1      35.815  20.385  24.971  1.00  0.00     0.006 C 
ATOM     15  C   UNL A   1      36.798  22.553  24.030  1.00  0.00     0.002 C 
ATOM     16  C   UNL A   1      37.043  21.271  24.825  1.00  0.00     0.000 C 
BRANCH   8  17
ATOM     17  C   UNL A   1      32.244  23.363  23.680  1.00  0.00     0.284 C 
ATOM     18  O   UNL A   1      31.576  22.542  23.045  1.00  0.00    -0.268 OA
BRANCH  17  19
ATOM     19  C   UNL A   1      32.148  24.797  23.195  1.00  0.00     0.174 C 
ATOM     20  C   UNL A   1      32.848  25.023  21.856  1.00  0.00     0.086 C 
ATOM     21  C   UNL A   1      33.264  25.797  23.058  1.00  0.00     0.086 C 
BRANCH  19  22
ATOM     22  N   UNL A   1      30.750  25.319  23.257  1.00  0.00    -0.345 N 
ATOM     23  H   UNL A   1      30.541  25.619  24.209  1.00  0.00     0.345 HD
ATOM     24  H   UNL A   1      30.100  24.584  22.980  1.00  0.00     0.345 HD
ATOM     25  H   UNL A   1      30.656  26.113  22.623  1.00  0.00     0.345 HD
ENDBRANCH  19  22
ENDBRANCH  17  19
ENDBRANCH   8  17
ENDBRANCH   4   7
ENDBRANCH   2   3
ENDBRANCH   1   2
BRANCH   1  26
ATOM     26  C   UNL A   1      32.429  29.116  26.686  1.00  0.00     0.023 C 
BRANCH  26  27
ATOM     27  C   UNL A   1      33.819  29.411  27.237  1.00  0.00     0.116 C 
BRANCH  27  28
ATOM     28  N   UNL A   1      33.864  30.641  28.011  1.00  0.00    -0.352 N 
ATOM     29  C   UNL A   1      34.871  31.110  28.819  1.00  0.00     0.251 C 
ATOM     30  H   UNL A   1      33.066  31.215  27.949  1.00  0.00     0.163 HD
ATOM     31  O   UNL A   1      34.698  32.099  29.525  1.00  0.00    -0.269 OA
BRANCH  29  32
ATOM     32  C   UNL A   1      36.152  30.381  28.859  1.00  0.00     0.039 A 
ATOM     33  C   UNL A   1      36.978  30.408  27.734  1.00  0.00     0.014 A 
ATOM     34  C   UNL A   1      36.560  29.734  30.029  1.00  0.00     0.014 A 
ATOM     35  C   UNL A   1      38.258  29.862  27.811  1.00  0.00     0.010 A 
ATOM     36  C   UNL A   1      37.860  29.248  30.125  1.00  0.00     0.010 A 
ATOM     37  C   UNL A   1      38.726  29.324  29.023  1.00  0.00    -0.014 A 
BRANCH  37  38
ATOM     38  C   UNL A   1      40.134  28.883  29.174  1.00  0.00     0.031 A 
ATOM     39  C   UNL A   1      41.178  29.841  29.675  1.00  0.00     0.074 A 
ATOM     40  C   UNL A   1      40.484  27.641  28.783  1.00  0.00     0.049 A 
ATOM     41  N   UNL A   1      42.471  29.670  29.778  1.00  0.00    -0.248 NA
ATOM     42  C   UNL A   1      40.710  31.171  30.095  1.00  0.00     0.031 C 
ATOM     43  C   UNL A   1      39.568  26.635  28.240  1.00  0.00     0.029 A 
ATOM     44  N   UNL A   1      41.706  27.018  28.767  1.00  0.00    -0.354 N 
ATOM     45  C   UNL A   1      42.970  30.867  30.272  1.00  0.00     0.074 A 
ATOM     46  C   UNL A   1      41.850  31.774  30.400  1.00  0.00     0.031 C 
ATOM     47  C   UNL A   1      40.258  25.518  27.956  1.00  0.00     0.029 A 
ATOM     48  C   UNL A   1      41.668  25.742  28.256  1.00  0.00     0.049 A 
ATOM     49  H   UNL A   1      42.532  27.444  29.092  1.00  0.00     0.167 HD
ATOM     50  C   UNL A   1      44.244  31.174  30.611  1.00  0.00     0.037 A 
ATOM     51  C   UNL A   1      42.662  24.860  28.037  1.00  0.00     0.037 A 
ATOM     52  C   UNL A   1      45.355  30.266  30.496  1.00  0.00     0.049 A 
ATOM     53  C   UNL A   1      44.073  25.245  28.387  1.00  0.00     0.074 A 
ATOM     54  C   UNL A   1      46.675  30.470  30.859  1.00  0.00     0.029 A 
ATOM     55  N   UNL A   1      45.276  28.983  29.979  1.00  0.00    -0.354 N 
ATOM     56  N   UNL A   1      44.520  26.359  28.912  1.00  0.00    -0.248 NA
ATOM     57  C   UNL A   1      45.118  24.249  28.109  1.00  0.00     0.031 C 
ATOM     58  C   UNL A   1      47.403  29.324  30.524  1.00  0.00     0.029 A 
ATOM     59  C   UNL A   1      46.528  28.391  29.991  1.00  0.00     0.049 A 
ATOM     60  H   UNL A   1      44.452  28.554  29.652  1.00  0.00     0.167 HD
ATOM     61  C   UNL A   1      45.892  26.190  29.047  1.00  0.00     0.074 A 
ATOM     62  C   UNL A   1      46.201  24.859  28.569  1.00  0.00     0.031 C 
ATOM     63  C   UNL A   1      46.816  27.063  29.519  1.00  0.00     0.037 A 
BRANCH  50  64
ATOM     64  C   UNL A   1      44.508  32.544  31.159  1.00  0.00     0.057 A 
ATOM     65  C   UNL A   1      44.452  32.805  32.534  1.00  0.00     0.134 A 
ATOM     66  C   UNL A   1      44.886  33.596  30.315  1.00  0.00     0.134 A 
ATOM     67  F   UNL A   1      44.085  31.842  33.394  1.00  0.00    -0.206 F 
ATOM     68  C   UNL A   1      44.751  34.066  33.050  1.00  0.00     0.040 A 
ATOM     69  C   UNL A   1      45.211  34.855  30.822  1.00  0.00     0.040 A 
ATOM     70  F   UNL A   1      44.964  33.410  28.988  1.00  0.00    -0.206 F 
ATOM     71  C   UNL A   1      45.142  35.094  32.193  1.00  0.00     0.006 A 
ENDBRANCH  50  64
BRANCH  51  72
ATOM     72  C   UNL A   1      42.369  23.530  27.447  1.00  0.00     0.057 A 
ATOM     73  C   UNL A   1      42.050  22.433  28.259  1.00  0.00     0.134 A 
ATOM     74  C   UNL A   1      42.442  23.310  26.067  1.00  0.00     0.134 A 
ATOM     75  F   UNL A   1      41.987  22.576  29.591  1.00  0.00    -0.206 F 
ATOM     76  C   UNL A   1      41.843  21.162  27.722  1.00  0.00     0.040 A 
ATOM     77  C   UNL A   1      42.209  22.049  25.514  1.00  0.00     0.040 A 
ATOM     78  F   UNL A   1      42.736  24.318  25.234  1.00  0.00    -0.206 F 
ATOM     79  C   UNL A   1      41.920  20.968  26.344  1.00  0.00     0.006 A 
ENDBRANCH  51  72
BRANCH  63  80
ATOM     80  C   UNL A   1      48.240  26.597  29.558  1.00  0.00     0.057 A 
ATOM     81  C   UNL A   1      49.135  26.882  28.520  1.00  0.00     0.134 A 
ATOM     82  C   UNL A   1      48.731  25.891  30.664  1.00  0.00     0.134 A 
ATOM     83  F   UNL A   1      48.722  27.542  27.428  1.00  0.00    -0.206 F 
ATOM     84  C   UNL A   1      50.467  26.466  28.573  1.00  0.00     0.040 A 
ATOM     85  C   UNL A   1      50.065  25.492  30.739  1.00  0.00     0.040 A 
ATOM     86  F   UNL A   1      47.925  25.594  31.695  1.00  0.00    -0.206 F 
ATOM     87  C   UNL A   1      50.936  25.775  29.689  1.00  0.00     0.006 A 
ENDBRANCH  63  80
ENDBRANCH  37  38
ENDBRANCH  29  32
ENDBRANCH  27  28
ENDBRANCH  26  27
ENDBRANCH   1  26
TORSDOF 14
ENDMDL
