MODEL 1
REMARK VINA RESULT:     -13.8      0.000      0.000
REMARK SMILES Cc1ccc(S(=O)(=O)n2cc(C(=O)C(=O)N[C@@H](Cc3c[nH]c4ccccc34)C(=O)NCCCCNC(=O)c3ccc(-c4c5nc(c(-c6c(F)cccc6F)c6ccc([nH]6)c(-c6c(F)cccc6F)c6nc(c(-c7c(F)cccc7F)c7ccc4[nH]7)C=C6)C=C5)cc3)c3ccccc32)cc1
REMARK SMILES IDX 31 1 30 2 28 3 29 4 17 6 16 7 14 8 15 9 12 11 13 12 11 13
REMARK SMILES IDX 9 14 10 15 97 16 92 17 96 18 93 19 95 20 94 21 6 22 7 23
REMARK SMILES IDX 8 24 5 25 1 26 2 27 3 28 99 29 4 30 98 31 18 32 19 33 20 34
REMARK SMILES IDX 27 35 21 36 22 37 26 38 23 40 25 41 24 42 32 43 33 44 34 45
REMARK SMILES IDX 35 46 36 47 37 49 38 50 39 51 91 52 40 53 90 54 41 55 42 56
REMARK SMILES IDX 43 57 84 58 44 59 89 60 83 61 85 62 45 63 88 64 82 65 81 66
REMARK SMILES IDX 46 68 72 69 55 70 71 71 56 72 59 73 70 74 86 75 57 76 58 77
REMARK SMILES IDX 69 79 87 80 60 81 47 82 48 83 53 84 49 85 50 86 52 87 54 88
REMARK SMILES IDX 51 89 73 90 74 91 79 92 75 93 76 94 78 95 80 96 77 97 61 98
REMARK SMILES IDX 62 99 67 100 63 101 64 102 66 103 68 104 65 105
REMARK H PARENT 30 5 16 10 21 39 35 48 85 67 59 78
REMARK Flexibility Score: inf
ROOT
ATOM      1  C   UNL A   1      36.015  21.113  25.583  1.00  0.00     0.116 C 
ENDROOT
BRANCH   1   2
ATOM      2  N   UNL A   1      35.523  22.096  26.521  1.00  0.00    -0.354 N 
ATOM      3  C   UNL A   1      34.258  22.621  26.604  1.00  0.00     0.242 C 
ATOM      4  O   UNL A   1      33.869  22.939  27.735  1.00  0.00    -0.273 OA
ATOM      5  H   UNL A   1      36.175  22.429  27.181  1.00  0.00     0.163 HD
BRANCH   3   6
ATOM      6  C   UNL A   1      33.276  22.699  25.394  1.00  0.00     0.176 C 
BRANCH   6   7
ATOM      7  N   UNL A   1      33.891  23.092  24.106  1.00  0.00    -0.337 N 
ATOM      8  C   UNL A   1      33.474  23.988  23.130  1.00  0.00     0.293 C 
ATOM      9  O   UNL A   1      34.089  24.081  22.072  1.00  0.00    -0.265 OA
ATOM     10  H   UNL A   1      34.742  22.640  23.906  1.00  0.00     0.164 HD
BRANCH   8  11
ATOM     11  C   UNL A   1      32.268  24.900  23.373  1.00  0.00     0.252 C 
ATOM     12  O   UNL A   1      31.189  24.467  22.964  1.00  0.00    -0.283 OA
BRANCH  11  13
ATOM     13  C   UNL A   1      32.387  26.256  23.947  1.00  0.00     0.054 A 
ATOM     14  N   UNL A   1      32.993  28.174  25.005  1.00  0.00    -0.240 N 
ATOM     15  C   UNL A   1      33.350  26.840  24.785  1.00  0.00     0.117 A 
ATOM     16  C   UNL A   1      31.930  28.469  24.132  1.00  0.00     0.065 A 
ATOM     17  C   UNL A   1      31.363  27.243  23.798  1.00  0.00     0.012 A 
ATOM     18  C   UNL A   1      31.266  29.684  23.864  1.00  0.00     0.028 A 
ATOM     19  C   UNL A   1      30.016  27.218  23.377  1.00  0.00     0.011 A 
ATOM     20  C   UNL A   1      29.917  29.629  23.517  1.00  0.00     0.002 A 
ATOM     21  C   UNL A   1      29.286  28.409  23.319  1.00  0.00     0.001 A 
BRANCH  14  22
ATOM     22  S   UNL A   1      32.760  28.950  26.561  1.00  0.00     0.268 S 
ATOM     23  O   UNL A   1      33.893  28.476  27.337  1.00  0.00    -0.201 OA
ATOM     24  O   UNL A   1      31.398  28.555  26.898  1.00  0.00    -0.201 OA
BRANCH  22  25
ATOM     25  C   UNL A   1      32.681  30.677  26.879  1.00  0.00     0.088 A 
ATOM     26  C   UNL A   1      33.229  34.685  28.413  1.00  0.00     0.044 C 
ATOM     27  C   UNL A   1      33.028  33.318  27.823  1.00  0.00    -0.051 A 
ATOM     28  C   UNL A   1      34.028  32.381  28.034  1.00  0.00     0.005 A 
ATOM     29  C   UNL A   1      31.863  32.926  27.121  1.00  0.00     0.005 A 
ATOM     30  C   UNL A   1      33.856  31.093  27.558  1.00  0.00     0.022 A 
ATOM     31  C   UNL A   1      31.677  31.599  26.647  1.00  0.00     0.022 A 
ENDBRANCH  22  25
ENDBRANCH  14  22
ENDBRANCH  11  13
ENDBRANCH   8  11
ENDBRANCH   6   7
BRANCH   6  32
ATOM     32  C   UNL A   1      32.329  21.453  25.301  1.00  0.00     0.072 C 
BRANCH  32  33
ATOM     33  C   UNL A   1      32.438  20.564  24.083  1.00  0.00    -0.020 A 
ATOM     34  C   UNL A   1      31.804  20.758  22.866  1.00  0.00     0.087 A 
ATOM     35  C   UNL A   1      33.158  19.324  23.961  1.00  0.00     0.003 A 
ATOM     36  N   UNL A   1      32.029  19.657  22.081  1.00  0.00    -0.361 N 
ATOM     37  C   UNL A   1      32.696  18.699  22.802  1.00  0.00     0.046 A 
ATOM     38  C   UNL A   1      34.025  18.601  24.805  1.00  0.00     0.010 A 
ATOM     39  H   UNL A   1      31.752  19.566  21.141  1.00  0.00     0.166 HD
ATOM     40  C   UNL A   1      32.917  17.343  22.532  1.00  0.00     0.026 A 
ATOM     41  C   UNL A   1      34.250  17.243  24.556  1.00  0.00     0.001 A 
ATOM     42  C   UNL A   1      33.673  16.617  23.455  1.00  0.00     0.002 A 
ENDBRANCH  32  33
ENDBRANCH   6  32
ENDBRANCH   3   6
ENDBRANCH   1   2
BRANCH   1  43
ATOM     43  C   UNL A   1      37.173  21.533  24.687  1.00  0.00     0.023 C 
BRANCH  43  44
ATOM     44  C   UNL A   1      38.573  21.211  25.195  1.00  0.00     0.023 C 
BRANCH  44  45
ATOM     45  C   UNL A   1      39.099  22.116  26.304  1.00  0.00     0.116 C 
BRANCH  45  46
ATOM     46  N   UNL A   1      40.535  22.342  26.327  1.00  0.00    -0.352 N 
ATOM     47  C   UNL A   1      41.255  23.528  26.432  1.00  0.00     0.251 C 
ATOM     48  H   UNL A   1      41.085  21.527  26.259  1.00  0.00     0.163 HD
ATOM     49  O   UNL A   1      42.468  23.493  26.333  1.00  0.00    -0.269 OA
BRANCH  47  50
ATOM     50  C   UNL A   1      40.586  24.812  26.815  1.00  0.00     0.039 A 
ATOM     51  C   UNL A   1      40.822  25.936  26.005  1.00  0.00     0.014 A 
ATOM     52  C   UNL A   1      39.916  24.983  28.020  1.00  0.00     0.014 A 
ATOM     53  C   UNL A   1      40.649  27.218  26.528  1.00  0.00     0.010 A 
ATOM     54  C   UNL A   1      39.847  26.238  28.585  1.00  0.00     0.010 A 
ATOM     55  C   UNL A   1      40.294  27.345  27.864  1.00  0.00    -0.014 A 
BRANCH  55  56
ATOM     56  C   UNL A   1      40.518  28.541  28.660  1.00  0.00     0.031 A 
ATOM     57  C   UNL A   1      39.457  29.546  28.835  1.00  0.00     0.074 A 
ATOM     58  C   UNL A   1      41.646  28.585  29.403  1.00  0.00     0.049 A 
ATOM     59  N   UNL A   1      39.656  30.711  29.347  1.00  0.00    -0.248 NA
ATOM     60  C   UNL A   1      38.084  29.345  28.382  1.00  0.00     0.031 C 
ATOM     61  C   UNL A   1      41.933  29.413  30.571  1.00  0.00     0.029 A 
ATOM     62  N   UNL A   1      42.864  27.940  29.131  1.00  0.00    -0.354 N 
ATOM     63  C   UNL A   1      38.425  31.276  29.578  1.00  0.00     0.074 A 
ATOM     64  C   UNL A   1      37.503  30.467  28.823  1.00  0.00     0.031 C 
ATOM     65  C   UNL A   1      43.263  29.456  30.755  1.00  0.00     0.029 A 
ATOM     66  C   UNL A   1      43.870  28.814  29.602  1.00  0.00     0.049 A 
ATOM     67  H   UNL A   1      42.990  27.063  28.702  1.00  0.00     0.167 HD
ATOM     68  C   UNL A   1      38.329  32.271  30.502  1.00  0.00     0.037 A 
ATOM     69  C   UNL A   1      44.708  29.449  28.729  1.00  0.00     0.037 A 
ATOM     70  C   UNL A   1      39.660  32.760  30.872  1.00  0.00     0.049 A 
ATOM     71  C   UNL A   1      44.610  30.959  28.756  1.00  0.00     0.074 A 
ATOM     72  C   UNL A   1      40.455  32.601  31.992  1.00  0.00     0.029 A 
ATOM     73  N   UNL A   1      40.472  33.318  29.887  1.00  0.00    -0.354 N 
ATOM     74  N   UNL A   1      43.605  31.613  29.270  1.00  0.00    -0.248 NA
ATOM     75  C   UNL A   1      45.616  31.849  28.180  1.00  0.00     0.031 C 
ATOM     76  C   UNL A   1      41.785  32.954  31.633  1.00  0.00     0.029 A 
ATOM     77  C   UNL A   1      41.784  33.379  30.313  1.00  0.00     0.049 A 
ATOM     78  H   UNL A   1      40.155  33.627  29.008  1.00  0.00     0.167 HD
ATOM     79  C   UNL A   1      43.776  32.956  29.062  1.00  0.00     0.074 A 
ATOM     80  C   UNL A   1      45.066  33.055  28.404  1.00  0.00     0.031 C 
ATOM     81  C   UNL A   1      42.827  33.869  29.421  1.00  0.00     0.037 A 
BRANCH  68  82
ATOM     82  C   UNL A   1      37.066  32.685  31.235  1.00  0.00     0.057 A 
ATOM     83  C   UNL A   1      36.230  33.682  30.690  1.00  0.00     0.134 A 
ATOM     84  C   UNL A   1      36.676  32.256  32.521  1.00  0.00     0.134 A 
ATOM     85  F   UNL A   1      36.464  34.204  29.478  1.00  0.00    -0.206 F 
ATOM     86  C   UNL A   1      35.123  34.213  31.370  1.00  0.00     0.040 A 
ATOM     87  C   UNL A   1      35.543  32.743  33.190  1.00  0.00     0.040 A 
ATOM     88  F   UNL A   1      37.392  31.387  33.240  1.00  0.00    -0.206 F 
ATOM     89  C   UNL A   1      34.768  33.737  32.622  1.00  0.00     0.006 A 
ENDBRANCH  68  82
BRANCH  69  90
ATOM     90  C   UNL A   1      45.012  28.650  27.514  1.00  0.00     0.057 A 
ATOM     91  C   UNL A   1      45.994  27.648  27.593  1.00  0.00     0.134 A 
ATOM     92  C   UNL A   1      44.125  28.587  26.434  1.00  0.00     0.134 A 
ATOM     93  F   UNL A   1      46.863  27.639  28.615  1.00  0.00    -0.206 F 
ATOM     94  C   UNL A   1      46.028  26.574  26.700  1.00  0.00     0.040 A 
ATOM     95  C   UNL A   1      44.148  27.513  25.536  1.00  0.00     0.040 A 
ATOM     96  F   UNL A   1      43.144  29.492  26.305  1.00  0.00    -0.206 F 
ATOM     97  C   UNL A   1      45.075  26.484  25.690  1.00  0.00     0.006 A 
ENDBRANCH  69  90
BRANCH  81  98
ATOM     98  C   UNL A   1      42.814  35.318  29.006  1.00  0.00     0.057 A 
ATOM     99  C   UNL A   1      43.186  36.381  29.843  1.00  0.00     0.134 A 
ATOM    100  C   UNL A   1      42.571  35.670  27.661  1.00  0.00     0.134 A 
ATOM    101  F   UNL A   1      43.550  36.177  31.117  1.00  0.00    -0.206 F 
ATOM    102  C   UNL A   1      43.257  37.705  29.390  1.00  0.00     0.040 A 
ATOM    103  C   UNL A   1      42.692  36.979  27.184  1.00  0.00     0.040 A 
ATOM    104  F   UNL A   1      42.228  34.751  26.745  1.00  0.00    -0.206 F 
ATOM    105  C   UNL A   1      43.023  38.007  28.053  1.00  0.00     0.006 A 
ENDBRANCH  81  98
ENDBRANCH  55  56
ENDBRANCH  47  50
ENDBRANCH  45  46
ENDBRANCH  44  45
ENDBRANCH  43  44
ENDBRANCH   1  43
TORSDOF 18
ENDMDL
MODEL 2
REMARK VINA RESULT:     -12.9      1.996      2.845
REMARK SMILES Cc1ccc(S(=O)(=O)n2cc(C(=O)C(=O)N[C@@H](Cc3c[nH]c4ccccc34)C(=O)NCCCCNC(=O)c3ccc(-c4c5nc(c(-c6c(F)cccc6F)c6ccc([nH]6)c(-c6c(F)cccc6F)c6nc(c(-c7c(F)cccc7F)c7ccc4[nH]7)C=C6)C=C5)cc3)c3ccccc32)cc1
REMARK SMILES IDX 31 1 30 2 28 3 29 4 17 6 16 7 14 8 15 9 12 11 13 12 11 13
REMARK SMILES IDX 9 14 10 15 97 16 92 17 96 18 93 19 95 20 94 21 6 22 7 23
REMARK SMILES IDX 8 24 5 25 1 26 2 27 3 28 99 29 4 30 98 31 18 32 19 33 20 34
REMARK SMILES IDX 27 35 21 36 22 37 26 38 23 40 25 41 24 42 32 43 33 44 34 45
REMARK SMILES IDX 35 46 36 47 37 49 38 50 39 51 91 52 40 53 90 54 41 55 42 56
REMARK SMILES IDX 43 57 84 58 44 59 89 60 83 61 85 62 45 63 88 64 82 65 81 66
REMARK SMILES IDX 46 68 72 69 55 70 71 71 56 72 59 73 70 74 86 75 57 76 58 77
REMARK SMILES IDX 69 79 87 80 60 81 47 82 48 83 53 84 49 85 50 86 52 87 54 88
REMARK SMILES IDX 51 89 73 90 74 91 79 92 75 93 76 94 78 95 80 96 77 97 61 98
REMARK SMILES IDX 62 99 67 100 63 101 64 102 66 103 68 104 65 105
REMARK H PARENT 30 5 16 10 21 39 35 48 85 67 59 78
REMARK Flexibility Score: inf
ROOT
ATOM      1  C   UNL A   1      37.982  21.709  25.250  1.00  0.00     0.116 C 
ENDROOT
BRANCH   1   2
ATOM      2  N   UNL A   1      37.442  23.048  25.186  1.00  0.00    -0.354 N 
ATOM      3  C   UNL A   1      36.140  23.419  24.964  1.00  0.00     0.242 C 
ATOM      4  O   UNL A   1      35.767  24.463  25.513  1.00  0.00    -0.273 OA
ATOM      5  H   UNL A   1      38.086  23.781  25.319  1.00  0.00     0.163 HD
BRANCH   3   6
ATOM      6  C   UNL A   1      35.111  22.538  24.191  1.00  0.00     0.176 C 
BRANCH   6   7
ATOM      7  N   UNL A   1      34.920  22.892  22.766  1.00  0.00    -0.337 N 
ATOM      8  C   UNL A   1      33.768  23.156  22.037  1.00  0.00     0.293 C 
ATOM      9  O   UNL A   1      33.829  23.323  20.822  1.00  0.00    -0.265 OA
ATOM     10  H   UNL A   1      35.753  22.952  22.246  1.00  0.00     0.164 HD
BRANCH   8  11
ATOM     11  C   UNL A   1      32.412  23.280  22.737  1.00  0.00     0.252 C 
ATOM     12  O   UNL A   1      31.780  22.229  22.853  1.00  0.00    -0.283 OA
BRANCH  11  13
ATOM     13  C   UNL A   1      31.833  24.577  23.147  1.00  0.00     0.054 A 
ATOM     14  N   UNL A   1      30.909  26.647  23.297  1.00  0.00    -0.240 N 
ATOM     15  C   UNL A   1      31.406  25.690  22.407  1.00  0.00     0.117 A 
ATOM     16  C   UNL A   1      30.833  26.038  24.562  1.00  0.00     0.065 A 
ATOM     17  C   UNL A   1      31.715  24.964  24.518  1.00  0.00     0.012 A 
ATOM     18  C   UNL A   1      30.308  26.509  25.783  1.00  0.00     0.028 A 
ATOM     19  C   UNL A   1      32.247  24.480  25.734  1.00  0.00     0.011 A 
ATOM     20  C   UNL A   1      30.900  26.066  26.964  1.00  0.00     0.002 A 
ATOM     21  C   UNL A   1      31.890  25.094  26.938  1.00  0.00     0.001 A 
BRANCH  14  22
ATOM     22  S   UNL A   1      31.431  28.317  23.435  1.00  0.00     0.268 S 
ATOM     23  O   UNL A   1      30.184  29.058  23.344  1.00  0.00    -0.201 OA
ATOM     24  O   UNL A   1      32.440  28.408  22.387  1.00  0.00    -0.201 OA
BRANCH  22  25
ATOM     25  C   UNL A   1      32.297  29.044  24.779  1.00  0.00     0.088 A 
ATOM     26  C   UNL A   1      34.954  29.885  28.089  1.00  0.00     0.044 C 
ATOM     27  C   UNL A   1      34.033  29.655  26.924  1.00  0.00    -0.051 A 
ATOM     28  C   UNL A   1      34.384  28.660  26.024  1.00  0.00     0.005 A 
ATOM     29  C   UNL A   1      32.817  30.351  26.731  1.00  0.00     0.005 A 
ATOM     30  C   UNL A   1      33.536  28.376  24.969  1.00  0.00     0.022 A 
ATOM     31  C   UNL A   1      31.934  30.048  25.659  1.00  0.00     0.022 A 
ENDBRANCH  22  25
ENDBRANCH  14  22
ENDBRANCH  11  13
ENDBRANCH   8  11
ENDBRANCH   6   7
BRANCH   6  32
ATOM     32  C   UNL A   1      35.311  21.004  24.450  1.00  0.00     0.072 C 
BRANCH  32  33
ATOM     33  C   UNL A   1      34.097  20.178  24.810  1.00  0.00    -0.020 A 
ATOM     34  C   UNL A   1      32.967  20.627  25.474  1.00  0.00     0.087 A 
ATOM     35  C   UNL A   1      33.899  18.768  24.599  1.00  0.00     0.003 A 
ATOM     36  N   UNL A   1      32.170  19.547  25.752  1.00  0.00    -0.361 N 
ATOM     37  C   UNL A   1      32.812  18.389  25.388  1.00  0.00     0.046 A 
ATOM     38  C   UNL A   1      34.634  17.756  23.951  1.00  0.00     0.010 A 
ATOM     39  H   UNL A   1      31.273  19.593  26.153  1.00  0.00     0.166 HD
ATOM     40  C   UNL A   1      32.528  17.054  25.698  1.00  0.00     0.026 A 
ATOM     41  C   UNL A   1      34.372  16.416  24.255  1.00  0.00     0.001 A 
ATOM     42  C   UNL A   1      33.357  16.074  25.144  1.00  0.00     0.002 A 
ENDBRANCH  32  33
ENDBRANCH   6  32
ENDBRANCH   3   6
ENDBRANCH   1   2
BRANCH   1  43
ATOM     43  C   UNL A   1      39.230  21.508  26.100  1.00  0.00     0.023 C 
BRANCH  43  44
ATOM     44  C   UNL A   1      40.054  20.260  25.809  1.00  0.00     0.023 C 
BRANCH  44  45
ATOM     45  C   UNL A   1      41.167  19.956  26.806  1.00  0.00     0.116 C 
BRANCH  45  46
ATOM     46  N   UNL A   1      42.507  20.374  26.425  1.00  0.00    -0.352 N 
ATOM     47  C   UNL A   1      43.029  21.650  26.236  1.00  0.00     0.251 C 
ATOM     48  H   UNL A   1      43.146  19.639  26.280  1.00  0.00     0.163 HD
ATOM     49  O   UNL A   1      44.167  21.766  25.820  1.00  0.00    -0.269 OA
BRANCH  47  50
ATOM     50  C   UNL A   1      42.279  22.869  26.677  1.00  0.00     0.039 A 
ATOM     51  C   UNL A   1      42.210  23.951  25.781  1.00  0.00     0.014 A 
ATOM     52  C   UNL A   1      41.828  23.047  27.979  1.00  0.00     0.014 A 
ATOM     53  C   UNL A   1      41.970  25.238  26.264  1.00  0.00     0.010 A 
ATOM     54  C   UNL A   1      41.701  24.323  28.483  1.00  0.00     0.010 A 
ATOM     55  C   UNL A   1      41.855  25.420  27.636  1.00  0.00    -0.014 A 
BRANCH  55  56
ATOM     56  C   UNL A   1      42.064  26.690  28.312  1.00  0.00     0.031 A 
ATOM     57  C   UNL A   1      40.961  27.650  28.482  1.00  0.00     0.074 A 
ATOM     58  C   UNL A   1      43.235  26.855  28.965  1.00  0.00     0.049 A 
ATOM     59  N   UNL A   1      41.127  28.863  28.880  1.00  0.00    -0.248 NA
ATOM     60  C   UNL A   1      39.574  27.339  28.148  1.00  0.00     0.031 C 
ATOM     61  C   UNL A   1      43.553  27.794  30.037  1.00  0.00     0.029 A 
ATOM     62  N   UNL A   1      44.467  26.254  28.658  1.00  0.00    -0.354 N 
ATOM     63  C   UNL A   1      39.883  29.381  29.153  1.00  0.00     0.074 A 
ATOM     64  C   UNL A   1      38.961  28.463  28.536  1.00  0.00     0.031 C 
ATOM     65  C   UNL A   1      44.888  27.922  30.120  1.00  0.00     0.029 A 
ATOM     66  C   UNL A   1      45.451  27.216  28.982  1.00  0.00     0.049 A 
ATOM     67  H   UNL A   1      44.615  25.351  28.295  1.00  0.00     0.167 HD
ATOM     68  C   UNL A   1      39.793  30.445  29.997  1.00  0.00     0.037 A 
ATOM     69  C   UNL A   1      46.189  27.817  28.001  1.00  0.00     0.037 A 
ATOM     70  C   UNL A   1      41.116  31.032  30.228  1.00  0.00     0.049 A 
ATOM     71  C   UNL A   1      46.006  29.316  27.912  1.00  0.00     0.074 A 
ATOM     72  C   UNL A   1      41.993  31.012  31.297  1.00  0.00     0.029 A 
ATOM     73  N   UNL A   1      41.825  31.545  29.144  1.00  0.00    -0.354 N 
ATOM     74  N   UNL A   1      45.002  29.959  28.442  1.00  0.00    -0.248 NA
ATOM     75  C   UNL A   1      46.917  30.205  27.193  1.00  0.00     0.031 C 
ATOM     76  C   UNL A   1      43.273  31.401  30.813  1.00  0.00     0.029 A 
ATOM     77  C   UNL A   1      43.157  31.710  29.467  1.00  0.00     0.049 A 
ATOM     78  H   UNL A   1      41.431  31.761  28.268  1.00  0.00     0.167 HD
ATOM     79  C   UNL A   1      45.081  31.286  28.112  1.00  0.00     0.074 A 
ATOM     80  C   UNL A   1      46.314  31.396  27.357  1.00  0.00     0.031 C 
ATOM     81  C   UNL A   1      44.107  32.176  28.464  1.00  0.00     0.037 A 
BRANCH  68  82
ATOM     82  C   UNL A   1      38.562  30.854  30.784  1.00  0.00     0.057 A 
ATOM     83  C   UNL A   1      37.558  31.632  30.168  1.00  0.00     0.134 A 
ATOM     84  C   UNL A   1      38.351  30.642  32.162  1.00  0.00     0.134 A 
ATOM     85  F   UNL A   1      37.610  31.932  28.863  1.00  0.00    -0.206 F 
ATOM     86  C   UNL A   1      36.461  32.161  30.864  1.00  0.00     0.040 A 
ATOM     87  C   UNL A   1      37.232  31.124  32.859  1.00  0.00     0.040 A 
ATOM     88  F   UNL A   1      39.235  30.010  32.940  1.00  0.00    -0.206 F 
ATOM     89  C   UNL A   1      36.288  31.900  32.214  1.00  0.00     0.006 A 
ENDBRANCH  68  82
BRANCH  69  90
ATOM     90  C   UNL A   1      46.455  26.933  26.837  1.00  0.00     0.057 A 
ATOM     91  C   UNL A   1      47.473  25.969  26.939  1.00  0.00     0.134 A 
ATOM     92  C   UNL A   1      45.515  26.759  25.816  1.00  0.00     0.134 A 
ATOM     93  F   UNL A   1      48.395  26.067  27.909  1.00  0.00    -0.206 F 
ATOM     94  C   UNL A   1      47.495  24.830  26.131  1.00  0.00     0.040 A 
ATOM     95  C   UNL A   1      45.527  25.619  25.003  1.00  0.00     0.040 A 
ATOM     96  F   UNL A   1      44.499  27.622  25.671  1.00  0.00    -0.206 F 
ATOM     97  C   UNL A   1      46.495  24.632  25.186  1.00  0.00     0.006 A 
ENDBRANCH  69  90
BRANCH  81  98
ATOM     98  C   UNL A   1      43.982  33.582  27.934  1.00  0.00     0.057 A 
ATOM     99  C   UNL A   1      43.782  33.898  26.582  1.00  0.00     0.134 A 
ATOM    100  C   UNL A   1      43.896  34.673  28.825  1.00  0.00     0.134 A 
ATOM    101  F   UNL A   1      43.730  32.947  25.638  1.00  0.00    -0.206 F 
ATOM    102  C   UNL A   1      43.568  35.211  26.141  1.00  0.00     0.040 A 
ATOM    103  C   UNL A   1      43.629  35.979  28.404  1.00  0.00     0.040 A 
ATOM    104  F   UNL A   1      44.044  34.512  30.149  1.00  0.00    -0.206 F 
ATOM    105  C   UNL A   1      43.478  36.256  27.054  1.00  0.00     0.006 A 
ENDBRANCH  81  98
ENDBRANCH  55  56
ENDBRANCH  47  50
ENDBRANCH  45  46
ENDBRANCH  44  45
ENDBRANCH  43  44
ENDBRANCH   1  43
TORSDOF 18
ENDMDL
MODEL 3
REMARK VINA RESULT:     -12.2      1.604      2.317
REMARK SMILES Cc1ccc(S(=O)(=O)n2cc(C(=O)C(=O)N[C@@H](Cc3c[nH]c4ccccc34)C(=O)NCCCCNC(=O)c3ccc(-c4c5nc(c(-c6c(F)cccc6F)c6ccc([nH]6)c(-c6c(F)cccc6F)c6nc(c(-c7c(F)cccc7F)c7ccc4[nH]7)C=C6)C=C5)cc3)c3ccccc32)cc1
REMARK SMILES IDX 31 1 30 2 28 3 29 4 17 6 16 7 14 8 15 9 12 11 13 12 11 13
REMARK SMILES IDX 9 14 10 15 97 16 92 17 96 18 93 19 95 20 94 21 6 22 7 23
REMARK SMILES IDX 8 24 5 25 1 26 2 27 3 28 99 29 4 30 98 31 18 32 19 33 20 34
REMARK SMILES IDX 27 35 21 36 22 37 26 38 23 40 25 41 24 42 32 43 33 44 34 45
REMARK SMILES IDX 35 46 36 47 37 49 38 50 39 51 91 52 40 53 90 54 41 55 42 56
REMARK SMILES IDX 43 57 84 58 44 59 89 60 83 61 85 62 45 63 88 64 82 65 81 66
REMARK SMILES IDX 46 68 72 69 55 70 71 71 56 72 59 73 70 74 86 75 57 76 58 77
REMARK SMILES IDX 69 79 87 80 60 81 47 82 48 83 53 84 49 85 50 86 52 87 54 88
REMARK SMILES IDX 51 89 73 90 74 91 79 92 75 93 76 94 78 95 80 96 77 97 61 98
REMARK SMILES IDX 62 99 67 100 63 101 64 102 66 103 68 104 65 105
REMARK H PARENT 30 5 16 10 21 39 35 48 85 67 59 78
REMARK Flexibility Score: inf
ROOT
ATOM      1  C   UNL A   1      36.685  22.199  25.967  1.00  0.00     0.116 C 
ENDROOT
BRANCH   1   2
ATOM      2  N   UNL A   1      35.535  22.237  26.841  1.00  0.00    -0.354 N 
ATOM      3  C   UNL A   1      34.255  21.830  26.564  1.00  0.00     0.242 C 
ATOM      4  O   UNL A   1      33.603  21.384  27.517  1.00  0.00    -0.273 OA
ATOM      5  H   UNL A   1      35.690  22.600  27.744  1.00  0.00     0.163 HD
BRANCH   3   6
ATOM      6  C   UNL A   1      33.658  21.777  25.124  1.00  0.00     0.176 C 
BRANCH   6   7
ATOM      7  N   UNL A   1      34.511  22.364  24.065  1.00  0.00    -0.337 N 
ATOM      8  C   UNL A   1      34.187  22.926  22.838  1.00  0.00     0.293 C 
ATOM      9  O   UNL A   1      35.073  23.256  22.054  1.00  0.00    -0.265 OA
ATOM     10  H   UNL A   1      35.475  22.353  24.266  1.00  0.00     0.164 HD
BRANCH   8  11
ATOM     11  C   UNL A   1      32.726  23.180  22.457  1.00  0.00     0.252 C 
ATOM     12  O   UNL A   1      32.151  22.235  21.914  1.00  0.00    -0.283 OA
BRANCH  11  13
ATOM     13  C   UNL A   1      32.069  24.494  22.614  1.00  0.00     0.054 A 
ATOM     14  N   UNL A   1      31.242  26.601  22.411  1.00  0.00    -0.240 N 
ATOM     15  C   UNL A   1      32.046  25.636  21.797  1.00  0.00     0.117 A 
ATOM     16  C   UNL A   1      30.600  25.978  23.496  1.00  0.00     0.065 A 
ATOM     17  C   UNL A   1      31.376  24.867  23.807  1.00  0.00     0.012 A 
ATOM     18  C   UNL A   1      29.609  26.454  24.379  1.00  0.00     0.028 A 
ATOM     19  C   UNL A   1      31.306  24.343  25.117  1.00  0.00     0.011 A 
ATOM     20  C   UNL A   1      29.609  25.968  25.685  1.00  0.00     0.002 A 
ATOM     21  C   UNL A   1      30.479  24.954  26.064  1.00  0.00     0.001 A 
BRANCH  14  22
ATOM     22  S   UNL A   1      31.706  28.244  22.817  1.00  0.00     0.268 S 
ATOM     23  O   UNL A   1      30.513  29.010  22.497  1.00  0.00    -0.201 OA
ATOM     24  O   UNL A   1      32.936  28.411  22.052  1.00  0.00    -0.201 OA
BRANCH  22  25
ATOM     25  C   UNL A   1      32.222  28.838  24.388  1.00  0.00     0.088 A 
ATOM     26  C   UNL A   1      34.269  29.553  28.132  1.00  0.00     0.044 C 
ATOM     27  C   UNL A   1      33.543  29.367  26.829  1.00  0.00    -0.051 A 
ATOM     28  C   UNL A   1      34.234  28.743  25.801  1.00  0.00     0.005 A 
ATOM     29  C   UNL A   1      32.194  29.737  26.619  1.00  0.00     0.005 A 
ATOM     30  C   UNL A   1      33.584  28.500  24.604  1.00  0.00     0.022 A 
ATOM     31  C   UNL A   1      31.519  29.471  25.396  1.00  0.00     0.022 A 
ENDBRANCH  22  25
ENDBRANCH  14  22
ENDBRANCH  11  13
ENDBRANCH   8  11
ENDBRANCH   6   7
BRANCH   6  32
ATOM     32  C   UNL A   1      33.064  20.370  24.764  1.00  0.00     0.072 C 
BRANCH  32  33
ATOM     33  C   UNL A   1      33.954  19.159  24.925  1.00  0.00    -0.020 A 
ATOM     34  C   UNL A   1      35.313  19.097  24.658  1.00  0.00     0.087 A 
ATOM     35  C   UNL A   1      33.567  17.830  25.318  1.00  0.00     0.003 A 
ATOM     36  N   UNL A   1      35.718  17.793  24.774  1.00  0.00    -0.361 N 
ATOM     37  C   UNL A   1      34.630  16.985  24.994  1.00  0.00     0.046 A 
ATOM     38  C   UNL A   1      32.363  17.243  25.757  1.00  0.00     0.010 A 
ATOM     39  H   UNL A   1      36.649  17.481  24.708  1.00  0.00     0.166 HD
ATOM     40  C   UNL A   1      34.499  15.593  24.923  1.00  0.00     0.026 A 
ATOM     41  C   UNL A   1      32.209  15.855  25.685  1.00  0.00     0.001 A 
ATOM     42  C   UNL A   1      33.252  15.047  25.239  1.00  0.00     0.002 A 
ENDBRANCH  32  33
ENDBRANCH   6  32
ENDBRANCH   3   6
ENDBRANCH   1   2
BRANCH   1  43
ATOM     43  C   UNL A   1      37.859  23.098  26.331  1.00  0.00     0.023 C 
BRANCH  43  44
ATOM     44  C   UNL A   1      39.244  22.590  25.953  1.00  0.00     0.023 C 
BRANCH  44  45
ATOM     45  C   UNL A   1      40.128  22.150  27.116  1.00  0.00     0.116 C 
BRANCH  45  46
ATOM     46  N   UNL A   1      41.522  22.561  27.060  1.00  0.00    -0.352 N 
ATOM     47  C   UNL A   1      42.080  23.835  27.026  1.00  0.00     0.251 C 
ATOM     48  H   UNL A   1      42.172  21.822  27.045  1.00  0.00     0.163 HD
ATOM     49  O   UNL A   1      43.284  23.948  26.882  1.00  0.00    -0.269 OA
BRANCH  47  50
ATOM     50  C   UNL A   1      41.258  25.053  27.315  1.00  0.00     0.039 A 
ATOM     51  C   UNL A   1      41.348  26.129  26.415  1.00  0.00     0.014 A 
ATOM     52  C   UNL A   1      40.576  25.235  28.512  1.00  0.00     0.014 A 
ATOM     53  C   UNL A   1      41.019  27.417  26.837  1.00  0.00     0.010 A 
ATOM     54  C   UNL A   1      40.353  26.513  28.976  1.00  0.00     0.010 A 
ATOM     55  C   UNL A   1      40.655  27.606  28.164  1.00  0.00    -0.014 A 
BRANCH  55  56
ATOM     56  C   UNL A   1      40.732  28.881  28.860  1.00  0.00     0.031 A 
ATOM     57  C   UNL A   1      39.618  29.841  28.808  1.00  0.00     0.074 A 
ATOM     58  C   UNL A   1      41.756  29.051  29.723  1.00  0.00     0.049 A 
ATOM     59  N   UNL A   1      39.705  31.058  29.223  1.00  0.00    -0.248 NA
ATOM     60  C   UNL A   1      38.320  29.528  28.217  1.00  0.00     0.031 C 
ATOM     61  C   UNL A   1      41.864  29.998  30.830  1.00  0.00     0.029 A 
ATOM     62  N   UNL A   1      43.024  28.448  29.662  1.00  0.00    -0.354 N 
ATOM     63  C   UNL A   1      38.433  31.577  29.249  1.00  0.00     0.074 A 
ATOM     64  C   UNL A   1      37.644  30.654  28.473  1.00  0.00     0.031 C 
ATOM     65  C   UNL A   1      43.159  30.127  31.166  1.00  0.00     0.029 A 
ATOM     66  C   UNL A   1      43.928  29.413  30.162  1.00  0.00     0.049 A 
ATOM     67  H   UNL A   1      43.237  27.543  29.340  1.00  0.00     0.167 HD
ATOM     68  C   UNL A   1      38.184  32.647  30.053  1.00  0.00     0.037 A 
ATOM     69  C   UNL A   1      44.841  30.008  29.336  1.00  0.00     0.037 A 
ATOM     70  C   UNL A   1      39.438  33.236  30.528  1.00  0.00     0.049 A 
ATOM     71  C   UNL A   1      44.680  31.506  29.203  1.00  0.00     0.074 A 
ATOM     72  C   UNL A   1      40.095  33.223  31.746  1.00  0.00     0.029 A 
ATOM     73  N   UNL A   1      40.342  33.742  29.597  1.00  0.00    -0.354 N 
ATOM     74  N   UNL A   1      43.593  32.152  29.527  1.00  0.00    -0.248 NA
ATOM     75  C   UNL A   1      45.712  32.390  28.666  1.00  0.00     0.031 C 
ATOM     76  C   UNL A   1      41.444  33.610  31.514  1.00  0.00     0.029 A 
ATOM     77  C   UNL A   1      41.588  33.910  30.168  1.00  0.00     0.049 A 
ATOM     78  H   UNL A   1      40.124  33.951  28.660  1.00  0.00     0.167 HD
ATOM     79  C   UNL A   1      43.735  33.477  29.210  1.00  0.00     0.074 A 
ATOM     80  C   UNL A   1      45.090  33.582  28.704  1.00  0.00     0.031 C 
ATOM     81  C   UNL A   1      42.713  34.369  29.363  1.00  0.00     0.037 A 
BRANCH  68  82
ATOM     82  C   UNL A   1      36.824  33.060  30.587  1.00  0.00     0.057 A 
ATOM     83  C   UNL A   1      35.889  33.676  29.728  1.00  0.00     0.134 A 
ATOM     84  C   UNL A   1      36.414  33.011  31.934  1.00  0.00     0.134 A 
ATOM     85  F   UNL A   1      36.126  33.809  28.416  1.00  0.00    -0.206 F 
ATOM     86  C   UNL A   1      34.669  34.207  30.176  1.00  0.00     0.040 A 
ATOM     87  C   UNL A   1      35.176  33.494  32.386  1.00  0.00     0.040 A 
ATOM     88  F   UNL A   1      37.199  32.552  32.913  1.00  0.00    -0.206 F 
ATOM     89  C   UNL A   1      34.303  34.109  31.509  1.00  0.00     0.006 A 
ENDBRANCH  68  82
BRANCH  69  90
ATOM     90  C   UNL A   1      45.324  29.115  28.250  1.00  0.00     0.057 A 
ATOM     91  C   UNL A   1      44.748  29.231  26.974  1.00  0.00     0.134 A 
ATOM     92  C   UNL A   1      46.554  28.454  28.336  1.00  0.00     0.134 A 
ATOM     93  F   UNL A   1      43.579  29.872  26.821  1.00  0.00    -0.206 F 
ATOM     94  C   UNL A   1      45.411  28.803  25.822  1.00  0.00     0.040 A 
ATOM     95  C   UNL A   1      47.228  28.023  27.186  1.00  0.00     0.040 A 
ATOM     96  F   UNL A   1      47.179  28.327  29.514  1.00  0.00    -0.206 F 
ATOM     97  C   UNL A   1      46.676  28.233  25.924  1.00  0.00     0.006 A 
ENDBRANCH  69  90
BRANCH  81  98
ATOM     98  C   UNL A   1      42.692  35.771  28.808  1.00  0.00     0.057 A 
ATOM     99  C   UNL A   1      43.067  36.911  29.535  1.00  0.00     0.134 A 
ATOM    100  C   UNL A   1      42.439  35.990  27.437  1.00  0.00     0.134 A 
ATOM    101  F   UNL A   1      43.440  36.833  30.821  1.00  0.00    -0.206 F 
ATOM    102  C   UNL A   1      43.131  38.185  28.955  1.00  0.00     0.040 A 
ATOM    103  C   UNL A   1      42.554  37.245  26.834  1.00  0.00     0.040 A 
ATOM    104  F   UNL A   1      42.093  34.985  26.618  1.00  0.00    -0.206 F 
ATOM    105  C   UNL A   1      42.887  38.354  27.596  1.00  0.00     0.006 A 
ENDBRANCH  81  98
ENDBRANCH  55  56
ENDBRANCH  47  50
ENDBRANCH  45  46
ENDBRANCH  44  45
ENDBRANCH  43  44
ENDBRANCH   1  43
TORSDOF 18
ENDMDL
