MODEL 1
REMARK VINA RESULT:     -10.8      0.000      0.000
REMARK SMILES CC(C)(C)c1csc(C[NH+]2CC(C(=O)NCCCCNC(=O)c3ccc(-c4c5nc(c(-c6c(F)cccc6F)c6ccc([nH]6)c(-c6c(F)cccc6F)c6nc(c(-c7c(F)cccc7F)c7ccc4[nH]7)C=C6)C=C5)cc3)C2)n1
REMARK SMILES IDX 17 1 16 2 15 3 13 4 14 5 12 7 10 8 11 9 77 10 9 12 8 13 5 14
REMARK SMILES IDX 6 15 78 16 7 17 2 18 1 19 3 20 4 21 18 22 19 23 20 24 21 25
REMARK SMILES IDX 22 27 23 28 24 29 76 30 25 31 75 32 26 33 27 34 28 35 69 36
REMARK SMILES IDX 29 37 74 38 68 39 70 40 30 41 73 42 67 43 66 44 31 46 57 47
REMARK SMILES IDX 40 48 56 49 41 50 44 51 55 52 71 53 42 54 43 55 54 57 72 58
REMARK SMILES IDX 45 59 32 60 33 61 38 62 34 63 35 64 37 65 39 66 36 67 58 68
REMARK SMILES IDX 59 69 64 70 60 71 61 72 63 73 65 74 62 75 46 76 47 77 52 78
REMARK SMILES IDX 48 79 49 80 51 81 53 82 50 83
REMARK H PARENT 15 6 10 11 20 26 70 45 44 56
REMARK Flexibility Score: inf
ROOT
ATOM      1  C   UNL A   1      32.983  29.686  25.002  1.00  0.00     0.023 C 
ENDROOT
BRANCH   1   2
ATOM      2  C   UNL A   1      31.477  29.488  25.145  1.00  0.00     0.116 C 
BRANCH   2   3
ATOM      3  N   UNL A   1      30.825  29.397  23.859  1.00  0.00    -0.355 N 
ATOM      4  C   UNL A   1      30.492  28.300  23.101  1.00  0.00     0.234 C 
ATOM      5  O   UNL A   1      29.944  28.562  22.018  1.00  0.00    -0.274 OA
ATOM      6  H   UNL A   1      30.579  30.263  23.459  1.00  0.00     0.163 HD
BRANCH   4   7
ATOM      7  C   UNL A   1      30.763  26.858  23.534  1.00  0.00     0.188 C 
ATOM      8  N   UNL A   1      31.666  25.436  24.770  1.00  0.00    -0.327 N 
ATOM      9  C   UNL A   1      30.559  26.387  24.995  1.00  0.00     0.282 C 
ATOM     10  C   UNL A   1      32.188  26.280  23.681  1.00  0.00     0.282 C 
ATOM     11  H   UNL A   1      31.466  24.451  24.597  1.00  0.00     0.348 HD
BRANCH   8  12
ATOM     12  C   UNL A   1      32.568  25.235  25.914  1.00  0.00     0.331 C 
BRANCH  12  13
ATOM     13  C   UNL A   1      33.494  24.039  25.966  1.00  0.00     0.147 A 
ATOM     14  C   UNL A   1      35.315  22.784  25.631  1.00  0.00     0.057 A 
ATOM     15  C   UNL A   1      34.669  22.006  26.577  1.00  0.00     0.091 A 
ATOM     16  N   UNL A   1      34.596  23.912  25.250  1.00  0.00    -0.240 NA
ATOM     17  S   UNL A   1      33.233  22.775  27.107  1.00  0.00    -0.121 S 
BRANCH  14  18
ATOM     18  C   UNL A   1      36.690  22.527  25.021  1.00  0.00     0.005 C 
ATOM     19  C   UNL A   1      37.773  23.315  25.788  1.00  0.00     0.017 C 
ATOM     20  C   UNL A   1      36.740  22.978  23.546  1.00  0.00     0.017 C 
ATOM     21  C   UNL A   1      37.032  21.030  25.077  1.00  0.00     0.017 C 
ENDBRANCH  14  18
ENDBRANCH  12  13
ENDBRANCH   8  12
ENDBRANCH   4   7
ENDBRANCH   2   3
ENDBRANCH   1   2
BRANCH   1  22
ATOM     22  C   UNL A   1      33.833  28.716  25.820  1.00  0.00     0.023 C 
BRANCH  22  23
ATOM     23  C   UNL A   1      33.644  28.802  27.332  1.00  0.00     0.116 C 
BRANCH  23  24
ATOM     24  N   UNL A   1      33.717  30.160  27.853  1.00  0.00    -0.352 N 
ATOM     25  C   UNL A   1      34.781  30.811  28.433  1.00  0.00     0.251 C 
ATOM     26  H   UNL A   1      32.888  30.686  27.778  1.00  0.00     0.163 HD
ATOM     27  O   UNL A   1      34.641  31.933  28.901  1.00  0.00    -0.269 OA
BRANCH  25  28
ATOM     28  C   UNL A   1      36.085  30.121  28.532  1.00  0.00     0.039 A 
ATOM     29  C   UNL A   1      36.967  30.204  27.453  1.00  0.00     0.014 A 
ATOM     30  C   UNL A   1      36.455  29.450  29.700  1.00  0.00     0.014 A 
ATOM     31  C   UNL A   1      38.262  29.699  27.584  1.00  0.00     0.010 A 
ATOM     32  C   UNL A   1      37.767  29.017  29.856  1.00  0.00     0.010 A 
ATOM     33  C   UNL A   1      38.687  29.151  28.804  1.00  0.00    -0.014 A 
BRANCH  33  34
ATOM     34  C   UNL A   1      40.097  28.744  29.015  1.00  0.00     0.031 A 
ATOM     35  C   UNL A   1      41.077  29.702  29.627  1.00  0.00     0.074 A 
ATOM     36  C   UNL A   1      40.511  27.540  28.576  1.00  0.00     0.049 A 
ATOM     37  N   UNL A   1      42.363  29.557  29.820  1.00  0.00    -0.248 NA
ATOM     38  C   UNL A   1      40.547  31.008  30.050  1.00  0.00     0.031 C 
ATOM     39  C   UNL A   1      39.665  26.541  27.917  1.00  0.00     0.029 A 
ATOM     40  N   UNL A   1      41.750  26.953  28.612  1.00  0.00    -0.354 N 
ATOM     41  C   UNL A   1      42.799  30.758  30.365  1.00  0.00     0.074 A 
ATOM     42  C   UNL A   1      41.650  31.636  30.427  1.00  0.00     0.031 C 
ATOM     43  C   UNL A   1      40.403  25.454  27.641  1.00  0.00     0.029 A 
ATOM     44  C   UNL A   1      41.778  25.692  28.069  1.00  0.00     0.049 A 
ATOM     45  H   UNL A   1      42.544  27.395  28.990  1.00  0.00     0.167 HD
ATOM     46  C   UNL A   1      44.040  31.092  30.793  1.00  0.00     0.037 A 
ATOM     47  C   UNL A   1      42.798  24.825  27.933  1.00  0.00     0.037 A 
ATOM     48  C   UNL A   1      45.172  30.205  30.759  1.00  0.00     0.049 A 
ATOM     49  C   UNL A   1      44.164  25.216  28.420  1.00  0.00     0.074 A 
ATOM     50  C   UNL A   1      46.452  30.421  31.238  1.00  0.00     0.029 A 
ATOM     51  N   UNL A   1      45.159  28.930  30.214  1.00  0.00    -0.354 N 
ATOM     52  N   UNL A   1      44.548  26.328  28.998  1.00  0.00    -0.248 NA
ATOM     53  C   UNL A   1      45.238  24.231  28.236  1.00  0.00     0.031 C 
ATOM     54  C   UNL A   1      47.223  29.288  30.951  1.00  0.00     0.029 A 
ATOM     55  C   UNL A   1      46.413  28.354  30.326  1.00  0.00     0.049 A 
ATOM     56  H   UNL A   1      44.373  28.498  29.807  1.00  0.00     0.167 HD
ATOM     57  C   UNL A   1      45.899  26.167  29.271  1.00  0.00     0.074 A 
ATOM     58  C   UNL A   1      46.267  24.846  28.803  1.00  0.00     0.031 C 
ATOM     59  C   UNL A   1      46.757  27.034  29.861  1.00  0.00     0.037 A 
BRANCH  46  60
ATOM     60  C   UNL A   1      44.227  32.477  31.336  1.00  0.00     0.057 A 
ATOM     61  C   UNL A   1      44.062  32.765  32.698  1.00  0.00     0.134 A 
ATOM     62  C   UNL A   1      44.576  33.536  30.490  1.00  0.00     0.134 A 
ATOM     63  F   UNL A   1      43.712  31.797  33.559  1.00  0.00    -0.206 F 
ATOM     64  C   UNL A   1      44.207  34.062  33.193  1.00  0.00     0.040 A 
ATOM     65  C   UNL A   1      44.749  34.832  30.978  1.00  0.00     0.040 A 
ATOM     66  F   UNL A   1      44.753  33.329  29.177  1.00  0.00    -0.206 F 
ATOM     67  C   UNL A   1      44.555  35.100  32.331  1.00  0.00     0.006 A 
ENDBRANCH  46  60
BRANCH  47  68
ATOM     68  C   UNL A   1      42.558  23.483  27.349  1.00  0.00     0.057 A 
ATOM     69  C   UNL A   1      42.201  22.403  28.166  1.00  0.00     0.134 A 
ATOM     70  C   UNL A   1      42.675  23.245  25.975  1.00  0.00     0.134 A 
ATOM     71  F   UNL A   1      42.091  22.569  29.492  1.00  0.00    -0.206 F 
ATOM     72  C   UNL A   1      41.980  21.130  27.639  1.00  0.00     0.040 A 
ATOM     73  C   UNL A   1      42.437  21.980  25.433  1.00  0.00     0.040 A 
ATOM     74  F   UNL A   1      43.007  24.239  25.140  1.00  0.00    -0.206 F 
ATOM     75  C   UNL A   1      42.094  20.917  26.267  1.00  0.00     0.006 A 
ENDBRANCH  47  68
BRANCH  59  76
ATOM     76  C   UNL A   1      48.167  26.567  30.062  1.00  0.00     0.057 A 
ATOM     77  C   UNL A   1      49.169  26.817  29.116  1.00  0.00     0.134 A 
ATOM     78  C   UNL A   1      48.532  25.888  31.231  1.00  0.00     0.134 A 
ATOM     79  F   UNL A   1      48.878  27.448  27.968  1.00  0.00    -0.206 F 
ATOM     80  C   UNL A   1      50.483  26.392  29.319  1.00  0.00     0.040 A 
ATOM     81  C   UNL A   1      49.846  25.479  31.455  1.00  0.00     0.040 A 
ATOM     82  F   UNL A   1      47.619  25.624  32.178  1.00  0.00    -0.206 F 
ATOM     83  C   UNL A   1      50.825  25.726  30.494  1.00  0.00     0.006 A 
ENDBRANCH  59  76
ENDBRANCH  33  34
ENDBRANCH  25  28
ENDBRANCH  23  24
ENDBRANCH  22  23
ENDBRANCH   1  22
TORSDOF 14
ENDMDL
MODEL 2
REMARK VINA RESULT:     -10.7      4.359      9.417
REMARK SMILES CC(C)(C)c1csc(C[NH+]2CC(C(=O)NCCCCNC(=O)c3ccc(-c4c5nc(c(-c6c(F)cccc6F)c6ccc([nH]6)c(-c6c(F)cccc6F)c6nc(c(-c7c(F)cccc7F)c7ccc4[nH]7)C=C6)C=C5)cc3)C2)n1
REMARK SMILES IDX 17 1 16 2 15 3 13 4 14 5 12 7 10 8 11 9 77 10 9 12 8 13 5 14
REMARK SMILES IDX 6 15 78 16 7 17 2 18 1 19 3 20 4 21 18 22 19 23 20 24 21 25
REMARK SMILES IDX 22 27 23 28 24 29 76 30 25 31 75 32 26 33 27 34 28 35 69 36
REMARK SMILES IDX 29 37 74 38 68 39 70 40 30 41 73 42 67 43 66 44 31 46 57 47
REMARK SMILES IDX 40 48 56 49 41 50 44 51 55 52 71 53 42 54 43 55 54 57 72 58
REMARK SMILES IDX 45 59 32 60 33 61 38 62 34 63 35 64 37 65 39 66 36 67 58 68
REMARK SMILES IDX 59 69 64 70 60 71 61 72 63 73 65 74 62 75 46 76 47 77 52 78
REMARK SMILES IDX 48 79 49 80 51 81 53 82 50 83
REMARK H PARENT 15 6 10 11 20 26 70 45 44 56
REMARK Flexibility Score: inf
ROOT
ATOM      1  C   UNL A   1      33.812  37.417  32.326  1.00  0.00     0.023 C 
ENDROOT
BRANCH   1   2
ATOM      2  C   UNL A   1      34.101  36.550  33.547  1.00  0.00     0.116 C 
BRANCH   2   3
ATOM      3  N   UNL A   1      33.497  35.242  33.430  1.00  0.00    -0.355 N 
ATOM      4  C   UNL A   1      34.072  33.998  33.324  1.00  0.00     0.234 C 
ATOM      5  O   UNL A   1      33.266  33.059  33.222  1.00  0.00    -0.274 OA
ATOM      6  H   UNL A   1      32.513  35.242  33.425  1.00  0.00     0.163 HD
BRANCH   4   7
ATOM      7  C   UNL A   1      35.584  33.761  33.329  1.00  0.00     0.188 C 
ATOM      8  N   UNL A   1      37.296  32.749  33.968  1.00  0.00    -0.327 N 
ATOM      9  C   UNL A   1      36.197  32.365  33.059  1.00  0.00     0.282 C 
ATOM     10  C   UNL A   1      36.425  33.741  34.625  1.00  0.00     0.282 C 
ATOM     11  H   UNL A   1      38.197  33.038  33.587  1.00  0.00     0.348 HD
BRANCH   8  12
ATOM     12  C   UNL A   1      37.806  31.673  34.832  1.00  0.00     0.331 C 
BRANCH  12  13
ATOM     13  C   UNL A   1      38.812  30.673  34.307  1.00  0.00     0.147 A 
ATOM     14  C   UNL A   1      40.566  29.285  34.276  1.00  0.00     0.057 A 
ATOM     15  C   UNL A   1      39.952  28.907  33.094  1.00  0.00     0.091 A 
ATOM     16  N   UNL A   1      39.931  30.339  34.924  1.00  0.00    -0.240 NA
ATOM     17  S   UNL A   1      38.486  29.769  32.877  1.00  0.00    -0.121 S 
BRANCH  14  18
ATOM     18  C   UNL A   1      41.806  28.654  34.904  1.00  0.00     0.005 C 
ATOM     19  C   UNL A   1      41.436  27.936  36.219  1.00  0.00     0.017 C 
ATOM     20  C   UNL A   1      42.867  29.723  35.237  1.00  0.00     0.017 C 
ATOM     21  C   UNL A   1      42.436  27.635  33.942  1.00  0.00     0.017 C 
ENDBRANCH  14  18
ENDBRANCH  12  13
ENDBRANCH   8  12
ENDBRANCH   4   7
ENDBRANCH   2   3
ENDBRANCH   1   2
BRANCH   1  22
ATOM     22  C   UNL A   1      32.925  36.756  31.272  1.00  0.00     0.023 C 
BRANCH  22  23
ATOM     23  C   UNL A   1      33.669  36.111  30.108  1.00  0.00     0.116 C 
BRANCH  23  24
ATOM     24  N   UNL A   1      32.799  35.402  29.179  1.00  0.00    -0.352 N 
ATOM     25  C   UNL A   1      33.047  34.254  28.462  1.00  0.00     0.251 C 
ATOM     26  H   UNL A   1      31.908  35.800  29.048  1.00  0.00     0.163 HD
ATOM     27  O   UNL A   1      32.228  33.841  27.652  1.00  0.00    -0.269 OA
BRANCH  25  28
ATOM     28  C   UNL A   1      34.335  33.552  28.643  1.00  0.00     0.039 A 
ATOM     29  C   UNL A   1      35.420  33.933  27.851  1.00  0.00     0.014 A 
ATOM     30  C   UNL A   1      34.484  32.569  29.624  1.00  0.00     0.014 A 
ATOM     31  C   UNL A   1      36.683  33.399  28.112  1.00  0.00     0.010 A 
ATOM     32  C   UNL A   1      35.755  32.095  29.933  1.00  0.00     0.010 A 
ATOM     33  C   UNL A   1      36.868  32.517  29.189  1.00  0.00    -0.014 A 
BRANCH  33  34
ATOM     34  C   UNL A   1      38.221  32.052  29.578  1.00  0.00     0.031 A 
ATOM     35  C   UNL A   1      38.723  30.715  29.114  1.00  0.00     0.074 A 
ATOM     36  C   UNL A   1      38.961  32.798  30.419  1.00  0.00     0.049 A 
ATOM     37  N   UNL A   1      39.840  30.104  29.411  1.00  0.00    -0.248 NA
ATOM     38  C   UNL A   1      37.836  29.950  28.222  1.00  0.00     0.031 C 
ATOM     39  C   UNL A   1      38.561  34.091  30.981  1.00  0.00     0.029 A 
ATOM     40  N   UNL A   1      40.204  32.575  30.955  1.00  0.00    -0.354 N 
ATOM     41  C   UNL A   1      39.783  28.878  28.763  1.00  0.00     0.074 A 
ATOM     42  C   UNL A   1      38.500  28.811  28.096  1.00  0.00     0.031 C 
ATOM     43  C   UNL A   1      39.554  34.559  31.755  1.00  0.00     0.029 A 
ATOM     44  C   UNL A   1      40.641  33.587  31.774  1.00  0.00     0.049 A 
ATOM     45  H   UNL A   1      40.732  31.764  30.770  1.00  0.00     0.167 HD
ATOM     46  C   UNL A   1      40.722  27.902  28.712  1.00  0.00     0.037 A 
ATOM     47  C   UNL A   1      41.791  33.715  32.461  1.00  0.00     0.037 A 
ATOM     48  C   UNL A   1      42.008  27.985  29.349  1.00  0.00     0.049 A 
ATOM     49  C   UNL A   1      42.819  32.623  32.384  1.00  0.00     0.074 A 
ATOM     50  C   UNL A   1      43.058  27.085  29.294  1.00  0.00     0.029 A 
ATOM     51  N   UNL A   1      42.421  29.032  30.160  1.00  0.00    -0.354 N 
ATOM     52  N   UNL A   1      42.781  31.499  31.710  1.00  0.00    -0.248 NA
ATOM     53  C   UNL A   1      44.050  32.817  33.162  1.00  0.00     0.031 C 
ATOM     54  C   UNL A   1      44.094  27.572  30.101  1.00  0.00     0.029 A 
ATOM     55  C   UNL A   1      43.701  28.792  30.628  1.00  0.00     0.049 A 
ATOM     56  H   UNL A   1      41.882  29.829  30.371  1.00  0.00     0.167 HD
ATOM     57  C   UNL A   1      43.990  30.865  31.960  1.00  0.00     0.074 A 
ATOM     58  C   UNL A   1      44.744  31.734  32.842  1.00  0.00     0.031 C 
ATOM     59  C   UNL A   1      44.438  29.673  31.498  1.00  0.00     0.037 A 
BRANCH  46  60
ATOM     60  C   UNL A   1      40.382  26.666  27.934  1.00  0.00     0.057 A 
ATOM     61  C   UNL A   1      39.542  25.673  28.456  1.00  0.00     0.134 A 
ATOM     62  C   UNL A   1      40.896  26.465  26.648  1.00  0.00     0.134 A 
ATOM     63  F   UNL A   1      39.028  25.797  29.690  1.00  0.00    -0.206 F 
ATOM     64  C   UNL A   1      39.254  24.510  27.741  1.00  0.00     0.040 A 
ATOM     65  C   UNL A   1      40.594  25.318  25.912  1.00  0.00     0.040 A 
ATOM     66  F   UNL A   1      41.703  27.378  26.087  1.00  0.00    -0.206 F 
ATOM     67  C   UNL A   1      39.778  24.332  26.462  1.00  0.00     0.006 A 
ENDBRANCH  46  60
BRANCH  47  68
ATOM     68  C   UNL A   1      42.052  34.946  33.247  1.00  0.00     0.057 A 
ATOM     69  C   UNL A   1      41.494  35.110  34.520  1.00  0.00     0.134 A 
ATOM     70  C   UNL A   1      42.859  35.978  32.755  1.00  0.00     0.134 A 
ATOM     71  F   UNL A   1      40.699  34.162  35.035  1.00  0.00    -0.206 F 
ATOM     72  C   UNL A   1      41.718  36.264  35.273  1.00  0.00     0.040 A 
ATOM     73  C   UNL A   1      43.107  37.129  33.506  1.00  0.00     0.040 A 
ATOM     74  F   UNL A   1      43.427  35.876  31.546  1.00  0.00    -0.206 F 
ATOM     75  C   UNL A   1      42.531  37.276  34.767  1.00  0.00     0.006 A 
ENDBRANCH  47  68
BRANCH  59  76
ATOM     76  C   UNL A   1      45.818  29.256  31.911  1.00  0.00     0.057 A 
ATOM     77  C   UNL A   1      46.036  28.411  33.006  1.00  0.00     0.134 A 
ATOM     78  C   UNL A   1      46.937  29.680  31.184  1.00  0.00     0.134 A 
ATOM     79  F   UNL A   1      45.005  27.985  33.752  1.00  0.00    -0.206 F 
ATOM     80  C   UNL A   1      47.323  28.015  33.374  1.00  0.00     0.040 A 
ATOM     81  C   UNL A   1      48.225  29.273  31.528  1.00  0.00     0.040 A 
ATOM     82  F   UNL A   1      46.792  30.486  30.121  1.00  0.00    -0.206 F 
ATOM     83  C   UNL A   1      48.421  28.442  32.630  1.00  0.00     0.006 A 
ENDBRANCH  59  76
ENDBRANCH  33  34
ENDBRANCH  25  28
ENDBRANCH  23  24
ENDBRANCH  22  23
ENDBRANCH   1  22
TORSDOF 14
ENDMDL
MODEL 3
REMARK VINA RESULT:     -10.6      5.069     10.434
REMARK SMILES CC(C)(C)c1csc(C[NH+]2CC(C(=O)NCCCCNC(=O)c3ccc(-c4c5nc(c(-c6c(F)cccc6F)c6ccc([nH]6)c(-c6c(F)cccc6F)c6nc(c(-c7c(F)cccc7F)c7ccc4[nH]7)C=C6)C=C5)cc3)C2)n1
REMARK SMILES IDX 17 1 16 2 15 3 13 4 14 5 12 7 10 8 11 9 77 10 9 12 8 13 5 14
REMARK SMILES IDX 6 15 78 16 7 17 2 18 1 19 3 20 4 21 18 22 19 23 20 24 21 25
REMARK SMILES IDX 22 27 23 28 24 29 76 30 25 31 75 32 26 33 27 34 28 35 69 36
REMARK SMILES IDX 29 37 74 38 68 39 70 40 30 41 73 42 67 43 66 44 31 46 57 47
REMARK SMILES IDX 40 48 56 49 41 50 44 51 55 52 71 53 42 54 43 55 54 57 72 58
REMARK SMILES IDX 45 59 32 60 33 61 38 62 34 63 35 64 37 65 39 66 36 67 58 68
REMARK SMILES IDX 59 69 64 70 60 71 61 72 63 73 65 74 62 75 46 76 47 77 52 78
REMARK SMILES IDX 48 79 49 80 51 81 53 82 50 83
REMARK H PARENT 15 6 10 11 20 26 70 45 44 56
REMARK Flexibility Score: inf
ROOT
ATOM      1  C   UNL A   1      33.830  37.257  32.427  1.00  0.00     0.023 C 
ENDROOT
BRANCH   1   2
ATOM      2  C   UNL A   1      34.201  36.312  33.566  1.00  0.00     0.116 C 
BRANCH   2   3
ATOM      3  N   UNL A   1      33.755  34.962  33.307  1.00  0.00    -0.355 N 
ATOM      4  C   UNL A   1      34.438  33.770  33.353  1.00  0.00     0.234 C 
ATOM      5  O   UNL A   1      33.763  32.771  33.057  1.00  0.00    -0.274 OA
ATOM      6  H   UNL A   1      32.806  34.883  33.056  1.00  0.00     0.163 HD
BRANCH   4   7
ATOM      7  C   UNL A   1      35.915  33.655  33.737  1.00  0.00     0.188 C 
ATOM      8  N   UNL A   1      37.481  32.817  34.836  1.00  0.00    -0.327 N 
ATOM      9  C   UNL A   1      36.665  32.301  33.719  1.00  0.00     0.282 C 
ATOM     10  C   UNL A   1      36.414  33.768  35.195  1.00  0.00     0.282 C 
ATOM     11  H   UNL A   1      38.427  33.158  34.663  1.00  0.00     0.348 HD
BRANCH   8  12
ATOM     12  C   UNL A   1      37.834  31.831  35.869  1.00  0.00     0.331 C 
BRANCH  12  13
ATOM     13  C   UNL A   1      37.985  32.249  37.316  1.00  0.00     0.147 A 
ATOM     14  C   UNL A   1      37.630  32.322  39.523  1.00  0.00     0.057 A 
ATOM     15  C   UNL A   1      38.810  33.043  39.454  1.00  0.00     0.091 A 
ATOM     16  N   UNL A   1      37.142  31.930  38.280  1.00  0.00    -0.240 NA
ATOM     17  S   UNL A   1      39.393  33.090  37.844  1.00  0.00    -0.121 S 
BRANCH  14  18
ATOM     18  C   UNL A   1      36.873  31.926  40.787  1.00  0.00     0.005 C 
ATOM     19  C   UNL A   1      35.446  31.455  40.433  1.00  0.00     0.017 C 
ATOM     20  C   UNL A   1      36.745  33.118  41.758  1.00  0.00     0.017 C 
ATOM     21  C   UNL A   1      37.604  30.788  41.518  1.00  0.00     0.017 C 
ENDBRANCH  14  18
ENDBRANCH  12  13
ENDBRANCH   8  12
ENDBRANCH   4   7
ENDBRANCH   2   3
ENDBRANCH   1   2
BRANCH   1  22
ATOM     22  C   UNL A   1      32.920  36.646  31.364  1.00  0.00     0.023 C 
BRANCH  22  23
ATOM     23  C   UNL A   1      33.617  36.228  30.074  1.00  0.00     0.116 C 
BRANCH  23  24
ATOM     24  N   UNL A   1      32.749  35.518  29.145  1.00  0.00    -0.352 N 
ATOM     25  C   UNL A   1      32.988  34.353  28.451  1.00  0.00     0.251 C 
ATOM     26  H   UNL A   1      31.867  35.928  28.992  1.00  0.00     0.163 HD
ATOM     27  O   UNL A   1      32.174  33.940  27.636  1.00  0.00    -0.269 OA
BRANCH  25  28
ATOM     28  C   UNL A   1      34.261  33.633  28.664  1.00  0.00     0.039 A 
ATOM     29  C   UNL A   1      35.356  33.961  27.861  1.00  0.00     0.014 A 
ATOM     30  C   UNL A   1      34.389  32.686  29.683  1.00  0.00     0.014 A 
ATOM     31  C   UNL A   1      36.607  33.412  28.147  1.00  0.00     0.010 A 
ATOM     32  C   UNL A   1      35.649  32.200  30.014  1.00  0.00     0.010 A 
ATOM     33  C   UNL A   1      36.772  32.570  29.258  1.00  0.00    -0.014 A 
BRANCH  33  34
ATOM     34  C   UNL A   1      38.114  32.093  29.669  1.00  0.00     0.031 A 
ATOM     35  C   UNL A   1      38.617  30.757  29.205  1.00  0.00     0.074 A 
ATOM     36  C   UNL A   1      38.843  32.829  30.530  1.00  0.00     0.049 A 
ATOM     37  N   UNL A   1      39.725  30.137  29.519  1.00  0.00    -0.248 NA
ATOM     38  C   UNL A   1      37.743  30.005  28.291  1.00  0.00     0.031 C 
ATOM     39  C   UNL A   1      38.440  34.120  31.095  1.00  0.00     0.029 A 
ATOM     40  N   UNL A   1      40.074  32.593  31.088  1.00  0.00    -0.354 N 
ATOM     41  C   UNL A   1      39.672  28.915  28.861  1.00  0.00     0.074 A 
ATOM     42  C   UNL A   1      38.402  28.862  28.169  1.00  0.00     0.031 C 
ATOM     43  C   UNL A   1      39.420  34.576  31.891  1.00  0.00     0.029 A 
ATOM     44  C   UNL A   1      40.501  33.597  31.923  1.00  0.00     0.049 A 
ATOM     45  H   UNL A   1      40.600  31.781  30.907  1.00  0.00     0.167 HD
ATOM     46  C   UNL A   1      40.606  27.935  28.820  1.00  0.00     0.037 A 
ATOM     47  C   UNL A   1      41.639  33.713  32.633  1.00  0.00     0.037 A 
ATOM     48  C   UNL A   1      41.880  28.005  29.483  1.00  0.00     0.049 A 
ATOM     49  C   UNL A   1      42.661  32.615  32.567  1.00  0.00     0.074 A 
ATOM     50  C   UNL A   1      42.925  27.099  29.441  1.00  0.00     0.029 A 
ATOM     51  N   UNL A   1      42.283  29.043  30.309  1.00  0.00    -0.354 N 
ATOM     52  N   UNL A   1      42.629  31.496  31.884  1.00  0.00    -0.248 NA
ATOM     53  C   UNL A   1      43.877  32.795  33.371  1.00  0.00     0.031 C 
ATOM     54  C   UNL A   1      43.948  27.573  30.271  1.00  0.00     0.029 A 
ATOM     55  C   UNL A   1      43.553  28.792  30.799  1.00  0.00     0.049 A 
ATOM     56  H   UNL A   1      41.745  29.842  30.516  1.00  0.00     0.167 HD
ATOM     57  C   UNL A   1      43.829  30.853  32.153  1.00  0.00     0.074 A 
ATOM     58  C   UNL A   1      44.571  31.711  33.055  1.00  0.00     0.031 C 
ATOM     59  C   UNL A   1      44.278  29.661  31.691  1.00  0.00     0.037 A 
BRANCH  46  60
ATOM     60  C   UNL A   1      40.273  26.707  28.027  1.00  0.00     0.057 A 
ATOM     61  C   UNL A   1      39.441  25.700  28.537  1.00  0.00     0.134 A 
ATOM     62  C   UNL A   1      40.787  26.526  26.738  1.00  0.00     0.134 A 
ATOM     63  F   UNL A   1      38.928  25.805  29.773  1.00  0.00    -0.206 F 
ATOM     64  C   UNL A   1      39.160  24.545  27.807  1.00  0.00     0.040 A 
ATOM     65  C   UNL A   1      40.492  25.387  25.987  1.00  0.00     0.040 A 
ATOM     66  F   UNL A   1      41.587  27.452  26.187  1.00  0.00    -0.206 F 
ATOM     67  C   UNL A   1      39.684  24.388  26.525  1.00  0.00     0.006 A 
ENDBRANCH  46  60
BRANCH  47  68
ATOM     68  C   UNL A   1      41.892  34.936  33.433  1.00  0.00     0.057 A 
ATOM     69  C   UNL A   1      42.773  35.921  32.970  1.00  0.00     0.134 A 
ATOM     70  C   UNL A   1      41.266  35.154  34.665  1.00  0.00     0.134 A 
ATOM     71  F   UNL A   1      43.414  35.757  31.804  1.00  0.00    -0.206 F 
ATOM     72  C   UNL A   1      43.033  37.075  33.711  1.00  0.00     0.040 A 
ATOM     73  C   UNL A   1      41.503  36.313  35.407  1.00  0.00     0.040 A 
ATOM     74  F   UNL A   1      40.407  34.251  35.158  1.00  0.00    -0.206 F 
ATOM     75  C   UNL A   1      42.393  37.275  34.932  1.00  0.00     0.006 A 
ENDBRANCH  47  68
BRANCH  59  76
ATOM     76  C   UNL A   1      45.647  29.233  32.127  1.00  0.00     0.057 A 
ATOM     77  C   UNL A   1      45.845  28.450  33.270  1.00  0.00     0.134 A 
ATOM     78  C   UNL A   1      46.776  29.581  31.375  1.00  0.00     0.134 A 
ATOM     79  F   UNL A   1      44.805  28.097  34.042  1.00  0.00    -0.206 F 
ATOM     80  C   UNL A   1      47.122  28.042  33.660  1.00  0.00     0.040 A 
ATOM     81  C   UNL A   1      48.054  29.161  31.742  1.00  0.00     0.040 A 
ATOM     82  F   UNL A   1      46.651  30.326  30.266  1.00  0.00    -0.206 F 
ATOM     83  C   UNL A   1      48.229  28.393  32.892  1.00  0.00     0.006 A 
ENDBRANCH  59  76
ENDBRANCH  33  34
ENDBRANCH  25  28
ENDBRANCH  23  24
ENDBRANCH  22  23
ENDBRANCH   1  22
TORSDOF 14
ENDMDL
