MODEL 1
REMARK VINA RESULT:     -11.6      0.000      0.000
REMARK SMILES Cc1nn(C)cc1-c1ccnc2nc(CCC(=O)NCCCCNC(=O)c3ccc(-c4c5nc(c(-c6c(F)cccc6F)c6ccc([nH]6)c(-c6c(F)cccc6F)c6nc(c(-c7c(F)cccc7F)c7ccc4[nH]7)C=C6)C=C5)cc3)nn12
REMARK SMILES IDX 21 1 20 2 19 3 17 4 18 5 16 7 15 8 14 9 8 10 9 11 82 12
REMARK SMILES IDX 10 13 12 14 81 15 11 16 13 17 7 18 1 19 2 20 3 21 4 22 6 23
REMARK SMILES IDX 5 24 22 25 23 26 24 27 25 28 26 30 27 31 28 32 80 33 29 34
REMARK SMILES IDX 79 35 30 36 31 37 32 38 73 39 33 40 78 41 72 42 74 43 34 44
REMARK SMILES IDX 77 45 71 46 70 47 35 49 61 50 44 51 60 52 45 53 48 54 59 55
REMARK SMILES IDX 75 56 46 57 47 58 58 60 76 61 49 62 36 63 37 64 42 65 38 66
REMARK SMILES IDX 39 67 41 68 43 69 40 70 62 71 63 72 68 73 64 74 65 75 67 76
REMARK SMILES IDX 69 77 66 78 50 79 51 80 56 81 52 82 53 83 55 84 57 85 54 86
REMARK H PARENT 19 6 24 29 74 48 48 59
REMARK Flexibility Score: inf
ROOT
ATOM      1  C   UNL A   1      33.247  29.388  24.757  1.00  0.00     0.023 C 
ENDROOT
BRANCH   1   2
ATOM      2  C   UNL A   1      33.121  28.866  23.323  1.00  0.00     0.116 C 
BRANCH   2   3
ATOM      3  N   UNL A   1      32.050  29.492  22.565  1.00  0.00    -0.356 N 
ATOM      4  C   UNL A   1      30.829  29.014  22.203  1.00  0.00     0.220 C 
ATOM      5  O   UNL A   1      30.081  29.755  21.560  1.00  0.00    -0.275 OA
ATOM      6  H   UNL A   1      32.240  30.410  22.265  1.00  0.00     0.163 HD
BRANCH   4   7
ATOM      7  C   UNL A   1      30.392  27.634  22.630  1.00  0.00     0.108 C 
BRANCH   7   8
ATOM      8  C   UNL A   1      30.084  27.597  24.126  1.00  0.00     0.089 C 
BRANCH   8   9
ATOM      9  C   UNL A   1      30.517  26.324  24.765  1.00  0.00     0.153 A 
ATOM     10  C   UNL A   1      32.666  23.716  25.719  1.00  0.00     0.081 A 
ATOM     11  C   UNL A   1      32.351  22.777  26.635  1.00  0.00     0.049 A 
ATOM     12  N   UNL A   1      31.676  24.678  25.407  1.00  0.00    -0.196 N 
ATOM     13  C   UNL A   1      31.014  22.859  27.265  1.00  0.00     0.117 A 
ATOM     14  C   UNL A   1      30.422  24.661  26.056  1.00  0.00     0.252 A 
ATOM     15  N   UNL A   1      31.713  25.760  24.570  1.00  0.00    -0.149 NA
ATOM     16  N   UNL A   1      30.098  23.734  27.001  1.00  0.00    -0.220 NA
ATOM     17  N   UNL A   1      29.707  25.687  25.654  1.00  0.00    -0.194 NA
BRANCH  10  18
ATOM     18  C   UNL A   1      33.998  23.757  25.181  1.00  0.00     0.041 A 
ATOM     19  C   UNL A   1      33.665  23.173  22.640  1.00  0.00     0.069 C 
ATOM     20  C   UNL A   1      34.450  23.453  23.867  1.00  0.00     0.069 A 
ATOM     21  N   UNL A   1      35.788  23.414  23.799  1.00  0.00    -0.178 NA
ATOM     22  N   UNL A   1      36.190  23.713  25.044  1.00  0.00    -0.275 N 
ATOM     23  C   UNL A   1      35.156  23.977  25.894  1.00  0.00     0.119 A 
ATOM     24  C   UNL A   1      37.593  23.669  25.380  1.00  0.00     0.173 C 
ENDBRANCH  10  18
ENDBRANCH   8   9
ENDBRANCH   7   8
ENDBRANCH   4   7
ENDBRANCH   2   3
ENDBRANCH   1   2
BRANCH   1  25
ATOM     25  C   UNL A   1      33.718  28.310  25.733  1.00  0.00     0.023 C 
BRANCH  25  26
ATOM     26  C   UNL A   1      33.353  28.527  27.194  1.00  0.00     0.116 C 
BRANCH  26  27
ATOM     27  N   UNL A   1      33.521  29.905  27.627  1.00  0.00    -0.352 N 
ATOM     28  C   UNL A   1      34.581  30.627  28.127  1.00  0.00     0.251 C 
ATOM     29  H   UNL A   1      32.697  30.438  27.546  1.00  0.00     0.163 HD
ATOM     30  O   UNL A   1      34.341  31.781  28.494  1.00  0.00    -0.269 OA
BRANCH  28  31
ATOM     31  C   UNL A   1      35.974  30.108  28.297  1.00  0.00     0.039 A 
ATOM     32  C   UNL A   1      36.311  29.534  29.538  1.00  0.00     0.014 A 
ATOM     33  C   UNL A   1      36.985  30.216  27.345  1.00  0.00     0.014 A 
ATOM     34  C   UNL A   1      37.606  29.058  29.801  1.00  0.00     0.010 A 
ATOM     35  C   UNL A   1      38.246  29.648  27.565  1.00  0.00     0.010 A 
ATOM     36  C   UNL A   1      38.588  29.087  28.805  1.00  0.00    -0.014 A 
BRANCH  36  37
ATOM     37  C   UNL A   1      39.994  28.639  29.039  1.00  0.00     0.031 A 
ATOM     38  C   UNL A   1      40.993  29.605  29.632  1.00  0.00     0.074 A 
ATOM     39  C   UNL A   1      40.413  27.413  28.667  1.00  0.00     0.049 A 
ATOM     40  N   UNL A   1      42.299  29.519  29.705  1.00  0.00    -0.248 NA
ATOM     41  C   UNL A   1      40.448  30.856  30.188  1.00  0.00     0.031 C 
ATOM     42  C   UNL A   1      39.576  26.363  28.089  1.00  0.00     0.029 A 
ATOM     43  N   UNL A   1      41.670  26.852  28.702  1.00  0.00    -0.354 N 
ATOM     44  C   UNL A   1      42.729  30.714  30.271  1.00  0.00     0.074 A 
ATOM     45  C   UNL A   1      41.550  31.527  30.483  1.00  0.00     0.031 C 
ATOM     46  C   UNL A   1      40.338  25.284  27.831  1.00  0.00     0.029 A 
ATOM     47  C   UNL A   1      41.724  25.584  28.174  1.00  0.00     0.049 A 
ATOM     48  H   UNL A   1      42.456  27.316  29.071  1.00  0.00     0.167 HD
ATOM     49  C   UNL A   1      43.984  31.097  30.607  1.00  0.00     0.037 A 
ATOM     50  C   UNL A   1      42.776  24.767  27.961  1.00  0.00     0.037 A 
ATOM     51  C   UNL A   1      45.155  30.274  30.455  1.00  0.00     0.049 A 
ATOM     52  C   UNL A   1      44.166  25.226  28.316  1.00  0.00     0.074 A 
ATOM     53  C   UNL A   1      46.466  30.569  30.796  1.00  0.00     0.029 A 
ATOM     54  N   UNL A   1      45.156  28.988  29.941  1.00  0.00    -0.354 N 
ATOM     55  N   UNL A   1      44.557  26.359  28.846  1.00  0.00    -0.248 NA
ATOM     56  C   UNL A   1      45.266  24.288  28.038  1.00  0.00     0.031 C 
ATOM     57  C   UNL A   1      47.264  29.472  30.458  1.00  0.00     0.029 A 
ATOM     58  C   UNL A   1      46.444  28.478  29.951  1.00  0.00     0.049 A 
ATOM     59  H   UNL A   1      44.359  28.508  29.618  1.00  0.00     0.167 HD
ATOM     60  C   UNL A   1      45.934  26.253  29.003  1.00  0.00     0.074 A 
ATOM     61  C   UNL A   1      46.313  24.943  28.518  1.00  0.00     0.031 C 
ATOM     62  C   UNL A   1      46.806  27.159  29.504  1.00  0.00     0.037 A 
BRANCH  49  63
ATOM     63  C   UNL A   1      44.163  32.472  31.185  1.00  0.00     0.057 A 
ATOM     64  C   UNL A   1      44.380  33.592  30.373  1.00  0.00     0.134 A 
ATOM     65  C   UNL A   1      44.065  32.685  32.566  1.00  0.00     0.134 A 
ATOM     66  F   UNL A   1      44.496  33.455  29.043  1.00  0.00    -0.206 F 
ATOM     67  C   UNL A   1      44.514  34.871  30.914  1.00  0.00     0.040 A 
ATOM     68  C   UNL A   1      44.169  33.964  33.117  1.00  0.00     0.040 A 
ATOM     69  F   UNL A   1      43.850  31.658  33.402  1.00  0.00    -0.206 F 
ATOM     70  C   UNL A   1      44.399  35.061  32.290  1.00  0.00     0.006 A 
ENDBRANCH  49  63
BRANCH  50  71
ATOM     71  C   UNL A   1      42.572  23.418  27.370  1.00  0.00     0.057 A 
ATOM     72  C   UNL A   1      42.289  22.312  28.181  1.00  0.00     0.134 A 
ATOM     73  C   UNL A   1      42.714  23.187  25.996  1.00  0.00     0.134 A 
ATOM     74  F   UNL A   1      42.171  22.463  29.509  1.00  0.00    -0.206 F 
ATOM     75  C   UNL A   1      42.182  21.024  27.655  1.00  0.00     0.040 A 
ATOM     76  C   UNL A   1      42.579  21.909  25.452  1.00  0.00     0.040 A 
ATOM     77  F   UNL A   1      42.990  24.202  25.164  1.00  0.00    -0.206 F 
ATOM     78  C   UNL A   1      42.324  20.821  26.285  1.00  0.00     0.006 A 
ENDBRANCH  50  71
BRANCH  62  79
ATOM     79  C   UNL A   1      48.245  26.750  29.626  1.00  0.00     0.057 A 
ATOM     80  C   UNL A   1      49.198  27.071  28.652  1.00  0.00     0.134 A 
ATOM     81  C   UNL A   1      48.692  26.065  30.765  1.00  0.00     0.134 A 
ATOM     82  F   UNL A   1      48.835  27.716  27.533  1.00  0.00    -0.206 F 
ATOM     83  C   UNL A   1      50.539  26.709  28.796  1.00  0.00     0.040 A 
ATOM     84  C   UNL A   1      50.033  25.721  30.933  1.00  0.00     0.040 A 
ATOM     85  F   UNL A   1      47.832  25.735  31.742  1.00  0.00    -0.206 F 
ATOM     86  C   UNL A   1      50.961  26.039  29.943  1.00  0.00     0.006 A 
ENDBRANCH  62  79
ENDBRANCH  36  37
ENDBRANCH  28  31
ENDBRANCH  26  27
ENDBRANCH  25  26
ENDBRANCH   1  25
TORSDOF 14
ENDMDL
MODEL 2
REMARK VINA RESULT:     -11.4      4.736      7.200
REMARK SMILES Cc1nn(C)cc1-c1ccnc2nc(CCC(=O)NCCCCNC(=O)c3ccc(-c4c5nc(c(-c6c(F)cccc6F)c6ccc([nH]6)c(-c6c(F)cccc6F)c6nc(c(-c7c(F)cccc7F)c7ccc4[nH]7)C=C6)C=C5)cc3)nn12
REMARK SMILES IDX 21 1 20 2 19 3 17 4 18 5 16 7 15 8 14 9 8 10 9 11 82 12
REMARK SMILES IDX 10 13 12 14 81 15 11 16 13 17 7 18 1 19 2 20 3 21 4 22 6 23
REMARK SMILES IDX 5 24 22 25 23 26 24 27 25 28 26 30 27 31 28 32 80 33 29 34
REMARK SMILES IDX 79 35 30 36 31 37 32 38 73 39 33 40 78 41 72 42 74 43 34 44
REMARK SMILES IDX 77 45 71 46 70 47 35 49 61 50 44 51 60 52 45 53 48 54 59 55
REMARK SMILES IDX 75 56 46 57 47 58 58 60 76 61 49 62 36 63 37 64 42 65 38 66
REMARK SMILES IDX 39 67 41 68 43 69 40 70 62 71 63 72 68 73 64 74 65 75 67 76
REMARK SMILES IDX 69 77 66 78 50 79 51 80 56 81 52 82 53 83 55 84 57 85 54 86
REMARK H PARENT 19 6 24 29 74 48 48 59
REMARK Flexibility Score: inf
ROOT
ATOM      1  C   UNL A   1      34.208  34.148  28.578  1.00  0.00     0.023 C 
ENDROOT
BRANCH   1   2
ATOM      2  C   UNL A   1      33.830  32.773  28.021  1.00  0.00     0.116 C 
BRANCH   2   3
ATOM      3  N   UNL A   1      34.882  31.778  28.155  1.00  0.00    -0.356 N 
ATOM      4  C   UNL A   1      34.954  30.502  27.690  1.00  0.00     0.220 C 
ATOM      5  O   UNL A   1      35.975  29.851  27.927  1.00  0.00    -0.275 OA
ATOM      6  H   UNL A   1      35.669  32.076  28.664  1.00  0.00     0.163 HD
BRANCH   4   7
ATOM      7  C   UNL A   1      33.832  29.928  26.859  1.00  0.00     0.108 C 
BRANCH   7   8
ATOM      8  C   UNL A   1      33.823  28.402  26.932  1.00  0.00     0.089 C 
BRANCH   8   9
ATOM      9  C   UNL A   1      33.317  27.776  25.679  1.00  0.00     0.153 A 
ATOM     10  C   UNL A   1      31.259  27.280  22.878  1.00  0.00     0.081 A 
ATOM     11  C   UNL A   1      31.559  26.445  21.861  1.00  0.00     0.049 A 
ATOM     12  N   UNL A   1      32.168  27.338  23.961  1.00  0.00    -0.196 N 
ATOM     13  C   UNL A   1      32.833  25.696  21.945  1.00  0.00     0.117 A 
ATOM     14  C   UNL A   1      33.353  26.570  23.952  1.00  0.00     0.252 A 
ATOM     15  N   UNL A   1      32.163  28.107  25.092  1.00  0.00    -0.149 NA
ATOM     16  N   UNL A   1      33.681  25.741  22.921  1.00  0.00    -0.220 NA
ATOM     17  N   UNL A   1      34.062  26.847  25.021  1.00  0.00    -0.194 NA
BRANCH  10  18
ATOM     18  C   UNL A   1      30.103  28.127  22.776  1.00  0.00     0.041 A 
ATOM     19  C   UNL A   1      28.197  26.724  23.918  1.00  0.00     0.069 C 
ATOM     20  C   UNL A   1      28.757  27.867  23.158  1.00  0.00     0.069 A 
ATOM     21  N   UNL A   1      27.924  28.824  22.723  1.00  0.00    -0.178 NA
ATOM     22  N   UNL A   1      28.726  29.697  22.095  1.00  0.00    -0.275 N 
ATOM     23  C   UNL A   1      30.044  29.351  22.145  1.00  0.00     0.119 A 
ATOM     24  C   UNL A   1      28.158  30.830  21.403  1.00  0.00     0.173 C 
ENDBRANCH  10  18
ENDBRANCH   8   9
ENDBRANCH   7   8
ENDBRANCH   4   7
ENDBRANCH   2   3
ENDBRANCH   1   2
BRANCH   1  25
ATOM     25  C   UNL A   1      33.010  35.092  28.671  1.00  0.00     0.023 C 
BRANCH  25  26
ATOM     26  C   UNL A   1      33.250  36.405  29.402  1.00  0.00     0.116 C 
BRANCH  26  27
ATOM     27  N   UNL A   1      32.488  36.519  30.636  1.00  0.00    -0.352 N 
ATOM     28  C   UNL A   1      32.629  35.988  31.899  1.00  0.00     0.251 C 
ATOM     29  H   UNL A   1      31.700  37.103  30.550  1.00  0.00     0.163 HD
ATOM     30  O   UNL A   1      31.721  36.221  32.701  1.00  0.00    -0.269 OA
BRANCH  28  31
ATOM     31  C   UNL A   1      33.765  35.124  32.349  1.00  0.00     0.039 A 
ATOM     32  C   UNL A   1      35.068  35.645  32.232  1.00  0.00     0.014 A 
ATOM     33  C   UNL A   1      33.636  33.815  32.805  1.00  0.00     0.014 A 
ATOM     34  C   UNL A   1      36.197  34.889  32.592  1.00  0.00     0.010 A 
ATOM     35  C   UNL A   1      34.748  33.098  33.262  1.00  0.00     0.010 A 
ATOM     36  C   UNL A   1      36.048  33.609  33.136  1.00  0.00    -0.014 A 
BRANCH  36  37
ATOM     37  C   UNL A   1      37.210  32.741  33.494  1.00  0.00     0.031 A 
ATOM     38  C   UNL A   1      37.940  32.975  34.796  1.00  0.00     0.074 A 
ATOM     39  C   UNL A   1      37.670  31.796  32.649  1.00  0.00     0.049 A 
ATOM     40  N   UNL A   1      39.097  32.513  35.202  1.00  0.00    -0.248 NA
ATOM     41  C   UNL A   1      37.293  33.883  35.759  1.00  0.00     0.031 C 
ATOM     42  C   UNL A   1      37.077  31.441  31.360  1.00  0.00     0.029 A 
ATOM     43  N   UNL A   1      38.770  30.974  32.745  1.00  0.00    -0.354 N 
ATOM     44  C   UNL A   1      39.333  33.104  36.438  1.00  0.00     0.074 A 
ATOM     45  C   UNL A   1      38.220  33.993  36.697  1.00  0.00     0.031 C 
ATOM     46  C   UNL A   1      37.812  30.469  30.790  1.00  0.00     0.029 A 
ATOM     47  C   UNL A   1      38.957  30.171  31.644  1.00  0.00     0.049 A 
ATOM     48  H   UNL A   1      39.366  30.962  33.528  1.00  0.00     0.167 HD
ATOM     49  C   UNL A   1      40.366  32.914  37.293  1.00  0.00     0.037 A 
ATOM     50  C   UNL A   1      39.955  29.315  31.342  1.00  0.00     0.037 A 
ATOM     51  C   UNL A   1      41.447  31.990  37.072  1.00  0.00     0.049 A 
ATOM     52  C   UNL A   1      41.107  29.141  32.297  1.00  0.00     0.074 A 
ATOM     53  C   UNL A   1      42.523  31.710  37.899  1.00  0.00     0.029 A 
ATOM     54  N   UNL A   1      41.579  31.181  35.956  1.00  0.00    -0.354 N 
ATOM     55  N   UNL A   1      41.318  29.711  33.459  1.00  0.00    -0.248 NA
ATOM     56  C   UNL A   1      42.168  28.204  31.892  1.00  0.00     0.031 C 
ATOM     57  C   UNL A   1      43.323  30.753  37.267  1.00  0.00     0.029 A 
ATOM     58  C   UNL A   1      42.720  30.404  36.071  1.00  0.00     0.049 A 
ATOM     59  H   UNL A   1      40.954  31.160  35.196  1.00  0.00     0.167 HD
ATOM     60  C   UNL A   1      42.505  29.170  33.939  1.00  0.00     0.074 A 
ATOM     61  C   UNL A   1      42.969  28.224  32.948  1.00  0.00     0.031 C 
ATOM     62  C   UNL A   1      43.153  29.436  35.098  1.00  0.00     0.037 A 
BRANCH  49  63
ATOM     63  C   UNL A   1      40.377  33.717  38.562  1.00  0.00     0.057 A 
ATOM     64  C   UNL A   1      41.117  34.900  38.681  1.00  0.00     0.134 A 
ATOM     65  C   UNL A   1      39.598  33.329  39.661  1.00  0.00     0.134 A 
ATOM     66  F   UNL A   1      41.893  35.321  37.671  1.00  0.00    -0.206 F 
ATOM     67  C   UNL A   1      41.099  35.659  39.853  1.00  0.00     0.040 A 
ATOM     68  C   UNL A   1      39.549  34.094  40.828  1.00  0.00     0.040 A 
ATOM     69  F   UNL A   1      38.859  32.211  39.612  1.00  0.00    -0.206 F 
ATOM     70  C   UNL A   1      40.306  35.261  40.928  1.00  0.00     0.006 A 
ENDBRANCH  49  63
BRANCH  50  71
ATOM     71  C   UNL A   1      39.927  28.546  30.070  1.00  0.00     0.057 A 
ATOM     72  C   UNL A   1      39.249  27.324  29.982  1.00  0.00     0.134 A 
ATOM     73  C   UNL A   1      40.622  28.979  28.934  1.00  0.00     0.134 A 
ATOM     74  F   UNL A   1      38.590  26.842  31.045  1.00  0.00    -0.206 F 
ATOM     75  C   UNL A   1      39.285  26.547  28.823  1.00  0.00     0.040 A 
ATOM     76  C   UNL A   1      40.642  28.227  27.759  1.00  0.00     0.040 A 
ATOM     77  F   UNL A   1      41.297  30.138  28.953  1.00  0.00    -0.206 F 
ATOM     78  C   UNL A   1      39.982  27.000  27.706  1.00  0.00     0.006 A 
ENDBRANCH  50  71
BRANCH  62  79
ATOM     79  C   UNL A   1      44.393  28.646  35.401  1.00  0.00     0.057 A 
ATOM     80  C   UNL A   1      44.353  27.431  36.097  1.00  0.00     0.134 A 
ATOM     81  C   UNL A   1      45.643  29.086  34.943  1.00  0.00     0.134 A 
ATOM     82  F   UNL A   1      43.190  26.959  36.572  1.00  0.00    -0.206 F 
ATOM     83  C   UNL A   1      45.512  26.694  36.344  1.00  0.00     0.040 A 
ATOM     84  C   UNL A   1      46.804  28.345  35.161  1.00  0.00     0.040 A 
ATOM     85  F   UNL A   1      45.751  30.237  34.261  1.00  0.00    -0.206 F 
ATOM     86  C   UNL A   1      46.741  27.147  35.868  1.00  0.00     0.006 A 
ENDBRANCH  62  79
ENDBRANCH  36  37
ENDBRANCH  28  31
ENDBRANCH  26  27
ENDBRANCH  25  26
ENDBRANCH   1  25
TORSDOF 14
ENDMDL
MODEL 3
REMARK VINA RESULT:     -11.3      2.494      3.281
REMARK SMILES Cc1nn(C)cc1-c1ccnc2nc(CCC(=O)NCCCCNC(=O)c3ccc(-c4c5nc(c(-c6c(F)cccc6F)c6ccc([nH]6)c(-c6c(F)cccc6F)c6nc(c(-c7c(F)cccc7F)c7ccc4[nH]7)C=C6)C=C5)cc3)nn12
REMARK SMILES IDX 21 1 20 2 19 3 17 4 18 5 16 7 15 8 14 9 8 10 9 11 82 12
REMARK SMILES IDX 10 13 12 14 81 15 11 16 13 17 7 18 1 19 2 20 3 21 4 22 6 23
REMARK SMILES IDX 5 24 22 25 23 26 24 27 25 28 26 30 27 31 28 32 80 33 29 34
REMARK SMILES IDX 79 35 30 36 31 37 32 38 73 39 33 40 78 41 72 42 74 43 34 44
REMARK SMILES IDX 77 45 71 46 70 47 35 49 61 50 44 51 60 52 45 53 48 54 59 55
REMARK SMILES IDX 75 56 46 57 47 58 58 60 76 61 49 62 36 63 37 64 42 65 38 66
REMARK SMILES IDX 39 67 41 68 43 69 40 70 62 71 63 72 68 73 64 74 65 75 67 76
REMARK SMILES IDX 69 77 66 78 50 79 51 80 56 81 52 82 53 83 55 84 57 85 54 86
REMARK H PARENT 19 6 24 29 74 48 48 59
REMARK Flexibility Score: inf
ROOT
ATOM      1  C   UNL A   1      34.554  32.769  27.997  1.00  0.00     0.023 C 
ENDROOT
BRANCH   1   2
ATOM      2  C   UNL A   1      33.584  31.633  27.660  1.00  0.00     0.116 C 
BRANCH   2   3
ATOM      3  N   UNL A   1      34.235  30.438  27.149  1.00  0.00    -0.356 N 
ATOM      4  C   UNL A   1      33.742  29.191  26.925  1.00  0.00     0.220 C 
ATOM      5  O   UNL A   1      34.504  28.336  26.467  1.00  0.00    -0.275 OA
ATOM      6  H   UNL A   1      35.188  30.551  26.930  1.00  0.00     0.163 HD
BRANCH   4   7
ATOM      7  C   UNL A   1      32.286  28.889  27.181  1.00  0.00     0.108 C 
BRANCH   7   8
ATOM      8  C   UNL A   1      31.598  28.394  25.910  1.00  0.00     0.089 C 
BRANCH   8   9
ATOM      9  C   UNL A   1      31.506  26.909  25.854  1.00  0.00     0.153 A 
ATOM     10  C   UNL A   1      32.470  23.601  25.182  1.00  0.00     0.081 A 
ATOM     11  C   UNL A   1      31.825  22.516  25.659  1.00  0.00     0.049 A 
ATOM     12  N   UNL A   1      31.933  24.870  25.503  1.00  0.00    -0.196 N 
ATOM     13  C   UNL A   1      30.638  22.748  26.512  1.00  0.00     0.117 A 
ATOM     14  C   UNL A   1      30.784  24.984  26.316  1.00  0.00     0.252 A 
ATOM     15  N   UNL A   1      32.380  26.130  25.211  1.00  0.00    -0.149 NA
ATOM     16  N   UNL A   1      30.136  23.899  26.825  1.00  0.00    -0.220 NA
ATOM     17  N   UNL A   1      30.524  26.253  26.531  1.00  0.00    -0.194 NA
BRANCH  10  18
ATOM     18  C   UNL A   1      33.703  23.428  24.464  1.00  0.00     0.041 A 
ATOM     19  C   UNL A   1      33.077  24.052  21.989  1.00  0.00     0.069 C 
ATOM     20  C   UNL A   1      33.960  23.551  23.069  1.00  0.00     0.069 A 
ATOM     21  N   UNL A   1      35.188  23.119  22.751  1.00  0.00    -0.178 NA
ATOM     22  N   UNL A   1      35.722  22.749  23.926  1.00  0.00    -0.275 N 
ATOM     23  C   UNL A   1      34.891  22.963  24.986  1.00  0.00     0.119 A 
ATOM     24  C   UNL A   1      37.026  22.131  23.964  1.00  0.00     0.173 C 
ENDBRANCH  10  18
ENDBRANCH   8   9
ENDBRANCH   7   8
ENDBRANCH   4   7
ENDBRANCH   2   3
ENDBRANCH   1   2
BRANCH   1  25
ATOM     25  C   UNL A   1      33.969  33.761  29.001  1.00  0.00     0.023 C 
BRANCH  25  26
ATOM     26  C   UNL A   1      34.945  34.338  30.015  1.00  0.00     0.116 C 
BRANCH  26  27
ATOM     27  N   UNL A   1      34.888  33.672  31.307  1.00  0.00    -0.352 N 
ATOM     28  C   UNL A   1      35.621  32.669  31.899  1.00  0.00     0.251 C 
ATOM     29  H   UNL A   1      34.167  34.013  31.885  1.00  0.00     0.163 HD
ATOM     30  O   UNL A   1      35.226  32.268  32.997  1.00  0.00    -0.269 OA
BRANCH  28  31
ATOM     31  C   UNL A   1      36.820  32.006  31.295  1.00  0.00     0.039 A 
ATOM     32  C   UNL A   1      37.754  31.422  32.171  1.00  0.00     0.014 A 
ATOM     33  C   UNL A   1      37.118  31.989  29.935  1.00  0.00     0.014 A 
ATOM     34  C   UNL A   1      38.929  30.815  31.695  1.00  0.00     0.010 A 
ATOM     35  C   UNL A   1      38.233  31.294  29.449  1.00  0.00     0.010 A 
ATOM     36  C   UNL A   1      39.172  30.722  30.320  1.00  0.00    -0.014 A 
BRANCH  36  37
ATOM     37  C   UNL A   1      40.422  30.130  29.757  1.00  0.00     0.031 A 
ATOM     38  C   UNL A   1      41.622  31.017  29.518  1.00  0.00     0.074 A 
ATOM     39  C   UNL A   1      40.485  28.835  29.388  1.00  0.00     0.049 A 
ATOM     40  N   UNL A   1      42.714  30.782  28.833  1.00  0.00    -0.248 NA
ATOM     41  C   UNL A   1      41.569  32.368  30.105  1.00  0.00     0.031 C 
ATOM     42  C   UNL A   1      39.420  27.847  29.556  1.00  0.00     0.029 A 
ATOM     43  N   UNL A   1      41.492  28.133  28.767  1.00  0.00    -0.354 N 
ATOM     44  C   UNL A   1      43.450  31.961  28.870  1.00  0.00     0.074 A 
ATOM     45  C   UNL A   1      42.662  32.925  29.608  1.00  0.00     0.031 C 
ATOM     46  C   UNL A   1      39.833  26.667  29.060  1.00  0.00     0.029 A 
ATOM     47  C   UNL A   1      41.167  26.826  28.489  1.00  0.00     0.049 A 
ATOM     48  H   UNL A   1      42.365  28.530  28.542  1.00  0.00     0.167 HD
ATOM     49  C   UNL A   1      44.677  32.219  28.358  1.00  0.00     0.037 A 
ATOM     50  C   UNL A   1      41.851  25.874  27.823  1.00  0.00     0.037 A 
ATOM     51  C   UNL A   1      45.494  31.251  27.673  1.00  0.00     0.049 A 
ATOM     52  C   UNL A   1      43.202  26.192  27.239  1.00  0.00     0.074 A 
ATOM     53  C   UNL A   1      46.765  31.416  27.146  1.00  0.00     0.029 A 
ATOM     54  N   UNL A   1      45.132  29.935  27.441  1.00  0.00    -0.354 N 
ATOM     55  N   UNL A   1      43.882  27.312  27.279  1.00  0.00    -0.248 NA
ATOM     56  C   UNL A   1      43.881  25.108  26.509  1.00  0.00     0.031 C 
ATOM     57  C   UNL A   1      47.158  30.206  26.566  1.00  0.00     0.029 A 
ATOM     58  C   UNL A   1      46.153  29.277  26.774  1.00  0.00     0.049 A 
ATOM     59  H   UNL A   1      44.277  29.528  27.710  1.00  0.00     0.167 HD
ATOM     60  C   UNL A   1      45.080  27.055  26.621  1.00  0.00     0.074 A 
ATOM     61  C   UNL A   1      45.039  25.672  26.196  1.00  0.00     0.031 C 
ATOM     62  C   UNL A   1      46.120  27.891  26.391  1.00  0.00     0.037 A 
BRANCH  49  63
ATOM     63  C   UNL A   1      45.226  33.607  28.525  1.00  0.00     0.057 A 
ATOM     64  C   UNL A   1      44.935  34.630  27.614  1.00  0.00     0.134 A 
ATOM     65  C   UNL A   1      46.010  33.937  29.638  1.00  0.00     0.134 A 
ATOM     66  F   UNL A   1      44.199  34.379  26.521  1.00  0.00    -0.206 F 
ATOM     67  C   UNL A   1      45.422  35.926  27.792  1.00  0.00     0.040 A 
ATOM     68  C   UNL A   1      46.480  35.236  29.842  1.00  0.00     0.040 A 
ATOM     69  F   UNL A   1      46.320  33.007  30.554  1.00  0.00    -0.206 F 
ATOM     70  C   UNL A   1      46.190  36.234  28.914  1.00  0.00     0.006 A 
ENDBRANCH  49  63
BRANCH  50  71
ATOM     71  C   UNL A   1      41.276  24.513  27.656  1.00  0.00     0.057 A 
ATOM     72  C   UNL A   1      41.783  23.424  28.377  1.00  0.00     0.134 A 
ATOM     73  C   UNL A   1      40.252  24.254  26.737  1.00  0.00     0.134 A 
ATOM     74  F   UNL A   1      42.785  23.603  29.251  1.00  0.00    -0.206 F 
ATOM     75  C   UNL A   1      41.316  22.125  28.169  1.00  0.00     0.040 A 
ATOM     76  C   UNL A   1      39.755  22.965  26.541  1.00  0.00     0.040 A 
ATOM     77  F   UNL A   1      39.726  25.251  26.011  1.00  0.00    -0.206 F 
ATOM     78  C   UNL A   1      40.296  21.894  27.250  1.00  0.00     0.006 A 
ENDBRANCH  50  71
BRANCH  62  79
ATOM     79  C   UNL A   1      47.333  27.324  25.712  1.00  0.00     0.057 A 
ATOM     80  C   UNL A   1      47.499  27.365  24.323  1.00  0.00     0.134 A 
ATOM     81  C   UNL A   1      48.375  26.773  26.471  1.00  0.00     0.134 A 
ATOM     82  F   UNL A   1      46.535  27.869  23.538  1.00  0.00    -0.206 F 
ATOM     83  C   UNL A   1      48.648  26.860  23.710  1.00  0.00     0.040 A 
ATOM     84  C   UNL A   1      49.539  26.289  25.873  1.00  0.00     0.040 A 
ATOM     85  F   UNL A   1      48.285  26.711  27.809  1.00  0.00    -0.206 F 
ATOM     86  C   UNL A   1      49.676  26.328  24.487  1.00  0.00     0.006 A 
ENDBRANCH  62  79
ENDBRANCH  36  37
ENDBRANCH  28  31
ENDBRANCH  26  27
ENDBRANCH  25  26
ENDBRANCH   1  25
TORSDOF 14
ENDMDL
