MODEL 1
REMARK VINA RESULT:     -11.7      0.000      0.000
REMARK SMILES CS(=O)(=O)Nc1cc(NS(C)(=O)=O)cc(C(=O)NCCCCNC(=O)c2ccc(-c3c4nc(c(-c5c(F)cccc5F)c5ccc([nH]5)c(-c5c(F)cccc5F)c5nc(c(-c6c(F)cccc6F)c6ccc3[nH]6)C=C5)C=C4)cc2)c1
REMARK SMILES IDX 20 1 19 2 18 3 16 4 17 5 15 7 6 8 7 9 80 10 8 11 14 12 5 13
REMARK SMILES IDX 2 15 1 16 3 17 4 18 9 19 10 21 11 22 12 23 13 24 21 25 22 26
REMARK SMILES IDX 23 27 24 28 25 30 26 31 27 32 79 33 28 34 78 35 29 36 30 37
REMARK SMILES IDX 31 38 72 39 32 40 77 41 71 42 73 43 33 44 76 45 70 46 69 47
REMARK SMILES IDX 34 49 60 50 43 51 59 52 44 53 47 54 58 55 74 56 45 57 46 58
REMARK SMILES IDX 57 60 75 61 48 62 35 63 36 64 41 65 37 66 38 67 40 68 42 69
REMARK SMILES IDX 39 70 61 71 62 72 67 73 63 74 64 75 66 76 68 77 65 78 49 79
REMARK SMILES IDX 50 80 55 81 51 82 52 83 54 84 56 85 53 86
REMARK H PARENT 18 6 5 14 9 20 23 29 73 48 47 59
REMARK Flexibility Score: inf
ROOT
ATOM      1  C   UNL A   1      37.031  21.457  24.381  1.00  0.00     0.023 C 
ENDROOT
BRANCH   1   2
ATOM      2  C   UNL A   1      36.826  22.616  25.357  1.00  0.00     0.116 C 
BRANCH   2   3
ATOM      3  N   UNL A   1      36.016  22.204  26.486  1.00  0.00    -0.352 N 
ATOM      4  C   UNL A   1      34.720  21.775  26.609  1.00  0.00     0.251 C 
ATOM      5  O   UNL A   1      34.334  21.481  27.742  1.00  0.00    -0.269 OA
ATOM      6  H   UNL A   1      36.496  22.241  27.345  1.00  0.00     0.163 HD
BRANCH   4   7
ATOM      7  C   UNL A   1      33.787  21.570  25.461  1.00  0.00     0.043 A 
ATOM      8  C   UNL A   1      32.562  22.320  23.520  1.00  0.00     0.051 A 
ATOM      9  C   UNL A   1      32.330  20.996  23.149  1.00  0.00     0.053 A 
ATOM     10  C   UNL A   1      33.192  22.593  24.727  1.00  0.00     0.040 A 
ATOM     11  C   UNL A   1      32.700  19.951  23.992  1.00  0.00     0.051 A 
ATOM     12  C   UNL A   1      33.510  20.242  25.092  1.00  0.00     0.040 A 
BRANCH   8  13
ATOM     13  N   UNL A   1      32.129  23.338  22.625  1.00  0.00    -0.284 N 
ATOM     14  H   UNL A   1      31.160  23.498  22.562  1.00  0.00     0.180 HD
BRANCH  13  15
ATOM     15  S   UNL A   1      33.123  24.281  21.677  1.00  0.00     0.229 S 
ATOM     16  C   UNL A   1      32.169  25.766  21.402  1.00  0.00     0.183 C 
ATOM     17  O   UNL A   1      33.323  23.627  20.402  1.00  0.00    -0.207 OA
ATOM     18  O   UNL A   1      34.247  24.629  22.519  1.00  0.00    -0.207 OA
ENDBRANCH  13  15
ENDBRANCH   8  13
BRANCH  11  19
ATOM     19  N   UNL A   1      32.465  18.566  23.685  1.00  0.00    -0.284 N 
ATOM     20  H   UNL A   1      31.562  18.260  23.440  1.00  0.00     0.180 HD
BRANCH  19  21
ATOM     21  S   UNL A   1      33.758  17.457  23.747  1.00  0.00     0.229 S 
ATOM     22  C   UNL A   1      33.053  16.253  24.846  1.00  0.00     0.183 C 
ATOM     23  O   UNL A   1      33.845  16.867  22.426  1.00  0.00    -0.207 OA
ATOM     24  O   UNL A   1      34.912  18.024  24.402  1.00  0.00    -0.207 OA
ENDBRANCH  19  21
ENDBRANCH  11  19
ENDBRANCH   4   7
ENDBRANCH   2   3
ENDBRANCH   1   2
BRANCH   1  25
ATOM     25  C   UNL A   1      37.641  20.218  25.038  1.00  0.00     0.023 C 
BRANCH  25  26
ATOM     26  C   UNL A   1      38.944  20.475  25.787  1.00  0.00     0.116 C 
BRANCH  26  27
ATOM     27  N   UNL A   1      39.851  19.337  25.793  1.00  0.00    -0.352 N 
ATOM     28  C   UNL A   1      41.198  19.331  26.068  1.00  0.00     0.251 C 
ATOM     29  H   UNL A   1      39.451  18.463  25.574  1.00  0.00     0.163 HD
ATOM     30  O   UNL A   1      41.865  18.310  25.946  1.00  0.00    -0.269 OA
BRANCH  28  31
ATOM     31  C   UNL A   1      41.840  20.598  26.468  1.00  0.00     0.039 A 
ATOM     32  C   UNL A   1      42.251  21.485  25.473  1.00  0.00     0.014 A 
ATOM     33  C   UNL A   1      41.947  20.939  27.818  1.00  0.00     0.014 A 
ATOM     34  C   UNL A   1      42.704  22.753  25.835  1.00  0.00     0.010 A 
ATOM     35  C   UNL A   1      42.311  22.233  28.170  1.00  0.00     0.010 A 
ATOM     36  C   UNL A   1      42.693  23.153  27.183  1.00  0.00    -0.014 A 
BRANCH  36  37
ATOM     37  C   UNL A   1      43.061  24.539  27.568  1.00  0.00     0.031 A 
ATOM     38  C   UNL A   1      44.501  24.967  27.576  1.00  0.00     0.074 A 
ATOM     39  C   UNL A   1      42.098  25.395  27.965  1.00  0.00     0.049 A 
ATOM     40  N   UNL A   1      45.016  26.126  27.898  1.00  0.00    -0.248 NA
ATOM     41  C   UNL A   1      45.497  23.950  27.204  1.00  0.00     0.031 C 
ATOM     42  C   UNL A   1      40.672  25.078  28.064  1.00  0.00     0.029 A 
ATOM     43  N   UNL A   1      42.176  26.705  28.363  1.00  0.00    -0.354 N 
ATOM     44  C   UNL A   1      46.391  25.974  27.775  1.00  0.00     0.074 A 
ATOM     45  C   UNL A   1      46.633  24.595  27.417  1.00  0.00     0.031 C 
ATOM     46  C   UNL A   1      40.005  26.174  28.459  1.00  0.00     0.029 A 
ATOM     47  C   UNL A   1      40.958  27.256  28.681  1.00  0.00     0.049 A 
ATOM     48  H   UNL A   1      43.023  27.204  28.415  1.00  0.00     0.167 HD
ATOM     49  C   UNL A   1      47.362  26.908  27.921  1.00  0.00     0.037 A 
ATOM     50  C   UNL A   1      40.644  28.494  29.107  1.00  0.00     0.037 A 
ATOM     51  C   UNL A   1      47.111  28.283  28.267  1.00  0.00     0.049 A 
ATOM     52  C   UNL A   1      41.738  29.512  29.270  1.00  0.00     0.074 A 
ATOM     53  C   UNL A   1      48.017  29.323  28.373  1.00  0.00     0.029 A 
ATOM     54  N   UNL A   1      45.864  28.806  28.577  1.00  0.00    -0.354 N 
ATOM     55  N   UNL A   1      43.026  29.380  29.063  1.00  0.00    -0.248 NA
ATOM     56  C   UNL A   1      41.335  30.851  29.717  1.00  0.00     0.031 C 
ATOM     57  C   UNL A   1      47.329  30.459  28.809  1.00  0.00     0.029 A 
ATOM     58  C   UNL A   1      45.982  30.146  28.910  1.00  0.00     0.049 A 
ATOM     59  H   UNL A   1      45.020  28.300  28.562  1.00  0.00     0.167 HD
ATOM     60  C   UNL A   1      43.585  30.624  29.332  1.00  0.00     0.074 A 
ATOM     61  C   UNL A   1      42.490  31.501  29.696  1.00  0.00     0.031 C 
ATOM     62  C   UNL A   1      44.885  31.005  29.281  1.00  0.00     0.037 A 
BRANCH  49  63
ATOM     63  C   UNL A   1      48.782  26.463  27.716  1.00  0.00     0.057 A 
ATOM     64  C   UNL A   1      49.585  26.020  28.776  1.00  0.00     0.134 A 
ATOM     65  C   UNL A   1      49.353  26.467  26.437  1.00  0.00     0.134 A 
ATOM     66  F   UNL A   1      49.107  26.001  30.030  1.00  0.00    -0.206 F 
ATOM     67  C   UNL A   1      50.911  25.633  28.579  1.00  0.00     0.040 A 
ATOM     68  C   UNL A   1      50.669  26.050  26.221  1.00  0.00     0.040 A 
ATOM     69  F   UNL A   1      48.643  26.873  25.373  1.00  0.00    -0.206 F 
ATOM     70  C   UNL A   1      51.455  25.642  27.297  1.00  0.00     0.006 A 
ENDBRANCH  49  63
BRANCH  50  71
ATOM     71  C   UNL A   1      39.227  28.842  29.387  1.00  0.00     0.057 A 
ATOM     72  C   UNL A   1      38.666  28.633  30.652  1.00  0.00     0.134 A 
ATOM     73  C   UNL A   1      38.404  29.401  28.402  1.00  0.00     0.134 A 
ATOM     74  F   UNL A   1      39.396  28.084  31.632  1.00  0.00    -0.206 F 
ATOM     75  C   UNL A   1      37.334  28.953  30.924  1.00  0.00     0.040 A 
ATOM     76  C   UNL A   1      37.080  29.752  28.667  1.00  0.00     0.040 A 
ATOM     77  F   UNL A   1      38.884  29.635  27.171  1.00  0.00    -0.206 F 
ATOM     78  C   UNL A   1      36.539  29.521  29.930  1.00  0.00     0.006 A 
ENDBRANCH  50  71
BRANCH  62  79
ATOM     79  C   UNL A   1      45.193  32.440  29.606  1.00  0.00     0.057 A 
ATOM     80  C   UNL A   1      45.547  32.849  30.898  1.00  0.00     0.134 A 
ATOM     81  C   UNL A   1      45.164  33.419  28.605  1.00  0.00     0.134 A 
ATOM     82  F   UNL A   1      45.581  31.964  31.906  1.00  0.00    -0.206 F 
ATOM     83  C   UNL A   1      45.830  34.184  31.189  1.00  0.00     0.040 A 
ATOM     84  C   UNL A   1      45.478  34.752  28.876  1.00  0.00     0.040 A 
ATOM     85  F   UNL A   1      44.845  33.096  27.342  1.00  0.00    -0.206 F 
ATOM     86  C   UNL A   1      45.804  35.139  30.174  1.00  0.00     0.006 A 
ENDBRANCH  62  79
ENDBRANCH  36  37
ENDBRANCH  28  31
ENDBRANCH  26  27
ENDBRANCH  25  26
ENDBRANCH   1  25
TORSDOF 15
ENDMDL
MODEL 2
REMARK VINA RESULT:     -11.7      5.533     10.523
REMARK SMILES CS(=O)(=O)Nc1cc(NS(C)(=O)=O)cc(C(=O)NCCCCNC(=O)c2ccc(-c3c4nc(c(-c5c(F)cccc5F)c5ccc([nH]5)c(-c5c(F)cccc5F)c5nc(c(-c6c(F)cccc6F)c6ccc3[nH]6)C=C5)C=C4)cc2)c1
REMARK SMILES IDX 20 1 19 2 18 3 16 4 17 5 15 7 6 8 7 9 80 10 8 11 14 12 5 13
REMARK SMILES IDX 2 15 1 16 3 17 4 18 9 19 10 21 11 22 12 23 13 24 21 25 22 26
REMARK SMILES IDX 23 27 24 28 25 30 26 31 27 32 79 33 28 34 78 35 29 36 30 37
REMARK SMILES IDX 31 38 72 39 32 40 77 41 71 42 73 43 33 44 76 45 70 46 69 47
REMARK SMILES IDX 34 49 60 50 43 51 59 52 44 53 47 54 58 55 74 56 45 57 46 58
REMARK SMILES IDX 57 60 75 61 48 62 35 63 36 64 41 65 37 66 38 67 40 68 42 69
REMARK SMILES IDX 39 70 61 71 62 72 67 73 63 74 64 75 66 76 68 77 65 78 49 79
REMARK SMILES IDX 50 80 55 81 51 82 52 83 54 84 56 85 53 86
REMARK H PARENT 18 6 5 14 9 20 23 29 73 48 47 59
REMARK Flexibility Score: inf
ROOT
ATOM      1  C   UNL A   1      31.910  30.464  26.024  1.00  0.00     0.023 C 
ENDROOT
BRANCH   1   2
ATOM      2  C   UNL A   1      33.219  29.725  26.300  1.00  0.00     0.116 C 
BRANCH   2   3
ATOM      3  N   UNL A   1      33.878  29.362  25.061  1.00  0.00    -0.352 N 
ATOM      4  C   UNL A   1      33.489  28.641  23.963  1.00  0.00     0.251 C 
ATOM      5  O   UNL A   1      34.308  28.528  23.050  1.00  0.00    -0.269 OA
ATOM      6  H   UNL A   1      34.800  29.704  24.995  1.00  0.00     0.163 HD
BRANCH   4   7
ATOM      7  C   UNL A   1      32.126  28.061  23.776  1.00  0.00     0.043 A 
ATOM      8  C   UNL A   1      30.369  26.482  24.277  1.00  0.00     0.051 A 
ATOM      9  C   UNL A   1      29.448  27.286  23.607  1.00  0.00     0.053 A 
ATOM     10  C   UNL A   1      31.716  26.822  24.260  1.00  0.00     0.040 A 
ATOM     11  C   UNL A   1      29.874  28.408  22.899  1.00  0.00     0.051 A 
ATOM     12  C   UNL A   1      31.192  28.839  23.071  1.00  0.00     0.040 A 
BRANCH   8  13
ATOM     13  N   UNL A   1      29.869  25.333  24.951  1.00  0.00    -0.284 N 
ATOM     14  H   UNL A   1      29.017  24.958  24.630  1.00  0.00     0.180 HD
BRANCH  13  15
ATOM     15  S   UNL A   1      30.602  24.569  26.237  1.00  0.00     0.229 S 
ATOM     16  C   UNL A   1      31.661  23.354  25.467  1.00  0.00     0.183 C 
ATOM     17  O   UNL A   1      29.599  23.871  27.011  1.00  0.00    -0.207 OA
ATOM     18  O   UNL A   1      31.452  25.568  26.849  1.00  0.00    -0.207 OA
ENDBRANCH  13  15
ENDBRANCH   8  13
BRANCH  11  19
ATOM     19  N   UNL A   1      28.983  29.264  22.164  1.00  0.00    -0.284 N 
ATOM     20  H   UNL A   1      28.826  29.108  21.204  1.00  0.00     0.180 HD
BRANCH  19  21
ATOM     21  S   UNL A   1      28.199  30.552  22.961  1.00  0.00     0.229 S 
ATOM     22  C   UNL A   1      27.983  31.654  21.585  1.00  0.00     0.183 C 
ATOM     23  O   UNL A   1      26.896  30.051  23.347  1.00  0.00    -0.207 OA
ATOM     24  O   UNL A   1      29.075  31.200  23.907  1.00  0.00    -0.207 OA
ENDBRANCH  19  21
ENDBRANCH  11  19
ENDBRANCH   4   7
ENDBRANCH   2   3
ENDBRANCH   1   2
BRANCH   1  25
ATOM     25  C   UNL A   1      31.654  31.618  26.993  1.00  0.00     0.023 C 
BRANCH  25  26
ATOM     26  C   UNL A   1      32.865  32.507  27.254  1.00  0.00     0.116 C 
BRANCH  26  27
ATOM     27  N   UNL A   1      32.523  33.883  27.580  1.00  0.00    -0.352 N 
ATOM     28  C   UNL A   1      33.117  34.704  28.510  1.00  0.00     0.251 C 
ATOM     29  H   UNL A   1      31.776  34.276  27.073  1.00  0.00     0.163 HD
ATOM     30  O   UNL A   1      32.668  35.818  28.751  1.00  0.00    -0.269 OA
BRANCH  28  31
ATOM     31  C   UNL A   1      34.286  34.195  29.253  1.00  0.00     0.039 A 
ATOM     32  C   UNL A   1      34.071  33.349  30.342  1.00  0.00     0.014 A 
ATOM     33  C   UNL A   1      35.580  34.481  28.816  1.00  0.00     0.014 A 
ATOM     34  C   UNL A   1      35.163  32.728  30.949  1.00  0.00     0.010 A 
ATOM     35  C   UNL A   1      36.656  33.791  29.362  1.00  0.00     0.010 A 
ATOM     36  C   UNL A   1      36.458  32.908  30.433  1.00  0.00    -0.014 A 
BRANCH  36  37
ATOM     37  C   UNL A   1      37.611  32.161  30.996  1.00  0.00     0.031 A 
ATOM     38  C   UNL A   1      38.129  32.487  32.369  1.00  0.00     0.074 A 
ATOM     39  C   UNL A   1      38.226  31.226  30.246  1.00  0.00     0.049 A 
ATOM     40  N   UNL A   1      39.132  31.957  33.020  1.00  0.00    -0.248 NA
ATOM     41  C   UNL A   1      37.451  33.573  33.093  1.00  0.00     0.031 C 
ATOM     42  C   UNL A   1      37.860  30.865  28.874  1.00  0.00     0.029 A 
ATOM     43  N   UNL A   1      39.292  30.410  30.529  1.00  0.00    -0.354 N 
ATOM     44  C   UNL A   1      39.209  32.648  34.221  1.00  0.00     0.074 A 
ATOM     45  C   UNL A   1      38.198  33.680  34.180  1.00  0.00     0.031 C 
ATOM     46  C   UNL A   1      38.662  29.877  28.450  1.00  0.00     0.029 A 
ATOM     47  C   UNL A   1      39.626  29.563  29.500  1.00  0.00     0.049 A 
ATOM     48  H   UNL A   1      39.773  30.430  31.388  1.00  0.00     0.167 HD
ATOM     49  C   UNL A   1      40.031  32.426  35.275  1.00  0.00     0.037 A 
ATOM     50  C   UNL A   1      40.600  28.638  29.411  1.00  0.00     0.037 A 
ATOM     51  C   UNL A   1      41.029  31.388  35.312  1.00  0.00     0.049 A 
ATOM     52  C   UNL A   1      41.505  28.413  30.590  1.00  0.00     0.074 A 
ATOM     53  C   UNL A   1      41.866  31.035  36.357  1.00  0.00     0.029 A 
ATOM     54  N   UNL A   1      41.335  30.546  34.254  1.00  0.00    -0.354 N 
ATOM     55  N   UNL A   1      41.509  29.013  31.755  1.00  0.00    -0.248 NA
ATOM     56  C   UNL A   1      42.536  27.378  30.444  1.00  0.00     0.031 C 
ATOM     57  C   UNL A   1      42.720  30.023  35.909  1.00  0.00     0.029 A 
ATOM     58  C   UNL A   1      42.372  29.698  34.607  1.00  0.00     0.049 A 
ATOM     59  H   UNL A   1      40.881  30.549  33.380  1.00  0.00     0.167 HD
ATOM     60  C   UNL A   1      42.525  28.415  32.490  1.00  0.00     0.074 A 
ATOM     61  C   UNL A   1      43.100  27.388  31.643  1.00  0.00     0.031 C 
ATOM     62  C   UNL A   1      42.943  28.688  33.751  1.00  0.00     0.037 A 
BRANCH  49  63
ATOM     63  C   UNL A   1      39.887  33.331  36.465  1.00  0.00     0.057 A 
ATOM     64  C   UNL A   1      40.650  34.498  36.611  1.00  0.00     0.134 A 
ATOM     65  C   UNL A   1      38.962  33.039  37.476  1.00  0.00     0.134 A 
ATOM     66  F   UNL A   1      41.565  34.833  35.687  1.00  0.00    -0.206 F 
ATOM     67  C   UNL A   1      40.527  35.319  37.733  1.00  0.00     0.040 A 
ATOM     68  C   UNL A   1      38.805  33.871  38.587  1.00  0.00     0.040 A 
ATOM     69  F   UNL A   1      38.193  31.942  37.401  1.00  0.00    -0.206 F 
ATOM     70  C   UNL A   1      39.598  35.009  38.722  1.00  0.00     0.006 A 
ENDBRANCH  49  63
BRANCH  50  71
ATOM     71  C   UNL A   1      40.751  27.842  28.167  1.00  0.00     0.057 A 
ATOM     72  C   UNL A   1      41.532  28.304  27.100  1.00  0.00     0.134 A 
ATOM     73  C   UNL A   1      40.130  26.596  28.017  1.00  0.00     0.134 A 
ATOM     74  F   UNL A   1      42.137  29.498  27.175  1.00  0.00    -0.206 F 
ATOM     75  C   UNL A   1      41.677  27.565  25.925  1.00  0.00     0.040 A 
ATOM     76  C   UNL A   1      40.289  25.834  26.858  1.00  0.00     0.040 A 
ATOM     77  F   UNL A   1      39.376  26.092  29.005  1.00  0.00    -0.206 F 
ATOM     78  C   UNL A   1      41.059  26.321  25.805  1.00  0.00     0.006 A 
ENDBRANCH  50  71
BRANCH  62  79
ATOM     79  C   UNL A   1      44.062  27.849  34.300  1.00  0.00     0.057 A 
ATOM     80  C   UNL A   1      43.831  26.610  34.912  1.00  0.00     0.134 A 
ATOM     81  C   UNL A   1      45.392  28.274  34.188  1.00  0.00     0.134 A 
ATOM     82  F   UNL A   1      42.580  26.149  35.062  1.00  0.00    -0.206 F 
ATOM     83  C   UNL A   1      44.878  25.839  35.419  1.00  0.00     0.040 A 
ATOM     84  C   UNL A   1      46.451  27.497  34.661  1.00  0.00     0.040 A 
ATOM     85  F   UNL A   1      45.687  29.445  33.604  1.00  0.00    -0.206 F 
ATOM     86  C   UNL A   1      46.194  26.280  35.287  1.00  0.00     0.006 A 
ENDBRANCH  62  79
ENDBRANCH  36  37
ENDBRANCH  28  31
ENDBRANCH  26  27
ENDBRANCH  25  26
ENDBRANCH   1  25
TORSDOF 15
ENDMDL
MODEL 3
REMARK VINA RESULT:     -11.6      0.770      6.318
REMARK SMILES CS(=O)(=O)Nc1cc(NS(C)(=O)=O)cc(C(=O)NCCCCNC(=O)c2ccc(-c3c4nc(c(-c5c(F)cccc5F)c5ccc([nH]5)c(-c5c(F)cccc5F)c5nc(c(-c6c(F)cccc6F)c6ccc3[nH]6)C=C5)C=C4)cc2)c1
REMARK SMILES IDX 20 1 19 2 18 3 16 4 17 5 15 7 6 8 7 9 80 10 8 11 14 12 5 13
REMARK SMILES IDX 2 15 1 16 3 17 4 18 9 19 10 21 11 22 12 23 13 24 21 25 22 26
REMARK SMILES IDX 23 27 24 28 25 30 26 31 27 32 79 33 28 34 78 35 29 36 30 37
REMARK SMILES IDX 31 38 72 39 32 40 77 41 71 42 73 43 33 44 76 45 70 46 69 47
REMARK SMILES IDX 34 49 60 50 43 51 59 52 44 53 47 54 58 55 74 56 45 57 46 58
REMARK SMILES IDX 57 60 75 61 48 62 35 63 36 64 41 65 37 66 38 67 40 68 42 69
REMARK SMILES IDX 39 70 61 71 62 72 67 73 63 74 64 75 66 76 68 77 65 78 49 79
REMARK SMILES IDX 50 80 55 81 51 82 52 83 54 84 56 85 53 86
REMARK H PARENT 18 6 5 14 9 20 23 29 73 48 47 59
REMARK Flexibility Score: inf
ROOT
ATOM      1  C   UNL A   1      37.138  21.483  24.460  1.00  0.00     0.023 C 
ENDROOT
BRANCH   1   2
ATOM      2  C   UNL A   1      36.890  22.683  25.373  1.00  0.00     0.116 C 
BRANCH   2   3
ATOM      3  N   UNL A   1      36.057  22.313  26.499  1.00  0.00    -0.352 N 
ATOM      4  C   UNL A   1      34.773  21.846  26.608  1.00  0.00     0.251 C 
ATOM      5  O   UNL A   1      34.359  21.609  27.744  1.00  0.00    -0.269 OA
ATOM      6  H   UNL A   1      36.506  22.420  27.369  1.00  0.00     0.163 HD
BRANCH   4   7
ATOM      7  C   UNL A   1      33.887  21.537  25.446  1.00  0.00     0.043 A 
ATOM      8  C   UNL A   1      32.779  22.095  23.374  1.00  0.00     0.051 A 
ATOM      9  C   UNL A   1      32.519  20.744  23.144  1.00  0.00     0.053 A 
ATOM     10  C   UNL A   1      33.362  22.486  24.573  1.00  0.00     0.040 A 
ATOM     11  C   UNL A   1      32.813  19.792  24.119  1.00  0.00     0.051 A 
ATOM     12  C   UNL A   1      33.582  20.185  25.217  1.00  0.00     0.040 A 
BRANCH   8  13
ATOM     13  N   UNL A   1      32.422  23.015  22.350  1.00  0.00    -0.284 N 
ATOM     14  H   UNL A   1      31.724  22.734  21.716  1.00  0.00     0.180 HD
BRANCH  13  15
ATOM     15  S   UNL A   1      33.086  24.527  22.134  1.00  0.00     0.229 S 
ATOM     16  C   UNL A   1      32.076  25.589  23.157  1.00  0.00     0.183 C 
ATOM     17  O   UNL A   1      32.913  24.930  20.755  1.00  0.00    -0.207 OA
ATOM     18  O   UNL A   1      34.402  24.463  22.731  1.00  0.00    -0.207 OA
ENDBRANCH  13  15
ENDBRANCH   8  13
BRANCH  11  19
ATOM     19  N   UNL A   1      32.546  18.389  23.959  1.00  0.00    -0.284 N 
ATOM     20  H   UNL A   1      31.622  18.072  23.835  1.00  0.00     0.180 HD
BRANCH  19  21
ATOM     21  S   UNL A   1      33.837  17.275  23.987  1.00  0.00     0.229 S 
ATOM     22  C   UNL A   1      33.284  16.226  25.310  1.00  0.00     0.183 C 
ATOM     23  O   UNL A   1      33.747  16.526  22.750  1.00  0.00    -0.207 OA
ATOM     24  O   UNL A   1      35.067  17.900  24.409  1.00  0.00    -0.207 OA
ENDBRANCH  19  21
ENDBRANCH  11  19
ENDBRANCH   4   7
ENDBRANCH   2   3
ENDBRANCH   1   2
BRANCH   1  25
ATOM     25  C   UNL A   1      37.752  20.288  25.190  1.00  0.00     0.023 C 
BRANCH  25  26
ATOM     26  C   UNL A   1      39.148  20.538  25.751  1.00  0.00     0.116 C 
BRANCH  26  27
ATOM     27  N   UNL A   1      39.974  19.342  25.824  1.00  0.00    -0.352 N 
ATOM     28  C   UNL A   1      41.319  19.259  26.098  1.00  0.00     0.251 C 
ATOM     29  H   UNL A   1      39.514  18.487  25.656  1.00  0.00     0.163 HD
ATOM     30  O   UNL A   1      41.914  18.189  26.035  1.00  0.00    -0.269 OA
BRANCH  28  31
ATOM     31  C   UNL A   1      42.049  20.500  26.422  1.00  0.00     0.039 A 
ATOM     32  C   UNL A   1      42.533  21.286  25.376  1.00  0.00     0.014 A 
ATOM     33  C   UNL A   1      42.169  20.921  27.748  1.00  0.00     0.014 A 
ATOM     34  C   UNL A   1      43.074  22.540  25.660  1.00  0.00     0.010 A 
ATOM     35  C   UNL A   1      42.624  22.206  28.019  1.00  0.00     0.010 A 
ATOM     36  C   UNL A   1      43.081  23.028  26.978  1.00  0.00    -0.014 A 
BRANCH  36  37
ATOM     37  C   UNL A   1      43.546  24.406  27.277  1.00  0.00     0.031 A 
ATOM     38  C   UNL A   1      42.570  25.456  27.726  1.00  0.00     0.074 A 
ATOM     39  C   UNL A   1      44.842  24.724  27.088  1.00  0.00     0.049 A 
ATOM     40  N   UNL A   1      42.786  26.714  28.016  1.00  0.00    -0.248 NA
ATOM     41  C   UNL A   1      41.161  25.049  27.834  1.00  0.00     0.031 C 
ATOM     42  C   UNL A   1      45.874  23.811  26.591  1.00  0.00     0.029 A 
ATOM     43  N   UNL A   1      45.512  25.904  27.287  1.00  0.00    -0.354 N 
ATOM     44  C   UNL A   1      41.543  27.246  28.331  1.00  0.00     0.074 A 
ATOM     45  C   UNL A   1      40.570  26.196  28.130  1.00  0.00     0.031 C 
ATOM     46  C   UNL A   1      47.052  24.454  26.561  1.00  0.00     0.029 A 
ATOM     47  C   UNL A   1      46.852  25.833  26.993  1.00  0.00     0.049 A 
ATOM     48  H   UNL A   1      45.075  26.725  27.611  1.00  0.00     0.167 HD
ATOM     49  C   UNL A   1      41.242  28.491  28.774  1.00  0.00     0.037 A 
ATOM     50  C   UNL A   1      47.813  26.773  27.061  1.00  0.00     0.037 A 
ATOM     51  C   UNL A   1      42.219  29.529  28.982  1.00  0.00     0.049 A 
ATOM     52  C   UNL A   1      47.456  28.150  27.548  1.00  0.00     0.074 A 
ATOM     53  C   UNL A   1      42.028  30.801  29.492  1.00  0.00     0.029 A 
ATOM     54  N   UNL A   1      43.568  29.418  28.678  1.00  0.00    -0.354 N 
ATOM     55  N   UNL A   1      46.291  28.615  27.930  1.00  0.00    -0.248 NA
ATOM     56  C   UNL A   1      48.548  29.130  27.623  1.00  0.00     0.031 C 
ATOM     57  C   UNL A   1      43.248  31.481  29.437  1.00  0.00     0.029 A 
ATOM     58  C   UNL A   1      44.215  30.611  28.956  1.00  0.00     0.049 A 
ATOM     59  H   UNL A   1      44.002  28.610  28.319  1.00  0.00     0.167 HD
ATOM     60  C   UNL A   1      46.512  29.933  28.310  1.00  0.00     0.074 A 
ATOM     61  C   UNL A   1      47.929  30.184  28.133  1.00  0.00     0.031 C 
ATOM     62  C   UNL A   1      45.624  30.851  28.765  1.00  0.00     0.037 A 
BRANCH  49  63
ATOM     63  C   UNL A   1      39.797  28.794  29.050  1.00  0.00     0.057 A 
ATOM     64  C   UNL A   1      38.920  29.225  28.045  1.00  0.00     0.134 A 
ATOM     65  C   UNL A   1      39.270  28.642  30.339  1.00  0.00     0.134 A 
ATOM     66  F   UNL A   1      39.360  29.404  26.789  1.00  0.00    -0.206 F 
ATOM     67  C   UNL A   1      37.586  29.529  28.317  1.00  0.00     0.040 A 
ATOM     68  C   UNL A   1      37.928  28.910  30.618  1.00  0.00     0.040 A 
ATOM     69  F   UNL A   1      40.049  28.228  31.351  1.00  0.00    -0.206 F 
ATOM     70  C   UNL A   1      37.085  29.366  29.606  1.00  0.00     0.006 A 
ENDBRANCH  49  63
BRANCH  50  71
ATOM     71  C   UNL A   1      49.207  26.434  26.680  1.00  0.00     0.057 A 
ATOM     72  C   UNL A   1      49.681  26.666  25.382  1.00  0.00     0.134 A 
ATOM     73  C   UNL A   1      50.104  25.882  27.603  1.00  0.00     0.134 A 
ATOM     74  F   UNL A   1      48.866  27.175  24.448  1.00  0.00    -0.206 F 
ATOM     75  C   UNL A   1      50.989  26.347  25.013  1.00  0.00     0.040 A 
ATOM     76  C   UNL A   1      51.422  25.584  27.255  1.00  0.00     0.040 A 
ATOM     77  F   UNL A   1      49.716  25.644  28.864  1.00  0.00    -0.206 F 
ATOM     78  C   UNL A   1      51.866  25.810  25.954  1.00  0.00     0.006 A 
ENDBRANCH  50  71
BRANCH  62  79
ATOM     79  C   UNL A   1      46.163  32.207  29.126  1.00  0.00     0.057 A 
ATOM     80  C   UNL A   1      46.670  32.490  30.402  1.00  0.00     0.134 A 
ATOM     81  C   UNL A   1      46.202  33.235  28.175  1.00  0.00     0.134 A 
ATOM     82  F   UNL A   1      46.650  31.554  31.363  1.00  0.00    -0.206 F 
ATOM     83  C   UNL A   1      47.167  33.753  30.726  1.00  0.00     0.040 A 
ATOM     84  C   UNL A   1      46.728  34.492  28.478  1.00  0.00     0.040 A 
ATOM     85  F   UNL A   1      45.744  33.031  26.931  1.00  0.00    -0.206 F 
ATOM     86  C   UNL A   1      47.204  34.756  29.760  1.00  0.00     0.006 A 
ENDBRANCH  62  79
ENDBRANCH  36  37
ENDBRANCH  28  31
ENDBRANCH  26  27
ENDBRANCH  25  26
ENDBRANCH   1  25
TORSDOF 15
ENDMDL
