MODEL 1
REMARK VINA RESULT:     -12.3      0.000      0.000
REMARK SMILES COc1ccc(-c2ccc(S(=O)(=O)NC(C)(C)C)cc2)c(C(=O)NCCCCNC(=O)c2ccc(-c3c4nc(c(-c5c(F)cccc5F)c5ccc([nH]5)c(-c5c(F)cccc5F)c5nc(c(-c6c(F)cccc6F)c6ccc3[nH]6)C=C5)C=C4)cc2)c1
REMARK SMILES IDX 25 1 24 2 22 3 23 4 21 6 3 7 4 8 86 9 5 10 6 11 2 12 1 13
REMARK SMILES IDX 7 14 8 15 20 16 9 17 19 18 10 19 11 20 12 21 13 22 14 23
REMARK SMILES IDX 15 25 16 26 17 27 18 28 26 29 27 30 28 31 29 32 30 33 31 35
REMARK SMILES IDX 32 36 33 37 85 38 34 39 84 40 35 41 36 42 37 43 78 44 38 45
REMARK SMILES IDX 83 46 77 47 79 48 39 49 82 50 76 51 75 52 40 54 66 55 49 56
REMARK SMILES IDX 65 57 50 58 53 59 64 60 80 61 51 62 52 63 63 65 81 66 54 67
REMARK SMILES IDX 41 68 42 69 47 70 43 71 44 72 46 73 48 74 45 75 67 76 68 77
REMARK SMILES IDX 73 78 69 79 70 80 72 81 74 82 71 83 55 84 56 85 61 86 57 87
REMARK SMILES IDX 58 88 60 89 62 90 59 91
REMARK H PARENT 24 5 14 24 29 34 79 53 53 64
REMARK Flexibility Score: inf
ROOT
ATOM      1  C   UNL A   1      31.802  29.705  25.746  1.00  0.00     0.116 C 
ENDROOT
BRANCH   1   2
ATOM      2  N   UNL A   1      32.454  29.204  24.545  1.00  0.00    -0.352 N 
ATOM      3  C   UNL A   1      31.930  28.893  23.302  1.00  0.00     0.252 C 
ATOM      4  O   UNL A   1      32.714  28.708  22.377  1.00  0.00    -0.269 OA
ATOM      5  H   UNL A   1      33.424  29.063  24.629  1.00  0.00     0.163 HD
BRANCH   3   6
ATOM      6  C   UNL A   1      30.457  28.753  23.104  1.00  0.00     0.051 A 
ATOM      7  C   UNL A   1      28.399  29.807  22.323  1.00  0.00     0.119 A 
ATOM      8  C   UNL A   1      27.668  28.782  22.907  1.00  0.00     0.047 A 
ATOM      9  C   UNL A   1      29.789  29.769  22.394  1.00  0.00     0.060 A 
ATOM     10  C   UNL A   1      28.322  27.701  23.501  1.00  0.00     0.013 A 
ATOM     11  C   UNL A   1      29.731  27.636  23.577  1.00  0.00    -0.005 A 
BRANCH   7  12
ATOM     12  O   UNL A   1      27.655  30.789  21.730  1.00  0.00    -0.497 OA
ATOM     13  C   UNL A   1      28.368  31.866  21.135  1.00  0.00     0.278 C 
ENDBRANCH   7  12
BRANCH  11  14
ATOM     14  C   UNL A   1      30.333  26.364  24.036  1.00  0.00    -0.018 A 
ATOM     15  C   UNL A   1      30.466  26.140  25.423  1.00  0.00     0.010 A 
ATOM     16  C   UNL A   1      30.766  25.354  23.165  1.00  0.00     0.010 A 
ATOM     17  C   UNL A   1      31.020  24.962  25.924  1.00  0.00     0.022 A 
ATOM     18  C   UNL A   1      31.278  24.146  23.660  1.00  0.00     0.022 A 
ATOM     19  C   UNL A   1      31.424  23.966  25.037  1.00  0.00     0.082 A 
BRANCH  19  20
ATOM     20  S   UNL A   1      32.143  22.496  25.714  1.00  0.00     0.241 S 
ATOM     21  O   UNL A   1      32.510  22.767  27.084  1.00  0.00    -0.207 OA
ATOM     22  O   UNL A   1      31.247  21.410  25.376  1.00  0.00    -0.207 OA
BRANCH  20  23
ATOM     23  N   UNL A   1      33.532  22.206  24.824  1.00  0.00    -0.206 NA
ATOM     24  H   UNL A   1      33.342  22.603  23.904  1.00  0.00     0.141 HD
BRANCH  23  25
ATOM     25  C   UNL A   1      34.907  22.643  25.151  1.00  0.00     0.025 C 
ATOM     26  C   UNL A   1      35.524  21.831  26.292  1.00  0.00     0.028 C 
ATOM     27  C   UNL A   1      35.740  22.397  23.877  1.00  0.00     0.028 C 
ATOM     28  C   UNL A   1      34.954  24.135  25.478  1.00  0.00     0.028 C 
ENDBRANCH  23  25
ENDBRANCH  20  23
ENDBRANCH  19  20
ENDBRANCH  11  14
ENDBRANCH   3   6
ENDBRANCH   1   2
BRANCH   1  29
ATOM     29  C   UNL A   1      31.294  31.140  25.675  1.00  0.00     0.023 C 
BRANCH  29  30
ATOM     30  C   UNL A   1      31.335  31.965  26.956  1.00  0.00     0.023 C 
BRANCH  30  31
ATOM     31  C   UNL A   1      32.578  32.812  27.192  1.00  0.00     0.116 C 
BRANCH  31  32
ATOM     32  N   UNL A   1      32.300  34.172  27.626  1.00  0.00    -0.352 N 
ATOM     33  C   UNL A   1      32.960  34.962  28.539  1.00  0.00     0.251 C 
ATOM     34  H   UNL A   1      31.518  34.593  27.200  1.00  0.00     0.163 HD
ATOM     35  O   UNL A   1      32.528  36.082  28.800  1.00  0.00    -0.269 OA
BRANCH  33  36
ATOM     36  C   UNL A   1      34.154  34.454  29.249  1.00  0.00     0.039 A 
ATOM     37  C   UNL A   1      33.984  33.859  30.504  1.00  0.00     0.014 A 
ATOM     38  C   UNL A   1      35.430  34.537  28.687  1.00  0.00     0.014 A 
ATOM     39  C   UNL A   1      35.071  33.262  31.145  1.00  0.00     0.010 A 
ATOM     40  C   UNL A   1      36.497  33.875  29.289  1.00  0.00     0.010 A 
ATOM     41  C   UNL A   1      36.327  33.221  30.519  1.00  0.00    -0.014 A 
BRANCH  41  42
ATOM     42  C   UNL A   1      37.468  32.483  31.121  1.00  0.00     0.031 A 
ATOM     43  C   UNL A   1      38.091  32.962  32.402  1.00  0.00     0.074 A 
ATOM     44  C   UNL A   1      37.996  31.426  30.472  1.00  0.00     0.049 A 
ATOM     45  N   UNL A   1      39.149  32.512  33.027  1.00  0.00    -0.248 NA
ATOM     46  C   UNL A   1      37.457  34.121  33.050  1.00  0.00     0.031 C 
ATOM     47  C   UNL A   1      37.522  30.892  29.194  1.00  0.00     0.029 A 
ATOM     48  N   UNL A   1      39.062  30.622  30.791  1.00  0.00    -0.354 N 
ATOM     49  C   UNL A   1      39.317  33.341  34.130  1.00  0.00     0.074 A 
ATOM     50  C   UNL A   1      38.282  34.350  34.061  1.00  0.00     0.031 C 
ATOM     51  C   UNL A   1      38.282  29.841  28.846  1.00  0.00     0.029 A 
ATOM     52  C   UNL A   1      39.318  29.648  29.856  1.00  0.00     0.049 A 
ATOM     53  H   UNL A   1      39.593  30.732  31.613  1.00  0.00     0.167 HD
ATOM     54  C   UNL A   1      40.235  33.256  35.122  1.00  0.00     0.037 A 
ATOM     55  C   UNL A   1      40.283  28.710  29.813  1.00  0.00     0.037 A 
ATOM     56  C   UNL A   1      41.248  32.237  35.206  1.00  0.00     0.049 A 
ATOM     57  C   UNL A   1      41.281  28.626  30.932  1.00  0.00     0.074 A 
ATOM     58  C   UNL A   1      42.189  32.035  36.200  1.00  0.00     0.029 A 
ATOM     59  N   UNL A   1      41.448  31.244  34.258  1.00  0.00    -0.354 N 
ATOM     60  N   UNL A   1      41.391  29.380  31.999  1.00  0.00    -0.248 NA
ATOM     61  C   UNL A   1      42.287  27.557  30.846  1.00  0.00     0.031 C 
ATOM     62  C   UNL A   1      42.980  30.939  35.840  1.00  0.00     0.029 A 
ATOM     63  C   UNL A   1      42.505  30.434  34.639  1.00  0.00     0.049 A 
ATOM     64  H   UNL A   1      40.917  31.131  33.436  1.00  0.00     0.167 HD
ATOM     65  C   UNL A   1      42.459  28.865  32.721  1.00  0.00     0.074 A 
ATOM     66  C   UNL A   1      42.956  27.725  31.979  1.00  0.00     0.031 C 
ATOM     67  C   UNL A   1      42.982  29.298  33.894  1.00  0.00     0.037 A 
BRANCH  54  68
ATOM     68  C   UNL A   1      40.176  34.293  36.204  1.00  0.00     0.057 A 
ATOM     69  C   UNL A   1      40.900  35.489  36.116  1.00  0.00     0.134 A 
ATOM     70  C   UNL A   1      39.367  34.109  37.331  1.00  0.00     0.134 A 
ATOM     71  F   UNL A   1      41.705  35.720  35.067  1.00  0.00    -0.206 F 
ATOM     72  C   UNL A   1      40.845  36.452  37.124  1.00  0.00     0.040 A 
ATOM     73  C   UNL A   1      39.282  35.076  38.334  1.00  0.00     0.040 A 
ATOM     74  F   UNL A   1      38.640  32.989  37.474  1.00  0.00    -0.206 F 
ATOM     75  C   UNL A   1      40.028  36.249  38.235  1.00  0.00     0.006 A 
ENDBRANCH  54  68
BRANCH  55  76
ATOM     76  C   UNL A   1      40.339  27.756  28.677  1.00  0.00     0.057 A 
ATOM     77  C   UNL A   1      39.639  26.545  28.717  1.00  0.00     0.134 A 
ATOM     78  C   UNL A   1      41.097  28.027  27.531  1.00  0.00     0.134 A 
ATOM     79  F   UNL A   1      38.912  26.222  29.796  1.00  0.00    -0.206 F 
ATOM     80  C   UNL A   1      39.704  25.629  27.666  1.00  0.00     0.040 A 
ATOM     81  C   UNL A   1      41.153  27.130  26.464  1.00  0.00     0.040 A 
ATOM     82  F   UNL A   1      41.785  29.174  27.430  1.00  0.00    -0.206 F 
ATOM     83  C   UNL A   1      40.459  25.923  26.532  1.00  0.00     0.006 A 
ENDBRANCH  55  76
BRANCH  67  84
ATOM     84  C   UNL A   1      44.130  28.518  34.461  1.00  0.00     0.057 A 
ATOM     85  C   UNL A   1      45.460  28.868  34.200  1.00  0.00     0.134 A 
ATOM     86  C   UNL A   1      43.900  27.429  35.312  1.00  0.00     0.134 A 
ATOM     87  F   UNL A   1      45.745  29.894  33.383  1.00  0.00    -0.206 F 
ATOM     88  C   UNL A   1      46.523  28.151  34.750  1.00  0.00     0.040 A 
ATOM     89  C   UNL A   1      44.953  26.718  35.885  1.00  0.00     0.040 A 
ATOM     90  F   UNL A   1      42.648  27.048  35.606  1.00  0.00    -0.206 F 
ATOM     91  C   UNL A   1      46.270  27.075  35.601  1.00  0.00     0.006 A 
ENDBRANCH  67  84
ENDBRANCH  41  42
ENDBRANCH  33  36
ENDBRANCH  31  32
ENDBRANCH  30  31
ENDBRANCH  29  30
ENDBRANCH   1  29
TORSDOF 16
ENDMDL
MODEL 2
REMARK VINA RESULT:     -12.2      4.714      8.344
REMARK SMILES COc1ccc(-c2ccc(S(=O)(=O)NC(C)(C)C)cc2)c(C(=O)NCCCCNC(=O)c2ccc(-c3c4nc(c(-c5c(F)cccc5F)c5ccc([nH]5)c(-c5c(F)cccc5F)c5nc(c(-c6c(F)cccc6F)c6ccc3[nH]6)C=C5)C=C4)cc2)c1
REMARK SMILES IDX 25 1 24 2 22 3 23 4 21 6 3 7 4 8 86 9 5 10 6 11 2 12 1 13
REMARK SMILES IDX 7 14 8 15 20 16 9 17 19 18 10 19 11 20 12 21 13 22 14 23
REMARK SMILES IDX 15 25 16 26 17 27 18 28 26 29 27 30 28 31 29 32 30 33 31 35
REMARK SMILES IDX 32 36 33 37 85 38 34 39 84 40 35 41 36 42 37 43 78 44 38 45
REMARK SMILES IDX 83 46 77 47 79 48 39 49 82 50 76 51 75 52 40 54 66 55 49 56
REMARK SMILES IDX 65 57 50 58 53 59 64 60 80 61 51 62 52 63 63 65 81 66 54 67
REMARK SMILES IDX 41 68 42 69 47 70 43 71 44 72 46 73 48 74 45 75 67 76 68 77
REMARK SMILES IDX 73 78 69 79 70 80 72 81 74 82 71 83 55 84 56 85 61 86 57 87
REMARK SMILES IDX 58 88 60 89 62 90 59 91
REMARK H PARENT 24 5 14 24 29 34 79 53 53 64
REMARK Flexibility Score: inf
ROOT
ATOM      1  C   UNL A   1      32.097  29.986  25.467  1.00  0.00     0.116 C 
ENDROOT
BRANCH   1   2
ATOM      2  N   UNL A   1      32.718  29.177  24.429  1.00  0.00    -0.352 N 
ATOM      3  C   UNL A   1      32.221  28.741  23.213  1.00  0.00     0.252 C 
ATOM      4  O   UNL A   1      33.014  28.266  22.406  1.00  0.00    -0.269 OA
ATOM      5  H   UNL A   1      33.640  28.894  24.623  1.00  0.00     0.163 HD
BRANCH   3   6
ATOM      6  C   UNL A   1      30.762  28.815  22.910  1.00  0.00     0.051 A 
ATOM      7  C   UNL A   1      28.979  30.031  21.772  1.00  0.00     0.119 A 
ATOM      8  C   UNL A   1      28.041  29.272  22.458  1.00  0.00     0.047 A 
ATOM      9  C   UNL A   1      30.332  29.775  21.974  1.00  0.00     0.060 A 
ATOM     10  C   UNL A   1      28.452  28.229  23.289  1.00  0.00     0.013 A 
ATOM     11  C   UNL A   1      29.819  27.944  23.504  1.00  0.00    -0.005 A 
BRANCH   7  12
ATOM     12  O   UNL A   1      28.461  30.994  20.951  1.00  0.00    -0.497 OA
ATOM     13  C   UNL A   1      28.317  32.298  21.499  1.00  0.00     0.278 C 
ENDBRANCH   7  12
BRANCH  11  14
ATOM     14  C   UNL A   1      30.153  26.700  24.231  1.00  0.00    -0.018 A 
ATOM     15  C   UNL A   1      30.269  26.748  25.637  1.00  0.00     0.010 A 
ATOM     16  C   UNL A   1      30.344  25.461  23.601  1.00  0.00     0.010 A 
ATOM     17  C   UNL A   1      30.576  25.612  26.385  1.00  0.00     0.022 A 
ATOM     18  C   UNL A   1      30.604  24.305  24.349  1.00  0.00     0.022 A 
ATOM     19  C   UNL A   1      30.741  24.390  25.736  1.00  0.00     0.082 A 
BRANCH  19  20
ATOM     20  S   UNL A   1      31.154  22.977  26.720  1.00  0.00     0.241 S 
ATOM     21  O   UNL A   1      32.366  23.276  27.448  1.00  0.00    -0.207 OA
ATOM     22  O   UNL A   1      29.940  22.591  27.409  1.00  0.00    -0.207 OA
BRANCH  20  23
ATOM     23  N   UNL A   1      31.457  21.732  25.643  1.00  0.00    -0.206 NA
ATOM     24  H   UNL A   1      31.069  22.051  24.756  1.00  0.00     0.141 HD
BRANCH  23  25
ATOM     25  C   UNL A   1      32.775  21.156  25.296  1.00  0.00     0.025 C 
ATOM     26  C   UNL A   1      33.670  20.959  26.521  1.00  0.00     0.028 C 
ATOM     27  C   UNL A   1      32.480  19.770  24.685  1.00  0.00     0.028 C 
ATOM     28  C   UNL A   1      33.493  22.002  24.245  1.00  0.00     0.028 C 
ENDBRANCH  23  25
ENDBRANCH  20  23
ENDBRANCH  19  20
ENDBRANCH  11  14
ENDBRANCH   3   6
ENDBRANCH   1   2
BRANCH   1  29
ATOM     29  C   UNL A   1      32.147  29.408  26.877  1.00  0.00     0.023 C 
BRANCH  29  30
ATOM     30  C   UNL A   1      33.384  28.605  27.263  1.00  0.00     0.023 C 
BRANCH  30  31
ATOM     31  C   UNL A   1      34.697  29.369  27.372  1.00  0.00     0.116 C 
BRANCH  31  32
ATOM     32  N   UNL A   1      34.812  30.192  28.566  1.00  0.00    -0.352 N 
ATOM     33  C   UNL A   1      35.898  30.426  29.378  1.00  0.00     0.251 C 
ATOM     34  H   UNL A   1      33.984  30.652  28.835  1.00  0.00     0.163 HD
ATOM     35  O   UNL A   1      35.769  31.126  30.379  1.00  0.00    -0.269 OA
BRANCH  33  36
ATOM     36  C   UNL A   1      37.206  29.799  29.085  1.00  0.00     0.039 A 
ATOM     37  C   UNL A   1      37.686  29.836  27.771  1.00  0.00     0.014 A 
ATOM     38  C   UNL A   1      37.968  29.195  30.088  1.00  0.00     0.014 A 
ATOM     39  C   UNL A   1      38.967  29.361  27.485  1.00  0.00     0.010 A 
ATOM     40  C   UNL A   1      39.274  28.793  29.817  1.00  0.00     0.010 A 
ATOM     41  C   UNL A   1      39.792  28.882  28.516  1.00  0.00    -0.014 A 
BRANCH  41  42
ATOM     42  C   UNL A   1      41.202  28.490  28.259  1.00  0.00     0.031 A 
ATOM     43  C   UNL A   1      41.546  27.064  27.934  1.00  0.00     0.074 A 
ATOM     44  C   UNL A   1      42.185  29.403  28.398  1.00  0.00     0.049 A 
ATOM     45  N   UNL A   1      42.722  26.511  27.774  1.00  0.00    -0.248 NA
ATOM     46  C   UNL A   1      40.419  26.128  27.798  1.00  0.00     0.031 C 
ATOM     47  C   UNL A   1      41.992  30.807  28.765  1.00  0.00     0.029 A 
ATOM     48  N   UNL A   1      43.545  29.279  28.265  1.00  0.00    -0.354 N 
ATOM     49  C   UNL A   1      42.478  25.164  27.538  1.00  0.00     0.074 A 
ATOM     50  C   UNL A   1      41.046  24.974  27.623  1.00  0.00     0.031 C 
ATOM     51  C   UNL A   1      43.187  31.418  28.813  1.00  0.00     0.029 A 
ATOM     52  C   UNL A   1      44.232  30.444  28.514  1.00  0.00     0.049 A 
ATOM     53  H   UNL A   1      43.988  28.436  28.014  1.00  0.00     0.167 HD
ATOM     54  C   UNL A   1      43.363  24.179  27.254  1.00  0.00     0.037 A 
ATOM     55  C   UNL A   1      45.555  30.696  28.511  1.00  0.00     0.037 A 
ATOM     56  C   UNL A   1      44.784  24.373  27.142  1.00  0.00     0.049 A 
ATOM     57  C   UNL A   1      46.516  29.591  28.178  1.00  0.00     0.074 A 
ATOM     58  C   UNL A   1      45.757  23.448  26.805  1.00  0.00     0.029 A 
ATOM     59  N   UNL A   1      45.436  25.577  27.363  1.00  0.00    -0.354 N 
ATOM     60  N   UNL A   1      46.265  28.335  27.898  1.00  0.00    -0.248 NA
ATOM     61  C   UNL A   1      47.944  29.938  28.154  1.00  0.00     0.031 C 
ATOM     62  C   UNL A   1      47.002  24.084  26.851  1.00  0.00     0.029 A 
ATOM     63  C   UNL A   1      46.800  25.416  27.180  1.00  0.00     0.049 A 
ATOM     64  H   UNL A   1      44.995  26.421  27.613  1.00  0.00     0.167 HD
ATOM     65  C   UNL A   1      47.498  27.748  27.643  1.00  0.00     0.074 A 
ATOM     66  C   UNL A   1      48.495  28.789  27.786  1.00  0.00     0.031 C 
ATOM     67  C   UNL A   1      47.778  26.463  27.319  1.00  0.00     0.037 A 
BRANCH  54  68
ATOM     68  C   UNL A   1      42.811  22.802  27.032  1.00  0.00     0.057 A 
ATOM     69  C   UNL A   1      42.396  21.996  28.101  1.00  0.00     0.134 A 
ATOM     70  C   UNL A   1      42.666  22.286  25.740  1.00  0.00     0.134 A 
ATOM     71  F   UNL A   1      42.521  22.428  29.365  1.00  0.00    -0.206 F 
ATOM     72  C   UNL A   1      41.883  20.715  27.893  1.00  0.00     0.040 A 
ATOM     73  C   UNL A   1      42.130  21.016  25.516  1.00  0.00     0.040 A 
ATOM     74  F   UNL A   1      43.036  23.008  24.671  1.00  0.00    -0.206 F 
ATOM     75  C   UNL A   1      41.744  20.224  26.596  1.00  0.00     0.006 A 
ENDBRANCH  54  68
BRANCH  55  76
ATOM     76  C   UNL A   1      46.049  32.062  28.813  1.00  0.00     0.057 A 
ATOM     77  C   UNL A   1      46.323  32.456  30.128  1.00  0.00     0.134 A 
ATOM     78  C   UNL A   1      46.254  33.007  27.800  1.00  0.00     0.134 A 
ATOM     79  F   UNL A   1      46.128  31.601  31.142  1.00  0.00    -0.206 F 
ATOM     80  C   UNL A   1      46.764  33.746  30.427  1.00  0.00     0.040 A 
ATOM     81  C   UNL A   1      46.716  34.293  28.083  1.00  0.00     0.040 A 
ATOM     82  F   UNL A   1      46.016  32.688  26.519  1.00  0.00    -0.206 F 
ATOM     83  C   UNL A   1      46.967  34.668  29.402  1.00  0.00     0.006 A 
ENDBRANCH  55  76
BRANCH  67  84
ATOM     84  C   UNL A   1      49.215  26.118  27.067  1.00  0.00     0.057 A 
ATOM     85  C   UNL A   1      49.772  26.171  25.783  1.00  0.00     0.134 A 
ATOM     86  C   UNL A   1      50.061  25.769  28.127  1.00  0.00     0.134 A 
ATOM     87  F   UNL A   1      49.010  26.486  24.724  1.00  0.00    -0.206 F 
ATOM     88  C   UNL A   1      51.116  25.870  25.560  1.00  0.00     0.040 A 
ATOM     89  C   UNL A   1      51.411  25.487  27.920  1.00  0.00     0.040 A 
ATOM     90  F   UNL A   1      49.590  25.706  29.382  1.00  0.00    -0.206 F 
ATOM     91  C   UNL A   1      51.941  25.533  26.633  1.00  0.00     0.006 A 
ENDBRANCH  67  84
ENDBRANCH  41  42
ENDBRANCH  33  36
ENDBRANCH  31  32
ENDBRANCH  30  31
ENDBRANCH  29  30
ENDBRANCH   1  29
TORSDOF 16
ENDMDL
MODEL 3
REMARK VINA RESULT:     -12.2      4.114      9.607
REMARK SMILES COc1ccc(-c2ccc(S(=O)(=O)NC(C)(C)C)cc2)c(C(=O)NCCCCNC(=O)c2ccc(-c3c4nc(c(-c5c(F)cccc5F)c5ccc([nH]5)c(-c5c(F)cccc5F)c5nc(c(-c6c(F)cccc6F)c6ccc3[nH]6)C=C5)C=C4)cc2)c1
REMARK SMILES IDX 25 1 24 2 22 3 23 4 21 6 3 7 4 8 86 9 5 10 6 11 2 12 1 13
REMARK SMILES IDX 7 14 8 15 20 16 9 17 19 18 10 19 11 20 12 21 13 22 14 23
REMARK SMILES IDX 15 25 16 26 17 27 18 28 26 29 27 30 28 31 29 32 30 33 31 35
REMARK SMILES IDX 32 36 33 37 85 38 34 39 84 40 35 41 36 42 37 43 78 44 38 45
REMARK SMILES IDX 83 46 77 47 79 48 39 49 82 50 76 51 75 52 40 54 66 55 49 56
REMARK SMILES IDX 65 57 50 58 53 59 64 60 80 61 51 62 52 63 63 65 81 66 54 67
REMARK SMILES IDX 41 68 42 69 47 70 43 71 44 72 46 73 48 74 45 75 67 76 68 77
REMARK SMILES IDX 73 78 69 79 70 80 72 81 74 82 71 83 55 84 56 85 61 86 57 87
REMARK SMILES IDX 58 88 60 89 62 90 59 91
REMARK H PARENT 24 5 14 24 29 34 79 53 53 64
REMARK Flexibility Score: inf
ROOT
ATOM      1  C   UNL A   1      35.954  22.206  24.110  1.00  0.00     0.116 C 
ENDROOT
BRANCH   1   2
ATOM      2  N   UNL A   1      35.110  22.323  25.290  1.00  0.00    -0.352 N 
ATOM      3  C   UNL A   1      33.996  21.596  25.673  1.00  0.00     0.252 C 
ATOM      4  O   UNL A   1      33.591  21.728  26.823  1.00  0.00    -0.269 OA
ATOM      5  H   UNL A   1      35.373  23.034  25.917  1.00  0.00     0.163 HD
BRANCH   3   6
ATOM      6  C   UNL A   1      33.290  20.707  24.703  1.00  0.00     0.051 A 
ATOM      7  C   UNL A   1      32.883  18.417  23.967  1.00  0.00     0.119 A 
ATOM      8  C   UNL A   1      32.273  18.907  22.821  1.00  0.00     0.047 A 
ATOM      9  C   UNL A   1      33.356  19.317  24.917  1.00  0.00     0.060 A 
ATOM     10  C   UNL A   1      32.084  20.281  22.658  1.00  0.00     0.013 A 
ATOM     11  C   UNL A   1      32.547  21.213  23.612  1.00  0.00    -0.005 A 
BRANCH   7  12
ATOM     12  O   UNL A   1      32.973  17.055  24.041  1.00  0.00    -0.497 OA
ATOM     13  C   UNL A   1      34.157  16.459  23.527  1.00  0.00     0.278 C 
ENDBRANCH   7  12
BRANCH  11  14
ATOM     14  C   UNL A   1      32.121  22.622  23.456  1.00  0.00    -0.018 A 
ATOM     15  C   UNL A   1      31.112  23.123  24.306  1.00  0.00     0.010 A 
ATOM     16  C   UNL A   1      32.681  23.500  22.516  1.00  0.00     0.010 A 
ATOM     17  C   UNL A   1      30.668  24.441  24.217  1.00  0.00     0.022 A 
ATOM     18  C   UNL A   1      32.275  24.841  22.452  1.00  0.00     0.022 A 
ATOM     19  C   UNL A   1      31.254  25.298  23.288  1.00  0.00     0.082 A 
BRANCH  19  20
ATOM     20  S   UNL A   1      30.644  26.958  23.191  1.00  0.00     0.241 S 
ATOM     21  O   UNL A   1      30.966  27.478  21.882  1.00  0.00    -0.207 OA
ATOM     22  O   UNL A   1      29.278  26.919  23.669  1.00  0.00    -0.207 OA
BRANCH  20  23
ATOM     23  N   UNL A   1      31.484  27.831  24.346  1.00  0.00    -0.206 NA
ATOM     24  H   UNL A   1      31.222  27.409  25.237  1.00  0.00     0.141 HD
BRANCH  23  25
ATOM     25  C   UNL A   1      32.950  28.017  24.431  1.00  0.00     0.025 C 
ATOM     26  C   UNL A   1      33.602  28.166  23.055  1.00  0.00     0.028 C 
ATOM     27  C   UNL A   1      33.162  29.331  25.211  1.00  0.00     0.028 C 
ATOM     28  C   UNL A   1      33.611  26.881  25.211  1.00  0.00     0.028 C 
ENDBRANCH  23  25
ENDBRANCH  20  23
ENDBRANCH  19  20
ENDBRANCH  11  14
ENDBRANCH   3   6
ENDBRANCH   1   2
BRANCH   1  29
ATOM     29  C   UNL A   1      37.422  21.892  24.373  1.00  0.00     0.023 C 
BRANCH  29  30
ATOM     30  C   UNL A   1      37.765  20.487  24.854  1.00  0.00     0.023 C 
BRANCH  30  31
ATOM     31  C   UNL A   1      38.734  20.375  26.024  1.00  0.00     0.116 C 
BRANCH  31  32
ATOM     32  N   UNL A   1      39.837  19.454  25.800  1.00  0.00    -0.352 N 
ATOM     33  C   UNL A   1      41.186  19.619  26.018  1.00  0.00     0.251 C 
ATOM     34  H   UNL A   1      39.578  18.577  25.436  1.00  0.00     0.163 HD
ATOM     35  O   UNL A   1      41.966  18.721  25.712  1.00  0.00    -0.269 OA
BRANCH  33  36
ATOM     36  C   UNL A   1      41.709  20.890  26.566  1.00  0.00     0.039 A 
ATOM     37  C   UNL A   1      42.194  21.854  25.675  1.00  0.00     0.014 A 
ATOM     38  C   UNL A   1      41.708  21.150  27.939  1.00  0.00     0.014 A 
ATOM     39  C   UNL A   1      42.582  23.108  26.150  1.00  0.00     0.010 A 
ATOM     40  C   UNL A   1      42.021  22.425  28.402  1.00  0.00     0.010 A 
ATOM     41  C   UNL A   1      42.450  23.422  27.512  1.00  0.00    -0.014 A 
BRANCH  41  42
ATOM     42  C   UNL A   1      42.736  24.788  28.022  1.00  0.00     0.031 A 
ATOM     43  C   UNL A   1      44.124  25.161  28.458  1.00  0.00     0.074 A 
ATOM     44  C   UNL A   1      41.726  25.669  28.170  1.00  0.00     0.049 A 
ATOM     45  N   UNL A   1      44.548  26.265  29.019  1.00  0.00    -0.248 NA
ATOM     46  C   UNL A   1      45.172  24.145  28.265  1.00  0.00     0.031 C 
ATOM     47  C   UNL A   1      40.323  25.416  27.837  1.00  0.00     0.029 A 
ATOM     48  N   UNL A   1      41.724  26.954  28.655  1.00  0.00    -0.354 N 
ATOM     49  C   UNL A   1      45.902  26.071  29.261  1.00  0.00     0.074 A 
ATOM     50  C   UNL A   1      46.219  24.726  28.832  1.00  0.00     0.031 C 
ATOM     51  C   UNL A   1      39.599  26.512  28.114  1.00  0.00     0.029 A 
ATOM     52  C   UNL A   1      40.478  27.534  28.674  1.00  0.00     0.049 A 
ATOM     53  H   UNL A   1      42.538  27.416  28.961  1.00  0.00     0.167 HD
ATOM     54  C   UNL A   1      46.805  26.941  29.773  1.00  0.00     0.037 A 
ATOM     55  C   UNL A   1      40.087  28.749  29.103  1.00  0.00     0.037 A 
ATOM     56  C   UNL A   1      46.497  28.288  30.175  1.00  0.00     0.049 A 
ATOM     57  C   UNL A   1      41.109  29.702  29.653  1.00  0.00     0.074 A 
ATOM     58  C   UNL A   1      47.354  29.263  30.655  1.00  0.00     0.029 A 
ATOM     59  N   UNL A   1      45.230  28.851  30.140  1.00  0.00    -0.354 N 
ATOM     60  N   UNL A   1      42.397  29.525  29.820  1.00  0.00    -0.248 NA
ATOM     61  C   UNL A   1      40.626  31.027  30.069  1.00  0.00     0.031 C 
ATOM     62  C   UNL A   1      46.601  30.407  30.940  1.00  0.00     0.029 A 
ATOM     63  C   UNL A   1      45.281  30.156  30.601  1.00  0.00     0.049 A 
ATOM     64  H   UNL A   1      44.415  28.391  29.834  1.00  0.00     0.167 HD
ATOM     65  C   UNL A   1      42.882  30.719  30.337  1.00  0.00     0.074 A 
ATOM     66  C   UNL A   1      41.752  31.619  30.443  1.00  0.00     0.031 C 
ATOM     67  C   UNL A   1      44.149  31.042  30.693  1.00  0.00     0.037 A 
BRANCH  54  68
ATOM     68  C   UNL A   1      48.219  26.460  29.915  1.00  0.00     0.057 A 
ATOM     69  C   UNL A   1      49.173  26.675  28.911  1.00  0.00     0.134 A 
ATOM     70  C   UNL A   1      48.639  25.799  31.075  1.00  0.00     0.134 A 
ATOM     71  F   UNL A   1      48.830  27.291  27.769  1.00  0.00    -0.206 F 
ATOM     72  C   UNL A   1      50.487  26.226  29.045  1.00  0.00     0.040 A 
ATOM     73  C   UNL A   1      49.958  25.368  31.232  1.00  0.00     0.040 A 
ATOM     74  F   UNL A   1      47.779  25.567  32.078  1.00  0.00    -0.206 F 
ATOM     75  C   UNL A   1      50.884  25.574  30.211  1.00  0.00     0.006 A 
ENDBRANCH  54  68
BRANCH  55  76
ATOM     76  C   UNL A   1      38.659  29.144  29.008  1.00  0.00     0.057 A 
ATOM     77  C   UNL A   1      37.815  29.071  30.122  1.00  0.00     0.134 A 
ATOM     78  C   UNL A   1      38.104  29.597  27.805  1.00  0.00     0.134 A 
ATOM     79  F   UNL A   1      38.286  28.627  31.296  1.00  0.00    -0.206 F 
ATOM     80  C   UNL A   1      36.465  29.415  30.039  1.00  0.00     0.040 A 
ATOM     81  C   UNL A   1      36.761  29.965  27.714  1.00  0.00     0.040 A 
ATOM     82  F   UNL A   1      38.863  29.696  26.704  1.00  0.00    -0.206 F 
ATOM     83  C   UNL A   1      35.935  29.869  28.833  1.00  0.00     0.006 A 
ENDBRANCH  55  76
BRANCH  67  84
ATOM     84  C   UNL A   1      44.385  32.433  31.199  1.00  0.00     0.057 A 
ATOM     85  C   UNL A   1      44.674  33.494  30.332  1.00  0.00     0.134 A 
ATOM     86  C   UNL A   1      44.283  32.721  32.566  1.00  0.00     0.134 A 
ATOM     87  F   UNL A   1      44.798  33.279  29.014  1.00  0.00    -0.206 F 
ATOM     88  C   UNL A   1      44.871  34.790  30.810  1.00  0.00     0.040 A 
ATOM     89  C   UNL A   1      44.456  34.016  33.053  1.00  0.00     0.040 A 
ATOM     90  F   UNL A   1      44.003  31.749  33.448  1.00  0.00    -0.206 F 
ATOM     91  C   UNL A   1      44.756  35.055  32.174  1.00  0.00     0.006 A 
ENDBRANCH  67  84
ENDBRANCH  41  42
ENDBRANCH  33  36
ENDBRANCH  31  32
ENDBRANCH  30  31
ENDBRANCH  29  30
ENDBRANCH   1  29
TORSDOF 16
ENDMDL
