MODEL 1
REMARK VINA RESULT:     -12.7      0.000      0.000
REMARK SMILES NS(=O)(=O)c1ccc(-n2nc(C(=O)NCCCC(=O)NCCCCNC(=O)c3ccc(-c4c5nc(c(-c6c(F)cccc6F)c6ccc([nH]6)c(-c6c(F)cccc6F)c6nc(c(-c7c(F)cccc7F)c7ccc4[nH]7)C=C6)C=C5)cc3)cc2-c2ccccc2)cc1
REMARK SMILES IDX 18 1 19 2 20 3 17 5 16 6 15 7 14 8 12 9 13 10 11 12 9 13
REMARK SMILES IDX 10 14 83 15 82 16 8 17 5 18 6 19 91 20 7 21 90 22 2 23 3 24
REMARK SMILES IDX 4 25 1 26 84 29 85 30 89 31 86 32 88 33 87 34 21 35 22 36
REMARK SMILES IDX 23 37 24 38 25 39 26 40 27 42 28 43 29 44 81 45 30 46 80 47
REMARK SMILES IDX 31 48 32 49 33 50 74 51 34 52 79 53 73 54 75 55 35 56 78 57
REMARK SMILES IDX 72 58 71 59 36 61 62 62 45 63 61 64 46 65 49 66 60 67 76 68
REMARK SMILES IDX 47 69 48 70 59 72 77 73 50 74 37 75 38 76 43 77 39 78 40 79
REMARK SMILES IDX 42 80 44 81 41 82 63 83 64 84 69 85 65 86 66 87 68 88 70 89
REMARK SMILES IDX 67 90 51 91 52 92 57 93 53 94 54 95 56 96 58 97 55 98
REMARK H PARENT 20 4 14 11 1 27 1 28 25 41 75 60 49 71
REMARK Flexibility Score: inf
ROOT
ATOM      1  C   UNL A   1      36.837  20.543  25.034  1.00  0.00     0.220 C 
ATOM      2  O   UNL A   1      36.507  19.427  24.627  1.00  0.00    -0.275 OA
ATOM      3  N   UNL A   1      38.150  20.752  25.329  1.00  0.00    -0.356 N 
ATOM      4  H   UNL A   1      38.742  19.996  25.111  1.00  0.00     0.163 HD
ENDROOT
BRANCH   1   5
ATOM      5  C   UNL A   1      35.808  21.646  25.178  1.00  0.00     0.102 C 
BRANCH   5   6
ATOM      6  C   UNL A   1      34.621  21.288  26.074  1.00  0.00     0.031 C 
BRANCH   6   7
ATOM      7  C   UNL A   1      33.293  21.939  25.699  1.00  0.00     0.116 C 
BRANCH   7   8
ATOM      8  N   UNL A   1      32.890  21.697  24.327  1.00  0.00    -0.351 N 
ATOM      9  C   UNL A   1      32.412  22.569  23.371  1.00  0.00     0.271 C 
ATOM     10  O   UNL A   1      32.123  22.082  22.275  1.00  0.00    -0.267 OA
ATOM     11  H   UNL A   1      32.969  20.762  24.032  1.00  0.00     0.163 HD
BRANCH   9  12
ATOM     12  C   UNL A   1      32.249  24.001  23.676  1.00  0.00     0.151 A 
ATOM     13  N   UNL A   1      31.379  25.964  23.621  1.00  0.00    -0.232 N 
ATOM     14  N   UNL A   1      31.198  24.692  23.194  1.00  0.00    -0.162 NA
ATOM     15  C   UNL A   1      32.386  26.040  24.574  1.00  0.00     0.075 A 
ATOM     16  C   UNL A   1      33.057  24.841  24.481  1.00  0.00     0.065 A 
BRANCH  13  17
ATOM     17  C   UNL A   1      30.561  27.027  23.152  1.00  0.00     0.065 A 
ATOM     18  C   UNL A   1      29.066  29.281  22.502  1.00  0.00     0.082 A 
ATOM     19  C   UNL A   1      30.388  29.188  22.068  1.00  0.00     0.024 A 
ATOM     20  C   UNL A   1      28.460  28.221  23.188  1.00  0.00     0.024 A 
ATOM     21  C   UNL A   1      31.134  28.060  22.393  1.00  0.00     0.030 A 
ATOM     22  C   UNL A   1      29.205  27.078  23.499  1.00  0.00     0.030 A 
BRANCH  18  23
ATOM     23  S   UNL A   1      28.156  30.767  22.212  1.00  0.00     0.238 S 
ATOM     24  O   UNL A   1      27.282  30.983  23.354  1.00  0.00    -0.207 OA
ATOM     25  O   UNL A   1      27.687  30.783  20.858  1.00  0.00    -0.207 OA
BRANCH  23  26
ATOM     26  N   UNL A   1      29.323  31.974  22.301  1.00  0.00    -0.225 NA
ATOM     27  H   UNL A   1      29.126  32.581  23.098  1.00  0.00     0.137 HD
ATOM     28  H   UNL A   1      29.309  32.526  21.443  1.00  0.00     0.137 HD
ENDBRANCH  23  26
ENDBRANCH  18  23
ENDBRANCH  13  17
BRANCH  15  29
ATOM     29  C   UNL A   1      32.550  27.103  25.567  1.00  0.00     0.000 A 
ATOM     30  C   UNL A   1      31.640  27.205  26.632  1.00  0.00     0.010 A 
ATOM     31  C   UNL A   1      33.628  27.990  25.505  1.00  0.00     0.010 A 
ATOM     32  C   UNL A   1      31.786  28.197  27.599  1.00  0.00     0.001 A 
ATOM     33  C   UNL A   1      33.776  28.981  26.480  1.00  0.00     0.001 A 
ATOM     34  C   UNL A   1      32.855  29.086  27.522  1.00  0.00     0.000 A 
ENDBRANCH  15  29
ENDBRANCH   9  12
ENDBRANCH   7   8
ENDBRANCH   6   7
ENDBRANCH   5   6
ENDBRANCH   1   5
BRANCH   3  35
ATOM     35  C   UNL A   1      38.825  21.899  25.910  1.00  0.00     0.116 C 
BRANCH  35  36
ATOM     36  C   UNL A   1      40.052  21.471  26.724  1.00  0.00     0.023 C 
BRANCH  36  37
ATOM     37  C   UNL A   1      40.789  20.222  26.227  1.00  0.00     0.023 C 
BRANCH  37  38
ATOM     38  C   UNL A   1      42.137  19.970  26.888  1.00  0.00     0.116 C 
BRANCH  38  39
ATOM     39  N   UNL A   1      43.181  19.591  25.937  1.00  0.00    -0.352 N 
ATOM     40  C   UNL A   1      43.911  20.425  25.112  1.00  0.00     0.251 C 
ATOM     41  H   UNL A   1      43.388  18.630  25.878  1.00  0.00     0.163 HD
ATOM     42  O   UNL A   1      44.474  20.004  24.110  1.00  0.00    -0.269 OA
BRANCH  40  43
ATOM     43  C   UNL A   1      43.984  21.849  25.470  1.00  0.00     0.039 A 
ATOM     44  C   UNL A   1      43.071  22.769  24.952  1.00  0.00     0.014 A 
ATOM     45  C   UNL A   1      44.911  22.217  26.442  1.00  0.00     0.014 A 
ATOM     46  C   UNL A   1      43.020  24.048  25.502  1.00  0.00     0.010 A 
ATOM     47  C   UNL A   1      44.771  23.434  27.066  1.00  0.00     0.010 A 
ATOM     48  C   UNL A   1      43.849  24.371  26.588  1.00  0.00    -0.014 A 
BRANCH  48  49
ATOM     49  C   UNL A   1      43.675  25.638  27.304  1.00  0.00     0.031 A 
ATOM     50  C   UNL A   1      44.616  26.749  26.952  1.00  0.00     0.074 A 
ATOM     51  C   UNL A   1      42.579  25.908  28.045  1.00  0.00     0.049 A 
ATOM     52  N   UNL A   1      45.387  27.427  27.741  1.00  0.00    -0.248 NA
ATOM     53  C   UNL A   1      44.745  27.128  25.535  1.00  0.00     0.031 C 
ATOM     54  C   UNL A   1      41.389  25.071  28.251  1.00  0.00     0.029 A 
ATOM     55  N   UNL A   1      42.236  27.071  28.666  1.00  0.00    -0.354 N 
ATOM     56  C   UNL A   1      45.979  28.423  26.962  1.00  0.00     0.074 A 
ATOM     57  C   UNL A   1      45.641  28.117  25.596  1.00  0.00     0.031 C 
ATOM     58  C   UNL A   1      40.376  25.835  28.709  1.00  0.00     0.029 A 
ATOM     59  C   UNL A   1      40.892  27.158  29.002  1.00  0.00     0.049 A 
ATOM     60  H   UNL A   1      42.884  27.786  28.858  1.00  0.00     0.167 HD
ATOM     61  C   UNL A   1      46.548  29.532  27.515  1.00  0.00     0.037 A 
ATOM     62  C   UNL A   1      40.237  28.251  29.457  1.00  0.00     0.037 A 
ATOM     63  C   UNL A   1      46.814  29.347  28.918  1.00  0.00     0.049 A 
ATOM     64  C   UNL A   1      41.251  29.180  30.008  1.00  0.00     0.074 A 
ATOM     65  C   UNL A   1      47.561  28.454  29.662  1.00  0.00     0.029 A 
ATOM     66  N   UNL A   1      45.993  29.973  29.822  1.00  0.00    -0.354 N 
ATOM     67  N   UNL A   1      41.956  28.942  31.078  1.00  0.00    -0.248 NA
ATOM     68  C   UNL A   1      41.782  30.209  29.127  1.00  0.00     0.031 C 
ATOM     69  C   UNL A   1      46.788  28.224  30.838  1.00  0.00     0.029 A 
ATOM     70  C   UNL A   1      45.652  29.030  30.756  1.00  0.00     0.049 A 
ATOM     71  H   UNL A   1      45.704  30.915  29.803  1.00  0.00     0.167 HD
ATOM     72  C   UNL A   1      43.211  29.459  30.797  1.00  0.00     0.074 A 
ATOM     73  C   UNL A   1      43.010  30.325  29.636  1.00  0.00     0.031 C 
ATOM     74  C   UNL A   1      44.339  28.923  31.347  1.00  0.00     0.037 A 
BRANCH  61  75
ATOM     75  C   UNL A   1      46.572  30.905  26.882  1.00  0.00     0.057 A 
ATOM     76  C   UNL A   1      47.769  31.650  26.881  1.00  0.00     0.134 A 
ATOM     77  C   UNL A   1      45.416  31.639  26.551  1.00  0.00     0.134 A 
ATOM     78  F   UNL A   1      48.939  31.074  27.192  1.00  0.00    -0.206 F 
ATOM     79  C   UNL A   1      47.798  33.032  26.649  1.00  0.00     0.040 A 
ATOM     80  C   UNL A   1      45.440  33.008  26.266  1.00  0.00     0.040 A 
ATOM     81  F   UNL A   1      44.193  31.096  26.583  1.00  0.00    -0.206 F 
ATOM     82  C   UNL A   1      46.628  33.717  26.348  1.00  0.00     0.006 A 
ENDBRANCH  61  75
BRANCH  62  83
ATOM     83  C   UNL A   1      38.833  28.646  29.212  1.00  0.00     0.057 A 
ATOM     84  C   UNL A   1      37.906  28.699  30.261  1.00  0.00     0.134 A 
ATOM     85  C   UNL A   1      38.429  29.236  28.000  1.00  0.00     0.134 A 
ATOM     86  F   UNL A   1      38.212  28.197  31.466  1.00  0.00    -0.206 F 
ATOM     87  C   UNL A   1      36.662  29.328  30.125  1.00  0.00     0.040 A 
ATOM     88  C   UNL A   1      37.186  29.857  27.846  1.00  0.00     0.040 A 
ATOM     89  F   UNL A   1      39.260  29.307  26.950  1.00  0.00    -0.206 F 
ATOM     90  C   UNL A   1      36.304  29.920  28.917  1.00  0.00     0.006 A 
ENDBRANCH  62  83
BRANCH  74  91
ATOM     91  C   UNL A   1      44.184  27.932  32.468  1.00  0.00     0.057 A 
ATOM     92  C   UNL A   1      44.111  26.544  32.284  1.00  0.00     0.134 A 
ATOM     93  C   UNL A   1      44.272  28.388  33.788  1.00  0.00     0.134 A 
ATOM     94  F   UNL A   1      44.130  26.003  31.061  1.00  0.00    -0.206 F 
ATOM     95  C   UNL A   1      44.079  25.654  33.362  1.00  0.00     0.040 A 
ATOM     96  C   UNL A   1      44.276  27.508  34.874  1.00  0.00     0.040 A 
ATOM     97  F   UNL A   1      44.408  29.699  34.043  1.00  0.00    -0.206 F 
ATOM     98  C   UNL A   1      44.169  26.136  34.663  1.00  0.00     0.006 A 
ENDBRANCH  74  91
ENDBRANCH  48  49
ENDBRANCH  40  43
ENDBRANCH  38  39
ENDBRANCH  37  38
ENDBRANCH  36  37
ENDBRANCH  35  36
ENDBRANCH   3  35
TORSDOF 19
ENDMDL
MODEL 2
REMARK VINA RESULT:     -12.1      2.145      2.861
REMARK SMILES NS(=O)(=O)c1ccc(-n2nc(C(=O)NCCCC(=O)NCCCCNC(=O)c3ccc(-c4c5nc(c(-c6c(F)cccc6F)c6ccc([nH]6)c(-c6c(F)cccc6F)c6nc(c(-c7c(F)cccc7F)c7ccc4[nH]7)C=C6)C=C5)cc3)cc2-c2ccccc2)cc1
REMARK SMILES IDX 18 1 19 2 20 3 17 5 16 6 15 7 14 8 12 9 13 10 11 12 9 13
REMARK SMILES IDX 10 14 83 15 82 16 8 17 5 18 6 19 91 20 7 21 90 22 2 23 3 24
REMARK SMILES IDX 4 25 1 26 84 29 85 30 89 31 86 32 88 33 87 34 21 35 22 36
REMARK SMILES IDX 23 37 24 38 25 39 26 40 27 42 28 43 29 44 81 45 30 46 80 47
REMARK SMILES IDX 31 48 32 49 33 50 74 51 34 52 79 53 73 54 75 55 35 56 78 57
REMARK SMILES IDX 72 58 71 59 36 61 62 62 45 63 61 64 46 65 49 66 60 67 76 68
REMARK SMILES IDX 47 69 48 70 59 72 77 73 50 74 37 75 38 76 43 77 39 78 40 79
REMARK SMILES IDX 42 80 44 81 41 82 63 83 64 84 69 85 65 86 66 87 68 88 70 89
REMARK SMILES IDX 67 90 51 91 52 92 57 93 53 94 54 95 56 96 58 97 55 98
REMARK H PARENT 20 4 14 11 1 27 1 28 25 41 75 60 49 71
REMARK Flexibility Score: inf
ROOT
ATOM      1  C   UNL A   1      34.944  21.539  26.100  1.00  0.00     0.220 C 
ATOM      2  O   UNL A   1      34.094  21.223  26.936  1.00  0.00    -0.275 OA
ATOM      3  N   UNL A   1      35.991  22.303  26.514  1.00  0.00    -0.356 N 
ATOM      4  H   UNL A   1      36.015  22.473  27.484  1.00  0.00     0.163 HD
ENDROOT
BRANCH   1   5
ATOM      5  C   UNL A   1      34.825  21.068  24.665  1.00  0.00     0.102 C 
BRANCH   5   6
ATOM      6  C   UNL A   1      34.167  22.079  23.722  1.00  0.00     0.031 C 
BRANCH   6   7
ATOM      7  C   UNL A   1      32.729  21.766  23.323  1.00  0.00     0.116 C 
BRANCH   7   8
ATOM      8  N   UNL A   1      31.858  21.481  24.447  1.00  0.00    -0.351 N 
ATOM      9  C   UNL A   1      31.218  22.337  25.320  1.00  0.00     0.271 C 
ATOM     10  O   UNL A   1      30.544  21.814  26.210  1.00  0.00    -0.267 OA
ATOM     11  H   UNL A   1      31.698  20.524  24.614  1.00  0.00     0.163 HD
BRANCH   9  12
ATOM     12  C   UNL A   1      31.365  23.797  25.181  1.00  0.00     0.151 A 
ATOM     13  N   UNL A   1      30.888  25.797  24.564  1.00  0.00    -0.232 N 
ATOM     14  N   UNL A   1      30.424  24.526  24.550  1.00  0.00    -0.162 NA
ATOM     15  C   UNL A   1      31.979  25.930  25.412  1.00  0.00     0.075 A 
ATOM     16  C   UNL A   1      32.394  24.641  25.664  1.00  0.00     0.065 A 
BRANCH  13  17
ATOM     17  C   UNL A   1      30.248  26.828  23.824  1.00  0.00     0.065 A 
ATOM     18  C   UNL A   1      29.038  29.039  22.647  1.00  0.00     0.082 A 
ATOM     19  C   UNL A   1      30.422  28.891  22.564  1.00  0.00     0.024 A 
ATOM     20  C   UNL A   1      28.245  28.050  23.242  1.00  0.00     0.024 A 
ATOM     21  C   UNL A   1      31.026  27.785  23.153  1.00  0.00     0.030 A 
ATOM     22  C   UNL A   1      28.850  26.926  23.817  1.00  0.00     0.030 A 
BRANCH  18  23
ATOM     23  S   UNL A   1      28.279  30.508  22.023  1.00  0.00     0.238 S 
ATOM     24  O   UNL A   1      27.308  30.958  23.007  1.00  0.00    -0.207 OA
ATOM     25  O   UNL A   1      27.959  30.328  20.638  1.00  0.00    -0.207 OA
BRANCH  23  26
ATOM     26  N   UNL A   1      29.518  31.643  22.059  1.00  0.00    -0.225 NA
ATOM     27  H   UNL A   1      29.256  32.451  21.493  1.00  0.00     0.137 HD
ATOM     28  H   UNL A   1      30.371  31.228  21.683  1.00  0.00     0.137 HD
ENDBRANCH  23  26
ENDBRANCH  18  23
ENDBRANCH  13  17
BRANCH  15  29
ATOM     29  C   UNL A   1      32.442  27.174  26.028  1.00  0.00     0.000 A 
ATOM     30  C   UNL A   1      31.544  27.957  26.773  1.00  0.00     0.010 A 
ATOM     31  C   UNL A   1      33.777  27.575  25.934  1.00  0.00     0.010 A 
ATOM     32  C   UNL A   1      31.966  29.135  27.385  1.00  0.00     0.001 A 
ATOM     33  C   UNL A   1      34.199  28.755  26.553  1.00  0.00     0.001 A 
ATOM     34  C   UNL A   1      33.294  29.534  27.273  1.00  0.00     0.000 A 
ENDBRANCH  15  29
ENDBRANCH   9  12
ENDBRANCH   7   8
ENDBRANCH   6   7
ENDBRANCH   5   6
ENDBRANCH   1   5
BRANCH   3  35
ATOM     35  C   UNL A   1      37.079  22.911  25.769  1.00  0.00     0.116 C 
BRANCH  35  36
ATOM     36  C   UNL A   1      38.181  21.890  25.458  1.00  0.00     0.023 C 
BRANCH  36  37
ATOM     37  C   UNL A   1      39.290  21.754  26.506  1.00  0.00     0.023 C 
BRANCH  37  38
ATOM     38  C   UNL A   1      40.317  22.878  26.501  1.00  0.00     0.116 C 
BRANCH  38  39
ATOM     39  N   UNL A   1      41.558  22.518  25.815  1.00  0.00    -0.352 N 
ATOM     40  C   UNL A   1      42.553  23.369  25.376  1.00  0.00     0.251 C 
ATOM     41  H   UNL A   1      41.701  21.558  25.649  1.00  0.00     0.163 HD
ATOM     42  O   UNL A   1      43.346  23.033  24.505  1.00  0.00    -0.269 OA
BRANCH  40  43
ATOM     43  C   UNL A   1      42.627  24.707  25.980  1.00  0.00     0.039 A 
ATOM     44  C   UNL A   1      41.885  25.771  25.466  1.00  0.00     0.014 A 
ATOM     45  C   UNL A   1      43.360  24.837  27.157  1.00  0.00     0.014 A 
ATOM     46  C   UNL A   1      41.792  26.947  26.209  1.00  0.00     0.010 A 
ATOM     47  C   UNL A   1      43.162  25.946  27.944  1.00  0.00     0.010 A 
ATOM     48  C   UNL A   1      42.404  27.021  27.470  1.00  0.00    -0.014 A 
BRANCH  48  49
ATOM     49  C   UNL A   1      42.156  28.169  28.348  1.00  0.00     0.031 A 
ATOM     50  C   UNL A   1      43.129  29.306  28.266  1.00  0.00     0.074 A 
ATOM     51  C   UNL A   1      40.989  28.341  29.006  1.00  0.00     0.049 A 
ATOM     52  N   UNL A   1      43.814  29.844  29.223  1.00  0.00    -0.248 NA
ATOM     53  C   UNL A   1      43.404  29.891  26.943  1.00  0.00     0.031 C 
ATOM     54  C   UNL A   1      39.785  27.502  28.960  1.00  0.00     0.029 A 
ATOM     55  N   UNL A   1      40.585  29.403  29.757  1.00  0.00    -0.354 N 
ATOM     56  C   UNL A   1      44.483  30.937  28.669  1.00  0.00     0.074 A 
ATOM     57  C   UNL A   1      44.289  30.846  27.244  1.00  0.00     0.031 C 
ATOM     58  C   UNL A   1      38.730  28.204  29.422  1.00  0.00     0.029 A 
ATOM     59  C   UNL A   1      39.213  29.460  29.963  1.00  0.00     0.049 A 
ATOM     60  H   UNL A   1      41.209  30.071  30.121  1.00  0.00     0.167 HD
ATOM     61  C   UNL A   1      44.993  31.942  29.438  1.00  0.00     0.037 A 
ATOM     62  C   UNL A   1      38.514  30.482  30.509  1.00  0.00     0.037 A 
ATOM     63  C   UNL A   1      45.112  31.543  30.817  1.00  0.00     0.049 A 
ATOM     64  C   UNL A   1      39.467  31.302  31.294  1.00  0.00     0.074 A 
ATOM     65  C   UNL A   1      45.778  30.537  31.489  1.00  0.00     0.029 A 
ATOM     66  N   UNL A   1      44.202  32.039  31.717  1.00  0.00    -0.354 N 
ATOM     67  N   UNL A   1      40.057  30.894  32.383  1.00  0.00    -0.248 NA
ATOM     68  C   UNL A   1      40.086  32.443  30.638  1.00  0.00     0.031 C 
ATOM     69  C   UNL A   1      44.887  30.145  32.532  1.00  0.00     0.029 A 
ATOM     70  C   UNL A   1      43.766  30.972  32.457  1.00  0.00     0.049 A 
ATOM     71  H   UNL A   1      43.917  32.977  31.811  1.00  0.00     0.167 HD
ATOM     72  C   UNL A   1      41.334  31.428  32.313  1.00  0.00     0.074 A 
ATOM     73  C   UNL A   1      41.255  32.462  31.282  1.00  0.00     0.031 C 
ATOM     74  C   UNL A   1      42.400  30.797  32.888  1.00  0.00     0.037 A 
BRANCH  61  75
ATOM     75  C   UNL A   1      45.082  33.393  29.026  1.00  0.00     0.057 A 
ATOM     76  C   UNL A   1      43.907  34.094  28.687  1.00  0.00     0.134 A 
ATOM     77  C   UNL A   1      46.282  34.035  28.661  1.00  0.00     0.134 A 
ATOM     78  F   UNL A   1      42.697  33.588  28.968  1.00  0.00    -0.206 F 
ATOM     79  C   UNL A   1      43.926  35.297  27.969  1.00  0.00     0.040 A 
ATOM     80  C   UNL A   1      46.314  35.261  27.989  1.00  0.00     0.040 A 
ATOM     81  F   UNL A   1      47.480  33.465  28.842  1.00  0.00    -0.206 F 
ATOM     82  C   UNL A   1      45.134  35.880  27.610  1.00  0.00     0.006 A 
ENDBRANCH  61  75
BRANCH  62  83
ATOM     83  C   UNL A   1      37.143  30.932  30.185  1.00  0.00     0.057 A 
ATOM     84  C   UNL A   1      36.257  31.327  31.195  1.00  0.00     0.134 A 
ATOM     85  C   UNL A   1      36.756  31.238  28.867  1.00  0.00     0.134 A 
ATOM     86  F   UNL A   1      36.554  31.112  32.484  1.00  0.00    -0.206 F 
ATOM     87  C   UNL A   1      35.068  32.014  30.916  1.00  0.00     0.040 A 
ATOM     88  C   UNL A   1      35.567  31.913  28.573  1.00  0.00     0.040 A 
ATOM     89  F   UNL A   1      37.557  30.971  27.825  1.00  0.00    -0.206 F 
ATOM     90  C   UNL A   1      34.727  32.320  29.602  1.00  0.00     0.006 A 
ENDBRANCH  62  83
BRANCH  74  91
ATOM     91  C   UNL A   1      42.129  29.652  33.825  1.00  0.00     0.057 A 
ATOM     92  C   UNL A   1      42.034  28.313  33.419  1.00  0.00     0.134 A 
ATOM     93  C   UNL A   1      42.124  29.894  35.202  1.00  0.00     0.134 A 
ATOM     94  F   UNL A   1      42.135  27.967  32.131  1.00  0.00    -0.206 F 
ATOM     95  C   UNL A   1      41.892  27.269  34.339  1.00  0.00     0.040 A 
ATOM     96  C   UNL A   1      42.018  28.858  36.133  1.00  0.00     0.040 A 
ATOM     97  F   UNL A   1      42.274  31.144  35.670  1.00  0.00    -0.206 F 
ATOM     98  C   UNL A   1      41.891  27.540  35.702  1.00  0.00     0.006 A 
ENDBRANCH  74  91
ENDBRANCH  48  49
ENDBRANCH  40  43
ENDBRANCH  38  39
ENDBRANCH  37  38
ENDBRANCH  36  37
ENDBRANCH  35  36
ENDBRANCH   3  35
TORSDOF 19
ENDMDL
MODEL 3
REMARK VINA RESULT:     -11.5      2.794      3.863
REMARK SMILES NS(=O)(=O)c1ccc(-n2nc(C(=O)NCCCC(=O)NCCCCNC(=O)c3ccc(-c4c5nc(c(-c6c(F)cccc6F)c6ccc([nH]6)c(-c6c(F)cccc6F)c6nc(c(-c7c(F)cccc7F)c7ccc4[nH]7)C=C6)C=C5)cc3)cc2-c2ccccc2)cc1
REMARK SMILES IDX 18 1 19 2 20 3 17 5 16 6 15 7 14 8 12 9 13 10 11 12 9 13
REMARK SMILES IDX 10 14 83 15 82 16 8 17 5 18 6 19 91 20 7 21 90 22 2 23 3 24
REMARK SMILES IDX 4 25 1 26 84 29 85 30 89 31 86 32 88 33 87 34 21 35 22 36
REMARK SMILES IDX 23 37 24 38 25 39 26 40 27 42 28 43 29 44 81 45 30 46 80 47
REMARK SMILES IDX 31 48 32 49 33 50 74 51 34 52 79 53 73 54 75 55 35 56 78 57
REMARK SMILES IDX 72 58 71 59 36 61 62 62 45 63 61 64 46 65 49 66 60 67 76 68
REMARK SMILES IDX 47 69 48 70 59 72 77 73 50 74 37 75 38 76 43 77 39 78 40 79
REMARK SMILES IDX 42 80 44 81 41 82 63 83 64 84 69 85 65 86 66 87 68 88 70 89
REMARK SMILES IDX 67 90 51 91 52 92 57 93 53 94 54 95 56 96 58 97 55 98
REMARK H PARENT 20 4 14 11 1 27 1 28 25 41 75 60 49 71
REMARK Flexibility Score: inf
ROOT
ATOM      1  C   UNL A   1      35.139  21.976  26.123  1.00  0.00     0.220 C 
ATOM      2  O   UNL A   1      34.275  21.617  26.926  1.00  0.00    -0.275 OA
ATOM      3  N   UNL A   1      36.074  22.868  26.549  1.00  0.00    -0.356 N 
ATOM      4  H   UNL A   1      36.018  23.092  27.506  1.00  0.00     0.163 HD
ENDROOT
BRANCH   1   5
ATOM      5  C   UNL A   1      35.161  21.418  24.714  1.00  0.00     0.102 C 
BRANCH   5   6
ATOM      6  C   UNL A   1      34.531  22.335  23.663  1.00  0.00     0.031 C 
BRANCH   6   7
ATOM      7  C   UNL A   1      33.131  21.942  23.203  1.00  0.00     0.116 C 
BRANCH   7   8
ATOM      8  N   UNL A   1      32.240  21.574  24.286  1.00  0.00    -0.351 N 
ATOM      9  C   UNL A   1      31.524  22.364  25.161  1.00  0.00     0.271 C 
ATOM     10  O   UNL A   1      30.851  21.777  26.011  1.00  0.00    -0.267 OA
ATOM     11  H   UNL A   1      32.127  20.605  24.416  1.00  0.00     0.163 HD
BRANCH   9  12
ATOM     12  C   UNL A   1      31.595  23.834  25.074  1.00  0.00     0.151 A 
ATOM     13  N   UNL A   1      31.026  25.825  24.508  1.00  0.00    -0.232 N 
ATOM     14  N   UNL A   1      30.632  24.533  24.441  1.00  0.00    -0.162 NA
ATOM     15  C   UNL A   1      32.086  25.988  25.389  1.00  0.00     0.075 A 
ATOM     16  C   UNL A   1      32.564  24.715  25.611  1.00  0.00     0.065 A 
BRANCH  13  17
ATOM     17  C   UNL A   1      30.350  26.845  23.784  1.00  0.00     0.065 A 
ATOM     18  C   UNL A   1      29.075  29.035  22.637  1.00  0.00     0.082 A 
ATOM     19  C   UNL A   1      30.458  28.905  22.513  1.00  0.00     0.024 A 
ATOM     20  C   UNL A   1      28.314  28.037  23.259  1.00  0.00     0.024 A 
ATOM     21  C   UNL A   1      31.094  27.809  23.086  1.00  0.00     0.030 A 
ATOM     22  C   UNL A   1      28.952  26.925  23.820  1.00  0.00     0.030 A 
BRANCH  18  23
ATOM     23  S   UNL A   1      28.278  30.491  22.032  1.00  0.00     0.238 S 
ATOM     24  O   UNL A   1      27.310  30.915  23.030  1.00  0.00    -0.207 OA
ATOM     25  O   UNL A   1      27.944  30.313  20.649  1.00  0.00    -0.207 OA
BRANCH  23  26
ATOM     26  N   UNL A   1      29.494  31.652  22.058  1.00  0.00    -0.225 NA
ATOM     27  H   UNL A   1      29.251  32.384  22.726  1.00  0.00     0.137 HD
ATOM     28  H   UNL A   1      29.595  32.060  21.129  1.00  0.00     0.137 HD
ENDBRANCH  23  26
ENDBRANCH  18  23
ENDBRANCH  13  17
BRANCH  15  29
ATOM     29  C   UNL A   1      32.464  27.234  26.058  1.00  0.00     0.000 A 
ATOM     30  C   UNL A   1      33.778  27.716  25.940  1.00  0.00     0.010 A 
ATOM     31  C   UNL A   1      31.526  27.984  26.773  1.00  0.00     0.010 A 
ATOM     32  C   UNL A   1      34.156  28.909  26.552  1.00  0.00     0.001 A 
ATOM     33  C   UNL A   1      31.906  29.183  27.383  1.00  0.00     0.001 A 
ATOM     34  C   UNL A   1      33.219  29.642  27.274  1.00  0.00     0.000 A 
ENDBRANCH  15  29
ENDBRANCH   9  12
ENDBRANCH   7   8
ENDBRANCH   6   7
ENDBRANCH   5   6
ENDBRANCH   1   5
BRANCH   3  35
ATOM     35  C   UNL A   1      37.139  23.547  25.833  1.00  0.00     0.116 C 
BRANCH  35  36
ATOM     36  C   UNL A   1      38.473  22.805  25.981  1.00  0.00     0.023 C 
BRANCH  36  37
ATOM     37  C   UNL A   1      39.433  23.349  27.046  1.00  0.00     0.023 C 
BRANCH  37  38
ATOM     38  C   UNL A   1      40.317  24.498  26.581  1.00  0.00     0.116 C 
BRANCH  38  39
ATOM     39  N   UNL A   1      41.564  24.049  25.963  1.00  0.00    -0.352 N 
ATOM     40  C   UNL A   1      42.642  24.824  25.584  1.00  0.00     0.251 C 
ATOM     41  H   UNL A   1      41.644  23.081  25.799  1.00  0.00     0.163 HD
ATOM     42  O   UNL A   1      43.455  24.433  24.757  1.00  0.00    -0.269 OA
BRANCH  40  43
ATOM     43  C   UNL A   1      42.781  26.152  26.200  1.00  0.00     0.039 A 
ATOM     44  C   UNL A   1      42.221  27.284  25.606  1.00  0.00     0.014 A 
ATOM     45  C   UNL A   1      43.376  26.214  27.457  1.00  0.00     0.014 A 
ATOM     46  C   UNL A   1      42.162  28.468  26.338  1.00  0.00     0.010 A 
ATOM     47  C   UNL A   1      43.201  27.344  28.221  1.00  0.00     0.010 A 
ATOM     48  C   UNL A   1      42.621  28.488  27.664  1.00  0.00    -0.014 A 
BRANCH  48  49
ATOM     49  C   UNL A   1      42.390  29.662  28.512  1.00  0.00     0.031 A 
ATOM     50  C   UNL A   1      43.378  30.783  28.400  1.00  0.00     0.074 A 
ATOM     51  C   UNL A   1      41.226  29.867  29.166  1.00  0.00     0.049 A 
ATOM     52  N   UNL A   1      44.072  31.337  29.341  1.00  0.00    -0.248 NA
ATOM     53  C   UNL A   1      43.659  31.330  27.062  1.00  0.00     0.031 C 
ATOM     54  C   UNL A   1      40.011  29.043  29.143  1.00  0.00     0.029 A 
ATOM     55  N   UNL A   1      40.837  30.953  29.889  1.00  0.00    -0.354 N 
ATOM     56  C   UNL A   1      44.755  32.405  28.758  1.00  0.00     0.074 A 
ATOM     57  C   UNL A   1      44.557  32.280  27.337  1.00  0.00     0.031 C 
ATOM     58  C   UNL A   1      38.965  29.771  29.587  1.00  0.00     0.029 A 
ATOM     59  C   UNL A   1      39.467  31.034  30.095  1.00  0.00     0.049 A 
ATOM     60  H   UNL A   1      41.470  31.622  30.235  1.00  0.00     0.167 HD
ATOM     61  C   UNL A   1      45.278  33.423  29.501  1.00  0.00     0.037 A 
ATOM     62  C   UNL A   1      38.782  32.079  30.614  1.00  0.00     0.037 A 
ATOM     63  C   UNL A   1      45.394  33.060  30.889  1.00  0.00     0.049 A 
ATOM     64  C   UNL A   1      39.746  32.907  31.377  1.00  0.00     0.074 A 
ATOM     65  C   UNL A   1      46.047  32.062  31.587  1.00  0.00     0.029 A 
ATOM     66  N   UNL A   1      44.491  33.591  31.776  1.00  0.00    -0.354 N 
ATOM     67  N   UNL A   1      40.332  32.520  32.475  1.00  0.00    -0.248 NA
ATOM     68  C   UNL A   1      40.380  34.021  30.691  1.00  0.00     0.031 C 
ATOM     69  C   UNL A   1      45.152  31.710  32.641  1.00  0.00     0.029 A 
ATOM     70  C   UNL A   1      44.042  32.549  32.545  1.00  0.00     0.049 A 
ATOM     71  H   UNL A   1      44.219  34.535  31.846  1.00  0.00     0.167 HD
ATOM     72  C   UNL A   1      41.616  33.035  32.390  1.00  0.00     0.074 A 
ATOM     73  C   UNL A   1      41.550  34.042  31.333  1.00  0.00     0.031 C 
ATOM     74  C   UNL A   1      42.674  32.405  32.981  1.00  0.00     0.037 A 
BRANCH  61  75
ATOM     75  C   UNL A   1      45.387  34.862  29.050  1.00  0.00     0.057 A 
ATOM     76  C   UNL A   1      46.608  35.549  29.203  1.00  0.00     0.134 A 
ATOM     77  C   UNL A   1      44.277  35.681  28.759  1.00  0.00     0.134 A 
ATOM     78  F   UNL A   1      47.738  34.889  29.494  1.00  0.00    -0.206 F 
ATOM     79  C   UNL A   1      46.700  36.946  29.151  1.00  0.00     0.040 A 
ATOM     80  C   UNL A   1      44.368  37.072  28.653  1.00  0.00     0.040 A 
ATOM     81  F   UNL A   1      43.036  35.191  28.662  1.00  0.00    -0.206 F 
ATOM     82  C   UNL A   1      45.574  37.714  28.884  1.00  0.00     0.006 A 
ENDBRANCH  61  75
BRANCH  62  83
ATOM     83  C   UNL A   1      37.417  32.539  30.279  1.00  0.00     0.057 A 
ATOM     84  C   UNL A   1      37.173  33.286  29.120  1.00  0.00     0.134 A 
ATOM     85  C   UNL A   1      36.282  32.036  30.942  1.00  0.00     0.134 A 
ATOM     86  F   UNL A   1      38.191  33.777  28.399  1.00  0.00    -0.206 F 
ATOM     87  C   UNL A   1      35.877  33.496  28.628  1.00  0.00     0.040 A 
ATOM     88  C   UNL A   1      34.983  32.247  30.468  1.00  0.00     0.040 A 
ATOM     89  F   UNL A   1      36.397  31.248  32.021  1.00  0.00    -0.206 F 
ATOM     90  C   UNL A   1      34.778  32.965  29.297  1.00  0.00     0.006 A 
ENDBRANCH  62  83
BRANCH  74  91
ATOM     91  C   UNL A   1      42.389  31.288  33.948  1.00  0.00     0.057 A 
ATOM     92  C   UNL A   1      42.096  31.481  35.306  1.00  0.00     0.134 A 
ATOM     93  C   UNL A   1      42.246  29.988  33.452  1.00  0.00     0.134 A 
ATOM     94  F   UNL A   1      42.099  32.703  35.851  1.00  0.00    -0.206 F 
ATOM     95  C   UNL A   1      41.727  30.423  36.142  1.00  0.00     0.040 A 
ATOM     96  C   UNL A   1      41.845  28.927  34.269  1.00  0.00     0.040 A 
ATOM     97  F   UNL A   1      42.448  29.734  32.149  1.00  0.00    -0.206 F 
ATOM     98  C   UNL A   1      41.594  29.141  35.621  1.00  0.00     0.006 A 
ENDBRANCH  74  91
ENDBRANCH  48  49
ENDBRANCH  40  43
ENDBRANCH  38  39
ENDBRANCH  37  38
ENDBRANCH  36  37
ENDBRANCH  35  36
ENDBRANCH   3  35
TORSDOF 19
ENDMDL
