MODEL 1
REMARK VINA RESULT:     -11.5      0.000      0.000
REMARK SMILES C[NH2+][C@]1(C(=O)NCCCCNC(=O)c2ccc(-c3c4nc(c(-c5c(F)cccc5F)c5ccc([nH]5)c(-c5c(F)cccc5F)c5nc(c(-c6c(F)cccc6F)c6ccc3[nH]6)C=C5)C=C4)cc2)CCC[C@@H](Sc2nncs2)C1
REMARK SMILES IDX 8 1 7 2 6 3 4 4 5 5 3 7 68 8 78 9 69 10 71 11 70 12 2 13
REMARK SMILES IDX 1 14 72 17 73 18 74 19 77 20 75 21 76 22 9 23 10 24 11 25
REMARK SMILES IDX 12 26 13 28 14 29 15 30 67 31 16 32 66 33 17 34 18 35 19 36
REMARK SMILES IDX 60 37 20 38 65 39 59 40 61 41 21 42 64 43 58 44 57 45 22 47
REMARK SMILES IDX 48 48 31 49 47 50 32 51 35 52 46 53 62 54 33 55 34 56 45 58
REMARK SMILES IDX 63 59 36 60 23 61 24 62 29 63 25 64 26 65 28 66 30 67 27 68
REMARK SMILES IDX 49 69 50 70 55 71 51 72 52 73 54 74 56 75 53 76 37 77 38 78
REMARK SMILES IDX 43 79 39 80 40 81 42 82 44 83 41 84
REMARK H PARENT 6 6 2 15 2 16 11 27 61 46 35 57
REMARK Flexibility Score: inf
ROOT
ATOM      1  C   UNL A   1      31.073  31.294  25.739  1.00  0.00     0.023 C 
ENDROOT
BRANCH   1   2
ATOM      2  C   UNL A   1      31.526  29.849  25.575  1.00  0.00     0.116 C 
BRANCH   2   3
ATOM      3  N   UNL A   1      32.637  29.703  24.653  1.00  0.00    -0.351 N 
ATOM      4  C   UNL A   1      32.792  28.928  23.536  1.00  0.00     0.281 C 
ATOM      5  O   UNL A   1      33.863  29.093  22.945  1.00  0.00    -0.268 OA
ATOM      6  H   UNL A   1      33.418  30.261  24.869  1.00  0.00     0.163 HD
BRANCH   4   7
ATOM      7  C   UNL A   1      31.691  27.887  23.095  1.00  0.00     0.176 C 
ATOM      8  C   UNL A   1      31.712  26.762  24.168  1.00  0.00     0.079 C 
ATOM      9  C   UNL A   1      30.299  28.568  22.914  1.00  0.00     0.094 C 
ATOM     10  C   UNL A   1      30.495  25.849  24.148  1.00  0.00     0.008 C 
ATOM     11  C   UNL A   1      29.080  27.651  23.125  1.00  0.00     0.061 C 
ATOM     12  C   UNL A   1      29.219  26.665  24.286  1.00  0.00     0.015 C 
BRANCH   7  13
ATOM     13  N   UNL A   1      32.024  27.164  21.823  1.00  0.00    -0.336 N 
ATOM     14  C   UNL A   1      33.060  26.143  21.909  1.00  0.00     0.331 C 
ATOM     15  H   UNL A   1      31.172  26.714  21.489  1.00  0.00     0.346 HD
ATOM     16  H   UNL A   1      32.399  27.877  21.197  1.00  0.00     0.346 HD
ENDBRANCH   7  13
BRANCH  11  17
ATOM     17  S   UNL A   1      27.497  28.585  23.222  1.00  0.00    -0.090 SA
BRANCH  17  18
ATOM     18  C   UNL A   1      27.882  30.109  22.453  1.00  0.00     0.174 A 
ATOM     19  N   UNL A   1      28.033  30.227  21.153  1.00  0.00    -0.132 NA
ATOM     20  S   UNL A   1      28.080  31.579  23.316  1.00  0.00    -0.094 S 
ATOM     21  N   UNL A   1      28.360  31.514  20.770  1.00  0.00    -0.146 NA
ATOM     22  C   UNL A   1      28.403  32.327  21.804  1.00  0.00     0.203 A 
ENDBRANCH  17  18
ENDBRANCH  11  17
ENDBRANCH   4   7
ENDBRANCH   2   3
ENDBRANCH   1   2
BRANCH   1  23
ATOM     23  C   UNL A   1      31.403  31.915  27.092  1.00  0.00     0.023 C 
BRANCH  23  24
ATOM     24  C   UNL A   1      32.673  32.758  27.122  1.00  0.00     0.116 C 
BRANCH  24  25
ATOM     25  N   UNL A   1      32.435  34.135  27.527  1.00  0.00    -0.352 N 
ATOM     26  C   UNL A   1      33.029  34.859  28.537  1.00  0.00     0.251 C 
ATOM     27  H   UNL A   1      31.753  34.616  27.008  1.00  0.00     0.163 HD
ATOM     28  O   UNL A   1      32.591  35.955  28.862  1.00  0.00    -0.269 OA
BRANCH  26  29
ATOM     29  C   UNL A   1      34.193  34.287  29.254  1.00  0.00     0.039 A 
ATOM     30  C   UNL A   1      33.978  33.554  30.423  1.00  0.00     0.014 A 
ATOM     31  C   UNL A   1      35.489  34.456  28.759  1.00  0.00     0.014 A 
ATOM     32  C   UNL A   1      35.056  32.920  31.048  1.00  0.00     0.010 A 
ATOM     33  C   UNL A   1      36.545  33.752  29.331  1.00  0.00     0.010 A 
ATOM     34  C   UNL A   1      36.341  32.976  30.482  1.00  0.00    -0.014 A 
BRANCH  34  35
ATOM     35  C   UNL A   1      37.481  32.225  31.072  1.00  0.00     0.031 A 
ATOM     36  C   UNL A   1      38.026  32.611  32.421  1.00  0.00     0.074 A 
ATOM     37  C   UNL A   1      38.071  31.240  30.366  1.00  0.00     0.049 A 
ATOM     38  N   UNL A   1      39.054  32.124  33.068  1.00  0.00    -0.248 NA
ATOM     39  C   UNL A   1      37.340  33.708  33.123  1.00  0.00     0.031 C 
ATOM     40  C   UNL A   1      37.674  30.799  29.028  1.00  0.00     0.029 A 
ATOM     41  N   UNL A   1      39.140  30.435  30.675  1.00  0.00    -0.354 N 
ATOM     42  C   UNL A   1      39.146  32.862  34.242  1.00  0.00     0.074 A 
ATOM     43  C   UNL A   1      38.107  33.867  34.191  1.00  0.00     0.031 C 
ATOM     44  C   UNL A   1      38.469  29.789  28.642  1.00  0.00     0.029 A 
ATOM     45  C   UNL A   1      39.458  29.536  29.685  1.00  0.00     0.049 A 
ATOM     46  H   UNL A   1      39.632  30.495  31.525  1.00  0.00     0.167 HD
ATOM     47  C   UNL A   1      40.002  32.702  35.279  1.00  0.00     0.037 A 
ATOM     48  C   UNL A   1      40.441  28.617  29.620  1.00  0.00     0.037 A 
ATOM     49  C   UNL A   1      41.022  31.689  35.339  1.00  0.00     0.049 A 
ATOM     50  C   UNL A   1      41.388  28.470  30.780  1.00  0.00     0.074 A 
ATOM     51  C   UNL A   1      41.901  31.410  36.371  1.00  0.00     0.029 A 
ATOM     52  N   UNL A   1      41.304  30.790  34.320  1.00  0.00    -0.354 N 
ATOM     53  N   UNL A   1      41.417  29.128  31.913  1.00  0.00    -0.248 NA
ATOM     54  C   UNL A   1      42.436  27.447  30.652  1.00  0.00     0.031 C 
ATOM     55  C   UNL A   1      42.746  30.376  35.959  1.00  0.00     0.029 A 
ATOM     56  C   UNL A   1      42.358  29.972  34.692  1.00  0.00     0.049 A 
ATOM     57  H   UNL A   1      40.826  30.741  33.461  1.00  0.00     0.167 HD
ATOM     58  C   UNL A   1      42.464  28.580  32.644  1.00  0.00     0.074 A 
ATOM     59  C   UNL A   1      43.034  27.525  31.832  1.00  0.00     0.031 C 
ATOM     60  C   UNL A   1      42.911  28.919  33.878  1.00  0.00     0.037 A 
BRANCH  47  61
ATOM     61  C   UNL A   1      39.865  33.644  36.440  1.00  0.00     0.057 A 
ATOM     62  C   UNL A   1      39.032  33.359  37.530  1.00  0.00     0.134 A 
ATOM     63  C   UNL A   1      40.601  34.836  36.486  1.00  0.00     0.134 A 
ATOM     64  F   UNL A   1      38.291  32.241  37.545  1.00  0.00    -0.206 F 
ATOM     65  C   UNL A   1      38.914  34.236  38.611  1.00  0.00     0.040 A 
ATOM     66  C   UNL A   1      40.515  35.706  37.574  1.00  0.00     0.040 A 
ATOM     67  F   UNL A   1      41.424  35.169  35.481  1.00  0.00    -0.206 F 
ATOM     68  C   UNL A   1      39.664  35.410  38.638  1.00  0.00     0.006 A 
ENDBRANCH  47  61
BRANCH  48  69
ATOM     69  C   UNL A   1      40.569  27.745  28.425  1.00  0.00     0.057 A 
ATOM     70  C   UNL A   1      41.317  28.149  27.314  1.00  0.00     0.134 A 
ATOM     71  C   UNL A   1      39.936  26.498  28.355  1.00  0.00     0.134 A 
ATOM     72  F   UNL A   1      41.930  29.342  27.311  1.00  0.00    -0.206 F 
ATOM     73  C   UNL A   1      41.415  27.357  26.168  1.00  0.00     0.040 A 
ATOM     74  C   UNL A   1      40.047  25.683  27.227  1.00  0.00     0.040 A 
ATOM     75  F   UNL A   1      39.210  26.048  29.389  1.00  0.00    -0.206 F 
ATOM     76  C   UNL A   1      40.782  26.117  26.126  1.00  0.00     0.006 A 
ENDBRANCH  48  69
BRANCH  60  77
ATOM     77  C   UNL A   1      44.046  28.117  34.445  1.00  0.00     0.057 A 
ATOM     78  C   UNL A   1      43.836  26.916  35.133  1.00  0.00     0.134 A 
ATOM     79  C   UNL A   1      45.371  28.535  34.264  1.00  0.00     0.134 A 
ATOM     80  F   UNL A   1      42.591  26.466  35.352  1.00  0.00    -0.206 F 
ATOM     81  C   UNL A   1      44.902  26.170  35.641  1.00  0.00     0.040 A 
ATOM     82  C   UNL A   1      46.445  27.784  34.743  1.00  0.00     0.040 A 
ATOM     83  F   UNL A   1      45.645  29.672  33.606  1.00  0.00    -0.206 F 
ATOM     84  C   UNL A   1      46.212  26.600  35.439  1.00  0.00     0.006 A 
ENDBRANCH  60  77
ENDBRANCH  34  35
ENDBRANCH  26  29
ENDBRANCH  24  25
ENDBRANCH  23  24
ENDBRANCH   1  23
TORSDOF 14
ENDMDL
MODEL 2
REMARK VINA RESULT:     -11.4      4.825      9.483
REMARK SMILES C[NH2+][C@]1(C(=O)NCCCCNC(=O)c2ccc(-c3c4nc(c(-c5c(F)cccc5F)c5ccc([nH]5)c(-c5c(F)cccc5F)c5nc(c(-c6c(F)cccc6F)c6ccc3[nH]6)C=C5)C=C4)cc2)CCC[C@@H](Sc2nncs2)C1
REMARK SMILES IDX 8 1 7 2 6 3 4 4 5 5 3 7 68 8 78 9 69 10 71 11 70 12 2 13
REMARK SMILES IDX 1 14 72 17 73 18 74 19 77 20 75 21 76 22 9 23 10 24 11 25
REMARK SMILES IDX 12 26 13 28 14 29 15 30 67 31 16 32 66 33 17 34 18 35 19 36
REMARK SMILES IDX 60 37 20 38 65 39 59 40 61 41 21 42 64 43 58 44 57 45 22 47
REMARK SMILES IDX 48 48 31 49 47 50 32 51 35 52 46 53 62 54 33 55 34 56 45 58
REMARK SMILES IDX 63 59 36 60 23 61 24 62 29 63 25 64 26 65 28 66 30 67 27 68
REMARK SMILES IDX 49 69 50 70 55 71 51 72 52 73 54 74 56 75 53 76 37 77 38 78
REMARK SMILES IDX 43 79 39 80 40 81 42 82 44 83 41 84
REMARK H PARENT 6 6 2 15 2 16 11 27 61 46 35 57
REMARK Flexibility Score: inf
ROOT
ATOM      1  C   UNL A   1      36.415  20.405  25.021  1.00  0.00     0.023 C 
ENDROOT
BRANCH   1   2
ATOM      2  C   UNL A   1      36.145  21.869  25.341  1.00  0.00     0.116 C 
BRANCH   2   3
ATOM      3  N   UNL A   1      35.501  22.061  26.627  1.00  0.00    -0.351 N 
ATOM      4  C   UNL A   1      34.257  22.524  26.958  1.00  0.00     0.281 C 
ATOM      5  O   UNL A   1      34.010  22.505  28.167  1.00  0.00    -0.268 OA
ATOM      6  H   UNL A   1      36.059  21.813  27.399  1.00  0.00     0.163 HD
BRANCH   4   7
ATOM      7  C   UNL A   1      33.263  23.073  25.862  1.00  0.00     0.176 C 
ATOM      8  C   UNL A   1      31.872  23.160  26.551  1.00  0.00     0.079 C 
ATOM      9  C   UNL A   1      33.762  24.423  25.260  1.00  0.00     0.094 C 
ATOM     10  C   UNL A   1      30.849  24.001  25.800  1.00  0.00     0.008 C 
ATOM     11  C   UNL A   1      32.663  25.350  24.710  1.00  0.00     0.061 C 
ATOM     12  C   UNL A   1      31.391  25.402  25.558  1.00  0.00     0.015 C 
BRANCH   7  13
ATOM     13  N   UNL A   1      33.033  22.116  24.728  1.00  0.00    -0.336 N 
ATOM     14  C   UNL A   1      32.364  20.865  25.061  1.00  0.00     0.331 C 
ATOM     15  H   UNL A   1      32.467  22.594  24.028  1.00  0.00     0.346 HD
ATOM     16  H   UNL A   1      33.964  21.847  24.408  1.00  0.00     0.346 HD
ENDBRANCH   7  13
BRANCH  11  17
ATOM     17  S   UNL A   1      33.284  27.039  24.328  1.00  0.00    -0.090 SA
BRANCH  17  18
ATOM     18  C   UNL A   1      31.892  27.829  23.621  1.00  0.00     0.174 A 
ATOM     19  N   UNL A   1      31.330  27.410  22.509  1.00  0.00    -0.132 NA
ATOM     20  S   UNL A   1      31.128  29.200  24.315  1.00  0.00    -0.094 S 
ATOM     21  N   UNL A   1      30.264  28.199  22.121  1.00  0.00    -0.146 NA
ATOM     22  C   UNL A   1      30.039  29.164  22.987  1.00  0.00     0.203 A 
ENDBRANCH  17  18
ENDBRANCH  11  17
ENDBRANCH   4   7
ENDBRANCH   2   3
ENDBRANCH   1   2
BRANCH   1  23
ATOM     23  C   UNL A   1      37.859  20.091  24.645  1.00  0.00     0.023 C 
BRANCH  23  24
ATOM     24  C   UNL A   1      38.883  20.349  25.744  1.00  0.00     0.116 C 
BRANCH  24  25
ATOM     25  N   UNL A   1      39.932  19.342  25.795  1.00  0.00    -0.352 N 
ATOM     26  C   UNL A   1      41.267  19.491  26.100  1.00  0.00     0.251 C 
ATOM     27  H   UNL A   1      39.648  18.425  25.580  1.00  0.00     0.163 HD
ATOM     28  O   UNL A   1      42.054  18.570  25.929  1.00  0.00    -0.269 OA
BRANCH  26  29
ATOM     29  C   UNL A   1      41.753  20.792  26.616  1.00  0.00     0.039 A 
ATOM     30  C   UNL A   1      42.249  21.737  25.716  1.00  0.00     0.014 A 
ATOM     31  C   UNL A   1      41.698  21.084  27.981  1.00  0.00     0.014 A 
ATOM     32  C   UNL A   1      42.610  23.007  26.177  1.00  0.00     0.010 A 
ATOM     33  C   UNL A   1      41.973  22.375  28.425  1.00  0.00     0.010 A 
ATOM     34  C   UNL A   1      42.433  23.351  27.528  1.00  0.00    -0.014 A 
BRANCH  34  35
ATOM     35  C   UNL A   1      42.713  24.726  28.020  1.00  0.00     0.031 A 
ATOM     36  C   UNL A   1      44.110  25.119  28.417  1.00  0.00     0.074 A 
ATOM     37  C   UNL A   1      41.699  25.601  28.175  1.00  0.00     0.049 A 
ATOM     38  N   UNL A   1      44.539  26.244  28.932  1.00  0.00    -0.248 NA
ATOM     39  C   UNL A   1      45.160  24.105  28.235  1.00  0.00     0.031 C 
ATOM     40  C   UNL A   1      40.291  25.332  27.876  1.00  0.00     0.029 A 
ATOM     41  N   UNL A   1      41.698  26.896  28.635  1.00  0.00    -0.354 N 
ATOM     42  C   UNL A   1      45.900  26.066  29.148  1.00  0.00     0.074 A 
ATOM     43  C   UNL A   1      46.214  24.708  28.763  1.00  0.00     0.031 C 
ATOM     44  C   UNL A   1      39.568  26.433  28.134  1.00  0.00     0.029 A 
ATOM     45  C   UNL A   1      40.450  27.473  28.655  1.00  0.00     0.049 A 
ATOM     46  H   UNL A   1      42.512  27.367  28.922  1.00  0.00     0.167 HD
ATOM     47  C   UNL A   1      46.810  26.960  29.602  1.00  0.00     0.037 A 
ATOM     48  C   UNL A   1      40.059  28.698  29.055  1.00  0.00     0.037 A 
ATOM     49  C   UNL A   1      46.501  28.318  29.965  1.00  0.00     0.049 A 
ATOM     50  C   UNL A   1      41.087  29.667  29.570  1.00  0.00     0.074 A 
ATOM     51  C   UNL A   1      47.364  29.317  30.381  1.00  0.00     0.029 A 
ATOM     52  N   UNL A   1      45.227  28.867  29.960  1.00  0.00    -0.354 N 
ATOM     53  N   UNL A   1      42.382  29.507  29.702  1.00  0.00    -0.248 NA
ATOM     54  C   UNL A   1      40.600  30.989  29.987  1.00  0.00     0.031 C 
ATOM     55  C   UNL A   1      46.607  30.455  30.675  1.00  0.00     0.029 A 
ATOM     56  C   UNL A   1      45.278  30.184  30.388  1.00  0.00     0.049 A 
ATOM     57  H   UNL A   1      44.407  28.391  29.692  1.00  0.00     0.167 HD
ATOM     58  C   UNL A   1      42.867  30.716  30.186  1.00  0.00     0.074 A 
ATOM     59  C   UNL A   1      41.729  31.603  30.312  1.00  0.00     0.031 C 
ATOM     60  C   UNL A   1      44.140  31.060  30.499  1.00  0.00     0.037 A 
BRANCH  47  61
ATOM     61  C   UNL A   1      48.233  26.496  29.725  1.00  0.00     0.057 A 
ATOM     62  C   UNL A   1      49.166  26.691  28.698  1.00  0.00     0.134 A 
ATOM     63  C   UNL A   1      48.686  25.878  30.899  1.00  0.00     0.134 A 
ATOM     64  F   UNL A   1      48.796  27.267  27.544  1.00  0.00    -0.206 F 
ATOM     65  C   UNL A   1      50.490  26.264  28.821  1.00  0.00     0.040 A 
ATOM     66  C   UNL A   1      50.014  25.473  31.045  1.00  0.00     0.040 A 
ATOM     67  F   UNL A   1      47.849  25.666  31.925  1.00  0.00    -0.206 F 
ATOM     68  C   UNL A   1      50.919  25.660  30.001  1.00  0.00     0.006 A 
ENDBRANCH  47  61
BRANCH  48  69
ATOM     69  C   UNL A   1      38.629  29.091  28.965  1.00  0.00     0.057 A 
ATOM     70  C   UNL A   1      38.092  29.592  27.774  1.00  0.00     0.134 A 
ATOM     71  C   UNL A   1      37.770  28.991  30.067  1.00  0.00     0.134 A 
ATOM     72  F   UNL A   1      38.869  29.731  26.690  1.00  0.00    -0.206 F 
ATOM     73  C   UNL A   1      36.760  30.001  27.686  1.00  0.00     0.040 A 
ATOM     74  C   UNL A   1      36.430  29.371  29.985  1.00  0.00     0.040 A 
ATOM     75  F   UNL A   1      38.221  28.512  31.236  1.00  0.00    -0.206 F 
ATOM     76  C   UNL A   1      35.923  29.886  28.794  1.00  0.00     0.006 A 
ENDBRANCH  48  69
BRANCH  60  77
ATOM     77  C   UNL A   1      44.380  32.466  30.966  1.00  0.00     0.057 A 
ATOM     78  C   UNL A   1      44.632  33.513  30.072  1.00  0.00     0.134 A 
ATOM     79  C   UNL A   1      44.319  32.781  32.330  1.00  0.00     0.134 A 
ATOM     80  F   UNL A   1      44.717  33.277  28.754  1.00  0.00    -0.206 F 
ATOM     81  C   UNL A   1      44.837  34.820  30.519  1.00  0.00     0.040 A 
ATOM     82  C   UNL A   1      44.494  34.088  32.786  1.00  0.00     0.040 A 
ATOM     83  F   UNL A   1      44.073  31.827  33.241  1.00  0.00    -0.206 F 
ATOM     84  C   UNL A   1      44.761  35.111  31.879  1.00  0.00     0.006 A 
ENDBRANCH  60  77
ENDBRANCH  34  35
ENDBRANCH  26  29
ENDBRANCH  24  25
ENDBRANCH  23  24
ENDBRANCH   1  23
TORSDOF 14
ENDMDL
MODEL 3
REMARK VINA RESULT:     -11.4      2.374      3.800
REMARK SMILES C[NH2+][C@]1(C(=O)NCCCCNC(=O)c2ccc(-c3c4nc(c(-c5c(F)cccc5F)c5ccc([nH]5)c(-c5c(F)cccc5F)c5nc(c(-c6c(F)cccc6F)c6ccc3[nH]6)C=C5)C=C4)cc2)CCC[C@@H](Sc2nncs2)C1
REMARK SMILES IDX 8 1 7 2 6 3 4 4 5 5 3 7 68 8 78 9 69 10 71 11 70 12 2 13
REMARK SMILES IDX 1 14 72 17 73 18 74 19 77 20 75 21 76 22 9 23 10 24 11 25
REMARK SMILES IDX 12 26 13 28 14 29 15 30 67 31 16 32 66 33 17 34 18 35 19 36
REMARK SMILES IDX 60 37 20 38 65 39 59 40 61 41 21 42 64 43 58 44 57 45 22 47
REMARK SMILES IDX 48 48 31 49 47 50 32 51 35 52 46 53 62 54 33 55 34 56 45 58
REMARK SMILES IDX 63 59 36 60 23 61 24 62 29 63 25 64 26 65 28 66 30 67 27 68
REMARK SMILES IDX 49 69 50 70 55 71 51 72 52 73 54 74 56 75 53 76 37 77 38 78
REMARK SMILES IDX 43 79 39 80 40 81 42 82 44 83 41 84
REMARK H PARENT 6 6 2 15 2 16 11 27 61 46 35 57
REMARK Flexibility Score: inf
ROOT
ATOM      1  C   UNL A   1      31.057  30.419  25.123  1.00  0.00     0.023 C 
ENDROOT
BRANCH   1   2
ATOM      2  C   UNL A   1      32.294  29.603  25.475  1.00  0.00     0.116 C 
BRANCH   2   3
ATOM      3  N   UNL A   1      33.262  29.543  24.396  1.00  0.00    -0.351 N 
ATOM      4  C   UNL A   1      33.507  28.585  23.450  1.00  0.00     0.281 C 
ATOM      5  O   UNL A   1      34.382  28.886  22.634  1.00  0.00    -0.268 OA
ATOM      6  H   UNL A   1      33.845  30.333  24.332  1.00  0.00     0.163 HD
BRANCH   4   7
ATOM      7  C   UNL A   1      32.748  27.203  23.462  1.00  0.00     0.176 C 
ATOM      8  C   UNL A   1      33.052  26.536  22.090  1.00  0.00     0.079 C 
ATOM      9  C   UNL A   1      33.152  26.336  24.694  1.00  0.00     0.094 C 
ATOM     10  C   UNL A   1      32.728  25.050  22.026  1.00  0.00     0.008 C 
ATOM     11  C   UNL A   1      33.020  24.814  24.507  1.00  0.00     0.061 C 
ATOM     12  C   UNL A   1      33.455  24.302  23.132  1.00  0.00     0.015 C 
BRANCH   7  13
ATOM     13  N   UNL A   1      31.253  27.340  23.460  1.00  0.00    -0.336 N 
ATOM     14  C   UNL A   1      30.672  28.100  22.362  1.00  0.00     0.331 C 
ATOM     15  H   UNL A   1      30.855  26.400  23.433  1.00  0.00     0.346 HD
ATOM     16  H   UNL A   1      31.029  27.869  24.303  1.00  0.00     0.346 HD
ENDBRANCH   7  13
BRANCH  11  17
ATOM     17  S   UNL A   1      33.819  23.859  25.862  1.00  0.00    -0.090 SA
BRANCH  17  18
ATOM     18  C   UNL A   1      33.354  22.208  25.519  1.00  0.00     0.174 A 
ATOM     19  N   UNL A   1      32.098  21.831  25.431  1.00  0.00    -0.132 NA
ATOM     20  S   UNL A   1      34.483  20.944  25.252  1.00  0.00    -0.094 S 
ATOM     21  N   UNL A   1      31.965  20.479  25.180  1.00  0.00    -0.146 NA
ATOM     22  C   UNL A   1      33.137  19.896  25.048  1.00  0.00     0.203 A 
ENDBRANCH  17  18
ENDBRANCH  11  17
ENDBRANCH   4   7
ENDBRANCH   2   3
ENDBRANCH   1   2
BRANCH   1  23
ATOM     23  C   UNL A   1      30.958  31.765  25.833  1.00  0.00     0.023 C 
BRANCH  23  24
ATOM     24  C   UNL A   1      32.049  32.032  26.865  1.00  0.00     0.116 C 
BRANCH  24  25
ATOM     25  N   UNL A   1      32.158  33.437  27.229  1.00  0.00    -0.352 N 
ATOM     26  C   UNL A   1      33.095  34.059  28.023  1.00  0.00     0.251 C 
ATOM     27  H   UNL A   1      31.463  34.025  26.856  1.00  0.00     0.163 HD
ATOM     28  O   UNL A   1      32.946  35.222  28.373  1.00  0.00    -0.269 OA
BRANCH  26  29
ATOM     29  C   UNL A   1      34.282  33.298  28.479  1.00  0.00     0.039 A 
ATOM     30  C   UNL A   1      35.526  33.932  28.507  1.00  0.00     0.014 A 
ATOM     31  C   UNL A   1      34.161  31.971  28.897  1.00  0.00     0.014 A 
ATOM     32  C   UNL A   1      36.632  33.260  29.035  1.00  0.00     0.010 A 
ATOM     33  C   UNL A   1      35.241  31.335  29.504  1.00  0.00     0.010 A 
ATOM     34  C   UNL A   1      36.489  31.972  29.580  1.00  0.00    -0.014 A 
BRANCH  34  35
ATOM     35  C   UNL A   1      37.628  31.279  30.239  1.00  0.00     0.031 A 
ATOM     36  C   UNL A   1      37.962  31.568  31.677  1.00  0.00     0.074 A 
ATOM     37  C   UNL A   1      38.404  30.439  29.524  1.00  0.00     0.049 A 
ATOM     38  N   UNL A   1      38.954  31.118  32.403  1.00  0.00    -0.248 NA
ATOM     39  C   UNL A   1      37.080  32.509  32.385  1.00  0.00     0.031 C 
ATOM     40  C   UNL A   1      38.221  30.109  28.110  1.00  0.00     0.029 A 
ATOM     41  N   UNL A   1      39.513  29.716  29.891  1.00  0.00    -0.354 N 
ATOM     42  C   UNL A   1      38.823  31.730  33.643  1.00  0.00     0.074 A 
ATOM     43  C   UNL A   1      37.691  32.626  33.554  1.00  0.00     0.031 C 
ATOM     44  C   UNL A   1      39.164  29.231  27.736  1.00  0.00     0.029 A 
ATOM     45  C   UNL A   1      40.045  28.965  28.869  1.00  0.00     0.049 A 
ATOM     46  H   UNL A   1      39.890  29.732  30.800  1.00  0.00     0.167 HD
ATOM     47  C   UNL A   1      39.562  31.544  34.763  1.00  0.00     0.037 A 
ATOM     48  C   UNL A   1      41.125  28.160  28.846  1.00  0.00     0.037 A 
ATOM     49  C   UNL A   1      40.674  30.636  34.858  1.00  0.00     0.049 A 
ATOM     50  C   UNL A   1      41.938  27.983  30.099  1.00  0.00     0.074 A 
ATOM     51  C   UNL A   1      41.450  30.336  35.964  1.00  0.00     0.029 A 
ATOM     52  N   UNL A   1      41.175  29.886  33.803  1.00  0.00    -0.354 N 
ATOM     53  N   UNL A   1      41.759  28.515  31.284  1.00  0.00    -0.248 NA
ATOM     54  C   UNL A   1      43.102  27.089  30.012  1.00  0.00     0.031 C 
ATOM     55  C   UNL A   1      42.449  29.442  35.569  1.00  0.00     0.029 A 
ATOM     56  C   UNL A   1      42.262  29.141  34.229  1.00  0.00     0.049 A 
ATOM     57  H   UNL A   1      40.810  29.884  32.889  1.00  0.00     0.167 HD
ATOM     58  C   UNL A   1      42.765  27.997  32.089  1.00  0.00     0.074 A 
ATOM     59  C   UNL A   1      43.543  27.098  31.261  1.00  0.00     0.031 C 
ATOM     60  C   UNL A   1      43.022  28.243  33.398  1.00  0.00     0.037 A 
BRANCH  47  61
ATOM     61  C   UNL A   1      39.183  32.336  35.981  1.00  0.00     0.057 A 
ATOM     62  C   UNL A   1      38.312  31.827  36.953  1.00  0.00     0.134 A 
ATOM     63  C   UNL A   1      39.723  33.611  36.203  1.00  0.00     0.134 A 
ATOM     64  F   UNL A   1      37.751  30.619  36.798  1.00  0.00    -0.206 F 
ATOM     65  C   UNL A   1      37.969  32.566  38.088  1.00  0.00     0.040 A 
ATOM     66  C   UNL A   1      39.411  34.347  37.347  1.00  0.00     0.040 A 
ATOM     67  F   UNL A   1      40.569  34.157  35.317  1.00  0.00    -0.206 F 
ATOM     68  C   UNL A   1      38.526  33.827  38.291  1.00  0.00     0.006 A 
ENDBRANCH  47  61
BRANCH  48  69
ATOM     69  C   UNL A   1      41.491  27.441  27.600  1.00  0.00     0.057 A 
ATOM     70  C   UNL A   1      41.064  26.127  27.373  1.00  0.00     0.134 A 
ATOM     71  C   UNL A   1      42.288  28.037  26.615  1.00  0.00     0.134 A 
ATOM     72  F   UNL A   1      40.316  25.494  28.288  1.00  0.00    -0.206 F 
ATOM     73  C   UNL A   1      41.432  25.424  26.224  1.00  0.00     0.040 A 
ATOM     74  C   UNL A   1      42.641  27.356  25.449  1.00  0.00     0.040 A 
ATOM     75  F   UNL A   1      42.724  29.296  26.768  1.00  0.00    -0.206 F 
ATOM     76  C   UNL A   1      42.219  26.042  25.255  1.00  0.00     0.006 A 
ENDBRANCH  48  69
BRANCH  60  77
ATOM     77  C   UNL A   1      44.164  27.500  34.028  1.00  0.00     0.057 A 
ATOM     78  C   UNL A   1      45.458  28.034  34.081  1.00  0.00     0.134 A 
ATOM     79  C   UNL A   1      43.956  26.250  34.624  1.00  0.00     0.134 A 
ATOM     80  F   UNL A   1      45.728  29.221  33.517  1.00  0.00    -0.206 F 
ATOM     81  C   UNL A   1      46.509  27.340  34.684  1.00  0.00     0.040 A 
ATOM     82  C   UNL A   1      44.992  25.560  35.255  1.00  0.00     0.040 A 
ATOM     83  F   UNL A   1      42.739  25.684  34.617  1.00  0.00    -0.206 F 
ATOM     84  C   UNL A   1      46.275  26.102  35.280  1.00  0.00     0.006 A 
ENDBRANCH  60  77
ENDBRANCH  34  35
ENDBRANCH  26  29
ENDBRANCH  24  25
ENDBRANCH  23  24
ENDBRANCH   1  23
TORSDOF 14
ENDMDL
