MODEL 1
REMARK VINA RESULT:     -14.4      0.000      0.000
REMARK SMILES Cc1cccc(-c2ncc(C[NH+]3CCC4(CC3)NC(=O)C[C@H]4C(=O)NCCCCNC(=O)c3ccc(-c4c5nc(c(-c6c(F)cccc6F)c6ccc([nH]6)c(-c6c(F)cccc6F)c6nc(c(-c7c(F)cccc7F)c7ccc4[nH]7)C=C6)C=C5)cc3)cn2)c1
REMARK SMILES IDX 27 1 26 2 25 3 23 4 24 5 22 7 12 8 13 9 17 10 14 12 16 13
REMARK SMILES IDX 15 14 18 15 19 16 21 18 20 19 11 20 10 21 7 22 8 23 88 24
REMARK SMILES IDX 9 25 87 26 6 27 1 28 2 29 3 30 89 31 4 32 5 33 28 34 29 35
REMARK SMILES IDX 30 36 31 37 32 39 33 40 34 41 86 42 35 43 85 44 36 45 37 46
REMARK SMILES IDX 38 47 79 48 39 49 84 50 78 51 80 52 40 53 83 54 77 55 76 56
REMARK SMILES IDX 41 58 67 59 50 60 66 61 51 62 54 63 65 64 81 65 52 66 53 67
REMARK SMILES IDX 64 69 82 70 55 71 42 72 43 73 48 74 44 75 45 76 47 77 49 78
REMARK SMILES IDX 46 79 68 80 69 81 74 82 70 83 71 84 73 85 75 86 72 87 56 88
REMARK SMILES IDX 57 89 62 90 58 91 59 92 61 93 63 94 60 95
REMARK H PARENT 25 6 12 11 18 17 30 38 80 57 54 68
REMARK Flexibility Score: inf
ROOT
ATOM      1  C   UNL A   1      32.440  29.905  25.754  1.00  0.00     0.023 C 
ENDROOT
BRANCH   1   2
ATOM      2  C   UNL A   1      31.056  30.234  25.160  1.00  0.00     0.116 C 
BRANCH   2   3
ATOM      3  N   UNL A   1      30.772  29.731  23.815  1.00  0.00    -0.356 N 
ATOM      4  C   UNL A   1      31.227  28.713  23.034  1.00  0.00     0.226 C 
ATOM      5  O   UNL A   1      30.623  28.549  21.965  1.00  0.00    -0.275 OA
ATOM      6  H   UNL A   1      30.079  30.262  23.361  1.00  0.00     0.163 HD
BRANCH   4   7
ATOM      7  C   UNL A   1      32.439  27.815  23.324  1.00  0.00     0.114 C 
ATOM      8  N   UNL A   1      31.677  25.412  26.681  1.00  0.00    -0.331 N 
ATOM      9  C   UNL A   1      33.051  25.630  26.260  1.00  0.00     0.264 C 
ATOM     10  C   UNL A   1      30.793  26.400  26.093  1.00  0.00     0.264 C 
ATOM     11  H   UNL A   1      31.694  25.582  27.686  1.00  0.00     0.348 HD
ATOM     12  C   UNL A   1      33.298  25.813  24.757  1.00  0.00     0.091 C 
ATOM     13  C   UNL A   1      30.773  26.319  24.580  1.00  0.00     0.091 C 
ATOM     14  C   UNL A   1      32.144  26.406  23.887  1.00  0.00     0.063 C 
ATOM     15  N   UNL A   1      32.188  25.630  22.653  1.00  0.00    -0.349 N 
ATOM     16  C   UNL A   1      32.959  26.199  21.658  1.00  0.00     0.221 C 
ATOM     17  H   UNL A   1      31.710  24.777  22.540  1.00  0.00     0.164 HD
ATOM     18  C   UNL A   1      33.298  27.605  22.075  1.00  0.00     0.116 C 
ATOM     19  O   UNL A   1      33.292  25.652  20.634  1.00  0.00    -0.275 OA
BRANCH   8  20
ATOM     20  C   UNL A   1      31.166  24.035  26.797  1.00  0.00     0.302 C 
BRANCH  20  21
ATOM     21  C   UNL A   1      31.886  22.956  26.041  1.00  0.00     0.043 A 
ATOM     22  C   UNL A   1      32.822  20.718  24.799  1.00  0.00     0.159 A 
ATOM     23  N   UNL A   1      31.985  21.526  24.117  1.00  0.00    -0.236 NA
ATOM     24  N   UNL A   1      33.298  20.989  26.030  1.00  0.00    -0.236 NA
ATOM     25  C   UNL A   1      31.578  22.649  24.737  1.00  0.00     0.124 A 
ATOM     26  C   UNL A   1      32.819  22.110  26.620  1.00  0.00     0.124 A 
BRANCH  22  27
ATOM     27  C   UNL A   1      33.080  19.391  24.219  1.00  0.00     0.019 A 
ATOM     28  C   UNL A   1      35.134  16.291  25.111  1.00  0.00     0.044 C 
ATOM     29  C   UNL A   1      34.207  17.204  24.359  1.00  0.00    -0.050 A 
ATOM     30  C   UNL A   1      33.579  16.808  23.179  1.00  0.00     0.003 A 
ATOM     31  C   UNL A   1      33.936  18.479  24.873  1.00  0.00     0.015 A 
ATOM     32  C   UNL A   1      32.734  17.692  22.505  1.00  0.00     0.001 A 
ATOM     33  C   UNL A   1      32.498  18.976  23.012  1.00  0.00     0.012 A 
ENDBRANCH  22  27
ENDBRANCH  20  21
ENDBRANCH   8  20
ENDBRANCH   4   7
ENDBRANCH   2   3
ENDBRANCH   1   2
BRANCH   1  34
ATOM     34  C   UNL A   1      32.919  30.787  26.911  1.00  0.00     0.023 C 
BRANCH  34  35
ATOM     35  C   UNL A   1      34.179  30.261  27.580  1.00  0.00     0.116 C 
BRANCH  35  36
ATOM     36  N   UNL A   1      34.867  31.212  28.454  1.00  0.00    -0.352 N 
ATOM     37  C   UNL A   1      36.083  31.073  29.107  1.00  0.00     0.251 C 
ATOM     38  H   UNL A   1      34.401  32.066  28.600  1.00  0.00     0.163 HD
ATOM     39  O   UNL A   1      36.507  31.959  29.842  1.00  0.00    -0.269 OA
BRANCH  37  40
ATOM     40  C   UNL A   1      36.938  29.903  28.789  1.00  0.00     0.039 A 
ATOM     41  C   UNL A   1      37.062  28.907  29.764  1.00  0.00     0.014 A 
ATOM     42  C   UNL A   1      37.829  29.961  27.722  1.00  0.00     0.014 A 
ATOM     43  C   UNL A   1      38.246  28.181  29.839  1.00  0.00     0.010 A 
ATOM     44  C   UNL A   1      39.050  29.340  27.869  1.00  0.00     0.010 A 
ATOM     45  C   UNL A   1      39.284  28.514  28.973  1.00  0.00    -0.014 A 
BRANCH  45  46
ATOM     46  C   UNL A   1      40.672  28.133  29.205  1.00  0.00     0.031 A 
ATOM     47  C   UNL A   1      41.204  26.901  28.597  1.00  0.00     0.074 A 
ATOM     48  C   UNL A   1      41.485  28.960  29.899  1.00  0.00     0.049 A 
ATOM     49  N   UNL A   1      42.247  26.270  29.016  1.00  0.00    -0.248 NA
ATOM     50  C   UNL A   1      40.551  26.247  27.472  1.00  0.00     0.031 C 
ATOM     51  C   UNL A   1      42.942  28.901  30.001  1.00  0.00     0.029 A 
ATOM     52  N   UNL A   1      41.112  29.916  30.852  1.00  0.00    -0.354 N 
ATOM     53  C   UNL A   1      42.564  25.312  28.078  1.00  0.00     0.074 A 
ATOM     54  C   UNL A   1      41.437  25.294  27.176  1.00  0.00     0.031 C 
ATOM     55  C   UNL A   1      43.322  29.529  31.126  1.00  0.00     0.029 A 
ATOM     56  C   UNL A   1      42.113  29.879  31.848  1.00  0.00     0.049 A 
ATOM     57  H   UNL A   1      40.315  30.494  30.832  1.00  0.00     0.167 HD
ATOM     58  C   UNL A   1      43.806  24.746  28.107  1.00  0.00     0.037 A 
ATOM     59  C   UNL A   1      41.826  29.507  33.131  1.00  0.00     0.037 A 
ATOM     60  C   UNL A   1      44.558  25.206  29.275  1.00  0.00     0.049 A 
ATOM     61  C   UNL A   1      42.615  28.308  33.602  1.00  0.00     0.074 A 
ATOM     62  C   UNL A   1      45.508  26.201  29.448  1.00  0.00     0.029 A 
ATOM     63  N   UNL A   1      44.138  24.839  30.549  1.00  0.00    -0.354 N 
ATOM     64  N   UNL A   1      43.203  27.468  32.795  1.00  0.00    -0.248 NA
ATOM     65  C   UNL A   1      42.783  27.939  35.006  1.00  0.00     0.031 C 
ATOM     66  C   UNL A   1      45.611  26.476  30.834  1.00  0.00     0.029 A 
ATOM     67  C   UNL A   1      44.745  25.630  31.505  1.00  0.00     0.049 A 
ATOM     68  H   UNL A   1      43.499  24.116  30.742  1.00  0.00     0.167 HD
ATOM     69  C   UNL A   1      43.798  26.471  33.523  1.00  0.00     0.074 A 
ATOM     70  C   UNL A   1      43.522  26.819  34.903  1.00  0.00     0.031 C 
ATOM     71  C   UNL A   1      44.456  25.438  32.918  1.00  0.00     0.037 A 
BRANCH  58  72
ATOM     72  C   UNL A   1      44.445  24.028  26.935  1.00  0.00     0.057 A 
ATOM     73  C   UNL A   1      44.057  22.714  26.600  1.00  0.00     0.134 A 
ATOM     74  C   UNL A   1      45.489  24.531  26.138  1.00  0.00     0.134 A 
ATOM     75  F   UNL A   1      42.999  22.123  27.169  1.00  0.00    -0.206 F 
ATOM     76  C   UNL A   1      44.735  21.931  25.654  1.00  0.00     0.040 A 
ATOM     77  C   UNL A   1      46.211  23.744  25.228  1.00  0.00     0.040 A 
ATOM     78  F   UNL A   1      45.821  25.826  26.146  1.00  0.00    -0.206 F 
ATOM     79  C   UNL A   1      45.844  22.430  24.993  1.00  0.00     0.006 A 
ENDBRANCH  58  72
BRANCH  59  80
ATOM     80  C   UNL A   1      40.430  29.837  33.529  1.00  0.00     0.057 A 
ATOM     81  C   UNL A   1      40.135  31.174  33.860  1.00  0.00     0.134 A 
ATOM     82  C   UNL A   1      39.350  29.012  33.207  1.00  0.00     0.134 A 
ATOM     83  F   UNL A   1      41.124  32.021  34.186  1.00  0.00    -0.206 F 
ATOM     84  C   UNL A   1      38.850  31.699  33.720  1.00  0.00     0.040 A 
ATOM     85  C   UNL A   1      38.049  29.523  33.107  1.00  0.00     0.040 A 
ATOM     86  F   UNL A   1      39.548  27.731  32.863  1.00  0.00    -0.206 F 
ATOM     87  C   UNL A   1      37.805  30.880  33.315  1.00  0.00     0.006 A 
ENDBRANCH  59  80
BRANCH  71  88
ATOM     88  C   UNL A   1      44.951  24.179  33.585  1.00  0.00     0.057 A 
ATOM     89  C   UNL A   1      46.294  23.928  33.899  1.00  0.00     0.134 A 
ATOM     90  C   UNL A   1      44.029  23.235  34.094  1.00  0.00     0.134 A 
ATOM     91  F   UNL A   1      47.265  24.787  33.562  1.00  0.00    -0.206 F 
ATOM     92  C   UNL A   1      46.695  22.804  34.634  1.00  0.00     0.040 A 
ATOM     93  C   UNL A   1      44.413  22.141  34.874  1.00  0.00     0.040 A 
ATOM     94  F   UNL A   1      42.711  23.351  33.879  1.00  0.00    -0.206 F 
ATOM     95  C   UNL A   1      45.754  21.915  35.139  1.00  0.00     0.006 A 
ENDBRANCH  71  88
ENDBRANCH  45  46
ENDBRANCH  37  40
ENDBRANCH  35  36
ENDBRANCH  34  35
ENDBRANCH   1  34
TORSDOF 14
ENDMDL
MODEL 2
REMARK VINA RESULT:     -13.8      3.965      9.819
REMARK SMILES Cc1cccc(-c2ncc(C[NH+]3CCC4(CC3)NC(=O)C[C@H]4C(=O)NCCCCNC(=O)c3ccc(-c4c5nc(c(-c6c(F)cccc6F)c6ccc([nH]6)c(-c6c(F)cccc6F)c6nc(c(-c7c(F)cccc7F)c7ccc4[nH]7)C=C6)C=C5)cc3)cn2)c1
REMARK SMILES IDX 27 1 26 2 25 3 23 4 24 5 22 7 12 8 13 9 17 10 14 12 16 13
REMARK SMILES IDX 15 14 18 15 19 16 21 18 20 19 11 20 10 21 7 22 8 23 88 24
REMARK SMILES IDX 9 25 87 26 6 27 1 28 2 29 3 30 89 31 4 32 5 33 28 34 29 35
REMARK SMILES IDX 30 36 31 37 32 39 33 40 34 41 86 42 35 43 85 44 36 45 37 46
REMARK SMILES IDX 38 47 79 48 39 49 84 50 78 51 80 52 40 53 83 54 77 55 76 56
REMARK SMILES IDX 41 58 67 59 50 60 66 61 51 62 54 63 65 64 81 65 52 66 53 67
REMARK SMILES IDX 64 69 82 70 55 71 42 72 43 73 48 74 44 75 45 76 47 77 49 78
REMARK SMILES IDX 46 79 68 80 69 81 74 82 70 83 71 84 73 85 75 86 72 87 56 88
REMARK SMILES IDX 57 89 62 90 58 91 59 92 61 93 63 94 60 95
REMARK H PARENT 25 6 12 11 18 17 30 38 80 57 54 68
REMARK Flexibility Score: inf
ROOT
ATOM      1  C   UNL A   1      36.959  21.816  24.312  1.00  0.00     0.023 C 
ENDROOT
BRANCH   1   2
ATOM      2  C   UNL A   1      36.623  20.657  25.273  1.00  0.00     0.116 C 
BRANCH   2   3
ATOM      3  N   UNL A   1      35.220  20.252  25.362  1.00  0.00    -0.356 N 
ATOM      4  C   UNL A   1      34.031  20.879  25.574  1.00  0.00     0.226 C 
ATOM      5  O   UNL A   1      33.023  20.170  25.452  1.00  0.00    -0.275 OA
ATOM      6  H   UNL A   1      35.108  19.282  25.237  1.00  0.00     0.163 HD
BRANCH   4   7
ATOM      7  C   UNL A   1      33.837  22.339  26.009  1.00  0.00     0.114 C 
ATOM      8  N   UNL A   1      34.040  24.874  22.669  1.00  0.00    -0.331 N 
ATOM      9  C   UNL A   1      34.250  25.430  23.997  1.00  0.00     0.264 C 
ATOM     10  C   UNL A   1      34.186  23.432  22.683  1.00  0.00     0.264 C 
ATOM     11  H   UNL A   1      34.811  25.251  22.117  1.00  0.00     0.348 HD
ATOM     12  C   UNL A   1      33.482  24.777  25.153  1.00  0.00     0.091 C 
ATOM     13  C   UNL A   1      33.156  22.763  23.571  1.00  0.00     0.091 C 
ATOM     14  C   UNL A   1      33.095  23.269  25.023  1.00  0.00     0.063 C 
ATOM     15  N   UNL A   1      31.748  23.194  25.576  1.00  0.00    -0.349 N 
ATOM     16  C   UNL A   1      31.708  22.881  26.921  1.00  0.00     0.221 C 
ATOM     17  H   UNL A   1      30.938  23.353  25.039  1.00  0.00     0.164 HD
ATOM     18  C   UNL A   1      33.085  22.438  27.339  1.00  0.00     0.116 C 
ATOM     19  O   UNL A   1      30.730  22.950  27.626  1.00  0.00    -0.275 OA
BRANCH   8  20
ATOM     20  C   UNL A   1      32.986  25.437  21.809  1.00  0.00     0.302 C 
BRANCH  20  21
ATOM     21  C   UNL A   1      32.225  26.627  22.321  1.00  0.00     0.043 A 
ATOM     22  C   UNL A   1      30.705  28.839  22.793  1.00  0.00     0.159 A 
ATOM     23  N   UNL A   1      30.110  27.629  22.847  1.00  0.00    -0.236 NA
ATOM     24  N   UNL A   1      32.026  29.023  22.607  1.00  0.00    -0.236 NA
ATOM     25  C   UNL A   1      30.895  26.552  22.659  1.00  0.00     0.124 A 
ATOM     26  C   UNL A   1      32.757  27.906  22.379  1.00  0.00     0.124 A 
BRANCH  22  27
ATOM     27  C   UNL A   1      29.817  30.012  22.767  1.00  0.00     0.019 A 
ATOM     28  C   UNL A   1      27.851  31.982  20.146  1.00  0.00     0.044 C 
ATOM     29  C   UNL A   1      28.404  31.566  21.479  1.00  0.00    -0.050 A 
ATOM     30  C   UNL A   1      28.067  32.232  22.657  1.00  0.00     0.003 A 
ATOM     31  C   UNL A   1      29.257  30.456  21.551  1.00  0.00     0.015 A 
ATOM     32  C   UNL A   1      28.613  31.820  23.874  1.00  0.00     0.001 A 
ATOM     33  C   UNL A   1      29.491  30.730  23.927  1.00  0.00     0.012 A 
ENDBRANCH  22  27
ENDBRANCH  20  21
ENDBRANCH   8  20
ENDBRANCH   4   7
ENDBRANCH   2   3
ENDBRANCH   1   2
BRANCH   1  34
ATOM     34  C   UNL A   1      37.570  23.073  24.938  1.00  0.00     0.023 C 
BRANCH  34  35
ATOM     35  C   UNL A   1      38.148  22.829  26.323  1.00  0.00     0.116 C 
BRANCH  35  36
ATOM     36  N   UNL A   1      39.608  22.899  26.412  1.00  0.00    -0.352 N 
ATOM     37  C   UNL A   1      40.411  23.992  26.703  1.00  0.00     0.251 C 
ATOM     38  H   UNL A   1      40.083  22.055  26.241  1.00  0.00     0.163 HD
ATOM     39  O   UNL A   1      41.634  23.892  26.702  1.00  0.00    -0.269 OA
BRANCH  37  40
ATOM     40  C   UNL A   1      39.773  25.250  27.163  1.00  0.00     0.039 A 
ATOM     41  C   UNL A   1      40.017  26.410  26.419  1.00  0.00     0.014 A 
ATOM     42  C   UNL A   1      39.242  25.332  28.445  1.00  0.00     0.014 A 
ATOM     43  C   UNL A   1      40.027  27.638  27.071  1.00  0.00     0.010 A 
ATOM     44  C   UNL A   1      39.377  26.525  29.123  1.00  0.00     0.010 A 
ATOM     45  C   UNL A   1      39.849  27.659  28.452  1.00  0.00    -0.014 A 
BRANCH  45  46
ATOM     46  C   UNL A   1      40.233  28.786  29.291  1.00  0.00     0.031 A 
ATOM     47  C   UNL A   1      39.230  29.801  29.657  1.00  0.00     0.074 A 
ATOM     48  C   UNL A   1      41.481  28.842  29.805  1.00  0.00     0.049 A 
ATOM     49  N   UNL A   1      39.509  30.997  30.049  1.00  0.00    -0.248 NA
ATOM     50  C   UNL A   1      37.799  29.550  29.556  1.00  0.00     0.031 C 
ATOM     51  C   UNL A   1      41.972  29.716  30.869  1.00  0.00     0.029 A 
ATOM     52  N   UNL A   1      42.639  28.244  29.291  1.00  0.00    -0.354 N 
ATOM     53  C   UNL A   1      38.345  31.572  30.510  1.00  0.00     0.074 A 
ATOM     54  C   UNL A   1      37.302  30.655  30.115  1.00  0.00     0.031 C 
ATOM     55  C   UNL A   1      43.303  29.839  30.749  1.00  0.00     0.029 A 
ATOM     56  C   UNL A   1      43.684  29.166  29.520  1.00  0.00     0.049 A 
ATOM     57  H   UNL A   1      42.709  27.362  28.859  1.00  0.00     0.167 HD
ATOM     58  C   UNL A   1      38.425  32.689  31.290  1.00  0.00     0.037 A 
ATOM     59  C   UNL A   1      44.364  29.743  28.485  1.00  0.00     0.037 A 
ATOM     60  C   UNL A   1      39.808  33.158  31.384  1.00  0.00     0.049 A 
ATOM     61  C   UNL A   1      44.282  31.251  28.474  1.00  0.00     0.074 A 
ATOM     62  C   UNL A   1      40.796  32.978  32.339  1.00  0.00     0.029 A 
ATOM     63  N   UNL A   1      40.443  33.655  30.251  1.00  0.00    -0.354 N 
ATOM     64  N   UNL A   1      43.368  31.928  29.113  1.00  0.00    -0.248 NA
ATOM     65  C   UNL A   1      45.195  32.115  27.729  1.00  0.00     0.031 C 
ATOM     66  C   UNL A   1      42.042  33.310  31.752  1.00  0.00     0.029 A 
ATOM     67  C   UNL A   1      41.808  33.717  30.450  1.00  0.00     0.049 A 
ATOM     68  H   UNL A   1      39.983  33.925  29.424  1.00  0.00     0.167 HD
ATOM     69  C   UNL A   1      43.537  33.267  28.874  1.00  0.00     0.074 A 
ATOM     70  C   UNL A   1      44.705  33.335  28.016  1.00  0.00     0.031 C 
ATOM     71  C   UNL A   1      42.689  34.201  29.398  1.00  0.00     0.037 A 
BRANCH  58  72
ATOM     72  C   UNL A   1      37.317  33.174  32.204  1.00  0.00     0.057 A 
ATOM     73  C   UNL A   1      36.276  33.985  31.703  1.00  0.00     0.134 A 
ATOM     74  C   UNL A   1      37.242  32.948  33.589  1.00  0.00     0.134 A 
ATOM     75  F   UNL A   1      36.119  34.202  30.391  1.00  0.00    -0.206 F 
ATOM     76  C   UNL A   1      35.332  34.616  32.525  1.00  0.00     0.040 A 
ATOM     77  C   UNL A   1      36.338  33.614  34.431  1.00  0.00     0.040 A 
ATOM     78  F   UNL A   1      37.989  32.018  34.193  1.00  0.00    -0.206 F 
ATOM     79  C   UNL A   1      35.386  34.467  33.901  1.00  0.00     0.006 A 
ENDBRANCH  58  72
BRANCH  59  80
ATOM     80  C   UNL A   1      44.429  28.869  27.280  1.00  0.00     0.057 A 
ATOM     81  C   UNL A   1      45.344  27.799  27.288  1.00  0.00     0.134 A 
ATOM     82  C   UNL A   1      43.388  28.806  26.351  1.00  0.00     0.134 A 
ATOM     83  F   UNL A   1      46.373  27.798  28.151  1.00  0.00    -0.206 F 
ATOM     84  C   UNL A   1      45.139  26.651  26.522  1.00  0.00     0.040 A 
ATOM     85  C   UNL A   1      43.200  27.674  25.546  1.00  0.00     0.040 A 
ATOM     86  F   UNL A   1      42.465  29.776  26.292  1.00  0.00    -0.206 F 
ATOM     87  C   UNL A   1      44.048  26.574  25.666  1.00  0.00     0.006 A 
ENDBRANCH  59  80
BRANCH  71  88
ATOM     88  C   UNL A   1      42.633  35.664  29.033  1.00  0.00     0.057 A 
ATOM     89  C   UNL A   1      43.434  36.653  29.618  1.00  0.00     0.134 A 
ATOM     90  C   UNL A   1      41.861  36.091  27.928  1.00  0.00     0.134 A 
ATOM     91  F   UNL A   1      44.286  36.370  30.612  1.00  0.00    -0.206 F 
ATOM     92  C   UNL A   1      43.443  37.979  29.160  1.00  0.00     0.040 A 
ATOM     93  C   UNL A   1      41.902  37.396  27.430  1.00  0.00     0.040 A 
ATOM     94  F   UNL A   1      41.053  35.251  27.266  1.00  0.00    -0.206 F 
ATOM     95  C   UNL A   1      42.689  38.351  28.054  1.00  0.00     0.006 A 
ENDBRANCH  71  88
ENDBRANCH  45  46
ENDBRANCH  37  40
ENDBRANCH  35  36
ENDBRANCH  34  35
ENDBRANCH   1  34
TORSDOF 14
ENDMDL
MODEL 3
REMARK VINA RESULT:     -13.5      2.661      5.224
REMARK SMILES Cc1cccc(-c2ncc(C[NH+]3CCC4(CC3)NC(=O)C[C@H]4C(=O)NCCCCNC(=O)c3ccc(-c4c5nc(c(-c6c(F)cccc6F)c6ccc([nH]6)c(-c6c(F)cccc6F)c6nc(c(-c7c(F)cccc7F)c7ccc4[nH]7)C=C6)C=C5)cc3)cn2)c1
REMARK SMILES IDX 27 1 26 2 25 3 23 4 24 5 22 7 12 8 13 9 17 10 14 12 16 13
REMARK SMILES IDX 15 14 18 15 19 16 21 18 20 19 11 20 10 21 7 22 8 23 88 24
REMARK SMILES IDX 9 25 87 26 6 27 1 28 2 29 3 30 89 31 4 32 5 33 28 34 29 35
REMARK SMILES IDX 30 36 31 37 32 39 33 40 34 41 86 42 35 43 85 44 36 45 37 46
REMARK SMILES IDX 38 47 79 48 39 49 84 50 78 51 80 52 40 53 83 54 77 55 76 56
REMARK SMILES IDX 41 58 67 59 50 60 66 61 51 62 54 63 65 64 81 65 52 66 53 67
REMARK SMILES IDX 64 69 82 70 55 71 42 72 43 73 48 74 44 75 45 76 47 77 49 78
REMARK SMILES IDX 46 79 68 80 69 81 74 82 70 83 71 84 73 85 75 86 72 87 56 88
REMARK SMILES IDX 57 89 62 90 58 91 59 92 61 93 63 94 60 95
REMARK H PARENT 25 6 12 11 18 17 30 38 80 57 54 68
REMARK Flexibility Score: inf
ROOT
ATOM      1  C   UNL A   1      33.268  28.308  25.034  1.00  0.00     0.023 C 
ENDROOT
BRANCH   1   2
ATOM      2  C   UNL A   1      33.660  26.962  25.677  1.00  0.00     0.116 C 
BRANCH   2   3
ATOM      3  N   UNL A   1      32.636  25.916  25.704  1.00  0.00    -0.356 N 
ATOM      4  C   UNL A   1      32.475  24.688  25.141  1.00  0.00     0.226 C 
ATOM      5  O   UNL A   1      31.486  24.049  25.525  1.00  0.00    -0.275 OA
ATOM      6  H   UNL A   1      31.872  26.164  26.274  1.00  0.00     0.163 HD
BRANCH   4   7
ATOM      7  C   UNL A   1      33.354  24.067  24.045  1.00  0.00     0.114 C 
ATOM      8  N   UNL A   1      37.196  23.294  25.549  1.00  0.00    -0.331 N 
ATOM      9  C   UNL A   1      37.001  23.386  24.111  1.00  0.00     0.264 C 
ATOM     10  C   UNL A   1      36.081  23.886  26.261  1.00  0.00     0.264 C 
ATOM     11  H   UNL A   1      38.013  23.878  25.728  1.00  0.00     0.348 HD
ATOM     12  C   UNL A   1      35.646  22.921  23.562  1.00  0.00     0.091 C 
ATOM     13  C   UNL A   1      34.778  23.165  25.981  1.00  0.00     0.091 C 
ATOM     14  C   UNL A   1      34.398  23.021  24.497  1.00  0.00     0.063 C 
ATOM     15  N   UNL A   1      33.652  21.796  24.235  1.00  0.00    -0.349 N 
ATOM     16  C   UNL A   1      32.682  21.925  23.260  1.00  0.00     0.221 C 
ATOM     17  H   UNL A   1      33.825  20.952  24.711  1.00  0.00     0.164 HD
ATOM     18  C   UNL A   1      32.512  23.390  22.961  1.00  0.00     0.116 C 
ATOM     19  O   UNL A   1      32.080  21.011  22.749  1.00  0.00    -0.275 OA
BRANCH   8  20
ATOM     20  C   UNL A   1      37.790  22.074  26.122  1.00  0.00     0.302 C 
BRANCH  20  21
ATOM     21  C   UNL A   1      39.288  21.986  26.181  1.00  0.00     0.043 A 
ATOM     22  C   UNL A   1      41.989  21.942  25.821  1.00  0.00     0.159 A 
ATOM     23  N   UNL A   1      41.405  23.114  26.143  1.00  0.00    -0.236 NA
ATOM     24  N   UNL A   1      41.335  20.766  25.748  1.00  0.00    -0.236 NA
ATOM     25  C   UNL A   1      40.078  23.096  26.364  1.00  0.00     0.124 A 
ATOM     26  C   UNL A   1      39.995  20.819  25.937  1.00  0.00     0.124 A 
BRANCH  22  27
ATOM     27  C   UNL A   1      43.384  22.004  25.357  1.00  0.00     0.019 A 
ATOM     28  C   UNL A   1      46.404  19.661  25.232  1.00  0.00     0.044 C 
ATOM     29  C   UNL A   1      45.564  20.893  25.056  1.00  0.00    -0.050 A 
ATOM     30  C   UNL A   1      46.062  22.043  24.444  1.00  0.00     0.003 A 
ATOM     31  C   UNL A   1      44.230  20.881  25.486  1.00  0.00     0.015 A 
ATOM     32  C   UNL A   1      45.250  23.172  24.310  1.00  0.00     0.001 A 
ATOM     33  C   UNL A   1      43.930  23.158  24.776  1.00  0.00     0.012 A 
ENDBRANCH  22  27
ENDBRANCH  20  21
ENDBRANCH   8  20
ENDBRANCH   4   7
ENDBRANCH   2   3
ENDBRANCH   1   2
BRANCH   1  34
ATOM     34  C   UNL A   1      32.247  29.161  25.791  1.00  0.00     0.023 C 
BRANCH  34  35
ATOM     35  C   UNL A   1      32.708  29.542  27.190  1.00  0.00     0.116 C 
BRANCH  35  36
ATOM     36  N   UNL A   1      33.264  30.889  27.320  1.00  0.00    -0.352 N 
ATOM     37  C   UNL A   1      34.518  31.274  27.772  1.00  0.00     0.251 C 
ATOM     38  H   UNL A   1      32.666  31.622  27.050  1.00  0.00     0.163 HD
ATOM     39  O   UNL A   1      34.820  32.460  27.856  1.00  0.00    -0.269 OA
BRANCH  37  40
ATOM     40  C   UNL A   1      35.545  30.231  28.013  1.00  0.00     0.039 A 
ATOM     41  C   UNL A   1      35.649  29.710  29.308  1.00  0.00     0.014 A 
ATOM     42  C   UNL A   1      36.564  30.031  27.088  1.00  0.00     0.014 A 
ATOM     43  C   UNL A   1      36.889  29.274  29.761  1.00  0.00     0.010 A 
ATOM     44  C   UNL A   1      37.819  29.723  27.569  1.00  0.00     0.010 A 
ATOM     45  C   UNL A   1      37.992  29.424  28.925  1.00  0.00    -0.014 A 
BRANCH  45  46
ATOM     46  C   UNL A   1      39.368  29.396  29.403  1.00  0.00     0.031 A 
ATOM     47  C   UNL A   1      40.166  28.164  29.264  1.00  0.00     0.074 A 
ATOM     48  C   UNL A   1      39.932  30.525  29.885  1.00  0.00     0.049 A 
ATOM     49  N   UNL A   1      41.214  27.890  29.962  1.00  0.00    -0.248 NA
ATOM     50  C   UNL A   1      39.799  27.103  28.337  1.00  0.00     0.031 C 
ATOM     51  C   UNL A   1      41.348  30.775  30.148  1.00  0.00     0.029 A 
ATOM     52  N   UNL A   1      39.278  31.627  30.451  1.00  0.00    -0.354 N 
ATOM     53  C   UNL A   1      41.812  26.781  29.405  1.00  0.00     0.074 A 
ATOM     54  C   UNL A   1      40.853  26.291  28.443  1.00  0.00     0.031 C 
ATOM     55  C   UNL A   1      41.452  31.760  31.055  1.00  0.00     0.029 A 
ATOM     56  C   UNL A   1      40.108  32.068  31.506  1.00  0.00     0.049 A 
ATOM     57  H   UNL A   1      38.417  32.013  30.172  1.00  0.00     0.167 HD
ATOM     58  C   UNL A   1      43.105  26.493  29.735  1.00  0.00     0.037 A 
ATOM     59  C   UNL A   1      39.686  32.033  32.805  1.00  0.00     0.037 A 
ATOM     60  C   UNL A   1      43.590  27.403  30.772  1.00  0.00     0.049 A 
ATOM     61  C   UNL A   1      40.562  31.192  33.703  1.00  0.00     0.074 A 
ATOM     62  C   UNL A   1      44.343  28.565  30.723  1.00  0.00     0.029 A 
ATOM     63  N   UNL A   1      43.039  27.345  32.048  1.00  0.00    -0.354 N 
ATOM     64  N   UNL A   1      41.387  30.283  33.260  1.00  0.00    -0.248 NA
ATOM     65  C   UNL A   1      40.565  31.282  35.161  1.00  0.00     0.031 C 
ATOM     66  C   UNL A   1      44.189  29.242  31.959  1.00  0.00     0.029 A 
ATOM     67  C   UNL A   1      43.366  28.478  32.767  1.00  0.00     0.049 A 
ATOM     68  H   UNL A   1      42.493  26.601  32.389  1.00  0.00     0.167 HD
ATOM     69  C   UNL A   1      42.004  29.669  34.317  1.00  0.00     0.074 A 
ATOM     70  C   UNL A   1      41.470  30.341  35.487  1.00  0.00     0.031 C 
ATOM     71  C   UNL A   1      42.895  28.650  34.134  1.00  0.00     0.037 A 
BRANCH  58  72
ATOM     72  C   UNL A   1      44.017  25.602  28.914  1.00  0.00     0.057 A 
ATOM     73  C   UNL A   1      43.958  24.198  29.046  1.00  0.00     0.134 A 
ATOM     74  C   UNL A   1      45.018  26.047  28.034  1.00  0.00     0.134 A 
ATOM     75  F   UNL A   1      42.989  23.594  29.745  1.00  0.00    -0.206 F 
ATOM     76  C   UNL A   1      44.894  23.333  28.461  1.00  0.00     0.040 A 
ATOM     77  C   UNL A   1      45.994  25.200  27.486  1.00  0.00     0.040 A 
ATOM     78  F   UNL A   1      45.066  27.310  27.600  1.00  0.00    -0.206 F 
ATOM     79  C   UNL A   1      45.944  23.835  27.712  1.00  0.00     0.006 A 
ENDBRANCH  58  72
BRANCH  59  80
ATOM     80  C   UNL A   1      38.211  32.195  32.937  1.00  0.00     0.057 A 
ATOM     81  C   UNL A   1      37.660  33.468  32.696  1.00  0.00     0.134 A 
ATOM     82  C   UNL A   1      37.337  31.106  32.884  1.00  0.00     0.134 A 
ATOM     83  F   UNL A   1      38.442  34.559  32.738  1.00  0.00    -0.206 F 
ATOM     84  C   UNL A   1      36.343  33.630  32.266  1.00  0.00     0.040 A 
ATOM     85  C   UNL A   1      36.000  31.267  32.494  1.00  0.00     0.040 A 
ATOM     86  F   UNL A   1      37.786  29.859  33.083  1.00  0.00    -0.206 F 
ATOM     87  C   UNL A   1      35.514  32.523  32.137  1.00  0.00     0.006 A 
ENDBRANCH  59  80
BRANCH  71  88
ATOM     88  C   UNL A   1      43.463  27.753  35.205  1.00  0.00     0.057 A 
ATOM     89  C   UNL A   1      44.512  28.115  36.062  1.00  0.00     0.134 A 
ATOM     90  C   UNL A   1      42.831  26.527  35.515  1.00  0.00     0.134 A 
ATOM     91  F   UNL A   1      45.139  29.293  35.944  1.00  0.00    -0.206 F 
ATOM     92  C   UNL A   1      44.923  27.303  37.128  1.00  0.00     0.040 A 
ATOM     93  C   UNL A   1      43.198  25.736  36.607  1.00  0.00     0.040 A 
ATOM     94  F   UNL A   1      41.808  26.058  34.786  1.00  0.00    -0.206 F 
ATOM     95  C   UNL A   1      44.257  26.118  37.415  1.00  0.00     0.006 A 
ENDBRANCH  71  88
ENDBRANCH  45  46
ENDBRANCH  37  40
ENDBRANCH  35  36
ENDBRANCH  34  35
ENDBRANCH   1  34
TORSDOF 14
ENDMDL
