MODEL 1
REMARK VINA RESULT:     -10.7      0.000      0.000
REMARK SMILES N#CCNC(=O)C[N@@H+]1CCO[C@H](CC(=O)NCCCCNC(=O)c2ccc(-c3c4nc(c(-c5c(F)cccc5F)c5ccc([nH]5)c(-c5c(F)cccc5F)c5nc(c(-c6c(F)cccc6F)c6ccc3[nH]6)C=C5)C=C4)cc2)C1
REMARK SMILES IDX 17 1 16 2 14 3 15 4 13 6 12 7 8 8 9 9 78 10 10 12 11 13 7 14
REMARK SMILES IDX 5 15 4 16 6 18 3 19 2 20 1 21 18 22 19 23 20 24 21 25 22 26
REMARK SMILES IDX 23 28 24 29 25 30 77 31 26 32 76 33 27 34 28 35 29 36 70 37
REMARK SMILES IDX 30 38 75 39 69 40 71 41 31 42 74 43 68 44 67 45 32 47 58 48
REMARK SMILES IDX 41 49 57 50 42 51 45 52 56 53 72 54 43 55 44 56 55 58 73 59
REMARK SMILES IDX 46 60 33 61 34 62 39 63 35 64 36 65 38 66 40 67 37 68 59 69
REMARK SMILES IDX 60 70 65 71 61 72 62 73 64 74 66 75 63 76 47 77 48 78 53 79
REMARK SMILES IDX 49 80 50 81 52 82 54 83 51 84
REMARK H PARENT 16 5 8 11 4 17 21 27 71 46 45 57
REMARK Flexibility Score: inf
ROOT
ATOM      1  C   UNL A   1      31.897  30.441  25.619  1.00  0.00     0.116 C 
ENDROOT
BRANCH   1   2
ATOM      2  N   UNL A   1      32.571  29.393  26.340  1.00  0.00    -0.356 N 
ATOM      3  C   UNL A   1      33.534  28.613  25.783  1.00  0.00     0.222 C 
ATOM      4  O   UNL A   1      34.413  28.133  26.494  1.00  0.00    -0.275 OA
ATOM      5  H   UNL A   1      32.324  29.235  27.278  1.00  0.00     0.163 HD
BRANCH   3   6
ATOM      6  C   UNL A   1      33.429  28.352  24.294  1.00  0.00     0.138 C 
BRANCH   6   7
ATOM      7  C   UNL A   1      32.304  27.342  23.894  1.00  0.00     0.182 C 
ATOM      8  N   UNL A   1      30.028  27.626  22.741  1.00  0.00    -0.323 N 
ATOM      9  C   UNL A   1      29.637  26.464  23.530  1.00  0.00     0.291 C 
ATOM     10  C   UNL A   1      31.481  27.635  22.611  1.00  0.00     0.295 C 
ATOM     11  H   UNL A   1      29.644  27.547  21.798  1.00  0.00     0.348 HD
ATOM     12  C   UNL A   1      30.185  26.568  24.934  1.00  0.00     0.222 C 
ATOM     13  O   UNL A   1      31.569  26.907  25.040  1.00  0.00    -0.366 OA
BRANCH   8  14
ATOM     14  C   UNL A   1      29.409  28.888  23.192  1.00  0.00     0.363 C 
BRANCH  14  15
ATOM     15  C   UNL A   1      28.040  29.247  22.626  1.00  0.00     0.276 C 
ATOM     16  N   UNL A   1      27.836  30.108  21.589  1.00  0.00    -0.338 N 
ATOM     17  H   UNL A   1      27.408  29.692  20.807  1.00  0.00     0.164 HD
ATOM     18  O   UNL A   1      27.034  28.686  23.080  1.00  0.00    -0.268 OA
BRANCH  16  19
ATOM     19  C   UNL A   1      28.130  31.523  21.413  1.00  0.00     0.237 C 
BRANCH  19  20
ATOM     20  C   UNL A   1      28.470  32.738  22.261  1.00  0.00     0.084 C 
ATOM     21  N   UNL A   1      28.752  33.745  22.965  1.00  0.00    -0.196 NA
ENDBRANCH  19  20
ENDBRANCH  16  19
ENDBRANCH  14  15
ENDBRANCH   8  14
ENDBRANCH   6   7
ENDBRANCH   3   6
ENDBRANCH   1   2
BRANCH   1  22
ATOM     22  C   UNL A   1      31.010  31.344  26.480  1.00  0.00     0.023 C 
BRANCH  22  23
ATOM     23  C   UNL A   1      31.390  32.817  26.429  1.00  0.00     0.023 C 
BRANCH  23  24
ATOM     24  C   UNL A   1      32.560  33.106  27.341  1.00  0.00     0.116 C 
BRANCH  24  25
ATOM     25  N   UNL A   1      32.495  34.482  27.832  1.00  0.00    -0.352 N 
ATOM     26  C   UNL A   1      33.106  35.031  28.909  1.00  0.00     0.251 C 
ATOM     27  H   UNL A   1      31.931  35.094  27.307  1.00  0.00     0.163 HD
ATOM     28  O   UNL A   1      32.691  36.073  29.413  1.00  0.00    -0.269 OA
BRANCH  26  29
ATOM     29  C   UNL A   1      34.280  34.341  29.416  1.00  0.00     0.039 A 
ATOM     30  C   UNL A   1      34.140  33.427  30.451  1.00  0.00     0.014 A 
ATOM     31  C   UNL A   1      35.512  34.588  28.796  1.00  0.00     0.014 A 
ATOM     32  C   UNL A   1      35.271  32.760  30.883  1.00  0.00     0.010 A 
ATOM     33  C   UNL A   1      36.590  33.800  29.109  1.00  0.00     0.010 A 
ATOM     34  C   UNL A   1      36.492  32.948  30.209  1.00  0.00    -0.014 A 
BRANCH  34  35
ATOM     35  C   UNL A   1      37.727  32.349  30.725  1.00  0.00     0.031 A 
ATOM     36  C   UNL A   1      38.301  32.875  32.008  1.00  0.00     0.074 A 
ATOM     37  C   UNL A   1      38.304  31.362  30.023  1.00  0.00     0.049 A 
ATOM     38  N   UNL A   1      39.364  32.478  32.653  1.00  0.00    -0.248 NA
ATOM     39  C   UNL A   1      37.622  34.028  32.633  1.00  0.00     0.031 C 
ATOM     40  C   UNL A   1      37.839  30.855  28.728  1.00  0.00     0.029 A 
ATOM     41  N   UNL A   1      39.396  30.598  30.314  1.00  0.00    -0.354 N 
ATOM     42  C   UNL A   1      39.482  33.339  33.737  1.00  0.00     0.074 A 
ATOM     43  C   UNL A   1      38.449  34.336  33.616  1.00  0.00     0.031 C 
ATOM     44  C   UNL A   1      38.608  29.817  28.367  1.00  0.00     0.029 A 
ATOM     45  C   UNL A   1      39.630  29.617  29.385  1.00  0.00     0.049 A 
ATOM     46  H   UNL A   1      39.958  30.737  31.108  1.00  0.00     0.167 HD
ATOM     47  C   UNL A   1      40.348  33.267  34.770  1.00  0.00     0.037 A 
ATOM     48  C   UNL A   1      40.566  28.653  29.386  1.00  0.00     0.037 A 
ATOM     49  C   UNL A   1      41.339  32.235  34.885  1.00  0.00     0.049 A 
ATOM     50  C   UNL A   1      41.497  28.576  30.563  1.00  0.00     0.074 A 
ATOM     51  C   UNL A   1      42.243  32.013  35.905  1.00  0.00     0.029 A 
ATOM     52  N   UNL A   1      41.542  31.241  33.938  1.00  0.00    -0.354 N 
ATOM     53  N   UNL A   1      41.556  29.345  31.624  1.00  0.00    -0.248 NA
ATOM     54  C   UNL A   1      42.477  27.486  30.549  1.00  0.00     0.031 C 
ATOM     55  C   UNL A   1      43.027  30.910  35.551  1.00  0.00     0.029 A 
ATOM     56  C   UNL A   1      42.572  30.411  34.340  1.00  0.00     0.049 A 
ATOM     57  H   UNL A   1      41.030  31.142  33.103  1.00  0.00     0.167 HD
ATOM     58  C   UNL A   1      42.564  28.819  32.419  1.00  0.00     0.074 A 
ATOM     59  C   UNL A   1      43.067  27.650  31.724  1.00  0.00     0.031 C 
ATOM     60  C   UNL A   1      43.039  29.257  33.612  1.00  0.00     0.037 A 
BRANCH  47  61
ATOM     61  C   UNL A   1      40.244  34.320  35.835  1.00  0.00     0.057 A 
ATOM     62  C   UNL A   1      40.960  35.524  35.763  1.00  0.00     0.134 A 
ATOM     63  C   UNL A   1      39.426  34.124  36.954  1.00  0.00     0.134 A 
ATOM     64  F   UNL A   1      41.785  35.766  34.732  1.00  0.00    -0.206 F 
ATOM     65  C   UNL A   1      40.886  36.482  36.777  1.00  0.00     0.040 A 
ATOM     66  C   UNL A   1      39.320  35.088  37.958  1.00  0.00     0.040 A 
ATOM     67  F   UNL A   1      38.721  32.992  37.093  1.00  0.00    -0.206 F 
ATOM     68  C   UNL A   1      40.058  36.268  37.875  1.00  0.00     0.006 A 
ENDBRANCH  47  61
BRANCH  48  69
ATOM     69  C   UNL A   1      40.622  27.672  28.276  1.00  0.00     0.057 A 
ATOM     70  C   UNL A   1      41.363  27.931  27.119  1.00  0.00     0.134 A 
ATOM     71  C   UNL A   1      39.948  26.447  28.351  1.00  0.00     0.134 A 
ATOM     72  F   UNL A   1      42.030  29.087  26.988  1.00  0.00    -0.206 F 
ATOM     73  C   UNL A   1      41.406  27.023  26.059  1.00  0.00     0.040 A 
ATOM     74  C   UNL A   1      40.004  25.518  27.312  1.00  0.00     0.040 A 
ATOM     75  F   UNL A   1      39.239  26.129  29.445  1.00  0.00    -0.206 F 
ATOM     76  C   UNL A   1      40.726  25.810  26.157  1.00  0.00     0.006 A 
ENDBRANCH  48  69
BRANCH  60  77
ATOM     77  C   UNL A   1      44.131  28.443  34.238  1.00  0.00     0.057 A 
ATOM     78  C   UNL A   1      43.855  27.355  35.075  1.00  0.00     0.134 A 
ATOM     79  C   UNL A   1      45.475  28.743  33.982  1.00  0.00     0.134 A 
ATOM     80  F   UNL A   1      42.587  27.025  35.366  1.00  0.00    -0.206 F 
ATOM     81  C   UNL A   1      44.879  26.620  35.671  1.00  0.00     0.040 A 
ATOM     82  C   UNL A   1      46.506  27.992  34.544  1.00  0.00     0.040 A 
ATOM     83  F   UNL A   1      45.805  29.763  33.175  1.00  0.00    -0.206 F 
ATOM     84  C   UNL A   1      46.210  26.935  35.401  1.00  0.00     0.006 A 
ENDBRANCH  60  77
ENDBRANCH  34  35
ENDBRANCH  26  29
ENDBRANCH  24  25
ENDBRANCH  23  24
ENDBRANCH  22  23
ENDBRANCH   1  22
TORSDOF 16
ENDMDL
MODEL 2
REMARK VINA RESULT:     -10.7      6.082     10.840
REMARK SMILES N#CCNC(=O)C[N@@H+]1CCO[C@H](CC(=O)NCCCCNC(=O)c2ccc(-c3c4nc(c(-c5c(F)cccc5F)c5ccc([nH]5)c(-c5c(F)cccc5F)c5nc(c(-c6c(F)cccc6F)c6ccc3[nH]6)C=C5)C=C4)cc2)C1
REMARK SMILES IDX 17 1 16 2 14 3 15 4 13 6 12 7 8 8 9 9 78 10 10 12 11 13 7 14
REMARK SMILES IDX 5 15 4 16 6 18 3 19 2 20 1 21 18 22 19 23 20 24 21 25 22 26
REMARK SMILES IDX 23 28 24 29 25 30 77 31 26 32 76 33 27 34 28 35 29 36 70 37
REMARK SMILES IDX 30 38 75 39 69 40 71 41 31 42 74 43 68 44 67 45 32 47 58 48
REMARK SMILES IDX 41 49 57 50 42 51 45 52 56 53 72 54 43 55 44 56 55 58 73 59
REMARK SMILES IDX 46 60 33 61 34 62 39 63 35 64 36 65 38 66 40 67 37 68 59 69
REMARK SMILES IDX 60 70 65 71 61 72 62 73 64 74 66 75 63 76 47 77 48 78 53 79
REMARK SMILES IDX 49 80 50 81 52 82 54 83 51 84
REMARK H PARENT 16 5 8 11 4 17 21 27 71 46 45 57
REMARK Flexibility Score: inf
ROOT
ATOM      1  C   UNL A   1      37.378  21.580  24.669  1.00  0.00     0.116 C 
ENDROOT
BRANCH   1   2
ATOM      2  N   UNL A   1      36.504  22.201  23.709  1.00  0.00    -0.356 N 
ATOM      3  C   UNL A   1      35.781  23.319  23.980  1.00  0.00     0.222 C 
ATOM      4  O   UNL A   1      35.489  24.089  23.068  1.00  0.00    -0.275 OA
ATOM      5  H   UNL A   1      36.425  21.797  22.816  1.00  0.00     0.163 HD
BRANCH   3   6
ATOM      6  C   UNL A   1      35.343  23.521  25.416  1.00  0.00     0.138 C 
BRANCH   6   7
ATOM      7  C   UNL A   1      33.905  22.990  25.732  1.00  0.00     0.182 C 
ATOM      8  N   UNL A   1      32.872  20.640  25.738  1.00  0.00    -0.323 N 
ATOM      9  C   UNL A   1      31.637  21.332  25.390  1.00  0.00     0.291 C 
ATOM     10  C   UNL A   1      33.772  21.588  26.385  1.00  0.00     0.295 C 
ATOM     11  H   UNL A   1      32.675  19.904  26.417  1.00  0.00     0.348 HD
ATOM     12  C   UNL A   1      31.905  22.418  24.376  1.00  0.00     0.222 C 
ATOM     13  O   UNL A   1      32.999  23.289  24.668  1.00  0.00    -0.366 OA
BRANCH   8  14
ATOM     14  C   UNL A   1      33.447  19.854  24.629  1.00  0.00     0.363 C 
BRANCH  14  15
ATOM     15  C   UNL A   1      32.574  18.774  23.999  1.00  0.00     0.276 C 
ATOM     16  N   UNL A   1      32.129  17.664  24.655  1.00  0.00    -0.338 N 
ATOM     17  H   UNL A   1      31.148  17.606  24.716  1.00  0.00     0.164 HD
ATOM     18  O   UNL A   1      32.178  18.921  22.836  1.00  0.00    -0.268 OA
BRANCH  16  19
ATOM     19  C   UNL A   1      32.821  16.548  25.282  1.00  0.00     0.237 C 
BRANCH  19  20
ATOM     20  C   UNL A   1      34.193  15.892  25.263  1.00  0.00     0.084 C 
ATOM     21  N   UNL A   1      35.330  15.348  25.246  1.00  0.00    -0.196 NA
ENDBRANCH  19  20
ENDBRANCH  16  19
ENDBRANCH  14  15
ENDBRANCH   8  14
ENDBRANCH   6   7
ENDBRANCH   3   6
ENDBRANCH   1   2
BRANCH   1  22
ATOM     22  C   UNL A   1      37.063  20.114  24.970  1.00  0.00     0.023 C 
BRANCH  22  23
ATOM     23  C   UNL A   1      38.293  19.227  25.094  1.00  0.00     0.023 C 
BRANCH  23  24
ATOM     24  C   UNL A   1      39.410  19.948  25.813  1.00  0.00     0.116 C 
BRANCH  24  25
ATOM     25  N   UNL A   1      40.582  19.081  25.931  1.00  0.00    -0.352 N 
ATOM     26  C   UNL A   1      41.891  19.424  25.994  1.00  0.00     0.251 C 
ATOM     27  H   UNL A   1      40.395  18.116  25.970  1.00  0.00     0.163 HD
ATOM     28  O   UNL A   1      42.775  18.612  25.727  1.00  0.00    -0.269 OA
BRANCH  26  29
ATOM     29  C   UNL A   1      42.190  20.783  26.415  1.00  0.00     0.039 A 
ATOM     30  C   UNL A   1      42.382  21.767  25.455  1.00  0.00     0.014 A 
ATOM     31  C   UNL A   1      42.219  21.059  27.788  1.00  0.00     0.014 A 
ATOM     32  C   UNL A   1      42.627  23.055  25.891  1.00  0.00     0.010 A 
ATOM     33  C   UNL A   1      42.286  22.363  28.208  1.00  0.00     0.010 A 
ATOM     34  C   UNL A   1      42.576  23.350  27.266  1.00  0.00    -0.014 A 
BRANCH  34  35
ATOM     35  C   UNL A   1      42.954  24.678  27.758  1.00  0.00     0.031 A 
ATOM     36  C   UNL A   1      44.405  25.058  27.766  1.00  0.00     0.074 A 
ATOM     37  C   UNL A   1      41.987  25.499  28.195  1.00  0.00     0.049 A 
ATOM     38  N   UNL A   1      44.956  26.182  28.133  1.00  0.00    -0.248 NA
ATOM     39  C   UNL A   1      45.378  24.028  27.349  1.00  0.00     0.031 C 
ATOM     40  C   UNL A   1      40.562  25.163  28.286  1.00  0.00     0.029 A 
ATOM     41  N   UNL A   1      42.059  26.791  28.625  1.00  0.00    -0.354 N 
ATOM     42  C   UNL A   1      46.325  25.983  28.005  1.00  0.00     0.074 A 
ATOM     43  C   UNL A   1      46.532  24.609  27.623  1.00  0.00     0.031 C 
ATOM     44  C   UNL A   1      39.885  26.251  28.685  1.00  0.00     0.029 A 
ATOM     45  C   UNL A   1      40.832  27.335  28.908  1.00  0.00     0.049 A 
ATOM     46  H   UNL A   1      42.905  27.284  28.723  1.00  0.00     0.167 HD
ATOM     47  C   UNL A   1      47.318  26.888  28.146  1.00  0.00     0.037 A 
ATOM     48  C   UNL A   1      40.525  28.587  29.285  1.00  0.00     0.037 A 
ATOM     49  C   UNL A   1      47.076  28.262  28.485  1.00  0.00     0.049 A 
ATOM     50  C   UNL A   1      41.644  29.582  29.403  1.00  0.00     0.074 A 
ATOM     51  C   UNL A   1      47.984  29.295  28.607  1.00  0.00     0.029 A 
ATOM     52  N   UNL A   1      45.820  28.790  28.748  1.00  0.00    -0.354 N 
ATOM     53  N   UNL A   1      42.930  29.410  29.207  1.00  0.00    -0.248 NA
ATOM     54  C   UNL A   1      41.266  30.948  29.777  1.00  0.00     0.031 C 
ATOM     55  C   UNL A   1      47.280  30.441  28.990  1.00  0.00     0.029 A 
ATOM     56  C   UNL A   1      45.929  30.135  29.050  1.00  0.00     0.049 A 
ATOM     57  H   UNL A   1      44.977  28.283  28.724  1.00  0.00     0.167 HD
ATOM     58  C   UNL A   1      43.515  30.651  29.409  1.00  0.00     0.074 A 
ATOM     59  C   UNL A   1      42.435  31.569  29.717  1.00  0.00     0.031 C 
ATOM     60  C   UNL A   1      44.823  31.009  29.352  1.00  0.00     0.037 A 
BRANCH  47  61
ATOM     61  C   UNL A   1      48.724  26.413  27.924  1.00  0.00     0.057 A 
ATOM     62  C   UNL A   1      49.521  25.931  28.974  1.00  0.00     0.134 A 
ATOM     63  C   UNL A   1      49.295  26.447  26.647  1.00  0.00     0.134 A 
ATOM     64  F   UNL A   1      49.046  25.897  30.229  1.00  0.00    -0.206 F 
ATOM     65  C   UNL A   1      50.841  25.526  28.766  1.00  0.00     0.040 A 
ATOM     66  C   UNL A   1      50.603  26.015  26.421  1.00  0.00     0.040 A 
ATOM     67  F   UNL A   1      48.595  26.904  25.599  1.00  0.00    -0.206 F 
ATOM     68  C   UNL A   1      51.383  25.560  27.484  1.00  0.00     0.006 A 
ENDBRANCH  47  61
BRANCH  48  69
ATOM     69  C   UNL A   1      39.111  28.966  29.518  1.00  0.00     0.057 A 
ATOM     70  C   UNL A   1      38.521  28.820  30.778  1.00  0.00     0.134 A 
ATOM     71  C   UNL A   1      38.319  29.494  28.491  1.00  0.00     0.134 A 
ATOM     72  F   UNL A   1      39.228  28.319  31.802  1.00  0.00    -0.206 F 
ATOM     73  C   UNL A   1      37.184  29.155  31.002  1.00  0.00     0.040 A 
ATOM     74  C   UNL A   1      36.990  29.859  28.708  1.00  0.00     0.040 A 
ATOM     75  F   UNL A   1      38.833  29.680  27.267  1.00  0.00    -0.206 F 
ATOM     76  C   UNL A   1      36.416  29.680  29.964  1.00  0.00     0.006 A 
ENDBRANCH  48  69
BRANCH  60  77
ATOM     77  C   UNL A   1      45.133  32.455  29.597  1.00  0.00     0.057 A 
ATOM     78  C   UNL A   1      45.445  32.938  30.874  1.00  0.00     0.134 A 
ATOM     79  C   UNL A   1      45.138  33.369  28.536  1.00  0.00     0.134 A 
ATOM     80  F   UNL A   1      45.446  32.113  31.932  1.00  0.00    -0.206 F 
ATOM     81  C   UNL A   1      45.708  34.290  31.094  1.00  0.00     0.040 A 
ATOM     82  C   UNL A   1      45.435  34.716  28.739  1.00  0.00     0.040 A 
ATOM     83  F   UNL A   1      44.864  32.966  27.286  1.00  0.00    -0.206 F 
ATOM     84  C   UNL A   1      45.709  35.181  30.023  1.00  0.00     0.006 A 
ENDBRANCH  60  77
ENDBRANCH  34  35
ENDBRANCH  26  29
ENDBRANCH  24  25
ENDBRANCH  23  24
ENDBRANCH  22  23
ENDBRANCH   1  22
TORSDOF 16
ENDMDL
MODEL 3
REMARK VINA RESULT:     -10.6      1.545      3.169
REMARK SMILES N#CCNC(=O)C[N@@H+]1CCO[C@H](CC(=O)NCCCCNC(=O)c2ccc(-c3c4nc(c(-c5c(F)cccc5F)c5ccc([nH]5)c(-c5c(F)cccc5F)c5nc(c(-c6c(F)cccc6F)c6ccc3[nH]6)C=C5)C=C4)cc2)C1
REMARK SMILES IDX 17 1 16 2 14 3 15 4 13 6 12 7 8 8 9 9 78 10 10 12 11 13 7 14
REMARK SMILES IDX 5 15 4 16 6 18 3 19 2 20 1 21 18 22 19 23 20 24 21 25 22 26
REMARK SMILES IDX 23 28 24 29 25 30 77 31 26 32 76 33 27 34 28 35 29 36 70 37
REMARK SMILES IDX 30 38 75 39 69 40 71 41 31 42 74 43 68 44 67 45 32 47 58 48
REMARK SMILES IDX 41 49 57 50 42 51 45 52 56 53 72 54 43 55 44 56 55 58 73 59
REMARK SMILES IDX 46 60 33 61 34 62 39 63 35 64 36 65 38 66 40 67 37 68 59 69
REMARK SMILES IDX 60 70 65 71 61 72 62 73 64 74 66 75 63 76 47 77 48 78 53 79
REMARK SMILES IDX 49 80 50 81 52 82 54 83 51 84
REMARK H PARENT 16 5 8 11 4 17 21 27 71 46 45 57
REMARK Flexibility Score: inf
ROOT
ATOM      1  C   UNL A   1      32.861  30.154  26.652  1.00  0.00     0.116 C 
ENDROOT
BRANCH   1   2
ATOM      2  N   UNL A   1      33.737  29.714  25.599  1.00  0.00    -0.356 N 
ATOM      3  C   UNL A   1      33.531  28.570  24.894  1.00  0.00     0.222 C 
ATOM      4  O   UNL A   1      33.935  28.489  23.737  1.00  0.00    -0.275 OA
ATOM      5  H   UNL A   1      34.521  30.265  25.379  1.00  0.00     0.163 HD
BRANCH   3   6
ATOM      6  C   UNL A   1      32.836  27.435  25.617  1.00  0.00     0.138 C 
BRANCH   6   7
ATOM      7  C   UNL A   1      31.298  27.344  25.349  1.00  0.00     0.182 C 
ATOM      8  N   UNL A   1      29.781  25.460  24.486  1.00  0.00    -0.323 N 
ATOM      9  C   UNL A   1      28.967  26.546  23.954  1.00  0.00     0.291 C 
ATOM     10  C   UNL A   1      30.594  25.980  25.580  1.00  0.00     0.295 C 
ATOM     11  H   UNL A   1      29.178  24.738  24.879  1.00  0.00     0.348 HD
ATOM     12  C   UNL A   1      29.843  27.622  23.355  1.00  0.00     0.222 C 
ATOM     13  O   UNL A   1      30.938  28.056  24.162  1.00  0.00    -0.366 OA
BRANCH   8  14
ATOM     14  C   UNL A   1      30.501  24.693  23.451  1.00  0.00     0.363 C 
BRANCH  14  15
ATOM     15  C   UNL A   1      31.819  24.036  23.845  1.00  0.00     0.276 C 
ATOM     16  N   UNL A   1      31.919  22.895  24.585  1.00  0.00    -0.338 N 
ATOM     17  H   UNL A   1      32.359  22.153  24.111  1.00  0.00     0.164 HD
ATOM     18  O   UNL A   1      32.881  24.516  23.428  1.00  0.00    -0.268 OA
BRANCH  16  19
ATOM     19  C   UNL A   1      31.502  22.559  25.939  1.00  0.00     0.237 C 
BRANCH  19  20
ATOM     20  C   UNL A   1      30.302  22.756  26.850  1.00  0.00     0.084 C 
ATOM     21  N   UNL A   1      29.306  22.919  27.607  1.00  0.00    -0.196 NA
ENDBRANCH  19  20
ENDBRANCH  16  19
ENDBRANCH  14  15
ENDBRANCH   8  14
ENDBRANCH   6   7
ENDBRANCH   3   6
ENDBRANCH   1   2
BRANCH   1  22
ATOM     22  C   UNL A   1      31.569  30.820  26.174  1.00  0.00     0.023 C 
BRANCH  22  23
ATOM     23  C   UNL A   1      31.380  32.244  26.680  1.00  0.00     0.023 C 
BRANCH  23  24
ATOM     24  C   UNL A   1      32.655  32.773  27.294  1.00  0.00     0.116 C 
BRANCH  24  25
ATOM     25  N   UNL A   1      32.491  34.174  27.680  1.00  0.00    -0.352 N 
ATOM     26  C   UNL A   1      33.065  34.847  28.706  1.00  0.00     0.251 C 
ATOM     27  H   UNL A   1      31.879  34.701  27.118  1.00  0.00     0.163 HD
ATOM     28  O   UNL A   1      32.577  35.890  29.135  1.00  0.00    -0.269 OA
BRANCH  26  29
ATOM     29  C   UNL A   1      34.292  34.286  29.249  1.00  0.00     0.039 A 
ATOM     30  C   UNL A   1      35.510  34.633  28.681  1.00  0.00     0.014 A 
ATOM     31  C   UNL A   1      34.198  33.452  30.371  1.00  0.00     0.014 A 
ATOM     32  C   UNL A   1      36.658  34.111  29.246  1.00  0.00     0.010 A 
ATOM     33  C   UNL A   1      35.343  33.082  31.029  1.00  0.00     0.010 A 
ATOM     34  C   UNL A   1      36.571  33.339  30.419  1.00  0.00    -0.014 A 
BRANCH  34  35
ATOM     35  C   UNL A   1      37.759  32.674  30.963  1.00  0.00     0.031 A 
ATOM     36  C   UNL A   1      38.298  33.131  32.287  1.00  0.00     0.074 A 
ATOM     37  C   UNL A   1      38.326  31.689  30.250  1.00  0.00     0.049 A 
ATOM     38  N   UNL A   1      39.316  32.670  32.960  1.00  0.00    -0.248 NA
ATOM     39  C   UNL A   1      37.639  34.288  32.924  1.00  0.00     0.031 C 
ATOM     40  C   UNL A   1      37.897  31.246  28.920  1.00  0.00     0.029 A 
ATOM     41  N   UNL A   1      39.373  30.871  30.558  1.00  0.00    -0.354 N 
ATOM     42  C   UNL A   1      39.421  33.487  34.079  1.00  0.00     0.074 A 
ATOM     43  C   UNL A   1      38.434  34.529  33.951  1.00  0.00     0.031 C 
ATOM     44  C   UNL A   1      38.639  30.190  28.554  1.00  0.00     0.029 A 
ATOM     45  C   UNL A   1      39.609  29.913  29.605  1.00  0.00     0.049 A 
ATOM     46  H   UNL A   1      39.907  30.960  31.380  1.00  0.00     0.167 HD
ATOM     47  C   UNL A   1      40.240  33.345  35.143  1.00  0.00     0.037 A 
ATOM     48  C   UNL A   1      40.505  28.913  29.610  1.00  0.00     0.037 A 
ATOM     49  C   UNL A   1      41.183  32.270  35.261  1.00  0.00     0.049 A 
ATOM     50  C   UNL A   1      41.381  28.758  30.821  1.00  0.00     0.074 A 
ATOM     51  C   UNL A   1      42.034  31.978  36.309  1.00  0.00     0.029 A 
ATOM     52  N   UNL A   1      41.388  31.302  34.288  1.00  0.00    -0.354 N 
ATOM     53  N   UNL A   1      41.426  29.487  31.910  1.00  0.00    -0.248 NA
ATOM     54  C   UNL A   1      42.318  27.631  30.808  1.00  0.00     0.031 C 
ATOM     55  C   UNL A   1      42.788  30.856  35.948  1.00  0.00     0.029 A 
ATOM     56  C   UNL A   1      42.367  30.418  34.702  1.00  0.00     0.049 A 
ATOM     57  H   UNL A   1      40.908  31.252  33.430  1.00  0.00     0.167 HD
ATOM     58  C   UNL A   1      42.377  28.894  32.727  1.00  0.00     0.074 A 
ATOM     59  C   UNL A   1      42.863  27.730  32.011  1.00  0.00     0.031 C 
ATOM     60  C   UNL A   1      42.819  29.271  33.953  1.00  0.00     0.037 A 
BRANCH  47  61
ATOM     61  C   UNL A   1      40.132  34.364  36.240  1.00  0.00     0.057 A 
ATOM     62  C   UNL A   1      39.249  34.204  37.319  1.00  0.00     0.134 A 
ATOM     63  C   UNL A   1      40.910  35.527  36.212  1.00  0.00     0.134 A 
ATOM     64  F   UNL A   1      38.452  33.127  37.394  1.00  0.00    -0.206 F 
ATOM     65  C   UNL A   1      39.128  35.176  38.315  1.00  0.00     0.040 A 
ATOM     66  C   UNL A   1      40.820  36.489  37.220  1.00  0.00     0.040 A 
ATOM     67  F   UNL A   1      41.768  35.750  35.206  1.00  0.00    -0.206 F 
ATOM     68  C   UNL A   1      39.921  36.319  38.271  1.00  0.00     0.006 A 
ENDBRANCH  47  61
BRANCH  48  69
ATOM     69  C   UNL A   1      40.570  27.969  28.469  1.00  0.00     0.057 A 
ATOM     70  C   UNL A   1      41.329  28.260  27.332  1.00  0.00     0.134 A 
ATOM     71  C   UNL A   1      39.885  26.748  28.493  1.00  0.00     0.134 A 
ATOM     72  F   UNL A   1      42.007  29.415  27.249  1.00  0.00    -0.206 F 
ATOM     73  C   UNL A   1      41.380  27.387  26.243  1.00  0.00     0.040 A 
ATOM     74  C   UNL A   1      39.949  25.853  27.424  1.00  0.00     0.040 A 
ATOM     75  F   UNL A   1      39.158  26.400  29.565  1.00  0.00    -0.206 F 
ATOM     76  C   UNL A   1      40.690  26.177  26.291  1.00  0.00     0.006 A 
ENDBRANCH  48  69
BRANCH  60  77
ATOM     77  C   UNL A   1      43.850  28.392  34.594  1.00  0.00     0.057 A 
ATOM     78  C   UNL A   1      45.222  28.623  34.432  1.00  0.00     0.134 A 
ATOM     79  C   UNL A   1      43.462  27.313  35.397  1.00  0.00     0.134 A 
ATOM     80  F   UNL A   1      45.655  29.635  33.665  1.00  0.00    -0.206 F 
ATOM     81  C   UNL A   1      46.172  27.784  35.013  1.00  0.00     0.040 A 
ATOM     82  C   UNL A   1      44.403  26.490  36.012  1.00  0.00     0.040 A 
ATOM     83  F   UNL A   1      42.163  27.049  35.605  1.00  0.00    -0.206 F 
ATOM     84  C   UNL A   1      45.763  26.717  35.810  1.00  0.00     0.006 A 
ENDBRANCH  60  77
ENDBRANCH  34  35
ENDBRANCH  26  29
ENDBRANCH  24  25
ENDBRANCH  23  24
ENDBRANCH  22  23
ENDBRANCH   1  22
TORSDOF 16
ENDMDL
