MODEL 1
REMARK VINA RESULT:     -11.6      0.000      0.000
REMARK SMILES O=C(NCCCCNC(=O)[C@H]1C[C@H]2CCCC[C@@H]2[N@@H+]1C1CCSCC1)c1ccc(-c2c3nc(c(-c4c(F)cccc4F)c4ccc([nH]4)c(-c4c(F)cccc4F)c4nc(c(-c5c(F)cccc5F)c5ccc2[nH]5)C=C4)C=C3)cc1
REMARK SMILES IDX 5 1 4 2 3 3 1 4 2 5 26 7 27 8 79 9 28 10 78 11 29 12 30 13
REMARK SMILES IDX 31 14 72 15 32 16 77 17 71 18 73 19 33 20 76 21 70 22 69 23
REMARK SMILES IDX 34 25 60 26 43 27 59 28 44 29 47 30 58 31 74 32 45 33 46 34
REMARK SMILES IDX 57 36 75 37 48 38 35 39 36 40 41 41 37 42 38 43 40 44 42 45
REMARK SMILES IDX 39 46 61 47 62 48 67 49 63 50 64 51 66 52 68 53 65 54 49 55
REMARK SMILES IDX 50 56 55 57 51 58 52 59 54 60 56 61 53 62 6 63 7 64 8 65
REMARK SMILES IDX 9 66 10 68 11 69 12 70 19 71 13 72 18 73 14 75 17 76 15 77
REMARK SMILES IDX 16 78 20 79 21 80 25 81 22 82 24 83 23 84
REMARK H PARENT 3 6 73 24 47 35 8 67 19 74
REMARK Flexibility Score: inf
ROOT
ATOM      1  C   UNL A   1      33.880  28.577  25.644  1.00  0.00     0.023 C 
ENDROOT
BRANCH   1   2
ATOM      2  C   UNL A   1      33.819  28.619  27.164  1.00  0.00     0.116 C 
BRANCH   2   3
ATOM      3  N   UNL A   1      33.820  29.966  27.722  1.00  0.00    -0.352 N 
ATOM      4  O   UNL A   1      34.717  31.748  28.795  1.00  0.00    -0.269 OA
ATOM      5  C   UNL A   1      34.873  30.641  28.300  1.00  0.00     0.251 C 
ATOM      6  H   UNL A   1      32.964  30.451  27.683  1.00  0.00     0.163 HD
BRANCH   5   7
ATOM      7  C   UNL A   1      36.187  29.970  28.361  1.00  0.00     0.039 A 
ATOM      8  C   UNL A   1      36.589  29.330  29.533  1.00  0.00     0.014 A 
ATOM      9  C   UNL A   1      37.057  30.078  27.273  1.00  0.00     0.014 A 
ATOM     10  C   UNL A   1      37.919  28.966  29.686  1.00  0.00     0.010 A 
ATOM     11  C   UNL A   1      38.371  29.621  27.397  1.00  0.00     0.010 A 
ATOM     12  C   UNL A   1      38.825  29.112  28.623  1.00  0.00    -0.014 A 
BRANCH  12  13
ATOM     13  C   UNL A   1      40.238  28.709  28.829  1.00  0.00     0.031 A 
ATOM     14  C   UNL A   1      40.742  27.371  28.362  1.00  0.00     0.074 A 
ATOM     15  C   UNL A   1      41.085  29.597  29.382  1.00  0.00     0.049 A 
ATOM     16  N   UNL A   1      41.957  26.887  28.416  1.00  0.00    -0.248 NA
ATOM     17  C   UNL A   1      39.758  26.453  27.766  1.00  0.00     0.031 C 
ATOM     18  C   UNL A   1      40.707  30.924  29.875  1.00  0.00     0.029 A 
ATOM     19  N   UNL A   1      42.438  29.539  29.588  1.00  0.00    -0.354 N 
ATOM     20  C   UNL A   1      41.879  25.600  27.897  1.00  0.00     0.074 A 
ATOM     21  C   UNL A   1      40.495  25.373  27.541  1.00  0.00     0.031 C 
ATOM     22  C   UNL A   1      41.811  31.582  30.255  1.00  0.00     0.029 A 
ATOM     23  C   UNL A   1      42.962  30.702  30.094  1.00  0.00     0.049 A 
ATOM     24  H   UNL A   1      42.980  28.741  29.392  1.00  0.00     0.167 HD
ATOM     25  C   UNL A   1      42.873  24.695  27.733  1.00  0.00     0.037 A 
ATOM     26  C   UNL A   1      44.231  31.026  30.398  1.00  0.00     0.037 A 
ATOM     27  C   UNL A   1      44.256  24.941  28.049  1.00  0.00     0.049 A 
ATOM     28  C   UNL A   1      45.313  30.010  30.190  1.00  0.00     0.074 A 
ATOM     29  C   UNL A   1      45.344  24.100  27.878  1.00  0.00     0.029 A 
ATOM     30  N   UNL A   1      44.744  26.117  28.597  1.00  0.00    -0.354 N 
ATOM     31  N   UNL A   1      45.223  28.802  29.690  1.00  0.00    -0.248 NA
ATOM     32  C   UNL A   1      46.669  30.397  30.600  1.00  0.00     0.031 C 
ATOM     33  C   UNL A   1      46.485  24.759  28.352  1.00  0.00     0.029 A 
ATOM     34  C   UNL A   1      46.112  26.020  28.786  1.00  0.00     0.049 A 
ATOM     35  H   UNL A   1      44.197  26.905  28.820  1.00  0.00     0.167 HD
ATOM     36  C   UNL A   1      46.510  28.285  29.719  1.00  0.00     0.074 A 
ATOM     37  C   UNL A   1      47.365  29.320  30.264  1.00  0.00     0.031 C 
ATOM     38  C   UNL A   1      46.943  27.061  29.334  1.00  0.00     0.037 A 
BRANCH  25  39
ATOM     39  C   UNL A   1      42.499  23.340  27.206  1.00  0.00     0.057 A 
ATOM     40  C   UNL A   1      42.603  23.014  25.849  1.00  0.00     0.134 A 
ATOM     41  C   UNL A   1      42.069  22.333  28.082  1.00  0.00     0.134 A 
ATOM     42  F   UNL A   1      42.996  23.937  24.957  1.00  0.00    -0.206 F 
ATOM     43  C   UNL A   1      42.278  21.741  25.378  1.00  0.00     0.040 A 
ATOM     44  C   UNL A   1      41.761  21.051  27.625  1.00  0.00     0.040 A 
ATOM     45  F   UNL A   1      41.952  22.578  29.395  1.00  0.00    -0.206 F 
ATOM     46  C   UNL A   1      41.861  20.752  26.268  1.00  0.00     0.006 A 
ENDBRANCH  25  39
BRANCH  26  47
ATOM     47  C   UNL A   1      44.538  32.379  30.920  1.00  0.00     0.057 A 
ATOM     48  C   UNL A   1      44.549  32.636  32.294  1.00  0.00     0.134 A 
ATOM     49  C   UNL A   1      44.858  33.436  30.059  1.00  0.00     0.134 A 
ATOM     50  F   UNL A   1      44.236  31.664  33.165  1.00  0.00    -0.206 F 
ATOM     51  C   UNL A   1      44.863  33.898  32.797  1.00  0.00     0.040 A 
ATOM     52  C   UNL A   1      45.197  34.696  30.549  1.00  0.00     0.040 A 
ATOM     53  F   UNL A   1      44.873  33.247  28.732  1.00  0.00    -0.206 F 
ATOM     54  C   UNL A   1      45.196  34.932  31.922  1.00  0.00     0.006 A 
ENDBRANCH  26  47
BRANCH  38  55
ATOM     55  C   UNL A   1      48.409  26.791  29.481  1.00  0.00     0.057 A 
ATOM     56  C   UNL A   1      49.327  27.170  28.493  1.00  0.00     0.134 A 
ATOM     57  C   UNL A   1      48.907  26.154  30.623  1.00  0.00     0.134 A 
ATOM     58  F   UNL A   1      48.907  27.769  27.369  1.00  0.00    -0.206 F 
ATOM     59  C   UNL A   1      50.689  26.902  28.626  1.00  0.00     0.040 A 
ATOM     60  C   UNL A   1      50.270  25.898  30.776  1.00  0.00     0.040 A 
ATOM     61  F   UNL A   1      48.079  25.770  31.606  1.00  0.00    -0.206 F 
ATOM     62  C   UNL A   1      51.165  26.267  29.774  1.00  0.00     0.006 A 
ENDBRANCH  38  55
ENDBRANCH  12  13
ENDBRANCH   5   7
ENDBRANCH   2   3
ENDBRANCH   1   2
BRANCH   1  63
ATOM     63  C   UNL A   1      32.552  28.894  24.967  1.00  0.00     0.023 C 
BRANCH  63  64
ATOM     64  C   UNL A   1      31.910  27.728  24.216  1.00  0.00     0.116 C 
BRANCH  64  65
ATOM     65  N   UNL A   1      32.687  27.379  23.047  1.00  0.00    -0.351 N 
ATOM     66  C   UNL A   1      33.283  26.199  22.705  1.00  0.00     0.278 C 
ATOM     67  H   UNL A   1      32.805  28.107  22.396  1.00  0.00     0.163 HD
ATOM     68  O   UNL A   1      33.952  26.209  21.665  1.00  0.00    -0.268 OA
BRANCH  66  69
ATOM     69  C   UNL A   1      33.073  24.905  23.553  1.00  0.00     0.275 C 
ATOM     70  C   UNL A   1      33.738  23.738  22.783  1.00  0.00     0.085 C 
ATOM     71  N   UNL A   1      33.800  25.032  24.848  1.00  0.00    -0.320 N 
ATOM     72  C   UNL A   1      34.796  23.210  23.736  1.00  0.00     0.054 C 
ATOM     73  C   UNL A   1      35.124  24.430  24.591  1.00  0.00     0.188 C 
ATOM     74  H   UNL A   1      33.841  26.023  25.085  1.00  0.00     0.349 HD
ATOM     75  C   UNL A   1      36.055  22.609  23.128  1.00  0.00     0.010 C 
ATOM     76  C   UNL A   1      36.082  24.079  25.731  1.00  0.00     0.065 C 
ATOM     77  C   UNL A   1      37.027  22.228  24.252  1.00  0.00     0.001 C 
ATOM     78  C   UNL A   1      37.345  23.413  25.172  1.00  0.00     0.006 C 
BRANCH  71  79
ATOM     79  C   UNL A   1      33.153  24.690  26.132  1.00  0.00     0.186 C 
ATOM     80  C   UNL A   1      31.818  25.424  26.387  1.00  0.00     0.076 C 
ATOM     81  C   UNL A   1      33.060  23.218  26.588  1.00  0.00     0.076 C 
ATOM     82  C   UNL A   1      30.544  24.741  25.906  1.00  0.00     0.075 C 
ATOM     83  C   UNL A   1      31.942  22.399  25.973  1.00  0.00     0.075 C 
ATOM     84  S   UNL A   1      30.337  23.049  26.500  1.00  0.00    -0.162 SA
ENDBRANCH  71  79
ENDBRANCH  66  69
ENDBRANCH  64  65
ENDBRANCH  63  64
ENDBRANCH   1  63
TORSDOF 12
ENDMDL
MODEL 2
REMARK VINA RESULT:     -11.5      3.580      7.043
REMARK SMILES O=C(NCCCCNC(=O)[C@H]1C[C@H]2CCCC[C@@H]2[N@@H+]1C1CCSCC1)c1ccc(-c2c3nc(c(-c4c(F)cccc4F)c4ccc([nH]4)c(-c4c(F)cccc4F)c4nc(c(-c5c(F)cccc5F)c5ccc2[nH]5)C=C4)C=C3)cc1
REMARK SMILES IDX 5 1 4 2 3 3 1 4 2 5 26 7 27 8 79 9 28 10 78 11 29 12 30 13
REMARK SMILES IDX 31 14 72 15 32 16 77 17 71 18 73 19 33 20 76 21 70 22 69 23
REMARK SMILES IDX 34 25 60 26 43 27 59 28 44 29 47 30 58 31 74 32 45 33 46 34
REMARK SMILES IDX 57 36 75 37 48 38 35 39 36 40 41 41 37 42 38 43 40 44 42 45
REMARK SMILES IDX 39 46 61 47 62 48 67 49 63 50 64 51 66 52 68 53 65 54 49 55
REMARK SMILES IDX 50 56 55 57 51 58 52 59 54 60 56 61 53 62 6 63 7 64 8 65
REMARK SMILES IDX 9 66 10 68 11 69 12 70 19 71 13 72 18 73 14 75 17 76 15 77
REMARK SMILES IDX 16 78 20 79 21 80 25 81 22 82 24 83 23 84
REMARK H PARENT 3 6 73 24 47 35 8 67 19 74
REMARK Flexibility Score: inf
ROOT
ATOM      1  C   UNL A   1      31.725  29.934  25.445  1.00  0.00     0.023 C 
ENDROOT
BRANCH   1   2
ATOM      2  C   UNL A   1      32.104  30.442  26.828  1.00  0.00     0.116 C 
BRANCH   2   3
ATOM      3  N   UNL A   1      31.953  31.882  26.996  1.00  0.00    -0.352 N 
ATOM      4  O   UNL A   1      32.583  33.955  27.658  1.00  0.00    -0.269 OA
ATOM      5  C   UNL A   1      32.868  32.775  27.507  1.00  0.00     0.251 C 
ATOM      6  H   UNL A   1      31.091  32.263  26.709  1.00  0.00     0.163 HD
BRANCH   5   7
ATOM      7  C   UNL A   1      34.188  32.263  27.928  1.00  0.00     0.039 A 
ATOM      8  C   UNL A   1      34.340  30.916  28.259  1.00  0.00     0.014 A 
ATOM      9  C   UNL A   1      35.246  33.160  28.089  1.00  0.00     0.014 A 
ATOM     10  C   UNL A   1      35.484  30.507  28.928  1.00  0.00     0.010 A 
ATOM     11  C   UNL A   1      36.435  32.721  28.674  1.00  0.00     0.010 A 
ATOM     12  C   UNL A   1      36.542  31.404  29.148  1.00  0.00    -0.014 A 
BRANCH  12  13
ATOM     13  C   UNL A   1      37.748  30.924  29.865  1.00  0.00     0.031 A 
ATOM     14  C   UNL A   1      37.965  31.237  31.320  1.00  0.00     0.074 A 
ATOM     15  C   UNL A   1      38.616  30.135  29.204  1.00  0.00     0.049 A 
ATOM     16  N   UNL A   1      38.937  30.848  32.107  1.00  0.00    -0.248 NA
ATOM     17  C   UNL A   1      36.974  32.104  31.977  1.00  0.00     0.031 C 
ATOM     18  C   UNL A   1      38.507  29.766  27.790  1.00  0.00     0.029 A 
ATOM     19  N   UNL A   1      39.734  29.471  29.636  1.00  0.00    -0.354 N 
ATOM     20  C   UNL A   1      38.696  31.449  33.337  1.00  0.00     0.074 A 
ATOM     21  C   UNL A   1      37.490  32.237  33.191  1.00  0.00     0.031 C 
ATOM     22  C   UNL A   1      39.471  28.885  27.491  1.00  0.00     0.029 A 
ATOM     23  C   UNL A   1      40.302  28.677  28.671  1.00  0.00     0.049 A 
ATOM     24  H   UNL A   1      40.093  29.556  30.549  1.00  0.00     0.167 HD
ATOM     25  C   UNL A   1      39.414  31.350  34.480  1.00  0.00     0.037 A 
ATOM     26  C   UNL A   1      41.377  27.871  28.728  1.00  0.00     0.037 A 
ATOM     27  C   UNL A   1      40.589  30.530  34.632  1.00  0.00     0.049 A 
ATOM     28  C   UNL A   1      42.143  27.767  30.012  1.00  0.00     0.074 A 
ATOM     29  C   UNL A   1      41.362  30.331  35.765  1.00  0.00     0.029 A 
ATOM     30  N   UNL A   1      41.159  29.771  33.622  1.00  0.00    -0.354 N 
ATOM     31  N   UNL A   1      41.896  28.334  31.167  1.00  0.00    -0.248 NA
ATOM     32  C   UNL A   1      43.344  26.922  29.996  1.00  0.00     0.031 C 
ATOM     33  C   UNL A   1      42.417  29.474  35.429  1.00  0.00     0.029 A 
ATOM     34  C   UNL A   1      42.281  29.114  34.098  1.00  0.00     0.049 A 
ATOM     35  H   UNL A   1      40.815  29.709  32.701  1.00  0.00     0.167 HD
ATOM     36  C   UNL A   1      42.905  27.912  32.019  1.00  0.00     0.074 A 
ATOM     37  C   UNL A   1      43.755  27.022  31.253  1.00  0.00     0.031 C 
ATOM     38  C   UNL A   1      43.114  28.237  33.318  1.00  0.00     0.037 A 
BRANCH  25  39
ATOM     39  C   UNL A   1      38.964  32.165  35.658  1.00  0.00     0.057 A 
ATOM     40  C   UNL A   1      38.183  31.622  36.683  1.00  0.00     0.134 A 
ATOM     41  C   UNL A   1      39.360  33.504  35.784  1.00  0.00     0.134 A 
ATOM     42  F   UNL A   1      37.760  30.350  36.616  1.00  0.00    -0.206 F 
ATOM     43  C   UNL A   1      37.795  32.386  37.786  1.00  0.00     0.040 A 
ATOM     44  C   UNL A   1      38.995  34.271  36.892  1.00  0.00     0.040 A 
ATOM     45  F   UNL A   1      40.113  34.083  34.838  1.00  0.00    -0.206 F 
ATOM     46  C   UNL A   1      38.206  33.713  37.896  1.00  0.00     0.006 A 
ENDBRANCH  25  39
BRANCH  26  47
ATOM     47  C   UNL A   1      41.775  27.095  27.531  1.00  0.00     0.057 A 
ATOM     48  C   UNL A   1      41.325  25.784  27.340  1.00  0.00     0.134 A 
ATOM     49  C   UNL A   1      42.585  27.655  26.535  1.00  0.00     0.134 A 
ATOM     50  F   UNL A   1      40.558  25.192  28.267  1.00  0.00    -0.206 F 
ATOM     51  C   UNL A   1      41.671  25.054  26.203  1.00  0.00     0.040 A 
ATOM     52  C   UNL A   1      42.919  26.945  25.383  1.00  0.00     0.040 A 
ATOM     53  F   UNL A   1      43.038  28.910  26.659  1.00  0.00    -0.206 F 
ATOM     54  C   UNL A   1      42.465  25.638  25.216  1.00  0.00     0.006 A 
ENDBRANCH  26  47
BRANCH  38  55
ATOM     55  C   UNL A   1      44.300  27.611  33.984  1.00  0.00     0.057 A 
ATOM     56  C   UNL A   1      45.547  28.247  34.011  1.00  0.00     0.134 A 
ATOM     57  C   UNL A   1      44.191  26.364  34.612  1.00  0.00     0.134 A 
ATOM     58  F   UNL A   1      45.716  29.435  33.412  1.00  0.00    -0.206 F 
ATOM     59  C   UNL A   1      46.653  27.653  34.618  1.00  0.00     0.040 A 
ATOM     60  C   UNL A   1      45.286  25.770  35.240  1.00  0.00     0.040 A 
ATOM     61  F   UNL A   1      43.022  25.707  34.624  1.00  0.00    -0.206 F 
ATOM     62  C   UNL A   1      46.523  26.411  35.240  1.00  0.00     0.006 A 
ENDBRANCH  38  55
ENDBRANCH  12  13
ENDBRANCH   5   7
ENDBRANCH   2   3
ENDBRANCH   1   2
BRANCH   1  63
ATOM     63  C   UNL A   1      32.567  28.757  24.970  1.00  0.00     0.023 C 
BRANCH  63  64
ATOM     64  C   UNL A   1      31.819  27.715  24.138  1.00  0.00     0.116 C 
BRANCH  64  65
ATOM     65  N   UNL A   1      32.587  27.341  22.972  1.00  0.00    -0.351 N 
ATOM     66  C   UNL A   1      33.200  26.160  22.662  1.00  0.00     0.278 C 
ATOM     67  H   UNL A   1      32.684  28.048  22.295  1.00  0.00     0.163 HD
ATOM     68  O   UNL A   1      33.856  26.146  21.615  1.00  0.00    -0.268 OA
BRANCH  66  69
ATOM     69  C   UNL A   1      33.023  24.893  23.557  1.00  0.00     0.275 C 
ATOM     70  C   UNL A   1      33.715  23.715  22.827  1.00  0.00     0.085 C 
ATOM     71  N   UNL A   1      33.750  25.082  24.844  1.00  0.00    -0.320 N 
ATOM     72  C   UNL A   1      34.788  23.247  23.794  1.00  0.00     0.054 C 
ATOM     73  C   UNL A   1      35.088  24.505  24.604  1.00  0.00     0.188 C 
ATOM     74  H   UNL A   1      33.767  26.083  25.046  1.00  0.00     0.349 HD
ATOM     75  C   UNL A   1      36.060  22.655  23.204  1.00  0.00     0.010 C 
ATOM     76  C   UNL A   1      36.057  24.218  25.753  1.00  0.00     0.065 C 
ATOM     77  C   UNL A   1      37.043  22.339  24.337  1.00  0.00     0.001 C 
ATOM     78  C   UNL A   1      37.334  23.563  25.214  1.00  0.00     0.006 C 
BRANCH  71  79
ATOM     79  C   UNL A   1      33.115  24.772  26.142  1.00  0.00     0.186 C 
ATOM     80  C   UNL A   1      31.743  25.449  26.357  1.00  0.00     0.076 C 
ATOM     81  C   UNL A   1      33.094  23.320  26.669  1.00  0.00     0.076 C 
ATOM     82  C   UNL A   1      30.508  24.680  25.906  1.00  0.00     0.075 C 
ATOM     83  C   UNL A   1      32.021  22.417  26.091  1.00  0.00     0.075 C 
ATOM     84  S   UNL A   1      30.383  23.010  26.582  1.00  0.00    -0.162 SA
ENDBRANCH  71  79
ENDBRANCH  66  69
ENDBRANCH  64  65
ENDBRANCH  63  64
ENDBRANCH   1  63
TORSDOF 12
ENDMDL
MODEL 3
REMARK VINA RESULT:     -11.5      0.657      6.268
REMARK SMILES O=C(NCCCCNC(=O)[C@H]1C[C@H]2CCCC[C@@H]2[N@@H+]1C1CCSCC1)c1ccc(-c2c3nc(c(-c4c(F)cccc4F)c4ccc([nH]4)c(-c4c(F)cccc4F)c4nc(c(-c5c(F)cccc5F)c5ccc2[nH]5)C=C4)C=C3)cc1
REMARK SMILES IDX 5 1 4 2 3 3 1 4 2 5 26 7 27 8 79 9 28 10 78 11 29 12 30 13
REMARK SMILES IDX 31 14 72 15 32 16 77 17 71 18 73 19 33 20 76 21 70 22 69 23
REMARK SMILES IDX 34 25 60 26 43 27 59 28 44 29 47 30 58 31 74 32 45 33 46 34
REMARK SMILES IDX 57 36 75 37 48 38 35 39 36 40 41 41 37 42 38 43 40 44 42 45
REMARK SMILES IDX 39 46 61 47 62 48 67 49 63 50 64 51 66 52 68 53 65 54 49 55
REMARK SMILES IDX 50 56 55 57 51 58 52 59 54 60 56 61 53 62 6 63 7 64 8 65
REMARK SMILES IDX 9 66 10 68 11 69 12 70 19 71 13 72 18 73 14 75 17 76 15 77
REMARK SMILES IDX 16 78 20 79 21 80 25 81 22 82 24 83 23 84
REMARK H PARENT 3 6 73 24 47 35 8 67 19 74
REMARK Flexibility Score: inf
ROOT
ATOM      1  C   UNL A   1      33.661  28.447  25.852  1.00  0.00     0.023 C 
ENDROOT
BRANCH   1   2
ATOM      2  C   UNL A   1      33.680  28.578  27.368  1.00  0.00     0.116 C 
BRANCH   2   3
ATOM      3  N   UNL A   1      33.647  29.955  27.846  1.00  0.00    -0.352 N 
ATOM      4  O   UNL A   1      34.505  31.826  28.792  1.00  0.00    -0.269 OA
ATOM      5  C   UNL A   1      34.688  30.697  28.359  1.00  0.00     0.251 C 
ATOM      6  H   UNL A   1      32.775  30.409  27.799  1.00  0.00     0.163 HD
BRANCH   5   7
ATOM      7  C   UNL A   1      36.026  30.074  28.428  1.00  0.00     0.039 A 
ATOM      8  C   UNL A   1      36.462  29.490  29.617  1.00  0.00     0.014 A 
ATOM      9  C   UNL A   1      36.880  30.174  27.328  1.00  0.00     0.014 A 
ATOM     10  C   UNL A   1      37.804  29.178  29.768  1.00  0.00     0.010 A 
ATOM     11  C   UNL A   1      38.210  29.767  27.452  1.00  0.00     0.010 A 
ATOM     12  C   UNL A   1      38.695  29.318  28.690  1.00  0.00    -0.014 A 
BRANCH  12  13
ATOM     13  C   UNL A   1      40.122  28.971  28.894  1.00  0.00     0.031 A 
ATOM     14  C   UNL A   1      41.042  29.878  29.664  1.00  0.00     0.074 A 
ATOM     15  C   UNL A   1      40.566  27.785  28.436  1.00  0.00     0.049 A 
ATOM     16  N   UNL A   1      42.300  29.697  29.979  1.00  0.00    -0.248 NA
ATOM     17  C   UNL A   1      40.486  31.157  30.135  1.00  0.00     0.031 C 
ATOM     18  C   UNL A   1      39.764  26.825  27.674  1.00  0.00     0.029 A 
ATOM     19  N   UNL A   1      41.781  27.168  28.575  1.00  0.00    -0.354 N 
ATOM     20  C   UNL A   1      42.696  30.848  30.649  1.00  0.00     0.074 A 
ATOM     21  C   UNL A   1      41.547  31.727  30.690  1.00  0.00     0.031 C 
ATOM     22  C   UNL A   1      40.482  25.711  27.478  1.00  0.00     0.029 A 
ATOM     23  C   UNL A   1      41.813  25.903  28.043  1.00  0.00     0.049 A 
ATOM     24  H   UNL A   1      42.555  27.590  29.013  1.00  0.00     0.167 HD
ATOM     25  C   UNL A   1      43.906  31.141  31.182  1.00  0.00     0.037 A 
ATOM     26  C   UNL A   1      42.806  24.996  28.009  1.00  0.00     0.037 A 
ATOM     27  C   UNL A   1      45.034  30.245  31.177  1.00  0.00     0.049 A 
ATOM     28  C   UNL A   1      44.128  25.341  28.622  1.00  0.00     0.074 A 
ATOM     29  C   UNL A   1      46.290  30.434  31.730  1.00  0.00     0.029 A 
ATOM     30  N   UNL A   1      45.041  28.987  30.593  1.00  0.00    -0.354 N 
ATOM     31  N   UNL A   1      44.482  26.429  29.260  1.00  0.00    -0.248 NA
ATOM     32  C   UNL A   1      45.193  24.337  28.498  1.00  0.00     0.031 C 
ATOM     33  C   UNL A   1      47.065  29.302  31.452  1.00  0.00     0.029 A 
ATOM     34  C   UNL A   1      46.282  28.395  30.758  1.00  0.00     0.049 A 
ATOM     35  H   UNL A   1      44.275  28.576  30.130  1.00  0.00     0.167 HD
ATOM     36  C   UNL A   1      45.808  26.241  29.621  1.00  0.00     0.074 A 
ATOM     37  C   UNL A   1      46.188  24.924  29.150  1.00  0.00     0.031 C 
ATOM     38  C   UNL A   1      46.639  27.086  30.278  1.00  0.00     0.037 A 
BRANCH  25  39
ATOM     39  C   UNL A   1      44.084  32.497  31.800  1.00  0.00     0.057 A 
ATOM     40  C   UNL A   1      44.512  33.602  31.056  1.00  0.00     0.134 A 
ATOM     41  C   UNL A   1      43.780  32.705  33.152  1.00  0.00     0.134 A 
ATOM     42  F   UNL A   1      44.832  33.467  29.759  1.00  0.00    -0.206 F 
ATOM     43  C   UNL A   1      44.647  34.865  31.637  1.00  0.00     0.040 A 
ATOM     44  C   UNL A   1      43.892  33.966  33.739  1.00  0.00     0.040 A 
ATOM     45  F   UNL A   1      43.361  31.689  33.920  1.00  0.00    -0.206 F 
ATOM     46  C   UNL A   1      44.331  35.051  32.982  1.00  0.00     0.006 A 
ENDBRANCH  25  39
BRANCH  26  47
ATOM     47  C   UNL A   1      42.570  23.675  27.381  1.00  0.00     0.057 A 
ATOM     48  C   UNL A   1      42.734  23.492  26.004  1.00  0.00     0.134 A 
ATOM     49  C   UNL A   1      42.209  22.558  28.146  1.00  0.00     0.134 A 
ATOM     50  F   UNL A   1      43.065  24.529  25.220  1.00  0.00    -0.206 F 
ATOM     51  C   UNL A   1      42.542  22.246  25.406  1.00  0.00     0.040 A 
ATOM     52  C   UNL A   1      42.038  21.303  27.565  1.00  0.00     0.040 A 
ATOM     53  F   UNL A   1      42.048  22.671  29.471  1.00  0.00    -0.206 F 
ATOM     54  C   UNL A   1      42.200  21.145  26.190  1.00  0.00     0.006 A 
ENDBRANCH  26  47
BRANCH  38  55
ATOM     55  C   UNL A   1      48.031  26.596  30.532  1.00  0.00     0.057 A 
ATOM     56  C   UNL A   1      49.073  26.844  29.628  1.00  0.00     0.134 A 
ATOM     57  C   UNL A   1      48.335  25.878  31.694  1.00  0.00     0.134 A 
ATOM     58  F   UNL A   1      48.839  27.513  28.489  1.00  0.00    -0.206 F 
ATOM     59  C   UNL A   1      50.364  26.372  29.861  1.00  0.00     0.040 A 
ATOM     60  C   UNL A   1      49.627  25.418  31.946  1.00  0.00     0.040 A 
ATOM     61  F   UNL A   1      47.382  25.612  32.599  1.00  0.00    -0.206 F 
ATOM     62  C   UNL A   1      50.645  25.659  31.026  1.00  0.00     0.006 A 
ENDBRANCH  38  55
ENDBRANCH  12  13
ENDBRANCH   5   7
ENDBRANCH   2   3
ENDBRANCH   1   2
BRANCH   1  63
ATOM     63  C   UNL A   1      32.303  28.742  25.226  1.00  0.00     0.023 C 
BRANCH  63  64
ATOM     64  C   UNL A   1      31.728  27.620  24.362  1.00  0.00     0.116 C 
BRANCH  64  65
ATOM     65  N   UNL A   1      32.578  27.364  23.221  1.00  0.00    -0.351 N 
ATOM     66  C   UNL A   1      33.254  26.233  22.863  1.00  0.00     0.278 C 
ATOM     67  H   UNL A   1      32.685  28.124  22.605  1.00  0.00     0.163 HD
ATOM     68  O   UNL A   1      33.971  26.322  21.859  1.00  0.00    -0.268 OA
BRANCH  66  69
ATOM     69  C   UNL A   1      33.076  24.895  23.649  1.00  0.00     0.275 C 
ATOM     70  C   UNL A   1      33.792  23.787  22.837  1.00  0.00     0.085 C 
ATOM     71  N   UNL A   1      33.781  24.987  24.958  1.00  0.00    -0.320 N 
ATOM     72  C   UNL A   1      34.854  23.252  23.782  1.00  0.00     0.054 C 
ATOM     73  C   UNL A   1      35.128  24.443  24.695  1.00  0.00     0.188 C 
ATOM     74  H   UNL A   1      33.784  25.967  25.241  1.00  0.00     0.349 HD
ATOM     75  C   UNL A   1      36.142  22.722  23.166  1.00  0.00     0.010 C 
ATOM     76  C   UNL A   1      36.082  24.072  25.834  1.00  0.00     0.065 C 
ATOM     77  C   UNL A   1      37.110  22.324  24.287  1.00  0.00     0.001 C 
ATOM     78  C   UNL A   1      37.375  23.476  25.265  1.00  0.00     0.006 C 
BRANCH  71  79
ATOM     79  C   UNL A   1      33.128  24.566  26.217  1.00  0.00     0.186 C 
ATOM     80  C   UNL A   1      31.762  25.236  26.480  1.00  0.00     0.076 C 
ATOM     81  C   UNL A   1      33.085  23.072  26.607  1.00  0.00     0.076 C 
ATOM     82  C   UNL A   1      30.523  24.528  25.949  1.00  0.00     0.075 C 
ATOM     83  C   UNL A   1      32.009  22.239  25.938  1.00  0.00     0.075 C 
ATOM     84  S   UNL A   1      30.372  22.805  26.466  1.00  0.00    -0.162 SA
ENDBRANCH  71  79
ENDBRANCH  66  69
ENDBRANCH  64  65
ENDBRANCH  63  64
ENDBRANCH   1  63
TORSDOF 12
ENDMDL
