MODEL 1
REMARK VINA RESULT:     -12.8      0.000      0.000
REMARK SMILES O=C(Cn1c2ccccc2c(=O)c2ccccc21)N[C@@H](Cc1ccccc1)C(=O)NCCCCNC(=O)c1ccc(-c2c3nc(c(-c4c(F)cccc4F)c4ccc([nH]4)c(-c4c(F)cccc4F)c4nc(c(-c5c(F)cccc5F)c5ccc2[nH]5)C=C4)C=C3)cc1
REMARK SMILES IDX 32 1 31 2 30 3 28 4 29 5 20 7 19 8 1 9 2 10 3 12 4 13 5 14
REMARK SMILES IDX 18 15 6 16 10 17 13 18 17 19 7 20 9 21 11 22 14 23 16 24
REMARK SMILES IDX 8 25 12 26 15 27 21 28 22 29 23 30 27 31 24 32 26 33 25 34
REMARK SMILES IDX 33 35 34 36 35 37 36 38 37 40 38 41 39 42 91 43 40 44 90 45
REMARK SMILES IDX 41 46 42 47 43 48 84 49 44 50 89 51 83 52 85 53 45 54 88 55
REMARK SMILES IDX 82 56 81 57 46 59 72 60 55 61 71 62 56 63 59 64 70 65 86 66
REMARK SMILES IDX 57 67 58 68 69 70 87 71 60 72 47 73 48 74 53 75 49 76 50 77
REMARK SMILES IDX 52 78 54 79 51 80 73 81 74 82 79 83 75 84 76 85 78 86 80 87
REMARK SMILES IDX 77 88 61 89 62 90 67 91 63 92 64 93 66 94 68 95 65 96
REMARK H PARENT 30 6 19 11 35 39 85 58 59 69
REMARK Flexibility Score: inf
ROOT
ATOM      1  C   UNL A   1      36.784  23.745  25.089  1.00  0.00     0.023 C 
ENDROOT
BRANCH   1   2
ATOM      2  C   UNL A   1      35.302  23.937  25.351  1.00  0.00     0.116 C 
BRANCH   2   3
ATOM      3  N   UNL A   1      34.854  23.364  26.599  1.00  0.00    -0.354 N 
ATOM      4  C   UNL A   1      34.011  22.312  26.817  1.00  0.00     0.242 C 
ATOM      5  O   UNL A   1      34.185  21.683  27.867  1.00  0.00    -0.273 OA
ATOM      6  H   UNL A   1      35.207  23.795  27.411  1.00  0.00     0.163 HD
BRANCH   4   7
ATOM      7  C   UNL A   1      32.987  21.809  25.769  1.00  0.00     0.175 C 
BRANCH   7   8
ATOM      8  N   UNL A   1      32.031  22.817  25.294  1.00  0.00    -0.342 N 
ATOM      9  O   UNL A   1      31.638  23.673  27.381  1.00  0.00    -0.273 OA
ATOM     10  C   UNL A   1      31.493  23.749  26.162  1.00  0.00     0.240 C 
ATOM     11  H   UNL A   1      31.770  22.829  24.345  1.00  0.00     0.164 HD
BRANCH  10  12
ATOM     12  C   UNL A   1      30.663  24.871  25.521  1.00  0.00     0.222 C 
BRANCH  12  13
ATOM     13  N   UNL A   1      31.517  25.933  24.934  1.00  0.00    -0.331 N 
ATOM     14  C   UNL A   1      31.983  25.817  23.603  1.00  0.00     0.053 A 
ATOM     15  C   UNL A   1      31.823  27.060  25.750  1.00  0.00     0.053 A 
ATOM     16  C   UNL A   1      31.696  24.734  22.750  1.00  0.00     0.027 A 
ATOM     17  C   UNL A   1      32.799  26.829  23.055  1.00  0.00     0.046 A 
ATOM     18  C   UNL A   1      32.657  28.082  25.257  1.00  0.00     0.046 A 
ATOM     19  C   UNL A   1      31.333  27.248  27.057  1.00  0.00     0.027 A 
ATOM     20  C   UNL A   1      32.192  24.666  21.439  1.00  0.00     0.002 A 
ATOM     21  C   UNL A   1      33.295  26.769  21.740  1.00  0.00     0.014 A 
ATOM     22  C   UNL A   1      33.198  27.978  23.891  1.00  0.00     0.197 A 
ATOM     23  C   UNL A   1      32.994  29.214  26.021  1.00  0.00     0.014 A 
ATOM     24  C   UNL A   1      31.660  28.376  27.824  1.00  0.00     0.002 A 
ATOM     25  C   UNL A   1      32.991  25.683  20.932  1.00  0.00     0.001 A 
ATOM     26  O   UNL A   1      33.975  28.825  23.457  1.00  0.00    -0.288 OA
ATOM     27  C   UNL A   1      32.493  29.360  27.307  1.00  0.00     0.001 A 
ENDBRANCH  12  13
ENDBRANCH  10  12
ENDBRANCH   7   8
BRANCH   7  28
ATOM     28  C   UNL A   1      33.614  20.939  24.661  1.00  0.00     0.070 C 
BRANCH  28  29
ATOM     29  C   UNL A   1      33.660  19.442  24.856  1.00  0.00    -0.045 A 
ATOM     30  C   UNL A   1      34.746  18.691  24.384  1.00  0.00     0.004 A 
ATOM     31  C   UNL A   1      32.587  18.766  25.454  1.00  0.00     0.004 A 
ATOM     32  C   UNL A   1      34.771  17.303  24.539  1.00  0.00     0.000 A 
ATOM     33  C   UNL A   1      32.628  17.382  25.639  1.00  0.00     0.000 A 
ATOM     34  C   UNL A   1      33.721  16.651  25.183  1.00  0.00     0.000 A 
ENDBRANCH  28  29
ENDBRANCH   7  28
ENDBRANCH   4   7
ENDBRANCH   2   3
ENDBRANCH   1   2
BRANCH   1  35
ATOM     35  C   UNL A   1      37.259  22.302  24.981  1.00  0.00     0.023 C 
BRANCH  35  36
ATOM     36  C   UNL A   1      38.496  21.940  25.798  1.00  0.00     0.116 C 
BRANCH  36  37
ATOM     37  N   UNL A   1      39.025  20.597  25.573  1.00  0.00    -0.352 N 
ATOM     38  C   UNL A   1      40.263  20.102  25.933  1.00  0.00     0.251 C 
ATOM     39  H   UNL A   1      38.425  19.968  25.111  1.00  0.00     0.163 HD
ATOM     40  O   UNL A   1      40.586  18.946  25.689  1.00  0.00    -0.269 OA
BRANCH  38  41
ATOM     41  C   UNL A   1      41.220  21.037  26.559  1.00  0.00     0.039 A 
ATOM     42  C   UNL A   1      41.252  21.153  27.949  1.00  0.00     0.014 A 
ATOM     43  C   UNL A   1      41.889  21.951  25.743  1.00  0.00     0.014 A 
ATOM     44  C   UNL A   1      41.744  22.326  28.510  1.00  0.00     0.010 A 
ATOM     45  C   UNL A   1      42.457  23.086  26.320  1.00  0.00     0.010 A 
ATOM     46  C   UNL A   1      42.297  23.329  27.694  1.00  0.00    -0.014 A 
BRANCH  46  47
ATOM     47  C   UNL A   1      42.570  24.671  28.272  1.00  0.00     0.031 A 
ATOM     48  C   UNL A   1      43.980  25.074  28.631  1.00  0.00     0.074 A 
ATOM     49  C   UNL A   1      41.571  25.564  28.395  1.00  0.00     0.049 A 
ATOM     50  N   UNL A   1      44.414  26.194  29.155  1.00  0.00    -0.248 NA
ATOM     51  C   UNL A   1      45.044  24.090  28.369  1.00  0.00     0.031 C 
ATOM     52  C   UNL A   1      40.171  25.315  28.052  1.00  0.00     0.029 A 
ATOM     53  N   UNL A   1      41.589  26.868  28.815  1.00  0.00    -0.354 N 
ATOM     54  C   UNL A   1      45.786  26.036  29.316  1.00  0.00     0.074 A 
ATOM     55  C   UNL A   1      46.113  24.705  28.852  1.00  0.00     0.031 C 
ATOM     56  C   UNL A   1      39.471  26.443  28.234  1.00  0.00     0.029 A 
ATOM     57  C   UNL A   1      40.360  27.476  28.759  1.00  0.00     0.049 A 
ATOM     58  H   UNL A   1      42.403  27.324  29.127  1.00  0.00     0.167 HD
ATOM     59  C   UNL A   1      46.695  26.920  29.795  1.00  0.00     0.037 A 
ATOM     60  C   UNL A   1      39.985  28.720  29.105  1.00  0.00     0.037 A 
ATOM     61  C   UNL A   1      46.384  28.261  30.217  1.00  0.00     0.049 A 
ATOM     62  C   UNL A   1      41.004  29.673  29.656  1.00  0.00     0.074 A 
ATOM     63  C   UNL A   1      47.241  29.237  30.696  1.00  0.00     0.029 A 
ATOM     64  N   UNL A   1      45.115  28.817  30.197  1.00  0.00    -0.354 N 
ATOM     65  N   UNL A   1      42.290  29.495  29.832  1.00  0.00    -0.248 NA
ATOM     66  C   UNL A   1      40.514  30.995  30.067  1.00  0.00     0.031 C 
ATOM     67  C   UNL A   1      46.483  30.378  30.992  1.00  0.00     0.029 A 
ATOM     68  C   UNL A   1      45.161  30.118  30.669  1.00  0.00     0.049 A 
ATOM     69  H   UNL A   1      44.301  28.355  29.893  1.00  0.00     0.167 HD
ATOM     70  C   UNL A   1      42.763  30.678  30.385  1.00  0.00     0.074 A 
ATOM     71  C   UNL A   1      41.630  31.576  30.484  1.00  0.00     0.031 C 
ATOM     72  C   UNL A   1      44.021  30.988  30.783  1.00  0.00     0.037 A 
BRANCH  59  73
ATOM     73  C   UNL A   1      48.117  26.453  29.902  1.00  0.00     0.057 A 
ATOM     74  C   UNL A   1      49.007  26.633  28.835  1.00  0.00     0.134 A 
ATOM     75  C   UNL A   1      48.601  25.809  31.048  1.00  0.00     0.134 A 
ATOM     76  F   UNL A   1      48.606  27.238  27.708  1.00  0.00    -0.206 F 
ATOM     77  C   UNL A   1      50.331  26.194  28.907  1.00  0.00     0.040 A 
ATOM     78  C   UNL A   1      49.928  25.384  31.139  1.00  0.00     0.040 A 
ATOM     79  F   UNL A   1      47.802  25.621  32.109  1.00  0.00    -0.206 F 
ATOM     80  C   UNL A   1      50.796  25.572  30.064  1.00  0.00     0.006 A 
ENDBRANCH  59  73
BRANCH  60  81
ATOM     81  C   UNL A   1      38.567  29.119  28.962  1.00  0.00     0.057 A 
ATOM     82  C   UNL A   1      38.068  29.591  27.742  1.00  0.00     0.134 A 
ATOM     83  C   UNL A   1      37.688  29.064  30.048  1.00  0.00     0.134 A 
ATOM     84  F   UNL A   1      38.867  29.670  26.669  1.00  0.00    -0.206 F 
ATOM     85  C   UNL A   1      36.745  30.013  27.612  1.00  0.00     0.040 A 
ATOM     86  C   UNL A   1      36.357  29.464  29.926  1.00  0.00     0.040 A 
ATOM     87  F   UNL A   1      38.109  28.603  31.235  1.00  0.00    -0.206 F 
ATOM     88  C   UNL A   1      35.885  29.947  28.706  1.00  0.00     0.006 A 
ENDBRANCH  60  81
BRANCH  72  89
ATOM     89  C   UNL A   1      44.222  32.349  31.373  1.00  0.00     0.057 A 
ATOM     90  C   UNL A   1      44.115  32.558  32.753  1.00  0.00     0.134 A 
ATOM     91  C   UNL A   1      44.518  33.455  30.567  1.00  0.00     0.134 A 
ATOM     92  F   UNL A   1      43.831  31.539  33.577  1.00  0.00    -0.206 F 
ATOM     93  C   UNL A   1      44.301  33.824  33.312  1.00  0.00     0.040 A 
ATOM     94  C   UNL A   1      44.723  34.722  31.117  1.00  0.00     0.040 A 
ATOM     95  F   UNL A   1      44.649  33.313  29.240  1.00  0.00    -0.206 F 
ATOM     96  C   UNL A   1      44.612  34.908  32.494  1.00  0.00     0.006 A 
ENDBRANCH  72  89
ENDBRANCH  46  47
ENDBRANCH  38  41
ENDBRANCH  36  37
ENDBRANCH  35  36
ENDBRANCH   1  35
TORSDOF 16
ENDMDL
MODEL 2
REMARK VINA RESULT:     -12.7      0.121      2.008
REMARK SMILES O=C(Cn1c2ccccc2c(=O)c2ccccc21)N[C@@H](Cc1ccccc1)C(=O)NCCCCNC(=O)c1ccc(-c2c3nc(c(-c4c(F)cccc4F)c4ccc([nH]4)c(-c4c(F)cccc4F)c4nc(c(-c5c(F)cccc5F)c5ccc2[nH]5)C=C4)C=C3)cc1
REMARK SMILES IDX 32 1 31 2 30 3 28 4 29 5 20 7 19 8 1 9 2 10 3 12 4 13 5 14
REMARK SMILES IDX 18 15 6 16 10 17 13 18 17 19 7 20 9 21 11 22 14 23 16 24
REMARK SMILES IDX 8 25 12 26 15 27 21 28 22 29 23 30 27 31 24 32 26 33 25 34
REMARK SMILES IDX 33 35 34 36 35 37 36 38 37 40 38 41 39 42 91 43 40 44 90 45
REMARK SMILES IDX 41 46 42 47 43 48 84 49 44 50 89 51 83 52 85 53 45 54 88 55
REMARK SMILES IDX 82 56 81 57 46 59 72 60 55 61 71 62 56 63 59 64 70 65 86 66
REMARK SMILES IDX 57 67 58 68 69 70 87 71 60 72 47 73 48 74 53 75 49 76 50 77
REMARK SMILES IDX 52 78 54 79 51 80 73 81 74 82 79 83 75 84 76 85 78 86 80 87
REMARK SMILES IDX 77 88 61 89 62 90 67 91 63 92 64 93 66 94 68 95 65 96
REMARK H PARENT 30 6 19 11 35 39 85 58 59 69
REMARK Flexibility Score: inf
ROOT
ATOM      1  C   UNL A   1      36.855  23.663  25.167  1.00  0.00     0.023 C 
ENDROOT
BRANCH   1   2
ATOM      2  C   UNL A   1      35.374  23.919  25.375  1.00  0.00     0.116 C 
BRANCH   2   3
ATOM      3  N   UNL A   1      34.863  23.396  26.621  1.00  0.00    -0.354 N 
ATOM      4  C   UNL A   1      33.991  22.368  26.837  1.00  0.00     0.242 C 
ATOM      5  O   UNL A   1      34.109  21.772  27.913  1.00  0.00    -0.273 OA
ATOM      6  H   UNL A   1      35.191  23.848  27.433  1.00  0.00     0.163 HD
BRANCH   4   7
ATOM      7  C   UNL A   1      33.001  21.849  25.764  1.00  0.00     0.175 C 
BRANCH   7   8
ATOM      8  N   UNL A   1      32.034  22.839  25.275  1.00  0.00    -0.342 N 
ATOM      9  O   UNL A   1      31.651  23.739  27.345  1.00  0.00    -0.273 OA
ATOM     10  C   UNL A   1      31.496  23.787  26.126  1.00  0.00     0.240 C 
ATOM     11  H   UNL A   1      31.765  22.828  24.328  1.00  0.00     0.164 HD
BRANCH  10  12
ATOM     12  C   UNL A   1      30.652  24.888  25.467  1.00  0.00     0.222 C 
BRANCH  12  13
ATOM     13  N   UNL A   1      31.490  25.987  24.927  1.00  0.00    -0.331 N 
ATOM     14  C   UNL A   1      31.799  27.109  25.732  1.00  0.00     0.053 A 
ATOM     15  C   UNL A   1      31.974  25.853  23.594  1.00  0.00     0.053 A 
ATOM     16  C   UNL A   1      31.360  27.281  27.059  1.00  0.00     0.027 A 
ATOM     17  C   UNL A   1      32.592  28.151  25.208  1.00  0.00     0.046 A 
ATOM     18  C   UNL A   1      32.746  26.880  23.017  1.00  0.00     0.046 A 
ATOM     19  C   UNL A   1      31.744  24.729  22.777  1.00  0.00     0.027 A 
ATOM     20  C   UNL A   1      31.690  28.420  27.811  1.00  0.00     0.002 A 
ATOM     21  C   UNL A   1      32.931  29.292  25.958  1.00  0.00     0.014 A 
ATOM     22  C   UNL A   1      33.054  28.085  23.808  1.00  0.00     0.197 A 
ATOM     23  C   UNL A   1      33.246  26.801  21.705  1.00  0.00     0.014 A 
ATOM     24  C   UNL A   1      32.243  24.641  21.469  1.00  0.00     0.002 A 
ATOM     25  C   UNL A   1      32.476  29.425  27.263  1.00  0.00     0.001 A 
ATOM     26  O   UNL A   1      33.674  29.021  23.311  1.00  0.00    -0.288 OA
ATOM     27  C   UNL A   1      32.993  25.677  20.931  1.00  0.00     0.001 A 
ENDBRANCH  12  13
ENDBRANCH  10  12
ENDBRANCH   7   8
BRANCH   7  28
ATOM     28  C   UNL A   1      33.672  21.001  24.664  1.00  0.00     0.070 C 
BRANCH  28  29
ATOM     29  C   UNL A   1      33.667  19.498  24.808  1.00  0.00    -0.045 A 
ATOM     30  C   UNL A   1      32.557  18.832  25.346  1.00  0.00     0.004 A 
ATOM     31  C   UNL A   1      34.800  18.745  24.468  1.00  0.00     0.004 A 
ATOM     32  C   UNL A   1      32.568  17.444  25.506  1.00  0.00     0.000 A 
ATOM     33  C   UNL A   1      34.798  17.354  24.596  1.00  0.00     0.000 A 
ATOM     34  C   UNL A   1      33.681  16.704  25.113  1.00  0.00     0.000 A 
ENDBRANCH  28  29
ENDBRANCH   7  28
ENDBRANCH   4   7
ENDBRANCH   2   3
ENDBRANCH   1   2
BRANCH   1  35
ATOM     35  C   UNL A   1      37.284  22.202  25.162  1.00  0.00     0.023 C 
BRANCH  35  36
ATOM     36  C   UNL A   1      38.581  21.881  25.898  1.00  0.00     0.116 C 
BRANCH  36  37
ATOM     37  N   UNL A   1      39.139  20.556  25.636  1.00  0.00    -0.352 N 
ATOM     38  C   UNL A   1      40.399  20.089  25.954  1.00  0.00     0.251 C 
ATOM     39  H   UNL A   1      38.545  19.920  25.178  1.00  0.00     0.163 HD
ATOM     40  O   UNL A   1      40.746  18.946  25.682  1.00  0.00    -0.269 OA
BRANCH  38  41
ATOM     41  C   UNL A   1      41.347  21.038  26.572  1.00  0.00     0.039 A 
ATOM     42  C   UNL A   1      41.380  21.166  27.961  1.00  0.00     0.014 A 
ATOM     43  C   UNL A   1      42.006  21.953  25.748  1.00  0.00     0.014 A 
ATOM     44  C   UNL A   1      41.861  22.348  28.512  1.00  0.00     0.010 A 
ATOM     45  C   UNL A   1      42.564  23.098  26.315  1.00  0.00     0.010 A 
ATOM     46  C   UNL A   1      42.403  23.350  27.688  1.00  0.00    -0.014 A 
BRANCH  46  47
ATOM     47  C   UNL A   1      42.663  24.699  28.255  1.00  0.00     0.031 A 
ATOM     48  C   UNL A   1      44.071  25.123  28.596  1.00  0.00     0.074 A 
ATOM     49  C   UNL A   1      41.653  25.578  28.383  1.00  0.00     0.049 A 
ATOM     50  N   UNL A   1      44.494  26.253  29.109  1.00  0.00    -0.248 NA
ATOM     51  C   UNL A   1      45.146  24.154  28.329  1.00  0.00     0.031 C 
ATOM     52  C   UNL A   1      40.253  25.307  28.056  1.00  0.00     0.029 A 
ATOM     53  N   UNL A   1      41.657  26.885  28.795  1.00  0.00    -0.354 N 
ATOM     54  C   UNL A   1      45.870  26.115  29.257  1.00  0.00     0.074 A 
ATOM     55  C   UNL A   1      46.211  24.787  28.797  1.00  0.00     0.031 C 
ATOM     56  C   UNL A   1      39.539  26.427  28.239  1.00  0.00     0.029 A 
ATOM     57  C   UNL A   1      40.419  27.475  28.748  1.00  0.00     0.049 A 
ATOM     58  H   UNL A   1      42.468  27.355  29.095  1.00  0.00     0.167 HD
ATOM     59  C   UNL A   1      46.771  27.014  29.721  1.00  0.00     0.037 A 
ATOM     60  C   UNL A   1      40.030  28.716  29.091  1.00  0.00     0.037 A 
ATOM     61  C   UNL A   1      46.446  28.353  30.138  1.00  0.00     0.049 A 
ATOM     62  C   UNL A   1      41.041  29.687  29.625  1.00  0.00     0.074 A 
ATOM     63  C   UNL A   1      47.294  29.345  30.603  1.00  0.00     0.029 A 
ATOM     64  N   UNL A   1      45.169  28.891  30.128  1.00  0.00    -0.354 N 
ATOM     65  N   UNL A   1      42.332  29.528  29.789  1.00  0.00    -0.248 NA
ATOM     66  C   UNL A   1      40.537  31.005  30.034  1.00  0.00     0.031 C 
ATOM     67  C   UNL A   1      46.523  30.476  30.900  1.00  0.00     0.029 A 
ATOM     68  C   UNL A   1      45.202  30.197  30.592  1.00  0.00     0.049 A 
ATOM     69  H   UNL A   1      44.358  28.416  29.835  1.00  0.00     0.167 HD
ATOM     70  C   UNL A   1      42.793  30.720  30.330  1.00  0.00     0.074 A 
ATOM     71  C   UNL A   1      41.649  31.603  30.436  1.00  0.00     0.031 C 
ATOM     72  C   UNL A   1      44.051  31.051  30.713  1.00  0.00     0.037 A 
BRANCH  59  73
ATOM     73  C   UNL A   1      48.201  26.568  29.816  1.00  0.00     0.057 A 
ATOM     74  C   UNL A   1      49.095  26.818  28.767  1.00  0.00     0.134 A 
ATOM     75  C   UNL A   1      48.689  25.876  30.931  1.00  0.00     0.134 A 
ATOM     76  F   UNL A   1      48.691  27.472  27.668  1.00  0.00    -0.206 F 
ATOM     77  C   UNL A   1      50.426  26.400  28.827  1.00  0.00     0.040 A 
ATOM     78  C   UNL A   1      50.022  25.471  31.011  1.00  0.00     0.040 A 
ATOM     79  F   UNL A   1      47.885  25.620  31.975  1.00  0.00    -0.206 F 
ATOM     80  C   UNL A   1      50.894  25.729  29.955  1.00  0.00     0.006 A 
ENDBRANCH  59  73
BRANCH  60  81
ATOM     81  C   UNL A   1      38.605  29.094  28.961  1.00  0.00     0.057 A 
ATOM     82  C   UNL A   1      38.091  29.572  27.749  1.00  0.00     0.134 A 
ATOM     83  C   UNL A   1      37.733  29.014  30.051  1.00  0.00     0.134 A 
ATOM     84  F   UNL A   1      38.883  29.674  26.672  1.00  0.00    -0.206 F 
ATOM     85  C   UNL A   1      36.761  29.974  27.631  1.00  0.00     0.040 A 
ATOM     86  C   UNL A   1      36.396  29.394  29.942  1.00  0.00     0.040 A 
ATOM     87  F   UNL A   1      38.169  28.547  31.231  1.00  0.00    -0.206 F 
ATOM     88  C   UNL A   1      35.909  29.883  28.730  1.00  0.00     0.006 A 
ENDBRANCH  60  81
BRANCH  72  89
ATOM     89  C   UNL A   1      44.239  32.418  31.293  1.00  0.00     0.057 A 
ATOM     90  C   UNL A   1      44.145  32.634  32.673  1.00  0.00     0.134 A 
ATOM     91  C   UNL A   1      44.509  33.524  30.478  1.00  0.00     0.134 A 
ATOM     92  F   UNL A   1      43.885  31.615  33.506  1.00  0.00    -0.206 F 
ATOM     93  C   UNL A   1      44.319  33.905  33.222  1.00  0.00     0.040 A 
ATOM     94  C   UNL A   1      44.703  34.796  31.017  1.00  0.00     0.040 A 
ATOM     95  F   UNL A   1      44.627  33.375  29.150  1.00  0.00    -0.206 F 
ATOM     96  C   UNL A   1      44.604  34.989  32.394  1.00  0.00     0.006 A 
ENDBRANCH  72  89
ENDBRANCH  46  47
ENDBRANCH  38  41
ENDBRANCH  36  37
ENDBRANCH  35  36
ENDBRANCH   1  35
TORSDOF 16
ENDMDL
MODEL 3
REMARK VINA RESULT:     -12.5      0.510      6.081
REMARK SMILES O=C(Cn1c2ccccc2c(=O)c2ccccc21)N[C@@H](Cc1ccccc1)C(=O)NCCCCNC(=O)c1ccc(-c2c3nc(c(-c4c(F)cccc4F)c4ccc([nH]4)c(-c4c(F)cccc4F)c4nc(c(-c5c(F)cccc5F)c5ccc2[nH]5)C=C4)C=C3)cc1
REMARK SMILES IDX 32 1 31 2 30 3 28 4 29 5 20 7 19 8 1 9 2 10 3 12 4 13 5 14
REMARK SMILES IDX 18 15 6 16 10 17 13 18 17 19 7 20 9 21 11 22 14 23 16 24
REMARK SMILES IDX 8 25 12 26 15 27 21 28 22 29 23 30 27 31 24 32 26 33 25 34
REMARK SMILES IDX 33 35 34 36 35 37 36 38 37 40 38 41 39 42 91 43 40 44 90 45
REMARK SMILES IDX 41 46 42 47 43 48 84 49 44 50 89 51 83 52 85 53 45 54 88 55
REMARK SMILES IDX 82 56 81 57 46 59 72 60 55 61 71 62 56 63 59 64 70 65 86 66
REMARK SMILES IDX 57 67 58 68 69 70 87 71 60 72 47 73 48 74 53 75 49 76 50 77
REMARK SMILES IDX 52 78 54 79 51 80 73 81 74 82 79 83 75 84 76 85 78 86 80 87
REMARK SMILES IDX 77 88 61 89 62 90 67 91 63 92 64 93 66 94 68 95 65 96
REMARK H PARENT 30 6 19 11 35 39 85 58 59 69
REMARK Flexibility Score: inf
ROOT
ATOM      1  C   UNL A   1      36.693  23.961  25.534  1.00  0.00     0.023 C 
ENDROOT
BRANCH   1   2
ATOM      2  C   UNL A   1      35.187  24.092  25.656  1.00  0.00     0.116 C 
BRANCH   2   3
ATOM      3  N   UNL A   1      34.627  23.350  26.762  1.00  0.00    -0.354 N 
ATOM      4  C   UNL A   1      33.783  22.277  26.748  1.00  0.00     0.242 C 
ATOM      5  O   UNL A   1      33.863  21.509  27.714  1.00  0.00    -0.273 OA
ATOM      6  H   UNL A   1      34.893  23.665  27.658  1.00  0.00     0.163 HD
BRANCH   4   7
ATOM      7  C   UNL A   1      32.875  21.922  25.545  1.00  0.00     0.175 C 
BRANCH   7   8
ATOM      8  N   UNL A   1      31.906  22.958  25.166  1.00  0.00    -0.342 N 
ATOM      9  O   UNL A   1      31.635  23.727  27.305  1.00  0.00    -0.273 OA
ATOM     10  C   UNL A   1      31.426  23.856  26.100  1.00  0.00     0.240 C 
ATOM     11  H   UNL A   1      31.595  23.013  24.233  1.00  0.00     0.164 HD
BRANCH  10  12
ATOM     12  C   UNL A   1      30.575  25.012  25.553  1.00  0.00     0.222 C 
BRANCH  12  13
ATOM     13  N   UNL A   1      31.409  26.099  24.984  1.00  0.00    -0.331 N 
ATOM     14  C   UNL A   1      31.736  27.231  25.768  1.00  0.00     0.053 A 
ATOM     15  C   UNL A   1      31.870  25.944  23.645  1.00  0.00     0.053 A 
ATOM     16  C   UNL A   1      31.320  27.424  27.099  1.00  0.00     0.027 A 
ATOM     17  C   UNL A   1      32.525  28.262  25.216  1.00  0.00     0.046 A 
ATOM     18  C   UNL A   1      32.637  26.959  23.041  1.00  0.00     0.046 A 
ATOM     19  C   UNL A   1      31.621  24.810  22.848  1.00  0.00     0.027 A 
ATOM     20  C   UNL A   1      31.667  28.572  27.830  1.00  0.00     0.002 A 
ATOM     21  C   UNL A   1      32.881  29.412  25.944  1.00  0.00     0.014 A 
ATOM     22  C   UNL A   1      32.964  28.174  23.810  1.00  0.00     0.197 A 
ATOM     23  C   UNL A   1      33.115  26.860  21.722  1.00  0.00     0.014 A 
ATOM     24  C   UNL A   1      32.098  24.701  21.533  1.00  0.00     0.002 A 
ATOM     25  C   UNL A   1      32.449  29.565  27.254  1.00  0.00     0.001 A 
ATOM     26  O   UNL A   1      33.579  29.100  23.289  1.00  0.00    -0.288 OA
ATOM     27  C   UNL A   1      32.844  25.726  20.968  1.00  0.00     0.001 A 
ENDBRANCH  12  13
ENDBRANCH  10  12
ENDBRANCH   7   8
BRANCH   7  28
ATOM     28  C   UNL A   1      33.635  21.283  24.365  1.00  0.00     0.070 C 
BRANCH  28  29
ATOM     29  C   UNL A   1      33.514  19.793  24.149  1.00  0.00    -0.045 A 
ATOM     30  C   UNL A   1      34.454  18.911  24.698  1.00  0.00     0.004 A 
ATOM     31  C   UNL A   1      32.497  19.270  23.338  1.00  0.00     0.004 A 
ATOM     32  C   UNL A   1      34.357  17.536  24.471  1.00  0.00     0.000 A 
ATOM     33  C   UNL A   1      32.380  17.892  23.139  1.00  0.00     0.000 A 
ATOM     34  C   UNL A   1      33.309  17.025  23.707  1.00  0.00     0.000 A 
ENDBRANCH  28  29
ENDBRANCH   7  28
ENDBRANCH   4   7
ENDBRANCH   2   3
ENDBRANCH   1   2
BRANCH   1  35
ATOM     35  C   UNL A   1      37.218  22.563  25.237  1.00  0.00     0.023 C 
BRANCH  35  36
ATOM     36  C   UNL A   1      38.468  22.139  26.004  1.00  0.00     0.116 C 
BRANCH  36  37
ATOM     37  N   UNL A   1      38.950  20.789  25.718  1.00  0.00    -0.352 N 
ATOM     38  C   UNL A   1      40.194  20.257  25.995  1.00  0.00     0.251 C 
ATOM     39  H   UNL A   1      38.310  20.186  25.275  1.00  0.00     0.163 HD
ATOM     40  O   UNL A   1      40.475  19.101  25.706  1.00  0.00    -0.269 OA
BRANCH  38  41
ATOM     41  C   UNL A   1      41.207  21.154  26.587  1.00  0.00     0.039 A 
ATOM     42  C   UNL A   1      41.214  21.361  27.967  1.00  0.00     0.014 A 
ATOM     43  C   UNL A   1      41.968  21.956  25.734  1.00  0.00     0.014 A 
ATOM     44  C   UNL A   1      41.785  22.526  28.465  1.00  0.00     0.010 A 
ATOM     45  C   UNL A   1      42.611  23.079  26.252  1.00  0.00     0.010 A 
ATOM     46  C   UNL A   1      42.437  23.425  27.602  1.00  0.00    -0.014 A 
BRANCH  46  47
ATOM     47  C   UNL A   1      42.802  24.778  28.100  1.00  0.00     0.031 A 
ATOM     48  C   UNL A   1      41.732  25.816  28.339  1.00  0.00     0.074 A 
ATOM     49  C   UNL A   1      44.079  25.050  28.424  1.00  0.00     0.049 A 
ATOM     50  N   UNL A   1      41.856  27.051  28.758  1.00  0.00    -0.248 NA
ATOM     51  C   UNL A   1      40.341  25.417  28.069  1.00  0.00     0.031 C 
ATOM     52  C   UNL A   1      45.203  24.125  28.276  1.00  0.00     0.029 A 
ATOM     53  N   UNL A   1      44.638  26.176  28.970  1.00  0.00    -0.354 N 
ATOM     54  C   UNL A   1      40.572  27.583  28.770  1.00  0.00     0.074 A 
ATOM     55  C   UNL A   1      39.683  26.544  28.297  1.00  0.00     0.031 C 
ATOM     56  C   UNL A   1      46.310  24.705  28.761  1.00  0.00     0.029 A 
ATOM     57  C   UNL A   1      45.986  26.059  29.200  1.00  0.00     0.049 A 
ATOM     58  H   UNL A   1      44.124  26.989  29.177  1.00  0.00     0.167 HD
ATOM     59  C   UNL A   1      40.164  28.819  29.149  1.00  0.00     0.037 A 
ATOM     60  C   UNL A   1      46.867  26.946  29.695  1.00  0.00     0.037 A 
ATOM     61  C   UNL A   1      41.036  29.843  29.662  1.00  0.00     0.049 A 
ATOM     62  C   UNL A   1      46.397  28.316  30.086  1.00  0.00     0.074 A 
ATOM     63  C   UNL A   1      40.713  31.118  30.092  1.00  0.00     0.029 A 
ATOM     64  N   UNL A   1      42.405  29.700  29.825  1.00  0.00    -0.354 N 
ATOM     65  N   UNL A   1      45.185  28.812  30.058  1.00  0.00    -0.248 NA
ATOM     66  C   UNL A   1      47.423  29.252  30.564  1.00  0.00     0.031 C 
ATOM     67  C   UNL A   1      41.893  31.758  30.492  1.00  0.00     0.029 A 
ATOM     68  C   UNL A   1      42.944  30.870  30.336  1.00  0.00     0.049 A 
ATOM     69  H   UNL A   1      42.918  28.889  29.609  1.00  0.00     0.167 HD
ATOM     70  C   UNL A   1      45.302  30.121  30.504  1.00  0.00     0.074 A 
ATOM     71  C   UNL A   1      46.699  30.331  30.826  1.00  0.00     0.031 C 
ATOM     72  C   UNL A   1      44.340  31.068  30.627  1.00  0.00     0.037 A 
BRANCH  59  73
ATOM     73  C   UNL A   1      38.704  29.135  29.006  1.00  0.00     0.057 A 
ATOM     74  C   UNL A   1      38.185  29.557  27.774  1.00  0.00     0.134 A 
ATOM     75  C   UNL A   1      37.816  29.042  30.085  1.00  0.00     0.134 A 
ATOM     76  F   UNL A   1      38.983  29.671  26.703  1.00  0.00    -0.206 F 
ATOM     77  C   UNL A   1      36.833  29.870  27.621  1.00  0.00     0.040 A 
ATOM     78  C   UNL A   1      36.459  29.333  29.938  1.00  0.00     0.040 A 
ATOM     79  F   UNL A   1      38.249  28.628  31.285  1.00  0.00    -0.206 F 
ATOM     80  C   UNL A   1      35.965  29.753  28.705  1.00  0.00     0.006 A 
ENDBRANCH  59  73
BRANCH  60  81
ATOM     81  C   UNL A   1      48.292  26.564  29.821  1.00  0.00     0.057 A 
ATOM     82  C   UNL A   1      49.208  26.843  28.800  1.00  0.00     0.134 A 
ATOM     83  C   UNL A   1      48.761  25.884  30.949  1.00  0.00     0.134 A 
ATOM     84  F   UNL A   1      48.813  27.488  27.693  1.00  0.00    -0.206 F 
ATOM     85  C   UNL A   1      50.542  26.445  28.890  1.00  0.00     0.040 A 
ATOM     86  C   UNL A   1      50.096  25.497  31.061  1.00  0.00     0.040 A 
ATOM     87  F   UNL A   1      47.929  25.606  31.964  1.00  0.00    -0.206 F 
ATOM     88  C   UNL A   1      50.989  25.772  30.026  1.00  0.00     0.006 A 
ENDBRANCH  60  81
BRANCH  72  89
ATOM     89  C   UNL A   1      44.779  32.413  31.116  1.00  0.00     0.057 A 
ATOM     90  C   UNL A   1      44.835  32.698  32.485  1.00  0.00     0.134 A 
ATOM     91  C   UNL A   1      45.142  33.429  30.223  1.00  0.00     0.134 A 
ATOM     92  F   UNL A   1      44.496  31.767  33.390  1.00  0.00    -0.206 F 
ATOM     93  C   UNL A   1      45.243  33.949  32.950  1.00  0.00     0.040 A 
ATOM     94  C   UNL A   1      45.569  34.677  30.677  1.00  0.00     0.040 A 
ATOM     95  F   UNL A   1      45.124  33.208  28.900  1.00  0.00    -0.206 F 
ATOM     96  C   UNL A   1      45.616  34.941  32.045  1.00  0.00     0.006 A 
ENDBRANCH  72  89
ENDBRANCH  46  47
ENDBRANCH  38  41
ENDBRANCH  36  37
ENDBRANCH  35  36
ENDBRANCH   1  35
TORSDOF 16
ENDMDL
