MODEL 1
REMARK VINA RESULT:     -12.3      0.000      0.000
REMARK SMILES NS(=O)(=O)c1ccc(-n2nc(C(F)(F)F)cc2-c2ccc(CC(=O)NCCCCNC(=O)c3ccc(-c4c5nc(c(-c6c(F)cccc6F)c6ccc([nH]6)c(-c6c(F)cccc6F)c6nc(c(-c7c(F)cccc7F)c7ccc4[nH]7)C=C6)C=C5)cc3)cc2)cc1
REMARK SMILES IDX 26 1 25 2 23 3 24 4 22 6 21 7 18 8 19 9 88 10 20 11 87 12
REMARK SMILES IDX 17 13 9 14 10 15 11 16 16 17 8 18 5 19 6 20 90 21 7 22 89 23
REMARK SMILES IDX 2 24 3 25 4 26 1 27 12 30 13 31 14 32 15 33 27 34 28 35
REMARK SMILES IDX 29 36 30 37 31 38 32 40 33 41 34 42 86 43 35 44 85 45 36 46
REMARK SMILES IDX 37 47 38 48 79 49 39 50 84 51 78 52 80 53 40 54 83 55 77 56
REMARK SMILES IDX 76 57 41 59 67 60 50 61 66 62 51 63 54 64 65 65 81 66 52 67
REMARK SMILES IDX 53 68 64 70 82 71 55 72 42 73 43 74 48 75 44 76 45 77 47 78
REMARK SMILES IDX 49 79 46 80 68 81 69 82 74 83 70 84 71 85 73 86 75 87 72 88
REMARK SMILES IDX 56 89 57 90 62 91 58 92 59 93 61 94 63 95 60 96
REMARK H PARENT 25 5 1 28 1 29 30 39 80 58 54 69
REMARK Flexibility Score: inf
ROOT
ATOM      1  C   UNL A   1      31.653  27.894  26.447  1.00  0.00     0.116 C 
ENDROOT
BRANCH   1   2
ATOM      2  N   UNL A   1      31.859  28.145  25.033  1.00  0.00    -0.356 N 
ATOM      3  C   UNL A   1      31.997  27.255  24.007  1.00  0.00     0.224 C 
ATOM      4  O   UNL A   1      32.216  27.696  22.877  1.00  0.00    -0.275 OA
ATOM      5  H   UNL A   1      31.906  29.095  24.776  1.00  0.00     0.163 HD
BRANCH   3   6
ATOM      6  C   UNL A   1      31.831  25.763  24.253  1.00  0.00     0.135 C 
BRANCH   6   7
ATOM      7  C   UNL A   1      33.119  25.046  24.578  1.00  0.00    -0.039 A 
ATOM      8  C   UNL A   1      35.459  23.588  25.159  1.00  0.00     0.000 A 
ATOM      9  C   UNL A   1      34.584  23.976  26.185  1.00  0.00     0.010 A 
ATOM     10  C   UNL A   1      35.176  23.974  23.846  1.00  0.00     0.010 A 
ATOM     11  C   UNL A   1      33.424  24.696  25.898  1.00  0.00     0.005 A 
ATOM     12  C   UNL A   1      34.023  24.708  23.560  1.00  0.00     0.005 A 
BRANCH   8  13
ATOM     13  C   UNL A   1      36.685  22.853  25.468  1.00  0.00     0.075 A 
ATOM     14  N   UNL A   1      36.798  21.474  25.594  1.00  0.00    -0.233 N 
ATOM     15  N   UNL A   1      37.951  21.110  26.207  1.00  0.00    -0.163 NA
ATOM     16  C   UNL A   1      38.681  22.241  26.264  1.00  0.00     0.167 A 
ATOM     17  C   UNL A   1      37.921  23.353  25.827  1.00  0.00     0.064 A 
BRANCH  14  18
ATOM     18  C   UNL A   1      35.895  20.484  25.134  1.00  0.00     0.065 A 
ATOM     19  C   UNL A   1      34.099  18.496  24.395  1.00  0.00     0.082 A 
ATOM     20  C   UNL A   1      33.643  19.790  24.653  1.00  0.00     0.024 A 
ATOM     21  C   UNL A   1      35.463  18.206  24.436  1.00  0.00     0.024 A 
ATOM     22  C   UNL A   1      34.531  20.778  25.066  1.00  0.00     0.030 A 
ATOM     23  C   UNL A   1      36.372  19.219  24.763  1.00  0.00     0.030 A 
BRANCH  19  24
ATOM     24  S   UNL A   1      32.895  17.229  24.117  1.00  0.00     0.238 S 
ATOM     25  O   UNL A   1      31.828  17.391  25.069  1.00  0.00    -0.207 OA
ATOM     26  O   UNL A   1      33.570  15.963  23.910  1.00  0.00    -0.207 OA
BRANCH  24  27
ATOM     27  N   UNL A   1      32.257  17.656  22.627  1.00  0.00    -0.225 NA
ATOM     28  H   UNL A   1      32.665  17.066  21.901  1.00  0.00     0.137 HD
ATOM     29  H   UNL A   1      32.473  18.634  22.431  1.00  0.00     0.137 HD
ENDBRANCH  24  27
ENDBRANCH  19  24
ENDBRANCH  14  18
BRANCH  16  30
ATOM     30  C   UNL A   1      40.098  22.286  26.767  1.00  0.00     0.435 C 
ATOM     31  F   UNL A   1      40.477  21.141  27.391  1.00  0.00    -0.164 F 
ATOM     32  F   UNL A   1      40.988  22.513  25.765  1.00  0.00    -0.164 F 
ATOM     33  F   UNL A   1      40.276  23.294  27.667  1.00  0.00    -0.164 F 
ENDBRANCH  16  30
ENDBRANCH   8  13
ENDBRANCH   6   7
ENDBRANCH   3   6
ENDBRANCH   1   2
BRANCH   1  34
ATOM     34  C   UNL A   1      32.847  28.342  27.298  1.00  0.00     0.023 C 
BRANCH  34  35
ATOM     35  C   UNL A   1      33.976  29.035  26.525  1.00  0.00     0.023 C 
BRANCH  35  36
ATOM     36  C   UNL A   1      35.339  28.987  27.186  1.00  0.00     0.116 C 
BRANCH  36  37
ATOM     37  N   UNL A   1      35.389  29.703  28.468  1.00  0.00    -0.352 N 
ATOM     38  C   UNL A   1      36.367  29.607  29.444  1.00  0.00     0.251 C 
ATOM     39  H   UNL A   1      34.646  30.321  28.652  1.00  0.00     0.163 HD
ATOM     40  O   UNL A   1      36.146  29.918  30.608  1.00  0.00    -0.269 OA
BRANCH  38  41
ATOM     41  C   UNL A   1      37.698  29.134  29.034  1.00  0.00     0.039 A 
ATOM     42  C   UNL A   1      38.390  29.670  27.946  1.00  0.00     0.014 A 
ATOM     43  C   UNL A   1      38.278  28.168  29.847  1.00  0.00     0.014 A 
ATOM     44  C   UNL A   1      39.712  29.277  27.746  1.00  0.00     0.010 A 
ATOM     45  C   UNL A   1      39.626  27.974  29.792  1.00  0.00     0.010 A 
ATOM     46  C   UNL A   1      40.328  28.443  28.694  1.00  0.00    -0.014 A 
BRANCH  46  47
ATOM     47  C   UNL A   1      41.742  28.109  28.625  1.00  0.00     0.031 A 
ATOM     48  C   UNL A   1      42.047  26.880  27.848  1.00  0.00     0.074 A 
ATOM     49  C   UNL A   1      42.708  28.962  29.032  1.00  0.00     0.049 A 
ATOM     50  N   UNL A   1      42.507  25.764  28.303  1.00  0.00    -0.248 NA
ATOM     51  C   UNL A   1      41.658  26.829  26.428  1.00  0.00     0.031 C 
ATOM     52  C   UNL A   1      42.580  30.338  29.532  1.00  0.00     0.029 A 
ATOM     53  N   UNL A   1      44.056  28.799  28.983  1.00  0.00    -0.354 N 
ATOM     54  C   UNL A   1      42.676  24.939  27.196  1.00  0.00     0.074 A 
ATOM     55  C   UNL A   1      41.969  25.569  26.112  1.00  0.00     0.031 C 
ATOM     56  C   UNL A   1      43.783  30.951  29.502  1.00  0.00     0.029 A 
ATOM     57  C   UNL A   1      44.791  29.969  29.159  1.00  0.00     0.049 A 
ATOM     58  H   UNL A   1      44.480  27.923  28.835  1.00  0.00     0.167 HD
ATOM     59  C   UNL A   1      43.591  23.931  27.208  1.00  0.00     0.037 A 
ATOM     60  C   UNL A   1      46.132  30.103  29.000  1.00  0.00     0.037 A 
ATOM     61  C   UNL A   1      44.012  23.625  28.554  1.00  0.00     0.049 A 
ATOM     62  C   UNL A   1      46.716  28.740  29.100  1.00  0.00     0.074 A 
ATOM     63  C   UNL A   1      43.345  23.243  29.704  1.00  0.00     0.029 A 
ATOM     64  N   UNL A   1      45.226  24.112  28.978  1.00  0.00    -0.354 N 
ATOM     65  N   UNL A   1      46.720  28.040  30.202  1.00  0.00    -0.248 NA
ATOM     66  C   UNL A   1      46.825  27.969  27.870  1.00  0.00     0.031 C 
ATOM     67  C   UNL A   1      43.954  24.006  30.745  1.00  0.00     0.029 A 
ATOM     68  C   UNL A   1      45.013  24.724  30.189  1.00  0.00     0.049 A 
ATOM     69  H   UNL A   1      46.085  24.038  28.503  1.00  0.00     0.167 HD
ATOM     70  C   UNL A   1      46.390  26.752  29.805  1.00  0.00     0.074 A 
ATOM     71  C   UNL A   1      46.528  26.757  28.347  1.00  0.00     0.031 C 
ATOM     72  C   UNL A   1      45.741  25.888  30.641  1.00  0.00     0.037 A 
BRANCH  59  73
ATOM     73  C   UNL A   1      44.368  23.483  25.998  1.00  0.00     0.057 A 
ATOM     74  C   UNL A   1      44.389  22.120  25.656  1.00  0.00     0.134 A 
ATOM     75  C   UNL A   1      45.313  24.285  25.326  1.00  0.00     0.134 A 
ATOM     76  F   UNL A   1      43.556  21.250  26.246  1.00  0.00    -0.206 F 
ATOM     77  C   UNL A   1      45.322  21.588  24.757  1.00  0.00     0.040 A 
ATOM     78  C   UNL A   1      46.212  23.774  24.389  1.00  0.00     0.040 A 
ATOM     79  F   UNL A   1      45.489  25.580  25.616  1.00  0.00    -0.206 F 
ATOM     80  C   UNL A   1      46.239  22.415  24.122  1.00  0.00     0.006 A 
ENDBRANCH  59  73
BRANCH  60  81
ATOM     81  C   UNL A   1      46.881  31.260  28.455  1.00  0.00     0.057 A 
ATOM     82  C   UNL A   1      46.750  31.643  27.112  1.00  0.00     0.134 A 
ATOM     83  C   UNL A   1      47.526  32.186  29.295  1.00  0.00     0.134 A 
ATOM     84  F   UNL A   1      46.117  30.849  26.237  1.00  0.00    -0.206 F 
ATOM     85  C   UNL A   1      47.207  32.883  26.639  1.00  0.00     0.040 A 
ATOM     86  C   UNL A   1      47.990  33.424  28.837  1.00  0.00     0.040 A 
ATOM     87  F   UNL A   1      47.650  31.959  30.612  1.00  0.00    -0.206 F 
ATOM     88  C   UNL A   1      47.817  33.783  27.506  1.00  0.00     0.006 A 
ENDBRANCH  60  81
BRANCH  72  89
ATOM     89  C   UNL A   1      45.561  26.280  32.085  1.00  0.00     0.057 A 
ATOM     90  C   UNL A   1      44.410  26.896  32.603  1.00  0.00     0.134 A 
ATOM     91  C   UNL A   1      46.516  25.860  33.018  1.00  0.00     0.134 A 
ATOM     92  F   UNL A   1      43.391  27.243  31.810  1.00  0.00    -0.206 F 
ATOM     93  C   UNL A   1      44.236  27.115  33.974  1.00  0.00     0.040 A 
ATOM     94  C   UNL A   1      46.340  26.043  34.393  1.00  0.00     0.040 A 
ATOM     95  F   UNL A   1      47.618  25.212  32.610  1.00  0.00    -0.206 F 
ATOM     96  C   UNL A   1      45.201  26.680  34.876  1.00  0.00     0.006 A 
ENDBRANCH  72  89
ENDBRANCH  46  47
ENDBRANCH  38  41
ENDBRANCH  36  37
ENDBRANCH  35  36
ENDBRANCH  34  35
ENDBRANCH   1  34
TORSDOF 17
ENDMDL
MODEL 2
REMARK VINA RESULT:     -12.0      1.911      5.785
REMARK SMILES NS(=O)(=O)c1ccc(-n2nc(C(F)(F)F)cc2-c2ccc(CC(=O)NCCCCNC(=O)c3ccc(-c4c5nc(c(-c6c(F)cccc6F)c6ccc([nH]6)c(-c6c(F)cccc6F)c6nc(c(-c7c(F)cccc7F)c7ccc4[nH]7)C=C6)C=C5)cc3)cc2)cc1
REMARK SMILES IDX 26 1 25 2 23 3 24 4 22 6 21 7 18 8 19 9 88 10 20 11 87 12
REMARK SMILES IDX 17 13 9 14 10 15 11 16 16 17 8 18 5 19 6 20 90 21 7 22 89 23
REMARK SMILES IDX 2 24 3 25 4 26 1 27 12 30 13 31 14 32 15 33 27 34 28 35
REMARK SMILES IDX 29 36 30 37 31 38 32 40 33 41 34 42 86 43 35 44 85 45 36 46
REMARK SMILES IDX 37 47 38 48 79 49 39 50 84 51 78 52 80 53 40 54 83 55 77 56
REMARK SMILES IDX 76 57 41 59 67 60 50 61 66 62 51 63 54 64 65 65 81 66 52 67
REMARK SMILES IDX 53 68 64 70 82 71 55 72 42 73 43 74 48 75 44 76 45 77 47 78
REMARK SMILES IDX 49 79 46 80 68 81 69 82 74 83 70 84 71 85 73 86 75 87 72 88
REMARK SMILES IDX 56 89 57 90 62 91 58 92 59 93 61 94 63 95 60 96
REMARK H PARENT 25 5 1 28 1 29 30 39 80 58 54 69
REMARK Flexibility Score: inf
ROOT
ATOM      1  C   UNL A   1      31.431  28.564  24.810  1.00  0.00     0.116 C 
ENDROOT
BRANCH   1   2
ATOM      2  N   UNL A   1      31.251  28.192  23.420  1.00  0.00    -0.356 N 
ATOM      3  C   UNL A   1      31.127  26.949  22.866  1.00  0.00     0.224 C 
ATOM      4  O   UNL A   1      31.031  26.864  21.640  1.00  0.00    -0.275 OA
ATOM      5  H   UNL A   1      31.214  28.942  22.784  1.00  0.00     0.163 HD
BRANCH   3   6
ATOM      6  C   UNL A   1      31.055  25.714  23.750  1.00  0.00     0.135 C 
BRANCH   6   7
ATOM      7  C   UNL A   1      32.403  25.160  24.143  1.00  0.00    -0.039 A 
ATOM      8  C   UNL A   1      34.862  23.999  24.881  1.00  0.00     0.000 A 
ATOM      9  C   UNL A   1      34.016  24.560  25.849  1.00  0.00     0.010 A 
ATOM     10  C   UNL A   1      34.487  24.063  23.536  1.00  0.00     0.010 A 
ATOM     11  C   UNL A   1      32.797  25.133  25.485  1.00  0.00     0.005 A 
ATOM     12  C   UNL A   1      33.275  24.650  23.169  1.00  0.00     0.005 A 
BRANCH   8  13
ATOM     13  C   UNL A   1      36.149  23.419  25.266  1.00  0.00     0.075 A 
ATOM     14  N   UNL A   1      36.388  22.080  25.543  1.00  0.00    -0.233 N 
ATOM     15  N   UNL A   1      37.566  21.895  26.189  1.00  0.00    -0.163 NA
ATOM     16  C   UNL A   1      38.186  23.088  26.118  1.00  0.00     0.167 A 
ATOM     17  C   UNL A   1      37.330  24.069  25.563  1.00  0.00     0.064 A 
BRANCH  14  18
ATOM     18  C   UNL A   1      35.584  20.965  25.199  1.00  0.00     0.065 A 
ATOM     19  C   UNL A   1      34.023  18.825  24.358  1.00  0.00     0.082 A 
ATOM     20  C   UNL A   1      35.405  18.675  24.486  1.00  0.00     0.024 A 
ATOM     21  C   UNL A   1      33.406  20.024  24.717  1.00  0.00     0.024 A 
ATOM     22  C   UNL A   1      36.196  19.755  24.864  1.00  0.00     0.030 A 
ATOM     23  C   UNL A   1      34.188  21.087  25.185  1.00  0.00     0.030 A 
BRANCH  19  24
ATOM     24  S   UNL A   1      33.104  17.495  23.638  1.00  0.00     0.238 S 
ATOM     25  O   UNL A   1      33.882  16.288  23.745  1.00  0.00    -0.207 OA
ATOM     26  O   UNL A   1      32.519  17.937  22.388  1.00  0.00    -0.207 OA
BRANCH  24  27
ATOM     27  N   UNL A   1      31.824  17.319  24.706  1.00  0.00    -0.225 NA
ATOM     28  H   UNL A   1      30.978  17.084  24.187  1.00  0.00     0.137 HD
ATOM     29  H   UNL A   1      31.681  18.193  25.213  1.00  0.00     0.137 HD
ENDBRANCH  24  27
ENDBRANCH  19  24
ENDBRANCH  14  18
BRANCH  16  30
ATOM     30  C   UNL A   1      39.590  23.320  26.609  1.00  0.00     0.435 C 
ATOM     31  F   UNL A   1      40.151  24.447  26.102  1.00  0.00    -0.164 F 
ATOM     32  F   UNL A   1      39.646  23.416  27.965  1.00  0.00    -0.164 F 
ATOM     33  F   UNL A   1      40.414  22.290  26.268  1.00  0.00    -0.164 F 
ENDBRANCH  16  30
ENDBRANCH   8  13
ENDBRANCH   6   7
ENDBRANCH   3   6
ENDBRANCH   1   2
BRANCH   1  34
ATOM     34  C   UNL A   1      32.774  29.260  25.057  1.00  0.00     0.023 C 
BRANCH  34  35
ATOM     35  C   UNL A   1      33.613  28.674  26.201  1.00  0.00     0.023 C 
BRANCH  35  36
ATOM     36  C   UNL A   1      33.748  29.558  27.424  1.00  0.00     0.116 C 
BRANCH  36  37
ATOM     37  N   UNL A   1      34.168  30.929  27.107  1.00  0.00    -0.352 N 
ATOM     38  C   UNL A   1      35.274  31.602  27.599  1.00  0.00     0.251 C 
ATOM     39  H   UNL A   1      33.600  31.425  26.475  1.00  0.00     0.163 HD
ATOM     40  O   UNL A   1      35.334  32.825  27.601  1.00  0.00    -0.269 OA
BRANCH  38  41
ATOM     41  C   UNL A   1      36.394  30.795  28.107  1.00  0.00     0.039 A 
ATOM     42  C   UNL A   1      36.664  29.504  27.651  1.00  0.00     0.014 A 
ATOM     43  C   UNL A   1      37.234  31.425  29.017  1.00  0.00     0.014 A 
ATOM     44  C   UNL A   1      37.846  28.891  28.065  1.00  0.00     0.010 A 
ATOM     45  C   UNL A   1      38.486  30.927  29.222  1.00  0.00     0.010 A 
ATOM     46  C   UNL A   1      38.764  29.626  28.835  1.00  0.00    -0.014 A 
BRANCH  46  47
ATOM     47  C   UNL A   1      40.075  29.101  29.181  1.00  0.00     0.031 A 
ATOM     48  C   UNL A   1      40.308  28.938  30.639  1.00  0.00     0.074 A 
ATOM     49  C   UNL A   1      40.918  28.591  28.255  1.00  0.00     0.049 A 
ATOM     50  N   UNL A   1      41.135  29.600  31.375  1.00  0.00    -0.248 NA
ATOM     51  C   UNL A   1      39.418  28.043  31.399  1.00  0.00     0.031 C 
ATOM     52  C   UNL A   1      40.704  28.395  26.814  1.00  0.00     0.029 A 
ATOM     53  N   UNL A   1      42.142  28.032  28.442  1.00  0.00    -0.354 N 
ATOM     54  C   UNL A   1      41.032  29.057  32.651  1.00  0.00     0.074 A 
ATOM     55  C   UNL A   1      39.843  28.246  32.649  1.00  0.00     0.031 C 
ATOM     56  C   UNL A   1      41.641  27.555  26.321  1.00  0.00     0.029 A 
ATOM     57  C   UNL A   1      42.620  27.300  27.358  1.00  0.00     0.049 A 
ATOM     58  H   UNL A   1      42.651  28.136  29.278  1.00  0.00     0.167 HD
ATOM     59  C   UNL A   1      42.071  29.127  33.527  1.00  0.00     0.037 A 
ATOM     60  C   UNL A   1      43.731  26.522  27.345  1.00  0.00     0.037 A 
ATOM     61  C   UNL A   1      43.037  30.116  33.113  1.00  0.00     0.049 A 
ATOM     62  C   UNL A   1      44.585  26.971  28.477  1.00  0.00     0.074 A 
ATOM     63  C   UNL A   1      42.968  31.471  32.845  1.00  0.00     0.029 A 
ATOM     64  N   UNL A   1      44.187  29.678  32.497  1.00  0.00    -0.354 N 
ATOM     65  N   UNL A   1      45.165  28.140  28.519  1.00  0.00    -0.248 NA
ATOM     66  C   UNL A   1      44.368  26.334  29.769  1.00  0.00     0.031 C 
ATOM     67  C   UNL A   1      43.755  31.648  31.669  1.00  0.00     0.029 A 
ATOM     68  C   UNL A   1      44.336  30.420  31.351  1.00  0.00     0.049 A 
ATOM     69  H   UNL A   1      44.788  28.968  32.817  1.00  0.00     0.167 HD
ATOM     70  C   UNL A   1      44.989  28.576  29.824  1.00  0.00     0.074 A 
ATOM     71  C   UNL A   1      44.546  27.393  30.564  1.00  0.00     0.031 C 
ATOM     72  C   UNL A   1      44.917  29.905  30.132  1.00  0.00     0.037 A 
BRANCH  59  73
ATOM     73  C   UNL A   1      42.392  28.061  34.542  1.00  0.00     0.057 A 
ATOM     74  C   UNL A   1      42.841  26.803  34.104  1.00  0.00     0.134 A 
ATOM     75  C   UNL A   1      42.018  28.126  35.899  1.00  0.00     0.134 A 
ATOM     76  F   UNL A   1      43.201  26.607  32.827  1.00  0.00    -0.206 F 
ATOM     77  C   UNL A   1      42.857  25.681  34.942  1.00  0.00     0.040 A 
ATOM     78  C   UNL A   1      42.080  27.026  36.757  1.00  0.00     0.040 A 
ATOM     79  F   UNL A   1      41.473  29.222  36.441  1.00  0.00    -0.206 F 
ATOM     80  C   UNL A   1      42.473  25.789  36.273  1.00  0.00     0.006 A 
ENDBRANCH  59  73
BRANCH  60  81
ATOM     81  C   UNL A   1      43.945  25.236  26.640  1.00  0.00     0.057 A 
ATOM     82  C   UNL A   1      43.285  24.067  27.045  1.00  0.00     0.134 A 
ATOM     83  C   UNL A   1      44.581  25.178  25.386  1.00  0.00     0.134 A 
ATOM     84  F   UNL A   1      42.615  24.031  28.206  1.00  0.00    -0.206 F 
ATOM     85  C   UNL A   1      43.236  22.918  26.240  1.00  0.00     0.040 A 
ATOM     86  C   UNL A   1      44.544  24.037  24.575  1.00  0.00     0.040 A 
ATOM     87  F   UNL A   1      45.187  26.254  24.864  1.00  0.00    -0.206 F 
ATOM     88  C   UNL A   1      43.855  22.906  24.994  1.00  0.00     0.006 A 
ENDBRANCH  60  81
BRANCH  72  89
ATOM     89  C   UNL A   1      45.233  30.913  29.056  1.00  0.00     0.057 A 
ATOM     90  C   UNL A   1      44.289  31.441  28.160  1.00  0.00     0.134 A 
ATOM     91  C   UNL A   1      46.503  31.501  29.040  1.00  0.00     0.134 A 
ATOM     92  F   UNL A   1      43.019  31.023  28.162  1.00  0.00    -0.206 F 
ATOM     93  C   UNL A   1      44.604  32.474  27.271  1.00  0.00     0.040 A 
ATOM     94  C   UNL A   1      46.822  32.555  28.180  1.00  0.00     0.040 A 
ATOM     95  F   UNL A   1      47.446  31.092  29.904  1.00  0.00    -0.206 F 
ATOM     96  C   UNL A   1      45.874  33.041  27.285  1.00  0.00     0.006 A 
ENDBRANCH  72  89
ENDBRANCH  46  47
ENDBRANCH  38  41
ENDBRANCH  36  37
ENDBRANCH  35  36
ENDBRANCH  34  35
ENDBRANCH   1  34
TORSDOF 17
ENDMDL
MODEL 3
REMARK VINA RESULT:     -11.9      4.232      8.408
REMARK SMILES NS(=O)(=O)c1ccc(-n2nc(C(F)(F)F)cc2-c2ccc(CC(=O)NCCCCNC(=O)c3ccc(-c4c5nc(c(-c6c(F)cccc6F)c6ccc([nH]6)c(-c6c(F)cccc6F)c6nc(c(-c7c(F)cccc7F)c7ccc4[nH]7)C=C6)C=C5)cc3)cc2)cc1
REMARK SMILES IDX 26 1 25 2 23 3 24 4 22 6 21 7 18 8 19 9 88 10 20 11 87 12
REMARK SMILES IDX 17 13 9 14 10 15 11 16 16 17 8 18 5 19 6 20 90 21 7 22 89 23
REMARK SMILES IDX 2 24 3 25 4 26 1 27 12 30 13 31 14 32 15 33 27 34 28 35
REMARK SMILES IDX 29 36 30 37 31 38 32 40 33 41 34 42 86 43 35 44 85 45 36 46
REMARK SMILES IDX 37 47 38 48 79 49 39 50 84 51 78 52 80 53 40 54 83 55 77 56
REMARK SMILES IDX 76 57 41 59 67 60 50 61 66 62 51 63 54 64 65 65 81 66 52 67
REMARK SMILES IDX 53 68 64 70 82 71 55 72 42 73 43 74 48 75 44 76 45 77 47 78
REMARK SMILES IDX 49 79 46 80 68 81 69 82 74 83 70 84 71 85 73 86 75 87 72 88
REMARK SMILES IDX 56 89 57 90 62 91 58 92 59 93 61 94 63 95 60 96
REMARK H PARENT 25 5 1 28 1 29 30 39 80 58 54 69
REMARK Flexibility Score: inf
ROOT
ATOM      1  C   UNL A   1      34.506  21.504  25.021  1.00  0.00     0.116 C 
ENDROOT
BRANCH   1   2
ATOM      2  N   UNL A   1      34.060  21.848  26.358  1.00  0.00    -0.356 N 
ATOM      3  C   UNL A   1      32.840  22.302  26.773  1.00  0.00     0.224 C 
ATOM      4  O   UNL A   1      32.697  22.581  27.965  1.00  0.00    -0.275 OA
ATOM      5  H   UNL A   1      34.733  21.739  27.068  1.00  0.00     0.163 HD
BRANCH   3   6
ATOM      6  C   UNL A   1      31.681  22.407  25.794  1.00  0.00     0.135 C 
BRANCH   6   7
ATOM      7  C   UNL A   1      31.395  23.815  25.328  1.00  0.00    -0.039 A 
ATOM      8  C   UNL A   1      30.739  26.397  24.412  1.00  0.00     0.000 A 
ATOM      9  C   UNL A   1      31.503  25.528  23.618  1.00  0.00     0.010 A 
ATOM     10  C   UNL A   1      30.343  25.978  25.685  1.00  0.00     0.010 A 
ATOM     11  C   UNL A   1      31.827  24.248  24.070  1.00  0.00     0.005 A 
ATOM     12  C   UNL A   1      30.680  24.703  26.145  1.00  0.00     0.005 A 
BRANCH   8  13
ATOM     13  C   UNL A   1      30.421  27.745  23.942  1.00  0.00     0.075 A 
ATOM     14  N   UNL A   1      30.915  28.930  24.472  1.00  0.00    -0.233 N 
ATOM     15  N   UNL A   1      30.199  30.008  24.067  1.00  0.00    -0.163 NA
ATOM     16  C   UNL A   1      29.393  29.538  23.095  1.00  0.00     0.167 A 
ATOM     17  C   UNL A   1      29.491  28.128  22.997  1.00  0.00     0.064 A 
BRANCH  14  18
ATOM     18  C   UNL A   1      32.045  29.102  25.308  1.00  0.00     0.065 A 
ATOM     19  C   UNL A   1      34.300  29.581  26.860  1.00  0.00     0.082 A 
ATOM     20  C   UNL A   1      33.063  30.102  27.245  1.00  0.00     0.024 A 
ATOM     21  C   UNL A   1      34.404  28.761  25.737  1.00  0.00     0.024 A 
ATOM     22  C   UNL A   1      31.940  29.902  26.449  1.00  0.00     0.030 A 
ATOM     23  C   UNL A   1      33.259  28.481  24.982  1.00  0.00     0.030 A 
BRANCH  19  24
ATOM     24  S   UNL A   1      35.732  30.075  27.777  1.00  0.00     0.238 S 
ATOM     25  O   UNL A   1      35.911  31.495  27.622  1.00  0.00    -0.207 OA
ATOM     26  O   UNL A   1      36.801  29.125  27.546  1.00  0.00    -0.207 OA
BRANCH  24  27
ATOM     27  N   UNL A   1      35.245  29.839  29.364  1.00  0.00    -0.225 NA
ATOM     28  H   UNL A   1      35.775  30.457  29.978  1.00  0.00     0.137 HD
ATOM     29  H   UNL A   1      35.413  28.869  29.631  1.00  0.00     0.137 HD
ENDBRANCH  24  27
ENDBRANCH  19  24
ENDBRANCH  14  18
BRANCH  16  30
ATOM     30  C   UNL A   1      28.494  30.418  22.270  1.00  0.00     0.435 C 
ATOM     31  F   UNL A   1      27.457  30.933  22.980  1.00  0.00    -0.164 F 
ATOM     32  F   UNL A   1      29.167  31.464  21.722  1.00  0.00    -0.164 F 
ATOM     33  F   UNL A   1      27.945  29.733  21.227  1.00  0.00    -0.164 F 
ENDBRANCH  16  30
ENDBRANCH   8  13
ENDBRANCH   6   7
ENDBRANCH   3   6
ENDBRANCH   1   2
BRANCH   1  34
ATOM     34  C   UNL A   1      35.364  22.607  24.393  1.00  0.00     0.023 C 
BRANCH  34  35
ATOM     35  C   UNL A   1      36.861  22.288  24.284  1.00  0.00     0.023 C 
BRANCH  35  36
ATOM     36  C   UNL A   1      37.751  23.009  25.277  1.00  0.00     0.116 C 
BRANCH  36  37
ATOM     37  N   UNL A   1      38.497  22.100  26.157  1.00  0.00    -0.352 N 
ATOM     38  C   UNL A   1      39.651  22.382  26.869  1.00  0.00     0.251 C 
ATOM     39  H   UNL A   1      38.135  21.190  26.252  1.00  0.00     0.163 HD
ATOM     40  O   UNL A   1      40.405  21.495  27.247  1.00  0.00    -0.269 OA
BRANCH  38  41
ATOM     41  C   UNL A   1      39.937  23.792  27.175  1.00  0.00     0.039 A 
ATOM     42  C   UNL A   1      38.956  24.785  27.153  1.00  0.00     0.014 A 
ATOM     43  C   UNL A   1      41.236  24.076  27.579  1.00  0.00     0.014 A 
ATOM     44  C   UNL A   1      39.290  26.053  27.627  1.00  0.00     0.010 A 
ATOM     45  C   UNL A   1      41.484  25.231  28.258  1.00  0.00     0.010 A 
ATOM     46  C   UNL A   1      40.555  26.257  28.201  1.00  0.00    -0.014 A 
BRANCH  46  47
ATOM     47  C   UNL A   1      40.918  27.511  28.843  1.00  0.00     0.031 A 
ATOM     48  C   UNL A   1      42.031  28.241  28.183  1.00  0.00     0.074 A 
ATOM     49  C   UNL A   1      40.162  28.073  29.813  1.00  0.00     0.049 A 
ATOM     50  N   UNL A   1      43.214  28.449  28.653  1.00  0.00    -0.248 NA
ATOM     51  C   UNL A   1      41.864  28.660  26.781  1.00  0.00     0.031 C 
ATOM     52  C   UNL A   1      38.869  27.631  30.354  1.00  0.00     0.029 A 
ATOM     53  N   UNL A   1      40.357  29.251  30.460  1.00  0.00    -0.354 N 
ATOM     54  C   UNL A   1      43.875  29.216  27.701  1.00  0.00     0.074 A 
ATOM     55  C   UNL A   1      43.074  29.155  26.506  1.00  0.00     0.031 C 
ATOM     56  C   UNL A   1      38.295  28.637  31.049  1.00  0.00     0.029 A 
ATOM     57  C   UNL A   1      39.248  29.723  31.157  1.00  0.00     0.049 A 
ATOM     58  H   UNL A   1      41.215  29.734  30.439  1.00  0.00     0.167 HD
ATOM     59  C   UNL A   1      44.901  30.038  28.054  1.00  0.00     0.037 A 
ATOM     60  C   UNL A   1      39.132  30.938  31.751  1.00  0.00     0.037 A 
ATOM     61  C   UNL A   1      45.411  29.703  29.361  1.00  0.00     0.049 A 
ATOM     62  C   UNL A   1      40.513  31.451  31.955  1.00  0.00     0.074 A 
ATOM     63  C   UNL A   1      45.935  28.551  29.921  1.00  0.00     0.029 A 
ATOM     64  N   UNL A   1      45.027  30.486  30.425  1.00  0.00    -0.354 N 
ATOM     65  N   UNL A   1      41.365  30.909  32.783  1.00  0.00    -0.248 NA
ATOM     66  C   UNL A   1      41.101  32.230  30.874  1.00  0.00     0.031 C 
ATOM     67  C   UNL A   1      45.349  28.481  31.220  1.00  0.00     0.029 A 
ATOM     68  C   UNL A   1      44.590  29.636  31.413  1.00  0.00     0.049 A 
ATOM     69  H   UNL A   1      45.058  31.468  30.470  1.00  0.00     0.167 HD
ATOM     70  C   UNL A   1      42.570  30.904  32.098  1.00  0.00     0.074 A 
ATOM     71  C   UNL A   1      42.360  31.788  30.950  1.00  0.00     0.031 C 
ATOM     72  C   UNL A   1      43.527  29.958  32.336  1.00  0.00     0.037 A 
BRANCH  59  73
ATOM     73  C   UNL A   1      45.193  31.357  27.388  1.00  0.00     0.057 A 
ATOM     74  C   UNL A   1      46.471  31.593  26.851  1.00  0.00     0.134 A 
ATOM     75  C   UNL A   1      44.370  32.496  27.498  1.00  0.00     0.134 A 
ATOM     76  F   UNL A   1      47.357  30.594  26.720  1.00  0.00    -0.206 F 
ATOM     77  C   UNL A   1      46.914  32.876  26.508  1.00  0.00     0.040 A 
ATOM     78  C   UNL A   1      44.782  33.771  27.109  1.00  0.00     0.040 A 
ATOM     79  F   UNL A   1      43.167  32.456  28.084  1.00  0.00    -0.206 F 
ATOM     80  C   UNL A   1      46.069  33.972  26.639  1.00  0.00     0.006 A 
ENDBRANCH  59  73
BRANCH  60  81
ATOM     81  C   UNL A   1      37.932  31.802  31.849  1.00  0.00     0.057 A 
ATOM     82  C   UNL A   1      37.436  32.487  30.731  1.00  0.00     0.134 A 
ATOM     83  C   UNL A   1      37.081  31.760  32.969  1.00  0.00     0.134 A 
ATOM     84  F   UNL A   1      38.152  32.551  29.599  1.00  0.00    -0.206 F 
ATOM     85  C   UNL A   1      36.159  33.069  30.716  1.00  0.00     0.040 A 
ATOM     86  C   UNL A   1      35.807  32.341  32.969  1.00  0.00     0.040 A 
ATOM     87  F   UNL A   1      37.419  31.078  34.073  1.00  0.00    -0.206 F 
ATOM     88  C   UNL A   1      35.335  32.986  31.833  1.00  0.00     0.006 A 
ENDBRANCH  60  81
BRANCH  72  89
ATOM     89  C   UNL A   1      43.342  29.025  33.506  1.00  0.00     0.057 A 
ATOM     90  C   UNL A   1      42.775  27.743  33.417  1.00  0.00     0.134 A 
ATOM     91  C   UNL A   1      43.919  29.367  34.734  1.00  0.00     0.134 A 
ATOM     92  F   UNL A   1      42.287  27.277  32.262  1.00  0.00    -0.206 F 
ATOM     93  C   UNL A   1      42.751  26.863  34.505  1.00  0.00     0.040 A 
ATOM     94  C   UNL A   1      43.931  28.485  35.819  1.00  0.00     0.040 A 
ATOM     95  F   UNL A   1      44.532  30.551  34.884  1.00  0.00    -0.206 F 
ATOM     96  C   UNL A   1      43.338  27.231  35.710  1.00  0.00     0.006 A 
ENDBRANCH  72  89
ENDBRANCH  46  47
ENDBRANCH  38  41
ENDBRANCH  36  37
ENDBRANCH  35  36
ENDBRANCH  34  35
ENDBRANCH   1  34
TORSDOF 17
ENDMDL
