MODEL 1
REMARK VINA RESULT:      -8.6      0.000      0.000
REMARK SMILES C[C@@H](C(=O)NCCCCNC(=O)c1ccc(-c2c3nc(c(-c4c(F)cccc4F)c4ccc([nH]4)c(-c4c(F)cccc4F)c4nc(c(-c5c(F)cccc5F)c5ccc2[nH]5)C=C4)C=C3)cc1)c1ccc(C[C@H]2CCC[C@H]2O)cc1
REMARK SMILES IDX 6 1 5 2 3 3 4 4 2 6 1 7 67 8 68 9 79 10 69 11 78 12 70 13
REMARK SMILES IDX 71 14 72 15 73 16 76 17 74 18 75 19 77 20 7 22 8 23 9 24
REMARK SMILES IDX 10 25 11 26 12 28 13 29 14 30 66 31 15 32 65 33 16 34 17 35
REMARK SMILES IDX 18 36 59 37 19 38 64 39 58 40 60 41 20 42 63 43 57 44 56 45
REMARK SMILES IDX 21 47 47 48 30 49 46 50 31 51 34 52 45 53 61 54 32 55 33 56
REMARK SMILES IDX 44 58 62 59 35 60 22 61 23 62 28 63 24 64 25 65 27 66 29 67
REMARK SMILES IDX 26 68 48 69 49 70 54 71 50 72 51 73 53 74 55 75 52 76 36 77
REMARK SMILES IDX 37 78 42 79 38 80 39 81 41 82 43 83 40 84
REMARK H PARENT 5 5 77 21 10 27 60 46 34 57
REMARK Flexibility Score: inf
ROOT
ATOM      1  C   UNL A   1      35.740  34.565  32.325  1.00  0.00     0.116 C 
ENDROOT
BRANCH   1   2
ATOM      2  N   UNL A   1      36.909  34.497  31.473  1.00  0.00    -0.356 N 
ATOM      3  C   UNL A   1      38.229  34.394  31.807  1.00  0.00     0.227 C 
ATOM      4  O   UNL A   1      39.022  34.711  30.920  1.00  0.00    -0.274 OA
ATOM      5  H   UNL A   1      36.724  34.530  30.507  1.00  0.00     0.163 HD
BRANCH   3   6
ATOM      6  C   UNL A   1      38.618  33.928  33.219  1.00  0.00     0.105 C 
ATOM      7  C   UNL A   1      39.853  34.710  33.696  1.00  0.00     0.023 C 
BRANCH   6   8
ATOM      8  C   UNL A   1      38.891  32.437  33.434  1.00  0.00    -0.036 A 
ATOM      9  C   UNL A   1      40.135  32.068  33.979  1.00  0.00     0.005 A 
ATOM     10  C   UNL A   1      38.041  31.408  33.013  1.00  0.00     0.005 A 
ATOM     11  C   UNL A   1      40.564  30.740  33.969  1.00  0.00     0.004 A 
ATOM     12  C   UNL A   1      38.472  30.079  32.997  1.00  0.00     0.004 A 
ATOM     13  C   UNL A   1      39.770  29.749  33.394  1.00  0.00    -0.048 A 
BRANCH  13  14
ATOM     14  C   UNL A   1      40.323  28.374  33.119  1.00  0.00     0.041 C 
BRANCH  14  15
ATOM     15  C   UNL A   1      41.689  28.039  33.757  1.00  0.00     0.022 C 
ATOM     16  C   UNL A   1      41.802  26.680  34.472  1.00  0.00     0.007 C 
ATOM     17  C   UNL A   1      42.940  28.106  32.866  1.00  0.00     0.117 C 
ATOM     18  C   UNL A   1      43.277  26.271  34.379  1.00  0.00     0.003 C 
ATOM     19  C   UNL A   1      44.003  27.452  33.743  1.00  0.00     0.032 C 
BRANCH  17  20
ATOM     20  O   UNL A   1      42.852  27.376  31.654  1.00  0.00    -0.393 OA
ATOM     21  H   UNL A   1      42.007  27.572  31.220  1.00  0.00     0.210 HD
ENDBRANCH  17  20
ENDBRANCH  14  15
ENDBRANCH  13  14
ENDBRANCH   6   8
ENDBRANCH   3   6
ENDBRANCH   1   2
BRANCH   1  22
ATOM     22  C   UNL A   1      34.556  33.847  31.672  1.00  0.00     0.023 C 
BRANCH  22  23
ATOM     23  C   UNL A   1      34.915  32.552  30.938  1.00  0.00     0.023 C 
BRANCH  23  24
ATOM     24  C   UNL A   1      34.989  32.673  29.423  1.00  0.00     0.116 C 
BRANCH  24  25
ATOM     25  N   UNL A   1      34.152  31.698  28.745  1.00  0.00    -0.352 N 
ATOM     26  C   UNL A   1      34.503  30.489  28.193  1.00  0.00     0.251 C 
ATOM     27  H   UNL A   1      33.200  31.938  28.669  1.00  0.00     0.163 HD
ATOM     28  O   UNL A   1      33.696  29.860  27.526  1.00  0.00    -0.269 OA
BRANCH  26  29
ATOM     29  C   UNL A   1      35.874  29.972  28.385  1.00  0.00     0.039 A 
ATOM     30  C   UNL A   1      36.792  30.108  27.341  1.00  0.00     0.014 A 
ATOM     31  C   UNL A   1      36.258  29.376  29.589  1.00  0.00     0.014 A 
ATOM     32  C   UNL A   1      38.114  29.703  27.530  1.00  0.00     0.010 A 
ATOM     33  C   UNL A   1      37.593  29.043  29.802  1.00  0.00     0.010 A 
ATOM     34  C   UNL A   1      38.534  29.204  28.774  1.00  0.00    -0.014 A 
BRANCH  34  35
ATOM     35  C   UNL A   1      39.958  28.863  29.019  1.00  0.00     0.031 A 
ATOM     36  C   UNL A   1      40.879  29.863  29.662  1.00  0.00     0.074 A 
ATOM     37  C   UNL A   1      40.434  27.671  28.609  1.00  0.00     0.049 A 
ATOM     38  N   UNL A   1      42.160  29.760  29.915  1.00  0.00    -0.248 NA
ATOM     39  C   UNL A   1      40.291  31.153  30.050  1.00  0.00     0.031 C 
ATOM     40  C   UNL A   1      39.654  26.637  27.925  1.00  0.00     0.029 A 
ATOM     41  N   UNL A   1      41.692  27.130  28.700  1.00  0.00    -0.354 N 
ATOM     42  C   UNL A   1      42.530  30.973  30.484  1.00  0.00     0.074 A 
ATOM     43  C   UNL A   1      41.353  31.815  30.486  1.00  0.00     0.031 C 
ATOM     44  C   UNL A   1      40.442  25.578  27.684  1.00  0.00     0.029 A 
ATOM     45  C   UNL A   1      41.791  25.871  28.158  1.00  0.00     0.049 A 
ATOM     46  H   UNL A   1      42.452  27.599  29.115  1.00  0.00     0.167 HD
ATOM     47  C   UNL A   1      43.735  31.342  30.981  1.00  0.00     0.037 A 
ATOM     48  C   UNL A   1      42.851  25.049  28.048  1.00  0.00     0.037 A 
ATOM     49  C   UNL A   1      44.899  30.495  30.993  1.00  0.00     0.049 A 
ATOM     50  C   UNL A   1      44.181  25.490  28.595  1.00  0.00     0.074 A 
ATOM     51  C   UNL A   1      46.150  30.758  31.523  1.00  0.00     0.029 A 
ATOM     52  N   UNL A   1      44.957  29.223  30.442  1.00  0.00    -0.354 N 
ATOM     53  N   UNL A   1      44.498  26.611  29.197  1.00  0.00    -0.248 NA
ATOM     54  C   UNL A   1      45.300  24.547  28.454  1.00  0.00     0.031 C 
ATOM     55  C   UNL A   1      46.978  29.664  31.253  1.00  0.00     0.029 A 
ATOM     56  C   UNL A   1      46.230  28.698  30.601  1.00  0.00     0.049 A 
ATOM     57  H   UNL A   1      44.205  28.762  30.006  1.00  0.00     0.167 HD
ATOM     58  C   UNL A   1      45.841  26.496  29.531  1.00  0.00     0.074 A 
ATOM     59  C   UNL A   1      46.274  25.190  29.081  1.00  0.00     0.031 C 
ATOM     60  C   UNL A   1      46.644  27.394  30.153  1.00  0.00     0.037 A 
BRANCH  47  61
ATOM     61  C   UNL A   1      43.854  32.721  31.561  1.00  0.00     0.057 A 
ATOM     62  C   UNL A   1      44.067  33.846  30.752  1.00  0.00     0.134 A 
ATOM     63  C   UNL A   1      43.710  32.935  32.938  1.00  0.00     0.134 A 
ATOM     64  F   UNL A   1      44.225  33.711  29.427  1.00  0.00    -0.206 F 
ATOM     65  C   UNL A   1      44.155  35.131  31.294  1.00  0.00     0.040 A 
ATOM     66  C   UNL A   1      43.767  34.217  33.488  1.00  0.00     0.040 A 
ATOM     67  F   UNL A   1      43.499  31.904  33.769  1.00  0.00    -0.206 F 
ATOM     68  C   UNL A   1      43.996  35.319  32.666  1.00  0.00     0.006 A 
ENDBRANCH  47  61
BRANCH  48  69
ATOM     69  C   UNL A   1      42.701  23.717  27.408  1.00  0.00     0.057 A 
ATOM     70  C   UNL A   1      42.829  23.560  26.023  1.00  0.00     0.134 A 
ATOM     71  C   UNL A   1      42.406  22.573  28.160  1.00  0.00     0.134 A 
ATOM     72  F   UNL A   1      43.093  24.622  25.246  1.00  0.00    -0.206 F 
ATOM     73  C   UNL A   1      42.644  22.323  25.405  1.00  0.00     0.040 A 
ATOM     74  C   UNL A   1      42.245  21.323  27.559  1.00  0.00     0.040 A 
ATOM     75  F   UNL A   1      42.278  22.653  29.492  1.00  0.00    -0.206 F 
ATOM     76  C   UNL A   1      42.355  21.199  26.176  1.00  0.00     0.006 A 
ENDBRANCH  48  69
BRANCH  60  77
ATOM     77  C   UNL A   1      48.063  26.977  30.416  1.00  0.00     0.057 A 
ATOM     78  C   UNL A   1      48.431  26.287  31.578  1.00  0.00     0.134 A 
ATOM     79  C   UNL A   1      49.068  27.243  29.476  1.00  0.00     0.134 A 
ATOM     80  F   UNL A   1      47.519  26.012  32.522  1.00  0.00    -0.206 F 
ATOM     81  C   UNL A   1      49.752  25.902  31.809  1.00  0.00     0.040 A 
ATOM     82  C   UNL A   1      50.387  26.836  29.683  1.00  0.00     0.040 A 
ATOM     83  F   UNL A   1      48.782  27.892  28.338  1.00  0.00    -0.206 F 
ATOM     84  C   UNL A   1      50.733  26.170  30.857  1.00  0.00     0.006 A 
ENDBRANCH  60  77
ENDBRANCH  34  35
ENDBRANCH  26  29
ENDBRANCH  24  25
ENDBRANCH  23  24
ENDBRANCH  22  23
ENDBRANCH   1  22
TORSDOF 15
ENDMDL
MODEL 2
REMARK VINA RESULT:      -8.2      4.510      7.546
REMARK SMILES C[C@@H](C(=O)NCCCCNC(=O)c1ccc(-c2c3nc(c(-c4c(F)cccc4F)c4ccc([nH]4)c(-c4c(F)cccc4F)c4nc(c(-c5c(F)cccc5F)c5ccc2[nH]5)C=C4)C=C3)cc1)c1ccc(C[C@H]2CCC[C@H]2O)cc1
REMARK SMILES IDX 6 1 5 2 3 3 4 4 2 6 1 7 67 8 68 9 79 10 69 11 78 12 70 13
REMARK SMILES IDX 71 14 72 15 73 16 76 17 74 18 75 19 77 20 7 22 8 23 9 24
REMARK SMILES IDX 10 25 11 26 12 28 13 29 14 30 66 31 15 32 65 33 16 34 17 35
REMARK SMILES IDX 18 36 59 37 19 38 64 39 58 40 60 41 20 42 63 43 57 44 56 45
REMARK SMILES IDX 21 47 47 48 30 49 46 50 31 51 34 52 45 53 61 54 32 55 33 56
REMARK SMILES IDX 44 58 62 59 35 60 22 61 23 62 28 63 24 64 25 65 27 66 29 67
REMARK SMILES IDX 26 68 48 69 49 70 54 71 50 72 51 73 53 74 55 75 52 76 36 77
REMARK SMILES IDX 37 78 42 79 38 80 39 81 41 82 43 83 40 84
REMARK H PARENT 5 5 77 21 10 27 60 46 34 57
REMARK Flexibility Score: inf
ROOT
ATOM      1  C   UNL A   1      31.347  27.213  24.476  1.00  0.00     0.116 C 
ENDROOT
BRANCH   1   2
ATOM      2  N   UNL A   1      32.146  26.726  23.371  1.00  0.00    -0.356 N 
ATOM      3  C   UNL A   1      33.113  25.762  23.349  1.00  0.00     0.227 C 
ATOM      4  O   UNL A   1      33.867  25.795  22.376  1.00  0.00    -0.274 OA
ATOM      5  H   UNL A   1      31.963  27.153  22.503  1.00  0.00     0.163 HD
BRANCH   3   6
ATOM      6  C   UNL A   1      33.204  24.755  24.507  1.00  0.00     0.105 C 
ATOM      7  C   UNL A   1      34.419  25.092  25.387  1.00  0.00     0.023 C 
BRANCH   6   8
ATOM      8  C   UNL A   1      33.270  23.266  24.160  1.00  0.00    -0.036 A 
ATOM      9  C   UNL A   1      32.468  22.802  23.100  1.00  0.00     0.005 A 
ATOM     10  C   UNL A   1      33.976  22.311  24.899  1.00  0.00     0.005 A 
ATOM     11  C   UNL A   1      32.272  21.438  22.885  1.00  0.00     0.004 A 
ATOM     12  C   UNL A   1      33.776  20.944  24.688  1.00  0.00     0.004 A 
ATOM     13  C   UNL A   1      32.855  20.500  23.737  1.00  0.00    -0.048 A 
BRANCH  13  14
ATOM     14  C   UNL A   1      32.437  19.053  23.700  1.00  0.00     0.041 C 
BRANCH  14  15
ATOM     15  C   UNL A   1      33.274  18.070  24.547  1.00  0.00     0.022 C 
ATOM     16  C   UNL A   1      32.494  17.013  25.352  1.00  0.00     0.007 C 
ATOM     17  C   UNL A   1      34.382  17.269  23.843  1.00  0.00     0.117 C 
ATOM     18  C   UNL A   1      33.432  15.810  25.497  1.00  0.00     0.003 C 
ATOM     19  C   UNL A   1      34.769  16.242  24.902  1.00  0.00     0.032 C 
BRANCH  17  20
ATOM     20  O   UNL A   1      33.972  16.576  22.677  1.00  0.00    -0.393 OA
ATOM     21  H   UNL A   1      33.868  17.205  21.946  1.00  0.00     0.210 HD
ENDBRANCH  17  20
ENDBRANCH  14  15
ENDBRANCH  13  14
ENDBRANCH   6   8
ENDBRANCH   3   6
ENDBRANCH   1   2
BRANCH   1  22
ATOM     22  C   UNL A   1      32.071  28.349  25.203  1.00  0.00     0.023 C 
BRANCH  22  23
ATOM     23  C   UNL A   1      32.365  28.082  26.681  1.00  0.00     0.023 C 
BRANCH  23  24
ATOM     24  C   UNL A   1      33.714  28.591  27.170  1.00  0.00     0.116 C 
BRANCH  24  25
ATOM     25  N   UNL A   1      33.651  29.962  27.648  1.00  0.00    -0.352 N 
ATOM     26  C   UNL A   1      34.608  30.691  28.313  1.00  0.00     0.251 C 
ATOM     27  H   UNL A   1      32.806  30.433  27.472  1.00  0.00     0.163 HD
ATOM     28  O   UNL A   1      34.333  31.788  28.776  1.00  0.00    -0.269 OA
BRANCH  26  29
ATOM     29  C   UNL A   1      35.961  30.125  28.493  1.00  0.00     0.039 A 
ATOM     30  C   UNL A   1      36.862  30.195  27.428  1.00  0.00     0.014 A 
ATOM     31  C   UNL A   1      36.346  29.546  29.705  1.00  0.00     0.014 A 
ATOM     32  C   UNL A   1      38.171  29.743  27.603  1.00  0.00     0.010 A 
ATOM     33  C   UNL A   1      37.670  29.166  29.902  1.00  0.00     0.010 A 
ATOM     34  C   UNL A   1      38.596  29.261  28.852  1.00  0.00    -0.014 A 
BRANCH  34  35
ATOM     35  C   UNL A   1      40.010  28.870  29.079  1.00  0.00     0.031 A 
ATOM     36  C   UNL A   1      40.974  29.835  29.710  1.00  0.00     0.074 A 
ATOM     37  C   UNL A   1      40.438  27.661  28.663  1.00  0.00     0.049 A 
ATOM     38  N   UNL A   1      42.253  29.688  29.947  1.00  0.00    -0.248 NA
ATOM     39  C   UNL A   1      40.437  31.146  30.105  1.00  0.00     0.031 C 
ATOM     40  C   UNL A   1      39.612  26.656  27.990  1.00  0.00     0.029 A 
ATOM     41  N   UNL A   1      41.677  27.076  28.738  1.00  0.00    -0.354 N 
ATOM     42  C   UNL A   1      42.674  30.886  30.511  1.00  0.00     0.074 A 
ATOM     43  C   UNL A   1      41.528  31.769  30.527  1.00  0.00     0.031 C 
ATOM     44  C   UNL A   1      40.360  25.569  27.739  1.00  0.00     0.029 A 
ATOM     45  C   UNL A   1      41.724  25.814  28.196  1.00  0.00     0.049 A 
ATOM     46  H   UNL A   1      42.458  27.517  29.144  1.00  0.00     0.167 HD
ATOM     47  C   UNL A   1      43.897  31.212  30.992  1.00  0.00     0.037 A 
ATOM     48  C   UNL A   1      42.753  24.955  28.072  1.00  0.00     0.037 A 
ATOM     49  C   UNL A   1      45.031  30.324  30.989  1.00  0.00     0.049 A 
ATOM     50  C   UNL A   1      44.104  25.348  28.603  1.00  0.00     0.074 A 
ATOM     51  C   UNL A   1      46.296  30.542  31.504  1.00  0.00     0.029 A 
ATOM     52  N   UNL A   1      45.036  29.051  30.439  1.00  0.00    -0.354 N 
ATOM     53  N   UNL A   1      44.468  26.457  29.200  1.00  0.00    -0.248 NA
ATOM     54  C   UNL A   1      45.187  24.366  28.448  1.00  0.00     0.031 C 
ATOM     55  C   UNL A   1      47.082  29.420  31.223  1.00  0.00     0.029 A 
ATOM     56  C   UNL A   1      46.291  28.481  30.581  1.00  0.00     0.049 A 
ATOM     57  H   UNL A   1      44.263  28.617  30.012  1.00  0.00     0.167 HD
ATOM     58  C   UNL A   1      45.811  26.294  29.517  1.00  0.00     0.074 A 
ATOM     59  C   UNL A   1      46.191  24.974  29.062  1.00  0.00     0.031 C 
ATOM     60  C   UNL A   1      46.653  27.163  30.129  1.00  0.00     0.037 A 
BRANCH  47  61
ATOM     61  C   UNL A   1      44.072  32.586  31.570  1.00  0.00     0.057 A 
ATOM     62  C   UNL A   1      44.464  33.675  30.780  1.00  0.00     0.134 A 
ATOM     63  C   UNL A   1      43.804  32.835  32.923  1.00  0.00     0.134 A 
ATOM     64  F   UNL A   1      44.747  33.505  29.480  1.00  0.00    -0.206 F 
ATOM     65  C   UNL A   1      44.604  34.957  31.317  1.00  0.00     0.040 A 
ATOM     66  C   UNL A   1      43.913  34.116  33.465  1.00  0.00     0.040 A 
ATOM     67  F   UNL A   1      43.420  31.840  33.735  1.00  0.00    -0.206 F 
ATOM     68  C   UNL A   1      44.320  35.181  32.663  1.00  0.00     0.006 A 
ENDBRANCH  47  61
BRANCH  48  69
ATOM     69  C   UNL A   1      42.547  23.629  27.435  1.00  0.00     0.057 A 
ATOM     70  C   UNL A   1      42.292  22.487  28.204  1.00  0.00     0.134 A 
ATOM     71  C   UNL A   1      42.620  23.466  26.046  1.00  0.00     0.134 A 
ATOM     72  F   UNL A   1      42.229  22.576  29.541  1.00  0.00    -0.206 F 
ATOM     73  C   UNL A   1      42.144  21.229  27.621  1.00  0.00     0.040 A 
ATOM     74  C   UNL A   1      42.446  22.217  25.446  1.00  0.00     0.040 A 
ATOM     75  F   UNL A   1      42.853  24.520  25.252  1.00  0.00    -0.206 F 
ATOM     76  C   UNL A   1      42.217  21.093  26.236  1.00  0.00     0.006 A 
ENDBRANCH  48  69
BRANCH  60  77
ATOM     77  C   UNL A   1      48.060  26.695  30.373  1.00  0.00     0.057 A 
ATOM     78  C   UNL A   1      49.098  26.964  29.471  1.00  0.00     0.134 A 
ATOM     79  C   UNL A   1      48.383  25.994  31.542  1.00  0.00     0.134 A 
ATOM     80  F   UNL A   1      48.852  27.620  28.328  1.00  0.00    -0.206 F 
ATOM     81  C   UNL A   1      50.401  26.527  29.711  1.00  0.00     0.040 A 
ATOM     82  C   UNL A   1      49.689  25.579  31.806  1.00  0.00     0.040 A 
ATOM     83  F   UNL A   1      47.439  25.712  32.452  1.00  0.00    -0.206 F 
ATOM     84  C   UNL A   1      50.701  25.838  30.885  1.00  0.00     0.006 A 
ENDBRANCH  60  77
ENDBRANCH  34  35
ENDBRANCH  26  29
ENDBRANCH  24  25
ENDBRANCH  23  24
ENDBRANCH  22  23
ENDBRANCH   1  22
TORSDOF 15
ENDMDL
MODEL 3
REMARK VINA RESULT:      -8.2      3.814     10.162
REMARK SMILES C[C@@H](C(=O)NCCCCNC(=O)c1ccc(-c2c3nc(c(-c4c(F)cccc4F)c4ccc([nH]4)c(-c4c(F)cccc4F)c4nc(c(-c5c(F)cccc5F)c5ccc2[nH]5)C=C4)C=C3)cc1)c1ccc(C[C@H]2CCC[C@H]2O)cc1
REMARK SMILES IDX 6 1 5 2 3 3 4 4 2 6 1 7 67 8 68 9 79 10 69 11 78 12 70 13
REMARK SMILES IDX 71 14 72 15 73 16 76 17 74 18 75 19 77 20 7 22 8 23 9 24
REMARK SMILES IDX 10 25 11 26 12 28 13 29 14 30 66 31 15 32 65 33 16 34 17 35
REMARK SMILES IDX 18 36 59 37 19 38 64 39 58 40 60 41 20 42 63 43 57 44 56 45
REMARK SMILES IDX 21 47 47 48 30 49 46 50 31 51 34 52 45 53 61 54 32 55 33 56
REMARK SMILES IDX 44 58 62 59 35 60 22 61 23 62 28 63 24 64 25 65 27 66 29 67
REMARK SMILES IDX 26 68 48 69 49 70 54 71 50 72 51 73 53 74 55 75 52 76 36 77
REMARK SMILES IDX 37 78 42 79 38 80 39 81 41 82 43 83 40 84
REMARK H PARENT 5 5 77 21 10 27 60 46 34 57
REMARK Flexibility Score: inf
ROOT
ATOM      1  C   UNL A   1      37.841  23.546  26.038  1.00  0.00     0.116 C 
ENDROOT
BRANCH   1   2
ATOM      2  N   UNL A   1      37.578  23.550  24.614  1.00  0.00    -0.356 N 
ATOM      3  C   UNL A   1      36.446  23.203  23.934  1.00  0.00     0.227 C 
ATOM      4  O   UNL A   1      36.605  22.960  22.737  1.00  0.00    -0.274 OA
ATOM      5  H   UNL A   1      38.328  23.849  24.051  1.00  0.00     0.163 HD
BRANCH   3   6
ATOM      6  C   UNL A   1      35.107  23.120  24.684  1.00  0.00     0.105 C 
ATOM      7  C   UNL A   1      34.354  21.850  24.253  1.00  0.00     0.023 C 
BRANCH   6   8
ATOM      8  C   UNL A   1      34.144  24.304  24.567  1.00  0.00    -0.036 A 
ATOM      9  C   UNL A   1      34.046  24.951  23.321  1.00  0.00     0.005 A 
ATOM     10  C   UNL A   1      33.446  24.866  25.641  1.00  0.00     0.005 A 
ATOM     11  C   UNL A   1      33.399  26.180  23.193  1.00  0.00     0.004 A 
ATOM     12  C   UNL A   1      32.803  26.100  25.515  1.00  0.00     0.004 A 
ATOM     13  C   UNL A   1      32.851  26.806  24.312  1.00  0.00    -0.048 A 
BRANCH  13  14
ATOM     14  C   UNL A   1      32.402  28.244  24.254  1.00  0.00     0.041 C 
BRANCH  14  15
ATOM     15  C   UNL A   1      30.882  28.489  24.125  1.00  0.00     0.022 C 
ATOM     16  C   UNL A   1      30.425  29.956  24.033  1.00  0.00     0.007 C 
ATOM     17  C   UNL A   1      30.128  27.783  22.987  1.00  0.00     0.117 C 
ATOM     18  C   UNL A   1      29.113  29.944  23.239  1.00  0.00     0.003 C 
ATOM     19  C   UNL A   1      28.770  28.475  23.012  1.00  0.00     0.032 C 
BRANCH  17  20
ATOM     20  O   UNL A   1      30.693  27.955  21.698  1.00  0.00    -0.393 OA
ATOM     21  H   UNL A   1      30.447  27.204  21.134  1.00  0.00     0.210 HD
ENDBRANCH  17  20
ENDBRANCH  14  15
ENDBRANCH  13  14
ENDBRANCH   6   8
ENDBRANCH   3   6
ENDBRANCH   1   2
BRANCH   1  22
ATOM     22  C   UNL A   1      39.043  22.654  26.360  1.00  0.00     0.023 C 
BRANCH  22  23
ATOM     23  C   UNL A   1      39.069  21.317  25.615  1.00  0.00     0.023 C 
BRANCH  23  24
ATOM     24  C   UNL A   1      39.455  20.115  26.466  1.00  0.00     0.116 C 
BRANCH  24  25
ATOM     25  N   UNL A   1      40.601  19.400  25.932  1.00  0.00    -0.352 N 
ATOM     26  C   UNL A   1      41.906  19.816  25.818  1.00  0.00     0.251 C 
ATOM     27  H   UNL A   1      40.417  18.490  25.605  1.00  0.00     0.163 HD
ATOM     28  O   UNL A   1      42.717  19.139  25.204  1.00  0.00    -0.269 OA
BRANCH  26  29
ATOM     29  C   UNL A   1      42.313  21.106  26.415  1.00  0.00     0.039 A 
ATOM     30  C   UNL A   1      42.711  22.140  25.564  1.00  0.00     0.014 A 
ATOM     31  C   UNL A   1      42.284  21.302  27.798  1.00  0.00     0.014 A 
ATOM     32  C   UNL A   1      43.019  23.391  26.099  1.00  0.00     0.010 A 
ATOM     33  C   UNL A   1      42.518  22.569  28.322  1.00  0.00     0.010 A 
ATOM     34  C   UNL A   1      42.887  23.627  27.478  1.00  0.00    -0.014 A 
BRANCH  34  35
ATOM     35  C   UNL A   1      43.115  24.979  28.047  1.00  0.00     0.031 A 
ATOM     36  C   UNL A   1      44.490  25.395  28.491  1.00  0.00     0.074 A 
ATOM     37  C   UNL A   1      42.069  25.813  28.215  1.00  0.00     0.049 A 
ATOM     38  N   UNL A   1      44.873  26.516  29.049  1.00  0.00    -0.248 NA
ATOM     39  C   UNL A   1      45.572  24.417  28.305  1.00  0.00     0.031 C 
ATOM     40  C   UNL A   1      40.678  25.507  27.873  1.00  0.00     0.029 A 
ATOM     41  N   UNL A   1      42.012  27.086  28.723  1.00  0.00    -0.354 N 
ATOM     42  C   UNL A   1      46.235  26.373  29.287  1.00  0.00     0.074 A 
ATOM     43  C   UNL A   1      46.598  25.038  28.866  1.00  0.00     0.031 C 
ATOM     44  C   UNL A   1      39.911  26.571  28.155  1.00  0.00     0.029 A 
ATOM     45  C   UNL A   1      40.746  27.619  28.734  1.00  0.00     0.049 A 
ATOM     46  H   UNL A   1      42.804  27.573  29.048  1.00  0.00     0.167 HD
ATOM     47  C   UNL A   1      47.106  27.281  29.789  1.00  0.00     0.037 A 
ATOM     48  C   UNL A   1      40.305  28.814  29.170  1.00  0.00     0.037 A 
ATOM     49  C   UNL A   1      46.742  28.615  30.191  1.00  0.00     0.049 A 
ATOM     50  C   UNL A   1      41.292  29.798  29.735  1.00  0.00     0.074 A 
ATOM     51  C   UNL A   1      47.562  29.626  30.660  1.00  0.00     0.029 A 
ATOM     52  N   UNL A   1      45.451  29.120  30.179  1.00  0.00    -0.354 N 
ATOM     53  N   UNL A   1      42.588  29.676  29.886  1.00  0.00    -0.248 NA
ATOM     54  C   UNL A   1      40.754  31.089  30.187  1.00  0.00     0.031 C 
ATOM     55  C   UNL A   1      46.761  30.728  30.976  1.00  0.00     0.029 A 
ATOM     56  C   UNL A   1      45.449  30.422  30.654  1.00  0.00     0.049 A 
ATOM     57  H   UNL A   1      44.655  28.627  29.876  1.00  0.00     0.167 HD
ATOM     58  C   UNL A   1      43.024  30.881  30.420  1.00  0.00     0.074 A 
ATOM     59  C   UNL A   1      41.857  31.727  30.551  1.00  0.00     0.031 C 
ATOM     60  C   UNL A   1      44.279  31.254  30.772  1.00  0.00     0.037 A 
BRANCH  47  61
ATOM     61  C   UNL A   1      48.541  26.864  29.924  1.00  0.00     0.057 A 
ATOM     62  C   UNL A   1      49.013  26.199  31.065  1.00  0.00     0.134 A 
ATOM     63  C   UNL A   1      49.455  27.090  28.886  1.00  0.00     0.134 A 
ATOM     64  F   UNL A   1      48.194  25.962  32.100  1.00  0.00    -0.206 F 
ATOM     65  C   UNL A   1      50.344  25.794  31.177  1.00  0.00     0.040 A 
ATOM     66  C   UNL A   1      50.781  26.664  28.975  1.00  0.00     0.040 A 
ATOM     67  F   UNL A   1      49.070  27.716  27.764  1.00  0.00    -0.206 F 
ATOM     68  C   UNL A   1      51.231  26.018  30.125  1.00  0.00     0.006 A 
ENDBRANCH  47  61
BRANCH  48  69
ATOM     69  C   UNL A   1      38.863  29.159  29.074  1.00  0.00     0.057 A 
ATOM     70  C   UNL A   1      38.021  29.067  30.189  1.00  0.00     0.134 A 
ATOM     71  C   UNL A   1      38.287  29.569  27.865  1.00  0.00     0.134 A 
ATOM     72  F   UNL A   1      38.510  28.662  31.371  1.00  0.00    -0.206 F 
ATOM     73  C   UNL A   1      36.656  29.343  30.101  1.00  0.00     0.040 A 
ATOM     74  C   UNL A   1      36.929  29.876  27.769  1.00  0.00     0.040 A 
ATOM     75  F   UNL A   1      39.040  29.686  26.762  1.00  0.00    -0.206 F 
ATOM     76  C   UNL A   1      36.108  29.753  28.888  1.00  0.00     0.006 A 
ENDBRANCH  48  69
BRANCH  60  77
ATOM     77  C   UNL A   1      44.458  32.649  31.299  1.00  0.00     0.057 A 
ATOM     78  C   UNL A   1      44.428  32.934  32.671  1.00  0.00     0.134 A 
ATOM     79  C   UNL A   1      44.692  33.716  30.422  1.00  0.00     0.134 A 
ATOM     80  F   UNL A   1      44.196  31.959  33.562  1.00  0.00    -0.206 F 
ATOM     81  C   UNL A   1      44.598  34.234  33.148  1.00  0.00     0.040 A 
ATOM     82  C   UNL A   1      44.893  35.015  30.890  1.00  0.00     0.040 A 
ATOM     83  F   UNL A   1      44.741  33.511  29.097  1.00  0.00    -0.206 F 
ATOM     84  C   UNL A   1      44.838  35.278  32.257  1.00  0.00     0.006 A 
ENDBRANCH  60  77
ENDBRANCH  34  35
ENDBRANCH  26  29
ENDBRANCH  24  25
ENDBRANCH  23  24
ENDBRANCH  22  23
ENDBRANCH   1  22
TORSDOF 15
ENDMDL
