MODEL 1
REMARK VINA RESULT:     -10.8      0.000      0.000
REMARK SMILES COC[C@H]1CC[N@@H+](Cc2ccc(C(=O)NCCCCNC(=O)c3ccc(-c4c5nc(c(-c6c(F)cccc6F)c6ccc([nH]6)c(-c6c(F)cccc6F)c6nc(c(-c7c(F)cccc7F)c7ccc4[nH]7)C=C6)C=C5)cc3)cn2)C1
REMARK SMILES IDX 16 1 15 2 13 3 14 4 12 6 9 7 10 8 78 9 11 10 77 11 8 12 7 13
REMARK SMILES IDX 4 14 5 15 79 16 6 17 3 19 2 20 1 21 17 22 18 23 19 24 20 25
REMARK SMILES IDX 21 26 22 28 23 29 24 30 76 31 25 32 75 33 26 34 27 35 28 36
REMARK SMILES IDX 69 37 29 38 74 39 68 40 70 41 30 42 73 43 67 44 66 45 31 47
REMARK SMILES IDX 57 48 40 49 56 50 41 51 44 52 55 53 71 54 42 55 43 56 54 58
REMARK SMILES IDX 72 59 45 60 32 61 33 62 38 63 34 64 35 65 37 66 39 67 36 68
REMARK SMILES IDX 58 69 59 70 64 71 60 72 61 73 63 74 65 75 62 76 46 77 47 78
REMARK SMILES IDX 52 79 48 80 49 81 51 82 53 83 50 84
REMARK H PARENT 15 5 7 18 20 27 70 46 44 57
REMARK Flexibility Score: inf
ROOT
ATOM      1  C   UNL A   1      31.385  29.570  25.022  1.00  0.00     0.116 C 
ENDROOT
BRANCH   1   2
ATOM      2  N   UNL A   1      30.862  29.685  23.672  1.00  0.00    -0.352 N 
ATOM      3  C   UNL A   1      30.719  28.722  22.699  1.00  0.00     0.252 C 
ATOM      4  O   UNL A   1      30.065  28.974  21.691  1.00  0.00    -0.269 OA
ATOM      5  H   UNL A   1      30.565  30.588  23.414  1.00  0.00     0.163 HD
BRANCH   3   6
ATOM      6  C   UNL A   1      31.286  27.372  22.874  1.00  0.00     0.058 A 
ATOM      7  C   UNL A   1      32.412  24.852  22.898  1.00  0.00     0.095 A 
ATOM      8  C   UNL A   1      31.181  25.060  23.527  1.00  0.00     0.030 A 
ATOM      9  N   UNL A   1      33.112  25.876  22.343  1.00  0.00    -0.255 NA
ATOM     10  C   UNL A   1      30.619  26.338  23.525  1.00  0.00     0.017 A 
ATOM     11  C   UNL A   1      32.544  27.109  22.353  1.00  0.00     0.125 A 
BRANCH   7  12
ATOM     12  C   UNL A   1      32.980  23.442  22.772  1.00  0.00     0.319 C 
BRANCH  12  13
ATOM     13  N   UNL A   1      32.763  22.521  23.902  1.00  0.00    -0.330 N 
ATOM     14  C   UNL A   1      32.827  20.192  24.443  1.00  0.00     0.076 C 
ATOM     15  C   UNL A   1      34.197  20.788  24.730  1.00  0.00     0.073 C 
ATOM     16  C   UNL A   1      32.140  21.242  23.566  1.00  0.00     0.268 C 
ATOM     17  C   UNL A   1      33.944  22.286  24.738  1.00  0.00     0.263 C 
ATOM     18  H   UNL A   1      32.084  23.048  24.451  1.00  0.00     0.348 HD
BRANCH  14  19
ATOM     19  C   UNL A   1      32.812  18.779  23.846  1.00  0.00     0.169 C 
BRANCH  19  20
ATOM     20  O   UNL A   1      32.044  17.819  24.569  1.00  0.00    -0.384 OA
ATOM     21  C   UNL A   1      32.682  17.328  25.729  1.00  0.00     0.194 C 
ENDBRANCH  19  20
ENDBRANCH  14  19
ENDBRANCH  12  13
ENDBRANCH   7  12
ENDBRANCH   3   6
ENDBRANCH   1   2
BRANCH   1  22
ATOM     22  C   UNL A   1      32.904  29.692  25.075  1.00  0.00     0.023 C 
BRANCH  22  23
ATOM     23  C   UNL A   1      33.606  28.519  25.759  1.00  0.00     0.023 C 
BRANCH  23  24
ATOM     24  C   UNL A   1      33.726  28.628  27.277  1.00  0.00     0.116 C 
BRANCH  24  25
ATOM     25  N   UNL A   1      33.745  30.001  27.758  1.00  0.00    -0.352 N 
ATOM     26  C   UNL A   1      34.760  30.703  28.371  1.00  0.00     0.251 C 
ATOM     27  H   UNL A   1      32.908  30.503  27.627  1.00  0.00     0.163 HD
ATOM     28  O   UNL A   1      34.553  31.819  28.822  1.00  0.00    -0.269 OA
BRANCH  26  29
ATOM     29  C   UNL A   1      36.096  30.082  28.515  1.00  0.00     0.039 A 
ATOM     30  C   UNL A   1      36.994  30.158  27.447  1.00  0.00     0.014 A 
ATOM     31  C   UNL A   1      36.471  29.454  29.704  1.00  0.00     0.014 A 
ATOM     32  C   UNL A   1      38.298  29.682  27.604  1.00  0.00     0.010 A 
ATOM     33  C   UNL A   1      37.791  29.050  29.886  1.00  0.00     0.010 A 
ATOM     34  C   UNL A   1      38.720  29.167  28.841  1.00  0.00    -0.014 A 
BRANCH  34  35
ATOM     35  C   UNL A   1      40.132  28.765  29.067  1.00  0.00     0.031 A 
ATOM     36  C   UNL A   1      41.108  29.733  29.677  1.00  0.00     0.074 A 
ATOM     37  C   UNL A   1      40.557  27.557  28.647  1.00  0.00     0.049 A 
ATOM     38  N   UNL A   1      42.394  29.596  29.874  1.00  0.00    -0.248 NA
ATOM     39  C   UNL A   1      40.572  31.037  30.094  1.00  0.00     0.031 C 
ATOM     40  C   UNL A   1      39.725  26.547  27.990  1.00  0.00     0.029 A 
ATOM     41  N   UNL A   1      41.801  26.978  28.700  1.00  0.00    -0.354 N 
ATOM     42  C   UNL A   1      42.823  30.800  30.417  1.00  0.00     0.074 A 
ATOM     43  C   UNL A   1      41.670  31.673  30.475  1.00  0.00     0.031 C 
ATOM     44  C   UNL A   1      40.477  25.467  27.717  1.00  0.00     0.029 A 
ATOM     45  C   UNL A   1      41.848  25.720  28.146  1.00  0.00     0.049 A 
ATOM     46  H   UNL A   1      42.585  27.421  29.097  1.00  0.00     0.167 HD
ATOM     47  C   UNL A   1      44.060  31.142  30.851  1.00  0.00     0.037 A 
ATOM     48  C   UNL A   1      42.882  24.871  27.993  1.00  0.00     0.037 A 
ATOM     49  C   UNL A   1      45.199  30.263  30.823  1.00  0.00     0.049 A 
ATOM     50  C   UNL A   1      44.243  25.269  28.492  1.00  0.00     0.074 A 
ATOM     51  C   UNL A   1      46.476  30.492  31.306  1.00  0.00     0.029 A 
ATOM     52  N   UNL A   1      45.199  28.987  30.283  1.00  0.00    -0.354 N 
ATOM     53  N   UNL A   1      44.616  26.384  29.072  1.00  0.00    -0.248 NA
ATOM     54  C   UNL A   1      45.325  24.290  28.320  1.00  0.00     0.031 C 
ATOM     55  C   UNL A   1      47.261  29.370  31.020  1.00  0.00     0.029 A 
ATOM     56  C   UNL A   1      46.460  28.423  30.402  1.00  0.00     0.049 A 
ATOM     57  H   UNL A   1      44.419  28.545  29.876  1.00  0.00     0.167 HD
ATOM     58  C   UNL A   1      45.967  26.230  29.359  1.00  0.00     0.074 A 
ATOM     59  C   UNL A   1      46.343  24.909  28.900  1.00  0.00     0.031 C 
ATOM     60  C   UNL A   1      46.818  27.104  29.948  1.00  0.00     0.037 A 
BRANCH  47  61
ATOM     61  C   UNL A   1      44.244  32.526  31.400  1.00  0.00     0.057 A 
ATOM     62  C   UNL A   1      44.581  33.609  30.575  1.00  0.00     0.134 A 
ATOM     63  C   UNL A   1      44.049  32.788  32.761  1.00  0.00     0.134 A 
ATOM     64  F   UNL A   1      44.793  33.424  29.263  1.00  0.00    -0.206 F 
ATOM     65  C   UNL A   1      44.742  34.896  31.090  1.00  0.00     0.040 A 
ATOM     66  C   UNL A   1      44.181  34.077  33.282  1.00  0.00     0.040 A 
ATOM     67  F   UNL A   1      43.720  31.799  33.605  1.00  0.00    -0.206 F 
ATOM     68  C   UNL A   1      44.534  35.134  32.446  1.00  0.00     0.006 A 
ENDBRANCH  47  61
BRANCH  48  69
ATOM     69  C   UNL A   1      42.668  23.546  27.357  1.00  0.00     0.057 A 
ATOM     70  C   UNL A   1      42.278  22.437  28.117  1.00  0.00     0.134 A 
ATOM     71  C   UNL A   1      42.860  23.354  25.984  1.00  0.00     0.134 A 
ATOM     72  F   UNL A   1      42.098  22.556  29.441  1.00  0.00    -0.206 F 
ATOM     73  C   UNL A   1      42.104  21.179  27.538  1.00  0.00     0.040 A 
ATOM     74  C   UNL A   1      42.666  22.107  25.388  1.00  0.00     0.040 A 
ATOM     75  F   UNL A   1      43.227  24.378  25.201  1.00  0.00    -0.206 F 
ATOM     76  C   UNL A   1      42.294  21.012  26.168  1.00  0.00     0.006 A 
ENDBRANCH  48  69
BRANCH  60  77
ATOM     77  C   UNL A   1      48.230  26.648  30.165  1.00  0.00     0.057 A 
ATOM     78  C   UNL A   1      49.245  26.923  29.240  1.00  0.00     0.134 A 
ATOM     79  C   UNL A   1      48.586  25.961  31.333  1.00  0.00     0.134 A 
ATOM     80  F   UNL A   1      48.967  27.565  28.095  1.00  0.00    -0.206 F 
ATOM     81  C   UNL A   1      50.561  26.512  29.459  1.00  0.00     0.040 A 
ATOM     82  C   UNL A   1      49.903  25.567  31.575  1.00  0.00     0.040 A 
ATOM     83  F   UNL A   1      47.663  25.675  32.262  1.00  0.00    -0.206 F 
ATOM     84  C   UNL A   1      50.894  25.838  30.634  1.00  0.00     0.006 A 
ENDBRANCH  60  77
ENDBRANCH  34  35
ENDBRANCH  26  29
ENDBRANCH  24  25
ENDBRANCH  23  24
ENDBRANCH  22  23
ENDBRANCH   1  22
TORSDOF 15
ENDMDL
MODEL 2
REMARK VINA RESULT:     -10.8      2.323      7.689
REMARK SMILES COC[C@H]1CC[N@@H+](Cc2ccc(C(=O)NCCCCNC(=O)c3ccc(-c4c5nc(c(-c6c(F)cccc6F)c6ccc([nH]6)c(-c6c(F)cccc6F)c6nc(c(-c7c(F)cccc7F)c7ccc4[nH]7)C=C6)C=C5)cc3)cn2)C1
REMARK SMILES IDX 16 1 15 2 13 3 14 4 12 6 9 7 10 8 78 9 11 10 77 11 8 12 7 13
REMARK SMILES IDX 4 14 5 15 79 16 6 17 3 19 2 20 1 21 17 22 18 23 19 24 20 25
REMARK SMILES IDX 21 26 22 28 23 29 24 30 76 31 25 32 75 33 26 34 27 35 28 36
REMARK SMILES IDX 69 37 29 38 74 39 68 40 70 41 30 42 73 43 67 44 66 45 31 47
REMARK SMILES IDX 57 48 40 49 56 50 41 51 44 52 55 53 71 54 42 55 43 56 54 58
REMARK SMILES IDX 72 59 45 60 32 61 33 62 38 63 34 64 35 65 37 66 39 67 36 68
REMARK SMILES IDX 58 69 59 70 64 71 60 72 61 73 63 74 65 75 62 76 46 77 47 78
REMARK SMILES IDX 52 79 48 80 49 81 51 82 53 83 50 84
REMARK H PARENT 15 5 7 18 20 27 70 46 44 57
REMARK Flexibility Score: inf
ROOT
ATOM      1  C   UNL A   1      36.794  22.472  25.587  1.00  0.00     0.116 C 
ENDROOT
BRANCH   1   2
ATOM      2  N   UNL A   1      35.709  22.425  26.552  1.00  0.00    -0.352 N 
ATOM      3  C   UNL A   1      34.473  23.029  26.518  1.00  0.00     0.252 C 
ATOM      4  O   UNL A   1      33.617  22.702  27.334  1.00  0.00    -0.269 OA
ATOM      5  H   UNL A   1      35.885  21.878  27.352  1.00  0.00     0.163 HD
BRANCH   3   6
ATOM      6  C   UNL A   1      34.139  24.021  25.479  1.00  0.00     0.058 A 
ATOM      7  C   UNL A   1      33.705  25.719  23.346  1.00  0.00     0.095 A 
ATOM      8  C   UNL A   1      33.967  26.256  24.610  1.00  0.00     0.030 A 
ATOM      9  N   UNL A   1      33.576  24.380  23.153  1.00  0.00    -0.255 NA
ATOM     10  C   UNL A   1      34.173  25.396  25.690  1.00  0.00     0.017 A 
ATOM     11  C   UNL A   1      33.782  23.564  24.218  1.00  0.00     0.125 A 
BRANCH   7  12
ATOM     12  C   UNL A   1      33.608  26.634  22.129  1.00  0.00     0.319 C 
BRANCH  12  13
ATOM     13  N   UNL A   1      32.368  27.412  21.963  1.00  0.00    -0.330 N 
ATOM     14  C   UNL A   1      30.189  27.662  22.917  1.00  0.00     0.076 C 
ATOM     15  C   UNL A   1      31.129  28.637  23.609  1.00  0.00     0.073 C 
ATOM     16  C   UNL A   1      31.125  26.681  22.208  1.00  0.00     0.268 C 
ATOM     17  C   UNL A   1      32.340  28.683  22.692  1.00  0.00     0.263 C 
ATOM     18  H   UNL A   1      32.402  27.617  20.965  1.00  0.00     0.348 HD
BRANCH  14  19
ATOM     19  C   UNL A   1      29.138  26.984  23.806  1.00  0.00     0.169 C 
BRANCH  19  20
ATOM     20  O   UNL A   1      29.540  25.749  24.394  1.00  0.00    -0.384 OA
ATOM     21  C   UNL A   1      30.101  25.880  25.683  1.00  0.00     0.194 C 
ENDBRANCH  19  20
ENDBRANCH  14  19
ENDBRANCH  12  13
ENDBRANCH   7  12
ENDBRANCH   3   6
ENDBRANCH   1   2
BRANCH   1  22
ATOM     22  C   UNL A   1      36.710  21.352  24.556  1.00  0.00     0.023 C 
BRANCH  22  23
ATOM     23  C   UNL A   1      37.669  20.189  24.811  1.00  0.00     0.023 C 
BRANCH  23  24
ATOM     24  C   UNL A   1      38.812  20.488  25.778  1.00  0.00     0.116 C 
BRANCH  24  25
ATOM     25  N   UNL A   1      39.858  19.477  25.765  1.00  0.00    -0.352 N 
ATOM     26  C   UNL A   1      41.196  19.594  26.074  1.00  0.00     0.251 C 
ATOM     27  H   UNL A   1      39.568  18.576  25.494  1.00  0.00     0.163 HD
ATOM     28  O   UNL A   1      41.957  18.656  25.884  1.00  0.00    -0.269 OA
BRANCH  26  29
ATOM     29  C   UNL A   1      41.717  20.876  26.600  1.00  0.00     0.039 A 
ATOM     30  C   UNL A   1      42.207  21.825  25.699  1.00  0.00     0.014 A 
ATOM     31  C   UNL A   1      41.695  21.151  27.968  1.00  0.00     0.014 A 
ATOM     32  C   UNL A   1      42.593  23.084  26.164  1.00  0.00     0.010 A 
ATOM     33  C   UNL A   1      42.007  22.430  28.420  1.00  0.00     0.010 A 
ATOM     34  C   UNL A   1      42.452  23.413  27.522  1.00  0.00    -0.014 A 
BRANCH  34  35
ATOM     35  C   UNL A   1      42.744  24.782  28.020  1.00  0.00     0.031 A 
ATOM     36  C   UNL A   1      44.140  25.155  28.435  1.00  0.00     0.074 A 
ATOM     37  C   UNL A   1      41.737  25.664  28.178  1.00  0.00     0.049 A 
ATOM     38  N   UNL A   1      44.574  26.267  28.972  1.00  0.00    -0.248 NA
ATOM     39  C   UNL A   1      45.181  24.133  28.248  1.00  0.00     0.031 C 
ATOM     40  C   UNL A   1      40.329  25.408  27.867  1.00  0.00     0.029 A 
ATOM     41  N   UNL A   1      41.742  26.952  28.653  1.00  0.00    -0.354 N 
ATOM     42  C   UNL A   1      45.928  26.071  29.204  1.00  0.00     0.074 A 
ATOM     43  C   UNL A   1      46.237  24.718  28.795  1.00  0.00     0.031 C 
ATOM     44  C   UNL A   1      39.611  26.509  28.142  1.00  0.00     0.029 A 
ATOM     45  C   UNL A   1      40.497  27.534  28.682  1.00  0.00     0.049 A 
ATOM     46  H   UNL A   1      42.560  27.415  28.946  1.00  0.00     0.167 HD
ATOM     47  C   UNL A   1      46.839  26.946  29.693  1.00  0.00     0.037 A 
ATOM     48  C   UNL A   1      40.112  28.754  29.103  1.00  0.00     0.037 A 
ATOM     49  C   UNL A   1      46.540  28.302  30.070  1.00  0.00     0.049 A 
ATOM     50  C   UNL A   1      41.145  29.711  29.632  1.00  0.00     0.074 A 
ATOM     51  C   UNL A   1      47.409  29.287  30.508  1.00  0.00     0.029 A 
ATOM     52  N   UNL A   1      45.273  28.864  30.055  1.00  0.00    -0.354 N 
ATOM     53  N   UNL A   1      42.436  29.536  29.776  1.00  0.00    -0.248 NA
ATOM     54  C   UNL A   1      40.667  31.036  30.052  1.00  0.00     0.031 C 
ATOM     55  C   UNL A   1      46.661  30.433  30.797  1.00  0.00     0.029 A 
ATOM     56  C   UNL A   1      45.333  30.177  30.495  1.00  0.00     0.049 A 
ATOM     57  H   UNL A   1      44.452  28.400  29.773  1.00  0.00     0.167 HD
ATOM     58  C   UNL A   1      42.928  30.735  30.275  1.00  0.00     0.074 A 
ATOM     59  C   UNL A   1      41.799  31.632  30.397  1.00  0.00     0.031 C 
ATOM     60  C   UNL A   1      44.202  31.061  30.604  1.00  0.00     0.037 A 
BRANCH  47  61
ATOM     61  C   UNL A   1      48.253  26.464  29.842  1.00  0.00     0.057 A 
ATOM     62  C   UNL A   1      49.211  26.665  28.839  1.00  0.00     0.134 A 
ATOM     63  C   UNL A   1      48.670  25.823  31.014  1.00  0.00     0.134 A 
ATOM     64  F   UNL A   1      48.874  27.262  27.686  1.00  0.00    -0.206 F 
ATOM     65  C   UNL A   1      50.527  26.222  28.987  1.00  0.00     0.040 A 
ATOM     66  C   UNL A   1      49.990  25.400  31.184  1.00  0.00     0.040 A 
ATOM     67  F   UNL A   1      47.806  25.603  32.017  1.00  0.00    -0.206 F 
ATOM     68  C   UNL A   1      50.921  25.595  30.166  1.00  0.00     0.006 A 
ENDBRANCH  47  61
BRANCH  48  69
ATOM     69  C   UNL A   1      38.685  29.153  29.022  1.00  0.00     0.057 A 
ATOM     70  C   UNL A   1      37.851  29.080  30.144  1.00  0.00     0.134 A 
ATOM     71  C   UNL A   1      38.117  29.602  27.824  1.00  0.00     0.134 A 
ATOM     72  F   UNL A   1      38.334  28.639  31.315  1.00  0.00    -0.206 F 
ATOM     73  C   UNL A   1      36.500  29.422  30.075  1.00  0.00     0.040 A 
ATOM     74  C   UNL A   1      36.773  29.970  27.746  1.00  0.00     0.040 A 
ATOM     75  F   UNL A   1      38.864  29.701  26.715  1.00  0.00    -0.206 F 
ATOM     76  C   UNL A   1      35.957  29.872  28.873  1.00  0.00     0.006 A 
ENDBRANCH  48  69
BRANCH  60  77
ATOM     77  C   UNL A   1      44.448  32.458  31.092  1.00  0.00     0.057 A 
ATOM     78  C   UNL A   1      44.717  33.512  30.209  1.00  0.00     0.134 A 
ATOM     79  C   UNL A   1      44.375  32.759  32.458  1.00  0.00     0.134 A 
ATOM     80  F   UNL A   1      44.814  33.287  28.890  1.00  0.00    -0.206 F 
ATOM     81  C   UNL A   1      44.926  34.813  30.671  1.00  0.00     0.040 A 
ATOM     82  C   UNL A   1      44.557  34.060  32.929  1.00  0.00     0.040 A 
ATOM     83  F   UNL A   1      44.113  31.797  33.354  1.00  0.00    -0.206 F 
ATOM     84  C   UNL A   1      44.838  35.090  32.034  1.00  0.00     0.006 A 
ENDBRANCH  60  77
ENDBRANCH  34  35
ENDBRANCH  26  29
ENDBRANCH  24  25
ENDBRANCH  23  24
ENDBRANCH  22  23
ENDBRANCH   1  22
TORSDOF 15
ENDMDL
MODEL 3
REMARK VINA RESULT:     -10.7      2.528      8.265
REMARK SMILES COC[C@H]1CC[N@@H+](Cc2ccc(C(=O)NCCCCNC(=O)c3ccc(-c4c5nc(c(-c6c(F)cccc6F)c6ccc([nH]6)c(-c6c(F)cccc6F)c6nc(c(-c7c(F)cccc7F)c7ccc4[nH]7)C=C6)C=C5)cc3)cn2)C1
REMARK SMILES IDX 16 1 15 2 13 3 14 4 12 6 9 7 10 8 78 9 11 10 77 11 8 12 7 13
REMARK SMILES IDX 4 14 5 15 79 16 6 17 3 19 2 20 1 21 17 22 18 23 19 24 20 25
REMARK SMILES IDX 21 26 22 28 23 29 24 30 76 31 25 32 75 33 26 34 27 35 28 36
REMARK SMILES IDX 69 37 29 38 74 39 68 40 70 41 30 42 73 43 67 44 66 45 31 47
REMARK SMILES IDX 57 48 40 49 56 50 41 51 44 52 55 53 71 54 42 55 43 56 54 58
REMARK SMILES IDX 72 59 45 60 32 61 33 62 38 63 34 64 35 65 37 66 39 67 36 68
REMARK SMILES IDX 58 69 59 70 64 71 60 72 61 73 63 74 65 75 62 76 46 77 47 78
REMARK SMILES IDX 52 79 48 80 49 81 51 82 53 83 50 84
REMARK H PARENT 15 5 7 18 20 27 70 46 44 57
REMARK Flexibility Score: inf
ROOT
ATOM      1  C   UNL A   1      36.019  21.427  25.305  1.00  0.00     0.116 C 
ENDROOT
BRANCH   1   2
ATOM      2  N   UNL A   1      35.112  20.292  25.295  1.00  0.00    -0.352 N 
ATOM      3  C   UNL A   1      33.825  20.198  24.816  1.00  0.00     0.252 C 
ATOM      4  O   UNL A   1      33.297  19.094  24.715  1.00  0.00    -0.269 OA
ATOM      5  H   UNL A   1      35.473  19.465  25.691  1.00  0.00     0.163 HD
BRANCH   3   6
ATOM      6  C   UNL A   1      33.091  21.394  24.366  1.00  0.00     0.058 A 
ATOM      7  C   UNL A   1      31.457  23.475  23.579  1.00  0.00     0.095 A 
ATOM      8  C   UNL A   1      32.539  23.110  22.773  1.00  0.00     0.030 A 
ATOM      9  N   UNL A   1      31.233  22.887  24.783  1.00  0.00    -0.255 NA
ATOM     10  C   UNL A   1      33.372  22.066  23.179  1.00  0.00     0.017 A 
ATOM     11  C   UNL A   1      32.056  21.873  25.155  1.00  0.00     0.125 A 
BRANCH   7  12
ATOM     12  C   UNL A   1      30.457  24.521  23.093  1.00  0.00     0.319 C 
BRANCH  12  13
ATOM     13  N   UNL A   1      30.424  25.809  23.809  1.00  0.00    -0.330 N 
ATOM     14  C   UNL A   1      30.178  28.153  23.409  1.00  0.00     0.076 C 
ATOM     15  C   UNL A   1      28.799  27.566  23.670  1.00  0.00     0.073 C 
ATOM     16  C   UNL A   1      31.055  26.933  23.121  1.00  0.00     0.268 C 
ATOM     17  C   UNL A   1      29.097  26.209  24.287  1.00  0.00     0.263 C 
ATOM     18  H   UNL A   1      31.002  25.592  24.620  1.00  0.00     0.348 HD
BRANCH  14  19
ATOM     19  C   UNL A   1      30.259  29.244  22.332  1.00  0.00     0.169 C 
BRANCH  19  20
ATOM     20  O   UNL A   1      29.071  29.437  21.568  1.00  0.00    -0.384 OA
ATOM     21  C   UNL A   1      28.746  30.793  21.342  1.00  0.00     0.194 C 
ENDBRANCH  19  20
ENDBRANCH  14  19
ENDBRANCH  12  13
ENDBRANCH   7  12
ENDBRANCH   3   6
ENDBRANCH   1   2
BRANCH   1  22
ATOM     22  C   UNL A   1      37.306  21.155  24.534  1.00  0.00     0.023 C 
BRANCH  22  23
ATOM     23  C   UNL A   1      38.040  19.884  24.962  1.00  0.00     0.023 C 
BRANCH  23  24
ATOM     24  C   UNL A   1      39.143  20.088  25.998  1.00  0.00     0.116 C 
BRANCH  24  25
ATOM     25  N   UNL A   1      40.191  19.080  25.932  1.00  0.00    -0.352 N 
ATOM     26  C   UNL A   1      41.555  19.220  26.069  1.00  0.00     0.251 C 
ATOM     27  H   UNL A   1      39.879  18.161  25.762  1.00  0.00     0.163 HD
ATOM     28  O   UNL A   1      42.296  18.273  25.858  1.00  0.00    -0.269 OA
BRANCH  26  29
ATOM     29  C   UNL A   1      42.121  20.537  26.437  1.00  0.00     0.039 A 
ATOM     30  C   UNL A   1      42.539  21.399  25.420  1.00  0.00     0.014 A 
ATOM     31  C   UNL A   1      42.214  20.931  27.773  1.00  0.00     0.014 A 
ATOM     32  C   UNL A   1      42.967  22.690  25.739  1.00  0.00     0.010 A 
ATOM     33  C   UNL A   1      42.566  22.241  28.085  1.00  0.00     0.010 A 
ATOM     34  C   UNL A   1      42.939  23.137  27.070  1.00  0.00    -0.014 A 
BRANCH  34  35
ATOM     35  C   UNL A   1      43.276  24.541  27.421  1.00  0.00     0.031 A 
ATOM     36  C   UNL A   1      44.709  24.997  27.427  1.00  0.00     0.074 A 
ATOM     37  C   UNL A   1      42.301  25.383  27.815  1.00  0.00     0.049 A 
ATOM     38  N   UNL A   1      45.207  26.153  27.786  1.00  0.00    -0.248 NA
ATOM     39  C   UNL A   1      45.718  24.015  27.000  1.00  0.00     0.031 C 
ATOM     40  C   UNL A   1      40.878  25.049  27.908  1.00  0.00     0.029 A 
ATOM     41  N   UNL A   1      42.361  26.692  28.226  1.00  0.00    -0.354 N 
ATOM     42  C   UNL A   1      46.584  26.030  27.648  1.00  0.00     0.074 A 
ATOM     43  C   UNL A   1      46.846  24.673  27.219  1.00  0.00     0.031 C 
ATOM     44  C   UNL A   1      40.199  26.129  28.329  1.00  0.00     0.029 A 
ATOM     45  C   UNL A   1      41.138  27.219  28.570  1.00  0.00     0.049 A 
ATOM     46  H   UNL A   1      43.199  27.205  28.268  1.00  0.00     0.167 HD
ATOM     47  C   UNL A   1      47.541  26.968  27.839  1.00  0.00     0.037 A 
ATOM     48  C   UNL A   1      40.812  28.439  29.037  1.00  0.00     0.037 A 
ATOM     49  C   UNL A   1      47.278  28.326  28.235  1.00  0.00     0.049 A 
ATOM     50  C   UNL A   1      41.893  29.466  29.231  1.00  0.00     0.074 A 
ATOM     51  C   UNL A   1      48.175  29.370  28.384  1.00  0.00     0.029 A 
ATOM     52  N   UNL A   1      46.024  28.829  28.545  1.00  0.00    -0.354 N 
ATOM     53  N   UNL A   1      43.183  29.357  29.024  1.00  0.00    -0.248 NA
ATOM     54  C   UNL A   1      41.472  30.788  29.717  1.00  0.00     0.031 C 
ATOM     55  C   UNL A   1      47.469  30.494  28.826  1.00  0.00     0.029 A 
ATOM     56  C   UNL A   1      46.126  30.163  28.905  1.00  0.00     0.049 A 
ATOM     57  H   UNL A   1      45.185  28.315  28.513  1.00  0.00     0.167 HD
ATOM     58  C   UNL A   1      43.723  30.601  29.328  1.00  0.00     0.074 A 
ATOM     59  C   UNL A   1      42.619  31.451  29.721  1.00  0.00     0.031 C 
ATOM     60  C   UNL A   1      45.017  31.000  29.286  1.00  0.00     0.037 A 
BRANCH  47  61
ATOM     61  C   UNL A   1      48.968  26.558  27.615  1.00  0.00     0.057 A 
ATOM     62  C   UNL A   1      49.567  26.632  26.350  1.00  0.00     0.134 A 
ATOM     63  C   UNL A   1      49.761  26.118  28.681  1.00  0.00     0.134 A 
ATOM     64  F   UNL A   1      48.858  27.034  25.284  1.00  0.00    -0.206 F 
ATOM     65  C   UNL A   1      50.897  26.258  26.149  1.00  0.00     0.040 A 
ATOM     66  C   UNL A   1      51.100  25.768  28.497  1.00  0.00     0.040 A 
ATOM     67  F   UNL A   1      49.253  26.029  29.919  1.00  0.00    -0.206 F 
ATOM     68  C   UNL A   1      51.669  25.831  27.227  1.00  0.00     0.006 A 
ENDBRANCH  47  61
BRANCH  48  69
ATOM     69  C   UNL A   1      39.396  28.768  29.333  1.00  0.00     0.057 A 
ATOM     70  C   UNL A   1      38.570  29.343  28.359  1.00  0.00     0.134 A 
ATOM     71  C   UNL A   1      38.837  28.529  30.594  1.00  0.00     0.134 A 
ATOM     72  F   UNL A   1      39.056  29.613  27.138  1.00  0.00    -0.206 F 
ATOM     73  C   UNL A   1      37.246  29.686  28.633  1.00  0.00     0.040 A 
ATOM     74  C   UNL A   1      37.507  28.845  30.874  1.00  0.00     0.040 A 
ATOM     75  F   UNL A   1      39.573  27.974  31.568  1.00  0.00    -0.206 F 
ATOM     76  C   UNL A   1      36.709  29.434  29.894  1.00  0.00     0.006 A 
ENDBRANCH  48  69
BRANCH  60  77
ATOM     77  C   UNL A   1      45.307  32.429  29.638  1.00  0.00     0.057 A 
ATOM     78  C   UNL A   1      45.667  32.812  30.936  1.00  0.00     0.134 A 
ATOM     79  C   UNL A   1      45.263  33.428  28.657  1.00  0.00     0.134 A 
ATOM     80  F   UNL A   1      45.714  31.905  31.924  1.00  0.00    -0.206 F 
ATOM     81  C   UNL A   1      45.954  34.141  31.251  1.00  0.00     0.040 A 
ATOM     82  C   UNL A   1      45.573  34.756  28.954  1.00  0.00     0.040 A 
ATOM     83  F   UNL A   1      44.934  33.127  27.393  1.00  0.00    -0.206 F 
ATOM     84  C   UNL A   1      45.915  35.116  30.256  1.00  0.00     0.006 A 
ENDBRANCH  60  77
ENDBRANCH  34  35
ENDBRANCH  26  29
ENDBRANCH  24  25
ENDBRANCH  23  24
ENDBRANCH  22  23
ENDBRANCH   1  22
TORSDOF 15
ENDMDL
