MODEL 1
REMARK VINA RESULT:     -12.9      0.000      0.000
REMARK SMILES Cc1ccc(S(=O)(=O)Nc2cc(C(=O)NCCCCNC(=O)c3ccc(-c4c5nc(c(-c6c(F)cccc6F)c6ccc([nH]6)c(-c6c(F)cccc6F)c6nc(c(-c7c(F)cccc7F)c7ccc4[nH]7)C=C6)C=C5)cc3)ccc2C)c(Br)c1
REMARK SMILES IDX 17 1 16 2 15 3 13 4 14 5 12 7 10 8 11 9 79 10 78 11 80 12
REMARK SMILES IDX 77 13 9 14 6 16 7 17 8 18 5 19 1 20 2 21 3 22 83 23 4 24
REMARK SMILES IDX 81 25 82 26 18 27 19 28 20 29 21 30 22 32 23 33 24 34 76 35
REMARK SMILES IDX 25 36 75 37 26 38 27 39 28 40 69 41 29 42 74 43 68 44 70 45
REMARK SMILES IDX 30 46 73 47 67 48 66 49 31 51 57 52 40 53 56 54 41 55 44 56
REMARK SMILES IDX 55 57 71 58 42 59 43 60 54 62 72 63 45 64 32 65 33 66 38 67
REMARK SMILES IDX 34 68 35 69 37 70 39 71 36 72 58 73 59 74 64 75 60 76 61 77
REMARK SMILES IDX 63 78 65 79 62 80 46 81 47 82 52 83 48 84 49 85 51 86 53 87
REMARK SMILES IDX 50 88
REMARK H PARENT 15 6 9 15 20 31 70 50 44 61
REMARK Flexibility Score: inf
ROOT
ATOM      1  C   UNL A   1      32.782  29.959  25.921  1.00  0.00     0.023 C 
ENDROOT
BRANCH   1   2
ATOM      2  C   UNL A   1      33.854  28.888  25.662  1.00  0.00     0.116 C 
BRANCH   2   3
ATOM      3  N   UNL A   1      34.171  28.771  24.246  1.00  0.00    -0.352 N 
ATOM      4  C   UNL A   1      33.492  28.281  23.157  1.00  0.00     0.251 C 
ATOM      5  O   UNL A   1      34.044  28.383  22.061  1.00  0.00    -0.269 OA
ATOM      6  H   UNL A   1      35.066  29.116  24.021  1.00  0.00     0.163 HD
BRANCH   4   7
ATOM      7  C   UNL A   1      32.114  27.719  23.214  1.00  0.00     0.041 A 
ATOM      8  C   UNL A   1      30.524  25.965  23.711  1.00  0.00     0.053 A 
ATOM      9  C   UNL A   1      31.823  26.371  23.395  1.00  0.00     0.040 A 
ATOM     10  C   UNL A   1      29.447  26.863  23.675  1.00  0.00    -0.027 A 
ATOM     11  C   UNL A   1      29.720  28.197  23.352  1.00  0.00     0.006 A 
ATOM     12  C   UNL A   1      28.027  26.467  23.970  1.00  0.00     0.046 C 
ATOM     13  C   UNL A   1      31.040  28.626  23.161  1.00  0.00     0.014 A 
BRANCH   8  14
ATOM     14  N   UNL A   1      30.358  24.661  24.234  1.00  0.00    -0.279 N 
ATOM     15  H   UNL A   1      29.760  24.033  23.767  1.00  0.00     0.180 HD
BRANCH  14  16
ATOM     16  S   UNL A   1      31.157  24.140  25.638  1.00  0.00     0.263 S 
ATOM     17  O   UNL A   1      30.405  22.949  26.011  1.00  0.00    -0.201 OA
ATOM     18  O   UNL A   1      31.179  25.305  26.489  1.00  0.00    -0.201 OA
BRANCH  16  19
ATOM     19  C   UNL A   1      32.852  23.622  25.430  1.00  0.00     0.101 A 
ATOM     20  C   UNL A   1      36.991  23.253  24.202  1.00  0.00     0.044 C 
ATOM     21  C   UNL A   1      35.570  23.330  24.677  1.00  0.00    -0.050 A 
ATOM     22  C   UNL A   1      35.232  23.776  25.951  1.00  0.00     0.005 A 
ATOM     23  C   UNL A   1      34.541  22.880  23.854  1.00  0.00     0.020 A 
ATOM     24  C   UNL A   1      33.883  23.885  26.332  1.00  0.00     0.024 A 
ATOM     25  C   UNL A   1      33.199  23.000  24.231  1.00  0.00     0.038 A 
ATOM     26  Br  UNL A   1      31.943  22.118  23.126  1.00  0.00    -0.049 Br
ENDBRANCH  16  19
ENDBRANCH  14  16
ENDBRANCH   8  14
ENDBRANCH   4   7
ENDBRANCH   2   3
ENDBRANCH   1   2
BRANCH   1  27
ATOM     27  C   UNL A   1      33.168  30.989  26.989  1.00  0.00     0.023 C 
BRANCH  27  28
ATOM     28  C   UNL A   1      34.292  30.514  27.898  1.00  0.00     0.116 C 
BRANCH  28  29
ATOM     29  N   UNL A   1      35.295  31.516  28.224  1.00  0.00    -0.352 N 
ATOM     30  C   UNL A   1      36.612  31.360  28.617  1.00  0.00     0.251 C 
ATOM     31  H   UNL A   1      34.990  32.449  28.153  1.00  0.00     0.163 HD
ATOM     32  O   UNL A   1      37.255  32.351  28.954  1.00  0.00    -0.269 OA
BRANCH  30  33
ATOM     33  C   UNL A   1      37.308  30.047  28.496  1.00  0.00     0.039 A 
ATOM     34  C   UNL A   1      37.357  29.221  29.631  1.00  0.00     0.014 A 
ATOM     35  C   UNL A   1      38.064  29.704  27.383  1.00  0.00     0.014 A 
ATOM     36  C   UNL A   1      38.345  28.243  29.737  1.00  0.00     0.010 A 
ATOM     37  C   UNL A   1      39.127  28.839  27.531  1.00  0.00     0.010 A 
ATOM     38  C   UNL A   1      39.306  28.157  28.735  1.00  0.00    -0.014 A 
BRANCH  38  39
ATOM     39  C   UNL A   1      40.591  27.490  28.891  1.00  0.00     0.031 A 
ATOM     40  C   UNL A   1      40.760  26.074  28.504  1.00  0.00     0.074 A 
ATOM     41  C   UNL A   1      41.671  28.219  29.256  1.00  0.00     0.049 A 
ATOM     42  N   UNL A   1      41.700  25.314  28.953  1.00  0.00    -0.248 NA
ATOM     43  C   UNL A   1      39.861  25.390  27.583  1.00  0.00     0.031 C 
ATOM     44  C   UNL A   1      43.071  27.821  29.157  1.00  0.00     0.029 A 
ATOM     45  N   UNL A   1      41.713  29.411  29.983  1.00  0.00    -0.354 N 
ATOM     46  C   UNL A   1      41.719  24.175  28.183  1.00  0.00     0.074 A 
ATOM     47  C   UNL A   1      40.513  24.241  27.388  1.00  0.00     0.031 C 
ATOM     48  C   UNL A   1      43.784  28.541  30.036  1.00  0.00     0.029 A 
ATOM     49  C   UNL A   1      42.835  29.322  30.818  1.00  0.00     0.049 A 
ATOM     50  H   UNL A   1      41.081  30.163  29.921  1.00  0.00     0.167 HD
ATOM     51  C   UNL A   1      42.823  23.373  28.192  1.00  0.00     0.037 A 
ATOM     52  C   UNL A   1      42.811  29.384  32.180  1.00  0.00     0.037 A 
ATOM     53  C   UNL A   1      43.856  23.904  29.078  1.00  0.00     0.049 A 
ATOM     54  C   UNL A   1      43.484  28.185  32.791  1.00  0.00     0.074 A 
ATOM     55  C   UNL A   1      44.993  24.656  28.830  1.00  0.00     0.029 A 
ATOM     56  N   UNL A   1      43.640  23.960  30.452  1.00  0.00    -0.354 N 
ATOM     57  N   UNL A   1      43.569  27.033  32.182  1.00  0.00    -0.248 NA
ATOM     58  C   UNL A   1      44.134  28.185  34.094  1.00  0.00     0.031 C 
ATOM     59  C   UNL A   1      45.446  25.192  30.058  1.00  0.00     0.029 A 
ATOM     60  C   UNL A   1      44.595  24.752  31.059  1.00  0.00     0.049 A 
ATOM     61  H   UNL A   1      42.909  23.501  30.924  1.00  0.00     0.167 HD
ATOM     62  C   UNL A   1      44.315  26.176  32.943  1.00  0.00     0.074 A 
ATOM     63  C   UNL A   1      44.622  26.932  34.144  1.00  0.00     0.031 C 
ATOM     64  C   UNL A   1      44.640  24.925  32.504  1.00  0.00     0.037 A 
BRANCH  51  65
ATOM     65  C   UNL A   1      43.068  22.293  27.161  1.00  0.00     0.057 A 
ATOM     66  C   UNL A   1      42.329  21.093  27.162  1.00  0.00     0.134 A 
ATOM     67  C   UNL A   1      44.049  22.366  26.158  1.00  0.00     0.134 A 
ATOM     68  F   UNL A   1      41.284  20.904  27.979  1.00  0.00    -0.206 F 
ATOM     69  C   UNL A   1      42.625  20.011  26.323  1.00  0.00     0.040 A 
ATOM     70  C   UNL A   1      44.392  21.275  25.345  1.00  0.00     0.040 A 
ATOM     71  F   UNL A   1      44.687  23.514  25.891  1.00  0.00    -0.206 F 
ATOM     72  C   UNL A   1      43.688  20.084  25.436  1.00  0.00     0.006 A 
ENDBRANCH  51  65
BRANCH  52  73
ATOM     73  C   UNL A   1      41.669  30.133  32.763  1.00  0.00     0.057 A 
ATOM     74  C   UNL A   1      41.739  31.531  32.771  1.00  0.00     0.134 A 
ATOM     75  C   UNL A   1      40.397  29.562  32.845  1.00  0.00     0.134 A 
ATOM     76  F   UNL A   1      42.930  32.135  32.858  1.00  0.00    -0.206 F 
ATOM     77  C   UNL A   1      40.600  32.326  32.621  1.00  0.00     0.040 A 
ATOM     78  C   UNL A   1      39.244  30.350  32.746  1.00  0.00     0.040 A 
ATOM     79  F   UNL A   1      40.249  28.230  32.851  1.00  0.00    -0.206 F 
ATOM     80  C   UNL A   1      39.346  31.728  32.562  1.00  0.00     0.006 A 
ENDBRANCH  52  73
BRANCH  64  81
ATOM     81  C   UNL A   1      45.149  23.786  33.354  1.00  0.00     0.057 A 
ATOM     82  C   UNL A   1      46.441  23.730  33.894  1.00  0.00     0.134 A 
ATOM     83  C   UNL A   1      44.267  22.779  33.812  1.00  0.00     0.134 A 
ATOM     84  F   UNL A   1      47.354  24.676  33.637  1.00  0.00    -0.206 F 
ATOM     85  C   UNL A   1      46.841  22.727  34.786  1.00  0.00     0.040 A 
ATOM     86  C   UNL A   1      44.640  21.806  34.742  1.00  0.00     0.040 A 
ATOM     87  F   UNL A   1      42.991  22.711  33.406  1.00  0.00    -0.206 F 
ATOM     88  C   UNL A   1      45.937  21.770  35.227  1.00  0.00     0.006 A 
ENDBRANCH  64  81
ENDBRANCH  38  39
ENDBRANCH  30  33
ENDBRANCH  28  29
ENDBRANCH  27  28
ENDBRANCH   1  27
TORSDOF 14
ENDMDL
MODEL 2
REMARK VINA RESULT:     -12.6      2.970      4.710
REMARK SMILES Cc1ccc(S(=O)(=O)Nc2cc(C(=O)NCCCCNC(=O)c3ccc(-c4c5nc(c(-c6c(F)cccc6F)c6ccc([nH]6)c(-c6c(F)cccc6F)c6nc(c(-c7c(F)cccc7F)c7ccc4[nH]7)C=C6)C=C5)cc3)ccc2C)c(Br)c1
REMARK SMILES IDX 17 1 16 2 15 3 13 4 14 5 12 7 10 8 11 9 79 10 78 11 80 12
REMARK SMILES IDX 77 13 9 14 6 16 7 17 8 18 5 19 1 20 2 21 3 22 83 23 4 24
REMARK SMILES IDX 81 25 82 26 18 27 19 28 20 29 21 30 22 32 23 33 24 34 76 35
REMARK SMILES IDX 25 36 75 37 26 38 27 39 28 40 69 41 29 42 74 43 68 44 70 45
REMARK SMILES IDX 30 46 73 47 67 48 66 49 31 51 57 52 40 53 56 54 41 55 44 56
REMARK SMILES IDX 55 57 71 58 42 59 43 60 54 62 72 63 45 64 32 65 33 66 38 67
REMARK SMILES IDX 34 68 35 69 37 70 39 71 36 72 58 73 59 74 64 75 60 76 61 77
REMARK SMILES IDX 63 78 65 79 62 80 46 81 47 82 52 83 48 84 49 85 51 86 53 87
REMARK SMILES IDX 50 88
REMARK H PARENT 15 6 9 15 20 31 70 50 44 61
REMARK Flexibility Score: inf
ROOT
ATOM      1  C   UNL A   1      34.917  30.801  27.843  1.00  0.00     0.023 C 
ENDROOT
BRANCH   1   2
ATOM      2  C   UNL A   1      34.550  29.499  27.114  1.00  0.00     0.116 C 
BRANCH   2   3
ATOM      3  N   UNL A   1      33.336  28.901  27.652  1.00  0.00    -0.352 N 
ATOM      4  C   UNL A   1      32.309  28.176  27.102  1.00  0.00     0.251 C 
ATOM      5  O   UNL A   1      31.437  27.766  27.869  1.00  0.00    -0.269 OA
ATOM      6  H   UNL A   1      33.228  29.051  28.621  1.00  0.00     0.163 HD
BRANCH   4   7
ATOM      7  C   UNL A   1      32.234  27.791  25.664  1.00  0.00     0.041 A 
ATOM      8  C   UNL A   1      32.984  26.556  23.724  1.00  0.00     0.053 A 
ATOM      9  C   UNL A   1      33.239  27.119  24.978  1.00  0.00     0.040 A 
ATOM     10  C   UNL A   1      31.784  26.803  23.042  1.00  0.00    -0.027 A 
ATOM     11  C   UNL A   1      30.825  27.602  23.675  1.00  0.00     0.006 A 
ATOM     12  C   UNL A   1      31.478  26.252  21.676  1.00  0.00     0.046 C 
ATOM     13  C   UNL A   1      31.033  28.058  24.983  1.00  0.00     0.014 A 
BRANCH   8  14
ATOM     14  N   UNL A   1      33.903  25.593  23.244  1.00  0.00    -0.279 N 
ATOM     15  H   UNL A   1      34.601  25.875  22.609  1.00  0.00     0.180 HD
BRANCH  14  16
ATOM     16  S   UNL A   1      33.843  23.966  23.725  1.00  0.00     0.263 S 
ATOM     17  O   UNL A   1      33.934  23.254  22.457  1.00  0.00    -0.201 OA
ATOM     18  O   UNL A   1      32.660  23.880  24.546  1.00  0.00    -0.201 OA
BRANCH  16  19
ATOM     19  C   UNL A   1      35.207  23.394  24.725  1.00  0.00     0.101 A 
ATOM     20  C   UNL A   1      38.950  21.724  26.129  1.00  0.00     0.044 C 
ATOM     21  C   UNL A   1      37.641  22.325  25.710  1.00  0.00    -0.050 A 
ATOM     22  C   UNL A   1      37.401  23.695  25.752  1.00  0.00     0.005 A 
ATOM     23  C   UNL A   1      36.591  21.495  25.327  1.00  0.00     0.020 A 
ATOM     24  C   UNL A   1      36.178  24.217  25.295  1.00  0.00     0.024 A 
ATOM     25  C   UNL A   1      35.379  22.017  24.862  1.00  0.00     0.038 A 
ATOM     26  Br  UNL A   1      33.975  20.773  24.624  1.00  0.00    -0.049 Br
ENDBRANCH  16  19
ENDBRANCH  14  16
ENDBRANCH   8  14
ENDBRANCH   4   7
ENDBRANCH   2   3
ENDBRANCH   1   2
BRANCH   1  27
ATOM     27  C   UNL A   1      33.839  31.889  27.769  1.00  0.00     0.023 C 
BRANCH  27  28
ATOM     28  C   UNL A   1      34.388  33.290  27.992  1.00  0.00     0.116 C 
BRANCH  28  29
ATOM     29  N   UNL A   1      33.591  34.138  28.866  1.00  0.00    -0.352 N 
ATOM     30  C   UNL A   1      33.653  34.307  30.237  1.00  0.00     0.251 C 
ATOM     31  H   UNL A   1      32.903  34.675  28.411  1.00  0.00     0.163 HD
ATOM     32  O   UNL A   1      32.801  34.997  30.792  1.00  0.00    -0.269 OA
BRANCH  30  33
ATOM     33  C   UNL A   1      34.808  33.799  31.031  1.00  0.00     0.039 A 
ATOM     34  C   UNL A   1      35.967  34.589  31.088  1.00  0.00     0.014 A 
ATOM     35  C   UNL A   1      34.850  32.507  31.541  1.00  0.00     0.014 A 
ATOM     36  C   UNL A   1      37.194  34.003  31.395  1.00  0.00     0.010 A 
ATOM     37  C   UNL A   1      36.070  31.889  31.710  1.00  0.00     0.010 A 
ATOM     38  C   UNL A   1      37.248  32.624  31.570  1.00  0.00    -0.014 A 
BRANCH  38  39
ATOM     39  C   UNL A   1      38.471  31.837  31.493  1.00  0.00     0.031 A 
ATOM     40  C   UNL A   1      38.536  30.620  30.659  1.00  0.00     0.074 A 
ATOM     41  C   UNL A   1      39.595  32.312  32.077  1.00  0.00     0.049 A 
ATOM     42  N   UNL A   1      39.401  29.679  30.829  1.00  0.00    -0.248 NA
ATOM     43  C   UNL A   1      37.609  30.357  29.565  1.00  0.00     0.031 C 
ATOM     44  C   UNL A   1      40.962  31.853  31.849  1.00  0.00     0.029 A 
ATOM     45  N   UNL A   1      39.713  33.190  33.158  1.00  0.00    -0.354 N 
ATOM     46  C   UNL A   1      39.348  28.861  29.725  1.00  0.00     0.074 A 
ATOM     47  C   UNL A   1      38.172  29.286  28.999  1.00  0.00     0.031 C 
ATOM     48  C   UNL A   1      41.707  32.180  32.916  1.00  0.00     0.029 A 
ATOM     49  C   UNL A   1      40.803  32.735  33.913  1.00  0.00     0.049 A 
ATOM     50  H   UNL A   1      39.146  33.970  33.349  1.00  0.00     0.167 HD
ATOM     51  C   UNL A   1      40.384  28.011  29.465  1.00  0.00     0.037 A 
ATOM     52  C   UNL A   1      40.749  32.346  35.220  1.00  0.00     0.037 A 
ATOM     53  C   UNL A   1      41.434  28.130  30.475  1.00  0.00     0.049 A 
ATOM     54  C   UNL A   1      41.308  30.961  35.397  1.00  0.00     0.074 A 
ATOM     55  C   UNL A   1      42.633  28.825  30.488  1.00  0.00     0.029 A 
ATOM     56  N   UNL A   1      41.187  27.748  31.790  1.00  0.00    -0.354 N 
ATOM     57  N   UNL A   1      41.317  30.072  34.441  1.00  0.00    -0.248 NA
ATOM     58  C   UNL A   1      41.923  30.476  36.626  1.00  0.00     0.031 C 
ATOM     59  C   UNL A   1      43.095  28.885  31.823  1.00  0.00     0.029 A 
ATOM     60  C   UNL A   1      42.187  28.212  32.624  1.00  0.00     0.049 A 
ATOM     61  H   UNL A   1      40.410  27.222  32.085  1.00  0.00     0.167 HD
ATOM     62  C   UNL A   1      41.973  28.951  34.874  1.00  0.00     0.074 A 
ATOM     63  C   UNL A   1      42.307  29.241  36.256  1.00  0.00     0.031 C 
ATOM     64  C   UNL A   1      42.207  27.893  34.044  1.00  0.00     0.037 A 
BRANCH  51  65
ATOM     65  C   UNL A   1      40.569  27.315  28.134  1.00  0.00     0.057 A 
ATOM     66  C   UNL A   1      40.089  26.008  27.914  1.00  0.00     0.134 A 
ATOM     67  C   UNL A   1      41.246  27.874  27.037  1.00  0.00     0.134 A 
ATOM     68  F   UNL A   1      39.328  25.372  28.813  1.00  0.00    -0.206 F 
ATOM     69  C   UNL A   1      40.369  25.277  26.753  1.00  0.00     0.040 A 
ATOM     70  C   UNL A   1      41.579  27.139  25.890  1.00  0.00     0.040 A 
ATOM     71  F   UNL A   1      41.575  29.173  27.012  1.00  0.00    -0.206 F 
ATOM     72  C   UNL A   1      41.152  25.826  25.751  1.00  0.00     0.006 A 
ENDBRANCH  51  65
BRANCH  52  73
ATOM     73  C   UNL A   1      39.657  32.953  36.020  1.00  0.00     0.057 A 
ATOM     74  C   UNL A   1      38.538  32.162  36.309  1.00  0.00     0.134 A 
ATOM     75  C   UNL A   1      39.898  34.040  36.865  1.00  0.00     0.134 A 
ATOM     76  F   UNL A   1      38.161  31.208  35.449  1.00  0.00    -0.206 F 
ATOM     77  C   UNL A   1      37.836  32.291  37.510  1.00  0.00     0.040 A 
ATOM     78  C   UNL A   1      39.169  34.213  38.048  1.00  0.00     0.040 A 
ATOM     79  F   UNL A   1      40.944  34.849  36.648  1.00  0.00    -0.206 F 
ATOM     80  C   UNL A   1      38.183  33.295  38.407  1.00  0.00     0.006 A 
ENDBRANCH  52  73
BRANCH  64  81
ATOM     81  C   UNL A   1      42.602  26.500  34.468  1.00  0.00     0.057 A 
ATOM     82  C   UNL A   1      41.770  25.639  35.198  1.00  0.00     0.134 A 
ATOM     83  C   UNL A   1      43.791  25.908  33.982  1.00  0.00     0.134 A 
ATOM     84  F   UNL A   1      40.563  26.026  35.632  1.00  0.00    -0.206 F 
ATOM     85  C   UNL A   1      42.112  24.307  35.463  1.00  0.00     0.040 A 
ATOM     86  C   UNL A   1      44.117  24.566  34.194  1.00  0.00     0.040 A 
ATOM     87  F   UNL A   1      44.679  26.594  33.247  1.00  0.00    -0.206 F 
ATOM     88  C   UNL A   1      43.280  23.760  34.948  1.00  0.00     0.006 A 
ENDBRANCH  64  81
ENDBRANCH  38  39
ENDBRANCH  30  33
ENDBRANCH  28  29
ENDBRANCH  27  28
ENDBRANCH   1  27
TORSDOF 14
ENDMDL
MODEL 3
REMARK VINA RESULT:     -12.5      3.886      9.116
REMARK SMILES Cc1ccc(S(=O)(=O)Nc2cc(C(=O)NCCCCNC(=O)c3ccc(-c4c5nc(c(-c6c(F)cccc6F)c6ccc([nH]6)c(-c6c(F)cccc6F)c6nc(c(-c7c(F)cccc7F)c7ccc4[nH]7)C=C6)C=C5)cc3)ccc2C)c(Br)c1
REMARK SMILES IDX 17 1 16 2 15 3 13 4 14 5 12 7 10 8 11 9 79 10 78 11 80 12
REMARK SMILES IDX 77 13 9 14 6 16 7 17 8 18 5 19 1 20 2 21 3 22 83 23 4 24
REMARK SMILES IDX 81 25 82 26 18 27 19 28 20 29 21 30 22 32 23 33 24 34 76 35
REMARK SMILES IDX 25 36 75 37 26 38 27 39 28 40 69 41 29 42 74 43 68 44 70 45
REMARK SMILES IDX 30 46 73 47 67 48 66 49 31 51 57 52 40 53 56 54 41 55 44 56
REMARK SMILES IDX 55 57 71 58 42 59 43 60 54 62 72 63 45 64 32 65 33 66 38 67
REMARK SMILES IDX 34 68 35 69 37 70 39 71 36 72 58 73 59 74 64 75 60 76 61 77
REMARK SMILES IDX 63 78 65 79 62 80 46 81 47 82 52 83 48 84 49 85 51 86 53 87
REMARK SMILES IDX 50 88
REMARK H PARENT 15 6 9 15 20 31 70 50 44 61
REMARK Flexibility Score: inf
ROOT
ATOM      1  C   UNL A   1      36.421  21.394  24.596  1.00  0.00     0.023 C 
ENDROOT
BRANCH   1   2
ATOM      2  C   UNL A   1      35.366  20.699  25.470  1.00  0.00     0.116 C 
BRANCH   2   3
ATOM      3  N   UNL A   1      34.298  20.116  24.670  1.00  0.00    -0.352 N 
ATOM      4  C   UNL A   1      33.049  20.544  24.296  1.00  0.00     0.251 C 
ATOM      5  O   UNL A   1      32.403  19.807  23.550  1.00  0.00    -0.269 OA
ATOM      6  H   UNL A   1      34.520  19.221  24.322  1.00  0.00     0.163 HD
BRANCH   4   7
ATOM      7  C   UNL A   1      32.472  21.867  24.667  1.00  0.00     0.041 A 
ATOM      8  C   UNL A   1      31.976  24.196  24.239  1.00  0.00     0.053 A 
ATOM      9  C   UNL A   1      32.758  23.059  24.012  1.00  0.00     0.040 A 
ATOM     10  C   UNL A   1      31.009  24.227  25.254  1.00  0.00    -0.027 A 
ATOM     11  C   UNL A   1      30.819  23.066  26.012  1.00  0.00     0.006 A 
ATOM     12  C   UNL A   1      30.169  25.436  25.561  1.00  0.00     0.046 C 
ATOM     13  C   UNL A   1      31.516  21.891  25.698  1.00  0.00     0.014 A 
BRANCH   8  14
ATOM     14  N   UNL A   1      32.073  25.251  23.301  1.00  0.00    -0.279 N 
ATOM     15  H   UNL A   1      31.381  25.335  22.606  1.00  0.00     0.180 HD
BRANCH  14  16
ATOM     16  S   UNL A   1      33.341  26.378  23.335  1.00  0.00     0.263 S 
ATOM     17  O   UNL A   1      33.581  26.631  21.920  1.00  0.00    -0.201 OA
ATOM     18  O   UNL A   1      34.347  25.760  24.164  1.00  0.00    -0.201 OA
BRANCH  16  19
ATOM     19  C   UNL A   1      32.966  27.959  24.074  1.00  0.00     0.101 A 
ATOM     20  C   UNL A   1      31.442  31.146  26.583  1.00  0.00     0.044 C 
ATOM     21  C   UNL A   1      32.012  30.091  25.682  1.00  0.00    -0.050 A 
ATOM     22  C   UNL A   1      33.349  29.707  25.734  1.00  0.00     0.005 A 
ATOM     23  C   UNL A   1      31.209  29.510  24.704  1.00  0.00     0.020 A 
ATOM     24  C   UNL A   1      33.825  28.673  24.909  1.00  0.00     0.024 A 
ATOM     25  C   UNL A   1      31.682  28.474  23.891  1.00  0.00     0.038 A 
ATOM     26  Br  UNL A   1      30.564  27.968  22.453  1.00  0.00    -0.049 Br
ENDBRANCH  16  19
ENDBRANCH  14  16
ENDBRANCH   8  14
ENDBRANCH   4   7
ENDBRANCH   2   3
ENDBRANCH   1   2
BRANCH   1  27
ATOM     27  C   UNL A   1      37.857  21.260  25.118  1.00  0.00     0.023 C 
BRANCH  27  28
ATOM     28  C   UNL A   1      38.390  22.543  25.736  1.00  0.00     0.116 C 
BRANCH  28  29
ATOM     29  N   UNL A   1      39.765  22.482  26.209  1.00  0.00    -0.352 N 
ATOM     30  C   UNL A   1      40.580  23.484  26.703  1.00  0.00     0.251 C 
ATOM     31  H   UNL A   1      40.179  21.590  26.171  1.00  0.00     0.163 HD
ATOM     32  O   UNL A   1      41.759  23.231  26.941  1.00  0.00    -0.269 OA
BRANCH  30  33
ATOM     33  C   UNL A   1      40.028  24.813  27.092  1.00  0.00     0.039 A 
ATOM     34  C   UNL A   1      40.409  25.932  26.335  1.00  0.00     0.014 A 
ATOM     35  C   UNL A   1      39.322  25.009  28.272  1.00  0.00     0.014 A 
ATOM     36  C   UNL A   1      40.324  27.209  26.889  1.00  0.00     0.010 A 
ATOM     37  C   UNL A   1      39.361  26.244  28.882  1.00  0.00     0.010 A 
ATOM     38  C   UNL A   1      39.924  27.333  28.216  1.00  0.00    -0.014 A 
BRANCH  38  39
ATOM     39  C   UNL A   1      40.167  28.511  29.035  1.00  0.00     0.031 A 
ATOM     40  C   UNL A   1      39.091  29.492  29.287  1.00  0.00     0.074 A 
ATOM     41  C   UNL A   1      41.347  28.627  29.687  1.00  0.00     0.049 A 
ATOM     42  N   UNL A   1      39.302  30.712  29.648  1.00  0.00    -0.248 NA
ATOM     43  C   UNL A   1      37.677  29.175  29.134  1.00  0.00     0.031 C 
ATOM     44  C   UNL A   1      41.657  29.541  30.782  1.00  0.00     0.029 A 
ATOM     45  N   UNL A   1      42.584  28.068  29.357  1.00  0.00    -0.354 N 
ATOM     46  C   UNL A   1      38.099  31.239  30.057  1.00  0.00     0.074 A 
ATOM     47  C   UNL A   1      37.108  30.266  29.655  1.00  0.00     0.031 C 
ATOM     48  C   UNL A   1      42.986  29.723  30.824  1.00  0.00     0.029 A 
ATOM     49  C   UNL A   1      43.547  29.038  29.668  1.00  0.00     0.049 A 
ATOM     50  H   UNL A   1      42.747  27.173  28.983  1.00  0.00     0.167 HD
ATOM     51  C   UNL A   1      38.083  32.369  30.821  1.00  0.00     0.037 A 
ATOM     52  C   UNL A   1      44.421  29.594  28.780  1.00  0.00     0.037 A 
ATOM     53  C   UNL A   1      39.438  32.850  31.086  1.00  0.00     0.049 A 
ATOM     54  C   UNL A   1      44.329  31.095  28.795  1.00  0.00     0.074 A 
ATOM     55  C   UNL A   1      40.279  32.698  32.177  1.00  0.00     0.029 A 
ATOM     56  N   UNL A   1      40.229  33.325  30.044  1.00  0.00    -0.354 N 
ATOM     57  N   UNL A   1      43.249  31.736  29.149  1.00  0.00    -0.248 NA
ATOM     58  C   UNL A   1      45.429  31.987  28.453  1.00  0.00     0.031 C 
ATOM     59  C   UNL A   1      41.588  33.056  31.781  1.00  0.00     0.029 A 
ATOM     60  C   UNL A   1      41.544  33.444  30.451  1.00  0.00     0.049 A 
ATOM     61  H   UNL A   1      39.898  33.544  29.144  1.00  0.00     0.167 HD
ATOM     62  C   UNL A   1      43.503  33.081  29.154  1.00  0.00     0.074 A 
ATOM     63  C   UNL A   1      44.872  33.190  28.682  1.00  0.00     0.031 C 
ATOM     64  C   UNL A   1      42.570  33.985  29.573  1.00  0.00     0.037 A 
BRANCH  51  65
ATOM     65  C   UNL A   1      36.859  32.840  31.575  1.00  0.00     0.057 A 
ATOM     66  C   UNL A   1      35.894  33.669  30.968  1.00  0.00     0.134 A 
ATOM     67  C   UNL A   1      36.592  32.534  32.920  1.00  0.00     0.134 A 
ATOM     68  F   UNL A   1      35.936  33.966  29.663  1.00  0.00    -0.206 F 
ATOM     69  C   UNL A   1      34.829  34.246  31.672  1.00  0.00     0.040 A 
ATOM     70  C   UNL A   1      35.562  33.143  33.653  1.00  0.00     0.040 A 
ATOM     71  F   UNL A   1      37.293  31.596  33.573  1.00  0.00    -0.206 F 
ATOM     72  C   UNL A   1      34.682  34.017  33.030  1.00  0.00     0.006 A 
ENDBRANCH  51  65
BRANCH  52  73
ATOM     73  C   UNL A   1      44.753  28.754  27.602  1.00  0.00     0.057 A 
ATOM     74  C   UNL A   1      45.712  27.746  27.766  1.00  0.00     0.134 A 
ATOM     75  C   UNL A   1      43.854  28.606  26.543  1.00  0.00     0.134 A 
ATOM     76  F   UNL A   1      46.698  27.908  28.656  1.00  0.00    -0.206 F 
ATOM     77  C   UNL A   1      45.633  26.536  27.073  1.00  0.00     0.040 A 
ATOM     78  C   UNL A   1      43.795  27.418  25.805  1.00  0.00     0.040 A 
ATOM     79  F   UNL A   1      42.913  29.533  26.318  1.00  0.00    -0.206 F 
ATOM     80  C   UNL A   1      44.639  26.353  26.117  1.00  0.00     0.006 A 
ENDBRANCH  52  73
BRANCH  64  81
ATOM     81  C   UNL A   1      42.592  35.472  29.314  1.00  0.00     0.057 A 
ATOM     82  C   UNL A   1      43.448  36.367  29.971  1.00  0.00     0.134 A 
ATOM     83  C   UNL A   1      41.860  36.028  28.239  1.00  0.00     0.134 A 
ATOM     84  F   UNL A   1      44.282  35.964  30.938  1.00  0.00    -0.206 F 
ATOM     85  C   UNL A   1      43.538  37.719  29.617  1.00  0.00     0.040 A 
ATOM     86  C   UNL A   1      41.982  37.361  27.842  1.00  0.00     0.040 A 
ATOM     87  F   UNL A   1      41.016  35.294  27.498  1.00  0.00    -0.206 F 
ATOM     88  C   UNL A   1      42.817  38.218  28.539  1.00  0.00     0.006 A 
ENDBRANCH  64  81
ENDBRANCH  38  39
ENDBRANCH  30  33
ENDBRANCH  28  29
ENDBRANCH  27  28
ENDBRANCH   1  27
TORSDOF 14
ENDMDL
