MODEL 1
REMARK VINA RESULT:     -13.3      0.000      0.000
REMARK SMILES Cc1ccc(C(=O)NC2(CC(=O)NCCCCNC(=O)c3ccc(-c4c5nc(c(-c6c(F)cccc6F)c6ccc([nH]6)c(-c6c(F)cccc6F)c6nc(c(-c7c(F)cccc7F)c7ccc4[nH]7)C=C6)C=C5)cc3)CCC2)cc1
REMARK SMILES IDX 15 1 14 2 13 3 11 4 12 5 10 7 9 8 75 9 77 10 76 11 8 12 6 13
REMARK SMILES IDX 7 14 5 16 1 17 2 18 3 19 79 20 4 21 78 22 16 23 17 24 18 25
REMARK SMILES IDX 19 26 20 28 21 29 22 30 74 31 23 32 73 33 24 34 25 35 26 36
REMARK SMILES IDX 67 37 27 38 72 39 66 40 68 41 28 42 71 43 65 44 64 45 29 47
REMARK SMILES IDX 55 48 38 49 54 50 39 51 42 52 53 53 69 54 40 55 41 56 52 58
REMARK SMILES IDX 70 59 43 60 30 61 31 62 36 63 32 64 33 65 35 66 37 67 34 68
REMARK SMILES IDX 56 69 57 70 62 71 58 72 59 73 61 74 63 75 60 76 44 77 45 78
REMARK SMILES IDX 50 79 46 80 47 81 49 82 51 83 48 84
REMARK H PARENT 13 6 8 15 18 27 68 46 42 57
REMARK Flexibility Score: inf
ROOT
ATOM      1  C   UNL A   1      33.810  35.309  28.390  1.00  0.00     0.023 C 
ENDROOT
BRANCH   1   2
ATOM      2  C   UNL A   1      33.187  33.913  28.374  1.00  0.00     0.116 C 
BRANCH   2   3
ATOM      3  N   UNL A   1      32.210  33.602  27.024  1.00  0.00    -0.356 N 
ATOM      4  C   UNL A   1      31.280  32.086  26.189  1.00  0.00     0.222 C 
ATOM      5  O   UNL A   1      30.306  32.048  25.376  1.00  0.00    -0.275 OA
ATOM      6  H   UNL A   1      32.064  34.426  26.504  1.00  0.00     0.163 HD
BRANCH   4   7
ATOM      7  C   UNL A   1      31.781  30.271  26.454  1.00  0.00     0.128 C 
BRANCH   7   8
ATOM      8  C   UNL A   1      33.354  29.670  26.322  1.00  0.00     0.049 C 
ATOM      9  C   UNL A   1      33.719  28.380  27.139  1.00  0.00     0.029 C 
ATOM     10  C   UNL A   1      34.890  30.133  26.876  1.00  0.00     0.029 C 
ATOM     11  C   UNL A   1      34.658  29.220  28.059  1.00  0.00     0.005 C 
BRANCH   8  12
ATOM     12  N   UNL A   1      33.617  29.702  24.893  1.00  0.00    -0.346 N 
ATOM     13  C   UNL A   1      33.089  28.646  24.208  1.00  0.00     0.251 C 
ATOM     14  O   UNL A   1      33.080  28.564  22.991  1.00  0.00    -0.269 OA
ATOM     15  H   UNL A   1      34.130  30.421  24.458  1.00  0.00     0.164 HD
BRANCH  13  16
ATOM     16  C   UNL A   1      32.705  27.502  25.109  1.00  0.00     0.039 A 
ATOM     17  C   UNL A   1      30.277  23.427  26.870  1.00  0.00     0.044 C 
ATOM     18  C   UNL A   1      31.025  24.408  26.012  1.00  0.00    -0.051 A 
ATOM     19  C   UNL A   1      30.073  25.832  25.444  1.00  0.00     0.004 A 
ATOM     20  C   UNL A   1      32.822  24.438  26.087  1.00  0.00     0.004 A 
ATOM     21  C   UNL A   1      30.901  27.354  24.998  1.00  0.00     0.014 A 
ATOM     22  C   UNL A   1      33.705  25.993  25.673  1.00  0.00     0.014 A 
ENDBRANCH  13  16
ENDBRANCH   8  12
ENDBRANCH   7   8
ENDBRANCH   4   7
ENDBRANCH   2   3
ENDBRANCH   1   2
BRANCH   1  23
ATOM     23  C   UNL A   1      33.155  36.264  29.371  1.00  0.00     0.023 C 
BRANCH  23  24
ATOM     24  C   UNL A   1      32.976  35.644  30.739  1.00  0.00     0.116 C 
BRANCH  24  25
ATOM     25  N   UNL A   1      34.058  35.950  31.661  1.00  0.00    -0.352 N 
ATOM     26  C   UNL A   1      34.898  35.102  32.351  1.00  0.00     0.251 C 
ATOM     27  H   UNL A   1      34.214  36.910  31.816  1.00  0.00     0.163 HD
ATOM     28  O   UNL A   1      35.495  35.543  33.332  1.00  0.00    -0.269 OA
BRANCH  26  29
ATOM     29  C   UNL A   1      35.280  33.772  31.788  1.00  0.00     0.039 A 
ATOM     30  C   UNL A   1      35.341  32.731  32.728  1.00  0.00     0.014 A 
ATOM     31  C   UNL A   1      36.116  33.735  30.689  1.00  0.00     0.014 A 
ATOM     32  C   UNL A   1      36.467  31.925  32.767  1.00  0.00     0.010 A 
ATOM     33  C   UNL A   1      37.328  33.145  30.854  1.00  0.00     0.010 A 
ATOM     34  C   UNL A   1      37.507  32.267  31.917  1.00  0.00    -0.014 A 
BRANCH  34  35
ATOM     35  C   UNL A   1      38.776  31.598  31.829  1.00  0.00     0.031 A 
ATOM     36  C   UNL A   1      38.726  30.383  30.998  1.00  0.00     0.074 A 
ATOM     37  C   UNL A   1      39.851  32.292  32.267  1.00  0.00     0.049 A 
ATOM     38  N   UNL A   1      39.561  29.425  31.072  1.00  0.00    -0.248 NA
ATOM     39  C   UNL A   1      37.658  30.106  30.022  1.00  0.00     0.031 C 
ATOM     40  C   UNL A   1      41.277  32.094  32.042  1.00  0.00     0.029 A 
ATOM     41  N   UNL A   1      39.819  33.313  33.230  1.00  0.00    -0.354 N 
ATOM     42  C   UNL A   1      39.397  28.651  29.941  1.00  0.00     0.074 A 
ATOM     43  C   UNL A   1      38.112  29.008  29.411  1.00  0.00     0.031 C 
ATOM     44  C   UNL A   1      41.959  32.651  33.064  1.00  0.00     0.029 A 
ATOM     45  C   UNL A   1      40.977  33.141  34.019  1.00  0.00     0.049 A 
ATOM     46  H   UNL A   1      39.130  34.009  33.332  1.00  0.00     0.167 HD
ATOM     47  C   UNL A   1      40.477  27.947  29.511  1.00  0.00     0.037 A 
ATOM     48  C   UNL A   1      40.828  32.692  35.302  1.00  0.00     0.037 A 
ATOM     49  C   UNL A   1      41.585  28.218  30.425  1.00  0.00     0.049 A 
ATOM     50  C   UNL A   1      41.327  31.267  35.426  1.00  0.00     0.074 A 
ATOM     51  C   UNL A   1      42.601  29.159  30.397  1.00  0.00     0.029 A 
ATOM     52  N   UNL A   1      41.444  27.827  31.747  1.00  0.00    -0.354 N 
ATOM     53  N   UNL A   1      41.342  30.400  34.444  1.00  0.00    -0.248 NA
ATOM     54  C   UNL A   1      41.988  30.768  36.626  1.00  0.00     0.031 C 
ATOM     55  C   UNL A   1      43.052  29.345  31.736  1.00  0.00     0.029 A 
ATOM     56  C   UNL A   1      42.300  28.530  32.568  1.00  0.00     0.049 A 
ATOM     57  H   UNL A   1      40.815  27.138  32.058  1.00  0.00     0.167 HD
ATOM     58  C   UNL A   1      42.055  29.288  34.826  1.00  0.00     0.074 A 
ATOM     59  C   UNL A   1      42.438  29.577  36.197  1.00  0.00     0.031 C 
ATOM     60  C   UNL A   1      42.324  28.234  33.992  1.00  0.00     0.037 A 
BRANCH  47  61
ATOM     61  C   UNL A   1      40.653  27.229  28.199  1.00  0.00     0.057 A 
ATOM     62  C   UNL A   1      40.012  25.989  27.993  1.00  0.00     0.134 A 
ATOM     63  C   UNL A   1      41.391  27.691  27.096  1.00  0.00     0.134 A 
ATOM     64  F   UNL A   1      39.252  25.422  28.939  1.00  0.00    -0.206 F 
ATOM     65  C   UNL A   1      40.110  25.260  26.803  1.00  0.00     0.040 A 
ATOM     66  C   UNL A   1      41.515  26.958  25.902  1.00  0.00     0.040 A 
ATOM     67  F   UNL A   1      41.991  28.886  27.094  1.00  0.00    -0.206 F 
ATOM     68  C   UNL A   1      40.869  25.741  25.751  1.00  0.00     0.006 A 
ENDBRANCH  47  61
BRANCH  48  69
ATOM     69  C   UNL A   1      39.623  33.320  35.940  1.00  0.00     0.057 A 
ATOM     70  C   UNL A   1      38.543  32.446  36.207  1.00  0.00     0.134 A 
ATOM     71  C   UNL A   1      39.733  34.445  36.762  1.00  0.00     0.134 A 
ATOM     72  F   UNL A   1      38.341  31.372  35.426  1.00  0.00    -0.206 F 
ATOM     73  C   UNL A   1      37.786  32.540  37.380  1.00  0.00     0.040 A 
ATOM     74  C   UNL A   1      38.941  34.573  37.913  1.00  0.00     0.040 A 
ATOM     75  F   UNL A   1      40.706  35.344  36.563  1.00  0.00    -0.206 F 
ATOM     76  C   UNL A   1      38.029  33.579  38.268  1.00  0.00     0.006 A 
ENDBRANCH  48  69
BRANCH  60  77
ATOM     77  C   UNL A   1      42.699  26.816  34.412  1.00  0.00     0.057 A 
ATOM     78  C   UNL A   1      41.933  26.008  35.261  1.00  0.00     0.134 A 
ATOM     79  C   UNL A   1      43.808  26.144  33.828  1.00  0.00     0.134 A 
ATOM     80  F   UNL A   1      40.773  26.416  35.785  1.00  0.00    -0.206 F 
ATOM     81  C   UNL A   1      42.284  24.687  35.571  1.00  0.00     0.040 A 
ATOM     82  C   UNL A   1      44.103  24.798  34.047  1.00  0.00     0.040 A 
ATOM     83  F   UNL A   1      44.660  26.740  32.983  1.00  0.00    -0.206 F 
ATOM     84  C   UNL A   1      43.358  24.070  34.951  1.00  0.00     0.006 A 
ENDBRANCH  60  77
ENDBRANCH  34  35
ENDBRANCH  26  29
ENDBRANCH  24  25
ENDBRANCH  23  24
ENDBRANCH   1  23
TORSDOF 14
ENDMDL
MODEL 2
REMARK VINA RESULT:     -13.3      1.760      2.728
REMARK SMILES Cc1ccc(C(=O)NC2(CC(=O)NCCCCNC(=O)c3ccc(-c4c5nc(c(-c6c(F)cccc6F)c6ccc([nH]6)c(-c6c(F)cccc6F)c6nc(c(-c7c(F)cccc7F)c7ccc4[nH]7)C=C6)C=C5)cc3)CCC2)cc1
REMARK SMILES IDX 15 1 14 2 13 3 11 4 12 5 10 7 9 8 75 9 77 10 76 11 8 12 6 13
REMARK SMILES IDX 7 14 5 16 1 17 2 18 3 19 79 20 4 21 78 22 16 23 17 24 18 25
REMARK SMILES IDX 19 26 20 28 21 29 22 30 74 31 23 32 73 33 24 34 25 35 26 36
REMARK SMILES IDX 67 37 27 38 72 39 66 40 68 41 28 42 71 43 65 44 64 45 29 47
REMARK SMILES IDX 55 48 38 49 54 50 39 51 42 52 53 53 69 54 40 55 41 56 52 58
REMARK SMILES IDX 70 59 43 60 30 61 31 62 36 63 32 64 33 65 35 66 37 67 34 68
REMARK SMILES IDX 56 69 57 70 62 71 58 72 59 73 61 74 63 75 60 76 44 77 45 78
REMARK SMILES IDX 50 79 46 80 47 81 49 82 51 83 48 84
REMARK H PARENT 13 6 8 15 18 27 68 46 42 57
REMARK Flexibility Score: inf
ROOT
ATOM      1  C   UNL A   1      35.074  32.053  27.636  1.00  0.00     0.023 C 
ENDROOT
BRANCH   1   2
ATOM      2  C   UNL A   1      34.894  30.535  27.615  1.00  0.00     0.116 C 
BRANCH   2   3
ATOM      3  N   UNL A   1      33.306  30.019  27.904  1.00  0.00    -0.356 N 
ATOM      4  C   UNL A   1      32.134  28.510  27.444  1.00  0.00     0.222 C 
ATOM      5  O   UNL A   1      31.081  28.070  27.999  1.00  0.00    -0.275 OA
ATOM      6  H   UNL A   1      32.828  30.667  28.472  1.00  0.00     0.163 HD
BRANCH   4   7
ATOM      7  C   UNL A   1      32.395  27.405  25.918  1.00  0.00     0.128 C 
BRANCH   7   8
ATOM      8  C   UNL A   1      31.167  26.601  25.082  1.00  0.00     0.049 C 
ATOM      9  C   UNL A   1      31.502  26.022  23.662  1.00  0.00     0.029 C 
ATOM     10  C   UNL A   1      29.744  27.049  24.271  1.00  0.00     0.029 C 
ATOM     11  C   UNL A   1      30.566  27.081  23.002  1.00  0.00     0.005 C 
BRANCH   8  12
ATOM     12  N   UNL A   1      30.582  25.726  26.084  1.00  0.00    -0.346 N 
ATOM     13  C   UNL A   1      31.330  24.618  26.358  1.00  0.00     0.251 C 
ATOM     14  O   UNL A   1      31.082  23.839  27.264  1.00  0.00    -0.269 OA
ATOM     15  H   UNL A   1      29.723  25.916  26.527  1.00  0.00     0.164 HD
BRANCH  13  16
ATOM     16  C   UNL A   1      32.371  24.344  25.304  1.00  0.00     0.039 A 
ATOM     17  C   UNL A   1      36.694  22.838  23.149  1.00  0.00     0.044 C 
ATOM     18  C   UNL A   1      35.421  22.910  23.946  1.00  0.00    -0.051 A 
ATOM     19  C   UNL A   1      35.480  23.956  25.415  1.00  0.00     0.004 A 
ATOM     20  C   UNL A   1      33.867  22.484  23.146  1.00  0.00     0.004 A 
ATOM     21  C   UNL A   1      33.977  24.660  26.084  1.00  0.00     0.014 A 
ATOM     22  C   UNL A   1      32.309  23.217  23.780  1.00  0.00     0.014 A 
ENDBRANCH  13  16
ENDBRANCH   8  12
ENDBRANCH   7   8
ENDBRANCH   4   7
ENDBRANCH   2   3
ENDBRANCH   1   2
BRANCH   1  23
ATOM     23  C   UNL A   1      35.758  32.575  28.886  1.00  0.00     0.023 C 
BRANCH  23  24
ATOM     24  C   UNL A   1      35.119  32.046  30.150  1.00  0.00     0.116 C 
BRANCH  24  25
ATOM     25  N   UNL A   1      34.319  33.036  30.855  1.00  0.00    -0.352 N 
ATOM     26  C   UNL A   1      34.456  33.538  32.131  1.00  0.00     0.251 C 
ATOM     27  H   UNL A   1      33.565  33.404  30.340  1.00  0.00     0.163 HD
ATOM     28  O   UNL A   1      33.486  34.088  32.650  1.00  0.00    -0.269 OA
BRANCH  26  29
ATOM     29  C   UNL A   1      35.801  33.648  32.774  1.00  0.00     0.039 A 
ATOM     30  C   UNL A   1      36.754  34.358  32.026  1.00  0.00     0.014 A 
ATOM     31  C   UNL A   1      36.222  32.626  33.603  1.00  0.00     0.014 A 
ATOM     32  C   UNL A   1      38.001  33.793  31.817  1.00  0.00     0.010 A 
ATOM     33  C   UNL A   1      37.323  31.931  33.217  1.00  0.00     0.010 A 
ATOM     34  C   UNL A   1      38.190  32.506  32.295  1.00  0.00    -0.014 A 
BRANCH  34  35
ATOM     35  C   UNL A   1      39.385  31.720  32.147  1.00  0.00     0.031 A 
ATOM     36  C   UNL A   1      39.193  30.544  31.283  1.00  0.00     0.074 A 
ATOM     37  C   UNL A   1      40.535  32.292  32.572  1.00  0.00     0.049 A 
ATOM     38  N   UNL A   1      39.932  29.507  31.303  1.00  0.00    -0.248 NA
ATOM     39  C   UNL A   1      38.076  30.402  30.334  1.00  0.00     0.031 C 
ATOM     40  C   UNL A   1      41.927  31.965  32.296  1.00  0.00     0.029 A 
ATOM     41  N   UNL A   1      40.630  33.280  33.564  1.00  0.00    -0.354 N 
ATOM     42  C   UNL A   1      39.660  28.789  30.155  1.00  0.00     0.074 A 
ATOM     43  C   UNL A   1      38.402  29.285  29.677  1.00  0.00     0.031 C 
ATOM     44  C   UNL A   1      42.689  32.420  33.312  1.00  0.00     0.029 A 
ATOM     45  C   UNL A   1      41.787  32.972  34.310  1.00  0.00     0.049 A 
ATOM     46  H   UNL A   1      40.015  34.036  33.708  1.00  0.00     0.167 HD
ATOM     47  C   UNL A   1      40.654  27.998  29.671  1.00  0.00     0.037 A 
ATOM     48  C   UNL A   1      41.631  32.499  35.584  1.00  0.00     0.037 A 
ATOM     49  C   UNL A   1      41.808  28.131  30.558  1.00  0.00     0.049 A 
ATOM     50  C   UNL A   1      41.992  31.028  35.651  1.00  0.00     0.074 A 
ATOM     51  C   UNL A   1      42.911  28.969  30.526  1.00  0.00     0.029 A 
ATOM     52  N   UNL A   1      41.668  27.713  31.871  1.00  0.00    -0.354 N 
ATOM     53  N   UNL A   1      41.895  30.196  34.644  1.00  0.00    -0.248 NA
ATOM     54  C   UNL A   1      42.635  30.430  36.814  1.00  0.00     0.031 C 
ATOM     55  C   UNL A   1      43.415  29.067  31.854  1.00  0.00     0.029 A 
ATOM     56  C   UNL A   1      42.611  28.303  32.685  1.00  0.00     0.049 A 
ATOM     57  H   UNL A   1      40.983  27.078  32.182  1.00  0.00     0.167 HD
ATOM     58  C   UNL A   1      42.506  29.008  34.971  1.00  0.00     0.074 A 
ATOM     59  C   UNL A   1      42.953  29.215  36.337  1.00  0.00     0.031 C 
ATOM     60  C   UNL A   1      42.646  27.960  34.099  1.00  0.00     0.037 A 
BRANCH  47  61
ATOM     61  C   UNL A   1      40.721  27.309  28.334  1.00  0.00     0.057 A 
ATOM     62  C   UNL A   1      40.008  26.107  28.134  1.00  0.00     0.134 A 
ATOM     63  C   UNL A   1      41.420  27.764  27.204  1.00  0.00     0.134 A 
ATOM     64  F   UNL A   1      39.273  25.553  29.106  1.00  0.00    -0.206 F 
ATOM     65  C   UNL A   1      40.004  25.408  26.923  1.00  0.00     0.040 A 
ATOM     66  C   UNL A   1      41.442  27.060  25.987  1.00  0.00     0.040 A 
ATOM     67  F   UNL A   1      42.078  28.928  27.198  1.00  0.00    -0.206 F 
ATOM     68  C   UNL A   1      40.728  25.879  25.842  1.00  0.00     0.006 A 
ENDBRANCH  47  61
BRANCH  48  69
ATOM     69  C   UNL A   1      40.513  33.220  36.278  1.00  0.00     0.057 A 
ATOM     70  C   UNL A   1      39.375  32.438  36.585  1.00  0.00     0.134 A 
ATOM     71  C   UNL A   1      40.753  34.323  37.101  1.00  0.00     0.134 A 
ATOM     72  F   UNL A   1      39.049  31.392  35.807  1.00  0.00    -0.206 F 
ATOM     73  C   UNL A   1      38.679  32.583  37.791  1.00  0.00     0.040 A 
ATOM     74  C   UNL A   1      40.024  34.506  38.287  1.00  0.00     0.040 A 
ATOM     75  F   UNL A   1      41.790  35.139  36.866  1.00  0.00    -0.206 F 
ATOM     76  C   UNL A   1      39.047  33.589  38.675  1.00  0.00     0.006 A 
ENDBRANCH  48  69
BRANCH  60  77
ATOM     77  C   UNL A   1      42.893  26.501  34.465  1.00  0.00     0.057 A 
ATOM     78  C   UNL A   1      42.012  25.707  35.210  1.00  0.00     0.134 A 
ATOM     79  C   UNL A   1      43.995  25.782  33.927  1.00  0.00     0.134 A 
ATOM     80  F   UNL A   1      40.845  26.169  35.671  1.00  0.00    -0.206 F 
ATOM     81  C   UNL A   1      42.248  24.350  35.471  1.00  0.00     0.040 A 
ATOM     82  C   UNL A   1      44.182  24.409  34.091  1.00  0.00     0.040 A 
ATOM     83  F   UNL A   1      44.947  26.358  33.180  1.00  0.00    -0.206 F 
ATOM     84  C   UNL A   1      43.324  23.691  34.897  1.00  0.00     0.006 A 
ENDBRANCH  60  77
ENDBRANCH  34  35
ENDBRANCH  26  29
ENDBRANCH  24  25
ENDBRANCH  23  24
ENDBRANCH   1  23
TORSDOF 14
ENDMDL
MODEL 3
REMARK VINA RESULT:     -13.2      5.214     10.559
REMARK SMILES Cc1ccc(C(=O)NC2(CC(=O)NCCCCNC(=O)c3ccc(-c4c5nc(c(-c6c(F)cccc6F)c6ccc([nH]6)c(-c6c(F)cccc6F)c6nc(c(-c7c(F)cccc7F)c7ccc4[nH]7)C=C6)C=C5)cc3)CCC2)cc1
REMARK SMILES IDX 15 1 14 2 13 3 11 4 12 5 10 7 9 8 75 9 77 10 76 11 8 12 6 13
REMARK SMILES IDX 7 14 5 16 1 17 2 18 3 19 79 20 4 21 78 22 16 23 17 24 18 25
REMARK SMILES IDX 19 26 20 28 21 29 22 30 74 31 23 32 73 33 24 34 25 35 26 36
REMARK SMILES IDX 67 37 27 38 72 39 66 40 68 41 28 42 71 43 65 44 64 45 29 47
REMARK SMILES IDX 55 48 38 49 54 50 39 51 42 52 53 53 69 54 40 55 41 56 52 58
REMARK SMILES IDX 70 59 43 60 30 61 31 62 36 63 32 64 33 65 35 66 37 67 34 68
REMARK SMILES IDX 56 69 57 70 62 71 58 72 59 73 61 74 63 75 60 76 44 77 45 78
REMARK SMILES IDX 50 79 46 80 47 81 49 82 51 83 48 84
REMARK H PARENT 13 6 8 15 18 27 68 46 42 57
REMARK Flexibility Score: inf
ROOT
ATOM      1  C   UNL A   1      40.122  21.794  26.950  1.00  0.00     0.023 C 
ENDROOT
BRANCH   1   2
ATOM      2  C   UNL A   1      38.911  22.652  26.584  1.00  0.00     0.116 C 
BRANCH   2   3
ATOM      3  N   UNL A   1      38.346  22.419  25.003  1.00  0.00    -0.356 N 
ATOM      4  C   UNL A   1      36.753  22.826  23.927  1.00  0.00     0.222 C 
ATOM      5  O   UNL A   1      36.591  22.903  22.671  1.00  0.00    -0.275 OA
ATOM      6  H   UNL A   1      39.014  21.937  24.464  1.00  0.00     0.163 HD
BRANCH   4   7
ATOM      7  C   UNL A   1      35.034  23.146  24.675  1.00  0.00     0.128 C 
BRANCH   7   8
ATOM      8  C   UNL A   1      33.586  22.509  24.084  1.00  0.00     0.049 C 
ATOM      9  C   UNL A   1      32.313  22.606  24.997  1.00  0.00     0.029 C 
ATOM     10  C   UNL A   1      32.952  20.956  23.820  1.00  0.00     0.029 C 
ATOM     11  C   UNL A   1      32.327  21.058  25.193  1.00  0.00     0.005 C 
BRANCH   8  12
ATOM     12  N   UNL A   1      33.520  23.007  22.720  1.00  0.00    -0.346 N 
ATOM     13  C   UNL A   1      33.240  24.340  22.630  1.00  0.00     0.251 C 
ATOM     14  O   UNL A   1      33.280  24.972  21.587  1.00  0.00    -0.269 OA
ATOM     15  H   UNL A   1      33.665  22.435  21.932  1.00  0.00     0.164 HD
BRANCH  13  16
ATOM     16  C   UNL A   1      32.679  24.904  23.909  1.00  0.00     0.039 A 
ATOM     17  C   UNL A   1      31.589  28.194  27.596  1.00  0.00     0.044 C 
ATOM     18  C   UNL A   1      31.769  27.516  26.266  1.00  0.00    -0.051 A 
ATOM     19  C   UNL A   1      33.474  27.352  25.699  1.00  0.00     0.004 A 
ATOM     20  C   UNL A   1      30.457  26.455  25.644  1.00  0.00     0.004 A 
ATOM     21  C   UNL A   1      33.920  26.066  24.538  1.00  0.00     0.014 A 
ATOM     22  C   UNL A   1      30.881  25.102  24.480  1.00  0.00     0.014 A 
ENDBRANCH  13  16
ENDBRANCH   8  12
ENDBRANCH   7   8
ENDBRANCH   4   7
ENDBRANCH   2   3
ENDBRANCH   1   2
BRANCH   1  23
ATOM     23  C   UNL A   1      41.411  22.580  27.101  1.00  0.00     0.023 C 
BRANCH  23  24
ATOM     24  C   UNL A   1      41.958  23.044  25.769  1.00  0.00     0.116 C 
BRANCH  24  25
ATOM     25  N   UNL A   1      42.841  22.077  25.136  1.00  0.00    -0.352 N 
ATOM     26  C   UNL A   1      44.152  22.209  24.732  1.00  0.00     0.251 C 
ATOM     27  H   UNL A   1      42.440  21.192  24.970  1.00  0.00     0.163 HD
ATOM     28  O   UNL A   1      44.594  21.407  23.911  1.00  0.00    -0.269 OA
BRANCH  26  29
ATOM     29  C   UNL A   1      45.088  23.126  25.449  1.00  0.00     0.039 A 
ATOM     30  C   UNL A   1      45.170  22.918  26.835  1.00  0.00     0.014 A 
ATOM     31  C   UNL A   1      45.278  24.400  24.949  1.00  0.00     0.014 A 
ATOM     32  C   UNL A   1      45.036  24.002  27.687  1.00  0.00     0.010 A 
ATOM     33  C   UNL A   1      44.892  25.437  25.736  1.00  0.00     0.010 A 
ATOM     34  C   UNL A   1      44.739  25.222  27.101  1.00  0.00    -0.014 A 
BRANCH  34  35
ATOM     35  C   UNL A   1      44.514  26.458  27.799  1.00  0.00     0.031 A 
ATOM     36  C   UNL A   1      43.112  26.903  27.738  1.00  0.00     0.074 A 
ATOM     37  C   UNL A   1      45.512  26.878  28.611  1.00  0.00     0.049 A 
ATOM     38  N   UNL A   1      42.730  28.105  27.914  1.00  0.00    -0.248 NA
ATOM     39  C   UNL A   1      41.988  26.014  27.401  1.00  0.00     0.031 C 
ATOM     40  C   UNL A   1      45.522  27.858  29.688  1.00  0.00     0.029 A 
ATOM     41  N   UNL A   1      46.869  26.554  28.460  1.00  0.00    -0.354 N 
ATOM     42  C   UNL A   1      41.365  28.074  28.117  1.00  0.00     0.074 A 
ATOM     43  C   UNL A   1      40.929  26.797  27.628  1.00  0.00     0.031 C 
ATOM     44  C   UNL A   1      46.778  28.329  29.834  1.00  0.00     0.029 A 
ATOM     45  C   UNL A   1      47.587  27.725  28.786  1.00  0.00     0.049 A 
ATOM     46  H   UNL A   1      47.244  25.686  28.185  1.00  0.00     0.167 HD
ATOM     47  C   UNL A   1      40.826  29.081  28.855  1.00  0.00     0.037 A 
ATOM     48  C   UNL A   1      48.213  28.405  27.778  1.00  0.00     0.037 A 
ATOM     49  C   UNL A   1      41.909  29.977  29.253  1.00  0.00     0.049 A 
ATOM     50  C   UNL A   1      47.496  29.710  27.494  1.00  0.00     0.074 A 
ATOM     51  C   UNL A   1      42.710  30.020  30.384  1.00  0.00     0.029 A 
ATOM     52  N   UNL A   1      42.602  30.639  28.253  1.00  0.00    -0.354 N 
ATOM     53  N   UNL A   1      46.219  29.914  27.706  1.00  0.00    -0.248 NA
ATOM     54  C   UNL A   1      48.200  30.923  27.099  1.00  0.00     0.031 C 
ATOM     55  C   UNL A   1      43.910  30.701  30.034  1.00  0.00     0.029 A 
ATOM     56  C   UNL A   1      43.841  31.053  28.695  1.00  0.00     0.049 A 
ATOM     57  H   UNL A   1      42.256  30.794  27.345  1.00  0.00     0.167 HD
ATOM     58  C   UNL A   1      45.939  31.252  27.559  1.00  0.00     0.074 A 
ATOM     59  C   UNL A   1      47.216  31.833  27.184  1.00  0.00     0.031 C 
ATOM     60  C   UNL A   1      44.705  31.801  27.795  1.00  0.00     0.037 A 
BRANCH  47  61
ATOM     61  C   UNL A   1      39.436  29.168  29.428  1.00  0.00     0.057 A 
ATOM     62  C   UNL A   1      38.353  29.487  28.581  1.00  0.00     0.134 A 
ATOM     63  C   UNL A   1      39.076  28.927  30.764  1.00  0.00     0.134 A 
ATOM     64  F   UNL A   1      38.526  29.723  27.274  1.00  0.00    -0.206 F 
ATOM     65  C   UNL A   1      37.030  29.578  29.024  1.00  0.00     0.040 A 
ATOM     66  C   UNL A   1      37.752  29.035  31.228  1.00  0.00     0.040 A 
ATOM     67  F   UNL A   1      39.968  28.531  31.679  1.00  0.00    -0.206 F 
ATOM     68  C   UNL A   1      36.723  29.357  30.355  1.00  0.00     0.006 A 
ENDBRANCH  47  61
BRANCH  48  69
ATOM     69  C   UNL A   1      48.829  27.446  26.802  1.00  0.00     0.057 A 
ATOM     70  C   UNL A   1      48.273  27.449  25.502  1.00  0.00     0.134 A 
ATOM     71  C   UNL A   1      50.166  27.053  26.908  1.00  0.00     0.134 A 
ATOM     72  F   UNL A   1      46.979  27.764  25.327  1.00  0.00    -0.206 F 
ATOM     73  C   UNL A   1      49.067  27.333  24.356  1.00  0.00     0.040 A 
ATOM     74  C   UNL A   1      50.957  26.883  25.761  1.00  0.00     0.040 A 
ATOM     75  F   UNL A   1      50.767  26.989  28.104  1.00  0.00    -0.206 F 
ATOM     76  C   UNL A   1      50.430  27.107  24.489  1.00  0.00     0.006 A 
ENDBRANCH  48  69
BRANCH  60  77
ATOM     77  C   UNL A   1      44.185  33.131  27.259  1.00  0.00     0.057 A 
ATOM     78  C   UNL A   1      43.982  33.419  25.904  1.00  0.00     0.134 A 
ATOM     79  C   UNL A   1      43.710  34.143  28.138  1.00  0.00     0.134 A 
ATOM     80  F   UNL A   1      44.228  32.529  24.938  1.00  0.00    -0.206 F 
ATOM     81  C   UNL A   1      43.443  34.633  25.459  1.00  0.00     0.040 A 
ATOM     82  C   UNL A   1      43.073  35.308  27.706  1.00  0.00     0.040 A 
ATOM     83  F   UNL A   1      43.804  34.056  29.471  1.00  0.00    -0.206 F 
ATOM     84  C   UNL A   1      42.968  35.575  26.358  1.00  0.00     0.006 A 
ENDBRANCH  60  77
ENDBRANCH  34  35
ENDBRANCH  26  29
ENDBRANCH  24  25
ENDBRANCH  23  24
ENDBRANCH   1  23
TORSDOF 14
ENDMDL
