MODEL 1
REMARK VINA RESULT:     -13.0      0.000      0.000
REMARK SMILES Cc1nnc(SCC(=O)Nc2cccc(C(=O)NCCCCNC(=O)c3ccc(-c4c5nc(c(-c6c(F)cccc6F)c6ccc([nH]6)c(-c6c(F)cccc6F)c6nc(c(-c7c(F)cccc7F)c7ccc4[nH]7)C=C6)C=C5)cc3)c2)n1-c1ccccc1
REMARK SMILES IDX 19 1 18 2 16 3 17 4 15 6 11 7 12 8 80 9 13 10 14 11 10 12
REMARK SMILES IDX 8 13 9 14 7 16 6 17 5 18 1 19 2 20 3 21 81 22 4 23 82 24
REMARK SMILES IDX 83 25 87 26 84 27 86 28 85 29 20 30 21 31 22 32 23 33 24 34
REMARK SMILES IDX 25 36 26 37 27 38 79 39 28 40 78 41 29 42 30 43 31 44 72 45
REMARK SMILES IDX 32 46 77 47 71 48 73 49 33 50 76 51 70 52 69 53 34 55 60 56
REMARK SMILES IDX 43 57 59 58 44 59 47 60 58 61 74 62 45 63 46 64 57 66 75 67
REMARK SMILES IDX 48 68 35 69 36 70 41 71 37 72 38 73 40 74 42 75 39 76 61 77
REMARK SMILES IDX 62 78 67 79 63 80 64 81 66 82 68 83 65 84 49 85 50 86 55 87
REMARK SMILES IDX 51 88 52 89 54 90 56 91 53 92
REMARK H PARENT 18 5 10 15 23 35 73 54 47 65
REMARK Flexibility Score: inf
ROOT
ATOM      1  C   UNL A   1      32.151  30.325  25.946  1.00  0.00     0.116 C 
ENDROOT
BRANCH   1   2
ATOM      2  N   UNL A   1      32.679  29.789  24.699  1.00  0.00    -0.352 N 
ATOM      3  C   UNL A   1      32.214  28.795  23.855  1.00  0.00     0.251 C 
ATOM      4  O   UNL A   1      32.850  28.574  22.823  1.00  0.00    -0.269 OA
ATOM      5  H   UNL A   1      33.519  30.209  24.403  1.00  0.00     0.163 HD
BRANCH   3   6
ATOM      6  C   UNL A   1      31.020  27.937  24.138  1.00  0.00     0.041 A 
ATOM      7  C   UNL A   1      29.866  26.167  25.334  1.00  0.00     0.041 A 
ATOM      8  C   UNL A   1      28.815  26.224  24.415  1.00  0.00     0.026 A 
ATOM      9  C   UNL A   1      30.940  27.047  25.211  1.00  0.00     0.040 A 
ATOM     10  C   UNL A   1      28.809  27.200  23.427  1.00  0.00     0.003 A 
ATOM     11  C   UNL A   1      29.909  28.050  23.286  1.00  0.00     0.014 A 
BRANCH   7  12
ATOM     12  N   UNL A   1      29.814  25.143  26.279  1.00  0.00    -0.325 N 
ATOM     13  C   UNL A   1      30.544  24.013  26.468  1.00  0.00     0.234 C 
ATOM     14  O   UNL A   1      30.134  23.281  27.376  1.00  0.00    -0.274 OA
ATOM     15  H   UNL A   1      29.104  25.266  26.949  1.00  0.00     0.169 HD
BRANCH  13  16
ATOM     16  C   UNL A   1      31.896  23.787  25.830  1.00  0.00     0.178 C 
BRANCH  16  17
ATOM     17  S   UNL A   1      32.074  22.713  24.403  1.00  0.00    -0.076 SA
BRANCH  17  18
ATOM     18  C   UNL A   1      32.606  21.145  24.903  1.00  0.00     0.196 A 
ATOM     19  C   UNL A   1      34.974  18.411  24.625  1.00  0.00     0.090 C 
ATOM     20  C   UNL A   1      33.826  19.326  24.810  1.00  0.00     0.135 A 
ATOM     21  N   UNL A   1      32.563  18.970  24.957  1.00  0.00    -0.134 NA
ATOM     22  N   UNL A   1      33.909  20.702  24.835  1.00  0.00    -0.274 N 
ATOM     23  N   UNL A   1      31.803  20.111  25.004  1.00  0.00    -0.123 NA
BRANCH  22  24
ATOM     24  C   UNL A   1      35.051  21.503  24.943  1.00  0.00     0.049 A 
ATOM     25  C   UNL A   1      35.269  22.136  26.167  1.00  0.00     0.027 A 
ATOM     26  C   UNL A   1      35.731  21.891  23.792  1.00  0.00     0.027 A 
ATOM     27  C   UNL A   1      36.093  23.254  26.220  1.00  0.00     0.002 A 
ATOM     28  C   UNL A   1      36.589  22.987  23.866  1.00  0.00     0.002 A 
ATOM     29  C   UNL A   1      36.741  23.689  25.067  1.00  0.00     0.000 A 
ENDBRANCH  22  24
ENDBRANCH  17  18
ENDBRANCH  16  17
ENDBRANCH  13  16
ENDBRANCH   7  12
ENDBRANCH   3   6
ENDBRANCH   1   2
BRANCH   1  30
ATOM     30  C   UNL A   1      32.533  29.581  27.234  1.00  0.00     0.023 C 
BRANCH  30  31
ATOM     31  C   UNL A   1      33.776  28.681  27.263  1.00  0.00     0.023 C 
BRANCH  31  32
ATOM     32  C   UNL A   1      35.127  29.343  27.501  1.00  0.00     0.116 C 
BRANCH  32  33
ATOM     33  N   UNL A   1      35.264  30.134  28.724  1.00  0.00    -0.352 N 
ATOM     34  C   UNL A   1      36.300  30.070  29.655  1.00  0.00     0.251 C 
ATOM     35  H   UNL A   1      34.547  30.782  28.909  1.00  0.00     0.163 HD
ATOM     36  O   UNL A   1      36.238  30.584  30.752  1.00  0.00    -0.269 OA
BRANCH  34  37
ATOM     37  C   UNL A   1      37.543  29.384  29.233  1.00  0.00     0.039 A 
ATOM     38  C   UNL A   1      38.192  29.672  28.029  1.00  0.00     0.014 A 
ATOM     39  C   UNL A   1      38.079  28.462  30.127  1.00  0.00     0.014 A 
ATOM     40  C   UNL A   1      39.450  29.113  27.796  1.00  0.00     0.010 A 
ATOM     41  C   UNL A   1      39.373  28.038  29.969  1.00  0.00     0.010 A 
ATOM     42  C   UNL A   1      40.054  28.325  28.791  1.00  0.00    -0.014 A 
BRANCH  42  43
ATOM     43  C   UNL A   1      41.452  27.909  28.679  1.00  0.00     0.031 A 
ATOM     44  C   UNL A   1      41.678  26.665  27.884  1.00  0.00     0.074 A 
ATOM     45  C   UNL A   1      42.487  28.708  29.023  1.00  0.00     0.049 A 
ATOM     46  N   UNL A   1      42.161  25.538  28.291  1.00  0.00    -0.248 NA
ATOM     47  C   UNL A   1      41.208  26.634  26.488  1.00  0.00     0.031 C 
ATOM     48  C   UNL A   1      42.452  30.098  29.492  1.00  0.00     0.029 A 
ATOM     49  N   UNL A   1      43.822  28.472  28.909  1.00  0.00    -0.354 N 
ATOM     50  C   UNL A   1      42.235  24.713  27.169  1.00  0.00     0.074 A 
ATOM     51  C   UNL A   1      41.484  25.377  26.135  1.00  0.00     0.031 C 
ATOM     52  C   UNL A   1      43.681  30.646  29.380  1.00  0.00     0.029 A 
ATOM     53  C   UNL A   1      44.620  29.606  29.005  1.00  0.00     0.049 A 
ATOM     54  H   UNL A   1      44.193  27.571  28.768  1.00  0.00     0.167 HD
ATOM     55  C   UNL A   1      43.098  23.658  27.117  1.00  0.00     0.037 A 
ATOM     56  C   UNL A   1      45.951  29.686  28.764  1.00  0.00     0.037 A 
ATOM     57  C   UNL A   1      43.593  23.331  28.431  1.00  0.00     0.049 A 
ATOM     58  C   UNL A   1      46.494  28.305  28.822  1.00  0.00     0.074 A 
ATOM     59  C   UNL A   1      43.010  22.951  29.625  1.00  0.00     0.029 A 
ATOM     60  N   UNL A   1      44.862  23.747  28.755  1.00  0.00    -0.354 N 
ATOM     61  N   UNL A   1      46.564  27.597  29.913  1.00  0.00    -0.248 NA
ATOM     62  C   UNL A   1      46.527  27.546  27.581  1.00  0.00     0.031 C 
ATOM     63  C   UNL A   1      43.755  23.639  30.628  1.00  0.00     0.029 A 
ATOM     64  C   UNL A   1      44.788  24.329  29.993  1.00  0.00     0.049 A 
ATOM     65  H   UNL A   1      45.670  23.646  28.202  1.00  0.00     0.167 HD
ATOM     66  C   UNL A   1      46.203  26.316  29.524  1.00  0.00     0.074 A 
ATOM     67  C   UNL A   1      46.281  26.326  28.065  1.00  0.00     0.031 C 
ATOM     68  C   UNL A   1      45.595  25.458  30.395  1.00  0.00     0.037 A 
BRANCH  55  69
ATOM     69  C   UNL A   1      43.787  23.154  25.869  1.00  0.00     0.057 A 
ATOM     70  C   UNL A   1      43.757  21.776  25.578  1.00  0.00     0.134 A 
ATOM     71  C   UNL A   1      44.720  23.898  25.121  1.00  0.00     0.134 A 
ATOM     72  F   UNL A   1      42.914  20.953  26.222  1.00  0.00    -0.206 F 
ATOM     73  C   UNL A   1      44.652  21.174  24.685  1.00  0.00     0.040 A 
ATOM     74  C   UNL A   1      45.583  23.314  24.188  1.00  0.00     0.040 A 
ATOM     75  F   UNL A   1      44.924  25.205  25.321  1.00  0.00    -0.206 F 
ATOM     76  C   UNL A   1      45.578  21.943  23.994  1.00  0.00     0.006 A 
ENDBRANCH  55  69
BRANCH  56  77
ATOM     77  C   UNL A   1      46.730  30.817  28.212  1.00  0.00     0.057 A 
ATOM     78  C   UNL A   1      46.468  31.323  26.931  1.00  0.00     0.134 A 
ATOM     79  C   UNL A   1      47.554  31.609  29.031  1.00  0.00     0.134 A 
ATOM     80  F   UNL A   1      45.664  30.658  26.088  1.00  0.00    -0.206 F 
ATOM     81  C   UNL A   1      46.970  32.558  26.500  1.00  0.00     0.040 A 
ATOM     82  C   UNL A   1      48.067  32.842  28.611  1.00  0.00     0.040 A 
ATOM     83  F   UNL A   1      47.815  31.256  30.299  1.00  0.00    -0.206 F 
ATOM     84  C   UNL A   1      47.763  33.328  27.347  1.00  0.00     0.006 A 
ENDBRANCH  56  77
BRANCH  68  85
ATOM     85  C   UNL A   1      45.546  25.836  31.850  1.00  0.00     0.057 A 
ATOM     86  C   UNL A   1      46.616  25.679  32.746  1.00  0.00     0.134 A 
ATOM     87  C   UNL A   1      44.428  26.532  32.323  1.00  0.00     0.134 A 
ATOM     88  F   UNL A   1      47.769  25.118  32.363  1.00  0.00    -0.206 F 
ATOM     89  C   UNL A   1      46.556  26.156  34.059  1.00  0.00     0.040 A 
ATOM     90  C   UNL A   1      44.369  27.043  33.620  1.00  0.00     0.040 A 
ATOM     91  F   UNL A   1      43.388  26.771  31.508  1.00  0.00    -0.206 F 
ATOM     92  C   UNL A   1      45.432  26.847  34.498  1.00  0.00     0.006 A 
ENDBRANCH  68  85
ENDBRANCH  42  43
ENDBRANCH  34  37
ENDBRANCH  32  33
ENDBRANCH  31  32
ENDBRANCH  30  31
ENDBRANCH   1  30
TORSDOF 16
ENDMDL
MODEL 2
REMARK VINA RESULT:     -13.0      4.164      8.335
REMARK SMILES Cc1nnc(SCC(=O)Nc2cccc(C(=O)NCCCCNC(=O)c3ccc(-c4c5nc(c(-c6c(F)cccc6F)c6ccc([nH]6)c(-c6c(F)cccc6F)c6nc(c(-c7c(F)cccc7F)c7ccc4[nH]7)C=C6)C=C5)cc3)c2)n1-c1ccccc1
REMARK SMILES IDX 19 1 18 2 16 3 17 4 15 6 11 7 12 8 80 9 13 10 14 11 10 12
REMARK SMILES IDX 8 13 9 14 7 16 6 17 5 18 1 19 2 20 3 21 81 22 4 23 82 24
REMARK SMILES IDX 83 25 87 26 84 27 86 28 85 29 20 30 21 31 22 32 23 33 24 34
REMARK SMILES IDX 25 36 26 37 27 38 79 39 28 40 78 41 29 42 30 43 31 44 72 45
REMARK SMILES IDX 32 46 77 47 71 48 73 49 33 50 76 51 70 52 69 53 34 55 60 56
REMARK SMILES IDX 43 57 59 58 44 59 47 60 58 61 74 62 45 63 46 64 57 66 75 67
REMARK SMILES IDX 48 68 35 69 36 70 41 71 37 72 38 73 40 74 42 75 39 76 61 77
REMARK SMILES IDX 62 78 67 79 63 80 64 81 66 82 68 83 65 84 49 85 50 86 55 87
REMARK SMILES IDX 51 88 52 89 54 90 56 91 53 92
REMARK H PARENT 18 5 10 15 23 35 73 54 47 65
REMARK Flexibility Score: inf
ROOT
ATOM      1  C   UNL A   1      33.611  32.434  27.599  1.00  0.00     0.116 C 
ENDROOT
BRANCH   1   2
ATOM      2  N   UNL A   1      34.233  31.168  27.963  1.00  0.00    -0.352 N 
ATOM      3  C   UNL A   1      34.168  29.912  27.385  1.00  0.00     0.251 C 
ATOM      4  O   UNL A   1      34.846  29.013  27.886  1.00  0.00    -0.269 OA
ATOM      5  H   UNL A   1      34.802  31.214  28.766  1.00  0.00     0.163 HD
BRANCH   3   6
ATOM      6  C   UNL A   1      33.291  29.562  26.223  1.00  0.00     0.041 A 
ATOM      7  C   UNL A   1      32.880  28.553  24.053  1.00  0.00     0.041 A 
ATOM      8  C   UNL A   1      31.632  29.179  23.992  1.00  0.00     0.026 A 
ATOM      9  C   UNL A   1      33.682  28.719  25.181  1.00  0.00     0.040 A 
ATOM     10  C   UNL A   1      31.165  29.904  25.082  1.00  0.00     0.003 A 
ATOM     11  C   UNL A   1      31.994  30.098  26.190  1.00  0.00     0.014 A 
BRANCH   7  12
ATOM     12  N   UNL A   1      33.291  27.866  22.911  1.00  0.00    -0.325 N 
ATOM     13  C   UNL A   1      33.001  26.638  22.409  1.00  0.00     0.234 C 
ATOM     14  O   UNL A   1      33.646  26.328  21.401  1.00  0.00    -0.274 OA
ATOM     15  H   UNL A   1      33.920  28.378  22.353  1.00  0.00     0.169 HD
BRANCH  13  16
ATOM     16  C   UNL A   1      31.807  25.824  22.855  1.00  0.00     0.178 C 
BRANCH  16  17
ATOM     17  S   UNL A   1      31.993  24.108  23.347  1.00  0.00    -0.076 SA
BRANCH  17  18
ATOM     18  C   UNL A   1      32.131  23.995  25.068  1.00  0.00     0.196 A 
ATOM     19  C   UNL A   1      33.294  22.205  27.999  1.00  0.00     0.090 C 
ATOM     20  C   UNL A   1      32.616  23.027  26.973  1.00  0.00     0.135 A 
ATOM     21  N   UNL A   1      31.420  23.576  27.082  1.00  0.00    -0.134 NA
ATOM     22  N   UNL A   1      33.134  23.322  25.730  1.00  0.00    -0.274 N 
ATOM     23  N   UNL A   1      31.117  24.172  25.884  1.00  0.00    -0.123 NA
BRANCH  22  24
ATOM     24  C   UNL A   1      34.442  23.146  25.268  1.00  0.00     0.049 A 
ATOM     25  C   UNL A   1      34.775  21.887  24.769  1.00  0.00     0.027 A 
ATOM     26  C   UNL A   1      35.420  24.080  25.599  1.00  0.00     0.027 A 
ATOM     27  C   UNL A   1      36.111  21.508  24.709  1.00  0.00     0.002 A 
ATOM     28  C   UNL A   1      36.759  23.704  25.493  1.00  0.00     0.002 A 
ATOM     29  C   UNL A   1      37.102  22.410  25.085  1.00  0.00     0.000 A 
ENDBRANCH  22  24
ENDBRANCH  17  18
ENDBRANCH  16  17
ENDBRANCH  13  16
ENDBRANCH   7  12
ENDBRANCH   3   6
ENDBRANCH   1   2
BRANCH   1  30
ATOM     30  C   UNL A   1      33.953  33.648  28.475  1.00  0.00     0.023 C 
BRANCH  30  31
ATOM     31  C   UNL A   1      32.908  34.748  28.708  1.00  0.00     0.023 C 
BRANCH  31  32
ATOM     32  C   UNL A   1      33.318  35.953  29.544  1.00  0.00     0.116 C 
BRANCH  32  33
ATOM     33  N   UNL A   1      32.547  36.200  30.763  1.00  0.00    -0.352 N 
ATOM     34  C   UNL A   1      32.676  35.543  31.986  1.00  0.00     0.251 C 
ATOM     35  H   UNL A   1      31.863  36.905  30.713  1.00  0.00     0.163 HD
ATOM     36  O   UNL A   1      31.859  35.636  32.878  1.00  0.00    -0.269 OA
BRANCH  34  37
ATOM     37  C   UNL A   1      33.908  34.748  32.196  1.00  0.00     0.039 A 
ATOM     38  C   UNL A   1      33.933  33.354  32.095  1.00  0.00     0.014 A 
ATOM     39  C   UNL A   1      35.074  35.464  32.449  1.00  0.00     0.014 A 
ATOM     40  C   UNL A   1      35.167  32.702  32.127  1.00  0.00     0.010 A 
ATOM     41  C   UNL A   1      36.291  34.843  32.327  1.00  0.00     0.010 A 
ATOM     42  C   UNL A   1      36.349  33.459  32.205  1.00  0.00    -0.014 A 
BRANCH  42  43
ATOM     43  C   UNL A   1      37.658  32.834  32.017  1.00  0.00     0.031 A 
ATOM     44  C   UNL A   1      38.480  32.705  33.259  1.00  0.00     0.074 A 
ATOM     45  C   UNL A   1      38.006  32.179  30.887  1.00  0.00     0.049 A 
ATOM     46  N   UNL A   1      39.619  33.256  33.519  1.00  0.00    -0.248 NA
ATOM     47  C   UNL A   1      37.913  31.958  34.395  1.00  0.00     0.031 C 
ATOM     48  C   UNL A   1      37.187  31.906  29.700  1.00  0.00     0.029 A 
ATOM     49  N   UNL A   1      39.154  31.504  30.610  1.00  0.00    -0.354 N 
ATOM     50  C   UNL A   1      40.008  32.780  34.772  1.00  0.00     0.074 A 
ATOM     51  C   UNL A   1      38.852  32.128  35.328  1.00  0.00     0.031 C 
ATOM     52  C   UNL A   1      37.765  30.933  28.963  1.00  0.00     0.029 A 
ATOM     53  C   UNL A   1      39.071  30.642  29.523  1.00  0.00     0.049 A 
ATOM     54  H   UNL A   1      39.978  31.616  31.138  1.00  0.00     0.167 HD
ATOM     55  C   UNL A   1      41.317  32.769  35.152  1.00  0.00     0.037 A 
ATOM     56  C   UNL A   1      39.999  29.734  29.132  1.00  0.00     0.037 A 
ATOM     57  C   UNL A   1      42.113  33.606  34.290  1.00  0.00     0.049 A 
ATOM     58  C   UNL A   1      41.285  30.117  29.767  1.00  0.00     0.074 A 
ATOM     59  C   UNL A   1      42.100  34.945  33.947  1.00  0.00     0.029 A 
ATOM     60  N   UNL A   1      42.875  32.987  33.328  1.00  0.00    -0.354 N 
ATOM     61  N   UNL A   1      41.959  31.188  29.456  1.00  0.00    -0.248 NA
ATOM     62  C   UNL A   1      41.583  29.548  31.072  1.00  0.00     0.031 C 
ATOM     63  C   UNL A   1      42.402  34.967  32.554  1.00  0.00     0.029 A 
ATOM     64  C   UNL A   1      42.657  33.655  32.152  1.00  0.00     0.049 A 
ATOM     65  H   UNL A   1      43.466  32.211  33.459  1.00  0.00     0.167 HD
ATOM     66  C   UNL A   1      42.420  31.677  30.670  1.00  0.00     0.074 A 
ATOM     67  C   UNL A   1      42.236  30.578  31.616  1.00  0.00     0.031 C 
ATOM     68  C   UNL A   1      42.633  33.012  30.859  1.00  0.00     0.037 A 
BRANCH  55  69
ATOM     69  C   UNL A   1      41.956  31.736  36.053  1.00  0.00     0.057 A 
ATOM     70  C   UNL A   1      42.777  32.165  37.114  1.00  0.00     0.134 A 
ATOM     71  C   UNL A   1      42.051  30.364  35.746  1.00  0.00     0.134 A 
ATOM     72  F   UNL A   1      42.784  33.448  37.506  1.00  0.00    -0.206 F 
ATOM     73  C   UNL A   1      43.690  31.316  37.752  1.00  0.00     0.040 A 
ATOM     74  C   UNL A   1      42.921  29.496  36.413  1.00  0.00     0.040 A 
ATOM     75  F   UNL A   1      41.390  29.809  34.723  1.00  0.00    -0.206 F 
ATOM     76  C   UNL A   1      43.772  29.977  37.394  1.00  0.00     0.006 A 
ENDBRANCH  55  69
BRANCH  56  77
ATOM     77  C   UNL A   1      39.797  28.417  28.490  1.00  0.00     0.057 A 
ATOM     78  C   UNL A   1      40.354  28.127  27.236  1.00  0.00     0.134 A 
ATOM     79  C   UNL A   1      39.294  27.318  29.210  1.00  0.00     0.134 A 
ATOM     80  F   UNL A   1      40.892  29.102  26.489  1.00  0.00    -0.206 F 
ATOM     81  C   UNL A   1      40.434  26.818  26.740  1.00  0.00     0.040 A 
ATOM     82  C   UNL A   1      39.362  26.008  28.724  1.00  0.00     0.040 A 
ATOM     83  F   UNL A   1      38.801  27.470  30.448  1.00  0.00    -0.206 F 
ATOM     84  C   UNL A   1      39.949  25.752  27.491  1.00  0.00     0.006 A 
ENDBRANCH  56  77
BRANCH  68  85
ATOM     85  C   UNL A   1      42.596  33.917  29.658  1.00  0.00     0.057 A 
ATOM     86  C   UNL A   1      41.476  34.666  29.263  1.00  0.00     0.134 A 
ATOM     87  C   UNL A   1      43.789  34.160  28.969  1.00  0.00     0.134 A 
ATOM     88  F   UNL A   1      40.315  34.582  29.923  1.00  0.00    -0.206 F 
ATOM     89  C   UNL A   1      41.534  35.581  28.207  1.00  0.00     0.040 A 
ATOM     90  C   UNL A   1      43.869  35.096  27.936  1.00  0.00     0.040 A 
ATOM     91  F   UNL A   1      44.917  33.524  29.325  1.00  0.00    -0.206 F 
ATOM     92  C   UNL A   1      42.736  35.804  27.544  1.00  0.00     0.006 A 
ENDBRANCH  68  85
ENDBRANCH  42  43
ENDBRANCH  34  37
ENDBRANCH  32  33
ENDBRANCH  31  32
ENDBRANCH  30  31
ENDBRANCH   1  30
TORSDOF 16
ENDMDL
MODEL 3
REMARK VINA RESULT:     -12.9      2.783      7.660
REMARK SMILES Cc1nnc(SCC(=O)Nc2cccc(C(=O)NCCCCNC(=O)c3ccc(-c4c5nc(c(-c6c(F)cccc6F)c6ccc([nH]6)c(-c6c(F)cccc6F)c6nc(c(-c7c(F)cccc7F)c7ccc4[nH]7)C=C6)C=C5)cc3)c2)n1-c1ccccc1
REMARK SMILES IDX 19 1 18 2 16 3 17 4 15 6 11 7 12 8 80 9 13 10 14 11 10 12
REMARK SMILES IDX 8 13 9 14 7 16 6 17 5 18 1 19 2 20 3 21 81 22 4 23 82 24
REMARK SMILES IDX 83 25 87 26 84 27 86 28 85 29 20 30 21 31 22 32 23 33 24 34
REMARK SMILES IDX 25 36 26 37 27 38 79 39 28 40 78 41 29 42 30 43 31 44 72 45
REMARK SMILES IDX 32 46 77 47 71 48 73 49 33 50 76 51 70 52 69 53 34 55 60 56
REMARK SMILES IDX 43 57 59 58 44 59 47 60 58 61 74 62 45 63 46 64 57 66 75 67
REMARK SMILES IDX 48 68 35 69 36 70 41 71 37 72 38 73 40 74 42 75 39 76 61 77
REMARK SMILES IDX 62 78 67 79 63 80 64 81 66 82 68 83 65 84 49 85 50 86 55 87
REMARK SMILES IDX 51 88 52 89 54 90 56 91 53 92
REMARK H PARENT 18 5 10 15 23 35 73 54 47 65
REMARK Flexibility Score: inf
ROOT
ATOM      1  C   UNL A   1      37.643  23.271  25.943  1.00  0.00     0.116 C 
ENDROOT
BRANCH   1   2
ATOM      2  N   UNL A   1      37.144  23.494  24.593  1.00  0.00    -0.352 N 
ATOM      3  C   UNL A   1      35.982  23.082  23.962  1.00  0.00     0.251 C 
ATOM      4  O   UNL A   1      35.791  23.462  22.806  1.00  0.00    -0.269 OA
ATOM      5  H   UNL A   1      37.740  24.034  24.026  1.00  0.00     0.163 HD
BRANCH   3   6
ATOM      6  C   UNL A   1      34.968  22.166  24.575  1.00  0.00     0.041 A 
ATOM      7  C   UNL A   1      32.961  21.719  25.866  1.00  0.00     0.041 A 
ATOM      8  C   UNL A   1      33.272  20.357  25.888  1.00  0.00     0.026 A 
ATOM      9  C   UNL A   1      33.789  22.606  25.180  1.00  0.00     0.040 A 
ATOM     10  C   UNL A   1      34.362  19.882  25.170  1.00  0.00     0.003 A 
ATOM     11  C   UNL A   1      35.209  20.784  24.521  1.00  0.00     0.014 A 
BRANCH   7  12
ATOM     12  N   UNL A   1      31.868  22.123  26.632  1.00  0.00    -0.325 N 
ATOM     13  C   UNL A   1      30.925  23.087  26.472  1.00  0.00     0.234 C 
ATOM     14  O   UNL A   1      30.153  23.217  27.429  1.00  0.00    -0.274 OA
ATOM     15  H   UNL A   1      31.757  21.601  27.459  1.00  0.00     0.169 HD
BRANCH  13  16
ATOM     16  C   UNL A   1      30.647  23.759  25.146  1.00  0.00     0.178 C 
BRANCH  16  17
ATOM     17  S   UNL A   1      30.710  25.545  24.986  1.00  0.00    -0.076 SA
BRANCH  17  18
ATOM     18  C   UNL A   1      32.164  26.017  24.175  1.00  0.00     0.196 A 
ATOM     19  C   UNL A   1      34.235  28.623  22.734  1.00  0.00     0.090 C 
ATOM     20  C   UNL A   1      33.511  27.395  23.131  1.00  0.00     0.135 A 
ATOM     21  N   UNL A   1      33.475  26.261  22.455  1.00  0.00    -0.134 NA
ATOM     22  N   UNL A   1      32.743  27.264  24.267  1.00  0.00    -0.274 N 
ATOM     23  N   UNL A   1      32.623  25.406  23.107  1.00  0.00    -0.123 NA
BRANCH  22  24
ATOM     24  C   UNL A   1      32.675  28.116  25.375  1.00  0.00     0.049 A 
ATOM     25  C   UNL A   1      31.790  29.192  25.295  1.00  0.00     0.027 A 
ATOM     26  C   UNL A   1      33.671  28.063  26.346  1.00  0.00     0.027 A 
ATOM     27  C   UNL A   1      31.976  30.291  26.125  1.00  0.00     0.002 A 
ATOM     28  C   UNL A   1      33.821  29.154  27.202  1.00  0.00     0.002 A 
ATOM     29  C   UNL A   1      33.001  30.279  27.067  1.00  0.00     0.000 A 
ENDBRANCH  22  24
ENDBRANCH  17  18
ENDBRANCH  16  17
ENDBRANCH  13  16
ENDBRANCH   7  12
ENDBRANCH   3   6
ENDBRANCH   1   2
BRANCH   1  30
ATOM     30  C   UNL A   1      38.964  22.500  26.072  1.00  0.00     0.023 C 
BRANCH  30  31
ATOM     31  C   UNL A   1      39.089  21.084  25.494  1.00  0.00     0.023 C 
BRANCH  31  32
ATOM     32  C   UNL A   1      39.651  19.994  26.397  1.00  0.00     0.116 C 
BRANCH  32  33
ATOM     33  N   UNL A   1      40.784  19.229  25.876  1.00  0.00    -0.352 N 
ATOM     34  C   UNL A   1      42.088  19.686  25.682  1.00  0.00     0.251 C 
ATOM     35  H   UNL A   1      40.607  18.292  25.636  1.00  0.00     0.163 HD
ATOM     36  O   UNL A   1      42.915  19.075  25.038  1.00  0.00    -0.269 OA
BRANCH  34  37
ATOM     37  C   UNL A   1      42.465  20.950  26.354  1.00  0.00     0.039 A 
ATOM     38  C   UNL A   1      42.794  22.111  25.648  1.00  0.00     0.014 A 
ATOM     39  C   UNL A   1      42.424  20.951  27.745  1.00  0.00     0.014 A 
ATOM     40  C   UNL A   1      42.958  23.302  26.358  1.00  0.00     0.010 A 
ATOM     41  C   UNL A   1      42.433  22.143  28.423  1.00  0.00     0.010 A 
ATOM     42  C   UNL A   1      42.737  23.319  27.745  1.00  0.00    -0.014 A 
BRANCH  42  43
ATOM     43  C   UNL A   1      42.680  24.580  28.485  1.00  0.00     0.031 A 
ATOM     44  C   UNL A   1      41.424  25.367  28.294  1.00  0.00     0.074 A 
ATOM     45  C   UNL A   1      43.551  24.896  29.469  1.00  0.00     0.049 A 
ATOM     46  N   UNL A   1      41.294  26.540  27.770  1.00  0.00    -0.248 NA
ATOM     47  C   UNL A   1      40.142  24.725  28.629  1.00  0.00     0.031 C 
ATOM     48  C   UNL A   1      44.636  24.079  30.026  1.00  0.00     0.029 A 
ATOM     49  N   UNL A   1      43.571  25.993  30.272  1.00  0.00    -0.354 N 
ATOM     50  C   UNL A   1      39.942  26.870  27.876  1.00  0.00     0.074 A 
ATOM     51  C   UNL A   1      39.264  25.658  28.253  1.00  0.00     0.031 C 
ATOM     52  C   UNL A   1      45.029  24.593  31.211  1.00  0.00     0.029 A 
ATOM     53  C   UNL A   1      44.357  25.863  31.411  1.00  0.00     0.049 A 
ATOM     54  H   UNL A   1      43.068  26.814  30.065  1.00  0.00     0.167 HD
ATOM     55  C   UNL A   1      39.524  28.168  27.863  1.00  0.00     0.037 A 
ATOM     56  C   UNL A   1      44.425  26.726  32.455  1.00  0.00     0.037 A 
ATOM     57  C   UNL A   1      40.564  29.041  27.377  1.00  0.00     0.049 A 
ATOM     58  C   UNL A   1      43.882  28.026  31.989  1.00  0.00     0.074 A 
ATOM     59  C   UNL A   1      41.286  29.136  26.203  1.00  0.00     0.029 A 
ATOM     60  N   UNL A   1      41.269  29.769  28.305  1.00  0.00    -0.354 N 
ATOM     61  N   UNL A   1      44.469  28.785  31.107  1.00  0.00    -0.248 NA
ATOM     62  C   UNL A   1      42.456  28.257  32.163  1.00  0.00     0.031 C 
ATOM     63  C   UNL A   1      42.612  29.463  26.617  1.00  0.00     0.029 A 
ATOM     64  C   UNL A   1      42.597  29.623  28.003  1.00  0.00     0.049 A 
ATOM     65  H   UNL A   1      40.891  30.296  29.045  1.00  0.00     0.167 HD
ATOM     66  C   UNL A   1      43.437  29.261  30.312  1.00  0.00     0.074 A 
ATOM     67  C   UNL A   1      42.216  28.977  31.064  1.00  0.00     0.031 C 
ATOM     68  C   UNL A   1      43.643  29.572  28.999  1.00  0.00     0.037 A 
BRANCH  55  69
ATOM     69  C   UNL A   1      38.334  28.710  28.622  1.00  0.00     0.057 A 
ATOM     70  C   UNL A   1      37.514  29.678  28.011  1.00  0.00     0.134 A 
ATOM     71  C   UNL A   1      38.140  28.557  30.009  1.00  0.00     0.134 A 
ATOM     72  F   UNL A   1      37.600  29.924  26.695  1.00  0.00    -0.206 F 
ATOM     73  C   UNL A   1      36.641  30.496  28.740  1.00  0.00     0.040 A 
ATOM     74  C   UNL A   1      37.233  29.333  30.738  1.00  0.00     0.040 A 
ATOM     75  F   UNL A   1      38.884  27.730  30.753  1.00  0.00    -0.206 F 
ATOM     76  C   UNL A   1      36.506  30.332  30.112  1.00  0.00     0.006 A 
ENDBRANCH  55  69
BRANCH  56  77
ATOM     77  C   UNL A   1      44.657  26.434  33.887  1.00  0.00     0.057 A 
ATOM     78  C   UNL A   1      43.646  25.889  34.691  1.00  0.00     0.134 A 
ATOM     79  C   UNL A   1      45.953  26.418  34.433  1.00  0.00     0.134 A 
ATOM     80  F   UNL A   1      42.382  25.826  34.244  1.00  0.00    -0.206 F 
ATOM     81  C   UNL A   1      43.911  25.333  35.949  1.00  0.00     0.040 A 
ATOM     82  C   UNL A   1      46.232  25.872  35.690  1.00  0.00     0.040 A 
ATOM     83  F   UNL A   1      47.007  26.852  33.725  1.00  0.00    -0.206 F 
ATOM     84  C   UNL A   1      45.211  25.312  36.447  1.00  0.00     0.006 A 
ENDBRANCH  56  77
BRANCH  68  85
ATOM     85  C   UNL A   1      45.058  29.626  28.493  1.00  0.00     0.057 A 
ATOM     86  C   UNL A   1      45.909  30.733  28.635  1.00  0.00     0.134 A 
ATOM     87  C   UNL A   1      45.630  28.455  27.985  1.00  0.00     0.134 A 
ATOM     88  F   UNL A   1      45.486  31.869  29.203  1.00  0.00    -0.206 F 
ATOM     89  C   UNL A   1      47.253  30.687  28.250  1.00  0.00     0.040 A 
ATOM     90  C   UNL A   1      46.979  28.384  27.630  1.00  0.00     0.040 A 
ATOM     91  F   UNL A   1      44.894  27.337  27.872  1.00  0.00    -0.206 F 
ATOM     92  C   UNL A   1      47.793  29.506  27.752  1.00  0.00     0.006 A 
ENDBRANCH  68  85
ENDBRANCH  42  43
ENDBRANCH  34  37
ENDBRANCH  32  33
ENDBRANCH  31  32
ENDBRANCH  30  31
ENDBRANCH   1  30
TORSDOF 16
ENDMDL
