MODEL 1
REMARK VINA RESULT:     -12.9      0.000      0.000
REMARK SMILES CCCN1C(=O)c2ccc(C(=O)Nc3ccc(OCC(=O)NCCCCNC(=O)c4ccc(-c5c6nc(c(-c7c(F)cccc7F)c7ccc([nH]7)c(-c7c(F)cccc7F)c7nc(c(-c8c(F)cccc8F)c8ccc5[nH]8)C=C7)C=C6)cc4)cc3C)cc2C1=O
REMARK SMILES IDX 20 1 21 2 22 3 19 5 18 6 17 7 14 8 15 9 85 10 16 11 84 12
REMARK SMILES IDX 86 13 13 14 11 15 12 16 10 18 4 19 5 20 89 21 6 22 7 23
REMARK SMILES IDX 88 24 90 25 8 26 87 27 9 28 3 29 2 30 1 31 23 32 24 33 25 34
REMARK SMILES IDX 26 35 27 36 28 37 29 39 30 40 31 41 83 42 32 43 82 44 33 45
REMARK SMILES IDX 34 46 35 47 76 48 36 49 81 50 75 51 77 52 37 53 80 54 74 55
REMARK SMILES IDX 73 56 38 58 64 59 47 60 63 61 48 62 51 63 62 64 78 65 49 66
REMARK SMILES IDX 50 67 61 69 79 70 52 71 39 72 40 73 45 74 41 75 42 76 44 77
REMARK SMILES IDX 46 78 43 79 65 80 66 81 71 82 67 83 68 84 70 85 72 86 69 87
REMARK SMILES IDX 53 88 54 89 59 90 55 91 56 92 58 93 60 94 57 95
REMARK H PARENT 22 4 13 17 27 38 77 57 51 68
REMARK Flexibility Score: inf
ROOT
ATOM      1  C   UNL A   1      32.048  32.266  26.872  1.00  0.00     0.257 C 
ATOM      2  O   UNL A   1      31.031  32.177  26.180  1.00  0.00    -0.271 OA
ATOM      3  N   UNL A   1      32.415  33.500  27.330  1.00  0.00    -0.353 N 
ATOM      4  H   UNL A   1      31.843  34.247  27.041  1.00  0.00     0.163 HD
ENDROOT
BRANCH   1   5
ATOM      5  C   UNL A   1      32.869  31.024  27.246  1.00  0.00     0.329 C 
BRANCH   5   6
ATOM      6  O   UNL A   1      32.172  29.790  27.304  1.00  0.00    -0.484 OA
BRANCH   6   7
ATOM      7  C   UNL A   1      32.248  28.962  26.219  1.00  0.00     0.120 A 
ATOM      8  C   UNL A   1      32.532  27.590  23.788  1.00  0.00     0.044 A 
ATOM      9  C   UNL A   1      33.573  28.389  24.274  1.00  0.00     0.030 A 
ATOM     10  C   UNL A   1      31.410  27.339  24.596  1.00  0.00    -0.024 A 
ATOM     11  C   UNL A   1      33.419  29.086  25.475  1.00  0.00     0.048 A 
ATOM     12  C   UNL A   1      31.281  28.043  25.811  1.00  0.00     0.052 A 
ATOM     13  C   UNL A   1      30.391  26.276  24.280  1.00  0.00     0.047 C 
BRANCH   8  14
ATOM     14  N   UNL A   1      32.658  27.164  22.456  1.00  0.00    -0.322 N 
ATOM     15  C   UNL A   1      33.155  25.974  21.951  1.00  0.00     0.255 C 
ATOM     16  O   UNL A   1      33.276  25.844  20.733  1.00  0.00    -0.269 OA
ATOM     17  H   UNL A   1      32.346  27.807  21.779  1.00  0.00     0.170 HD
BRANCH  15  18
ATOM     18  C   UNL A   1      33.463  24.799  22.824  1.00  0.00     0.041 A 
ATOM     19  N   UNL A   1      33.402  20.431  24.288  1.00  0.00    -0.274 N 
ATOM     20  C   UNL A   1      34.223  21.281  24.970  1.00  0.00     0.261 C 
ATOM     21  C   UNL A   1      32.685  21.095  23.316  1.00  0.00     0.261 C 
ATOM     22  O   UNL A   1      34.904  21.092  25.965  1.00  0.00    -0.269 OA
ATOM     23  C   UNL A   1      34.104  22.580  24.330  1.00  0.00     0.053 A 
ATOM     24  C   UNL A   1      33.162  22.484  23.326  1.00  0.00     0.054 A 
ATOM     25  O   UNL A   1      31.800  20.690  22.603  1.00  0.00    -0.269 OA
ATOM     26  C   UNL A   1      34.730  23.763  24.647  1.00  0.00     0.015 A 
ATOM     27  C   UNL A   1      32.811  23.580  22.554  1.00  0.00     0.028 A 
ATOM     28  C   UNL A   1      34.366  24.889  23.910  1.00  0.00     0.015 A 
BRANCH  19  29
ATOM     29  C   UNL A   1      33.173  19.050  24.670  1.00  0.00     0.129 C 
BRANCH  29  30
ATOM     30  C   UNL A   1      34.284  18.081  24.247  1.00  0.00     0.019 C 
ATOM     31  C   UNL A   1      33.796  16.692  23.858  1.00  0.00     0.006 C 
ENDBRANCH  29  30
ENDBRANCH  19  29
ENDBRANCH  15  18
ENDBRANCH   8  14
ENDBRANCH   6   7
ENDBRANCH   5   6
ENDBRANCH   1   5
BRANCH   3  32
ATOM     32  C   UNL A   1      33.533  33.863  28.182  1.00  0.00     0.116 C 
BRANCH  32  33
ATOM     33  C   UNL A   1      33.870  35.360  28.144  1.00  0.00     0.023 C 
BRANCH  33  34
ATOM     34  C   UNL A   1      33.244  36.213  29.249  1.00  0.00     0.023 C 
BRANCH  34  35
ATOM     35  C   UNL A   1      32.914  35.479  30.541  1.00  0.00     0.116 C 
BRANCH  35  36
ATOM     36  N   UNL A   1      33.692  35.879  31.712  1.00  0.00    -0.352 N 
ATOM     37  C   UNL A   1      34.662  35.171  32.412  1.00  0.00     0.251 C 
ATOM     38  H   UNL A   1      33.499  36.781  32.056  1.00  0.00     0.163 HD
ATOM     39  O   UNL A   1      35.203  35.683  33.389  1.00  0.00    -0.269 OA
BRANCH  37  40
ATOM     40  C   UNL A   1      35.180  33.885  31.874  1.00  0.00     0.039 A 
ATOM     41  C   UNL A   1      35.392  32.852  32.797  1.00  0.00     0.014 A 
ATOM     42  C   UNL A   1      35.815  33.855  30.643  1.00  0.00     0.014 A 
ATOM     43  C   UNL A   1      36.513  32.047  32.653  1.00  0.00     0.010 A 
ATOM     44  C   UNL A   1      37.002  33.174  30.562  1.00  0.00     0.010 A 
ATOM     45  C   UNL A   1      37.386  32.336  31.610  1.00  0.00    -0.014 A 
BRANCH  45  46
ATOM     46  C   UNL A   1      38.706  31.759  31.471  1.00  0.00     0.031 A 
ATOM     47  C   UNL A   1      38.802  30.506  30.713  1.00  0.00     0.074 A 
ATOM     48  C   UNL A   1      39.784  32.436  31.923  1.00  0.00     0.049 A 
ATOM     49  N   UNL A   1      39.750  29.651  30.834  1.00  0.00    -0.248 NA
ATOM     50  C   UNL A   1      37.772  30.094  29.764  1.00  0.00     0.031 C 
ATOM     51  C   UNL A   1      41.195  32.156  31.684  1.00  0.00     0.029 A 
ATOM     52  N   UNL A   1      39.797  33.453  32.881  1.00  0.00    -0.354 N 
ATOM     53  C   UNL A   1      39.620  28.741  29.809  1.00  0.00     0.074 A 
ATOM     54  C   UNL A   1      38.336  29.018  29.216  1.00  0.00     0.031 C 
ATOM     55  C   UNL A   1      41.924  32.737  32.653  1.00  0.00     0.029 A 
ATOM     56  C   UNL A   1      40.997  33.312  33.613  1.00  0.00     0.049 A 
ATOM     57  H   UNL A   1      39.103  34.138  33.018  1.00  0.00     0.167 HD
ATOM     58  C   UNL A   1      40.694  27.960  29.499  1.00  0.00     0.037 A 
ATOM     59  C   UNL A   1      40.948  33.002  34.944  1.00  0.00     0.037 A 
ATOM     60  C   UNL A   1      41.766  28.185  30.473  1.00  0.00     0.049 A 
ATOM     61  C   UNL A   1      41.436  31.598  35.210  1.00  0.00     0.074 A 
ATOM     62  C   UNL A   1      42.847  29.053  30.468  1.00  0.00     0.029 A 
ATOM     63  N   UNL A   1      41.564  27.820  31.804  1.00  0.00    -0.354 N 
ATOM     64  N   UNL A   1      41.538  30.682  34.284  1.00  0.00    -0.248 NA
ATOM     65  C   UNL A   1      41.880  31.127  36.518  1.00  0.00     0.031 C 
ATOM     66  C   UNL A   1      43.203  29.312  31.819  1.00  0.00     0.029 A 
ATOM     67  C   UNL A   1      42.372  28.571  32.643  1.00  0.00     0.049 A 
ATOM     68  H   UNL A   1      40.935  27.125  32.105  1.00  0.00     0.167 HD
ATOM     69  C   UNL A   1      42.060  29.542  34.825  1.00  0.00     0.074 A 
ATOM     70  C   UNL A   1      42.263  29.871  36.226  1.00  0.00     0.031 C 
ATOM     71  C   UNL A   1      42.304  28.416  34.091  1.00  0.00     0.037 A 
BRANCH  58  72
ATOM     72  C   UNL A   1      40.865  27.285  28.158  1.00  0.00     0.057 A 
ATOM     73  C   UNL A   1      40.277  26.029  27.910  1.00  0.00     0.134 A 
ATOM     74  C   UNL A   1      41.643  27.777  27.094  1.00  0.00     0.134 A 
ATOM     75  F   UNL A   1      39.447  25.456  28.791  1.00  0.00    -0.206 F 
ATOM     76  C   UNL A   1      40.520  25.287  26.745  1.00  0.00     0.040 A 
ATOM     77  C   UNL A   1      41.937  27.024  25.946  1.00  0.00     0.040 A 
ATOM     78  F   UNL A   1      42.114  29.030  27.089  1.00  0.00    -0.206 F 
ATOM     79  C   UNL A   1      41.379  25.767  25.771  1.00  0.00     0.006 A 
ENDBRANCH  58  72
BRANCH  59  80
ATOM     80  C   UNL A   1      39.816  33.705  35.623  1.00  0.00     0.057 A 
ATOM     81  C   UNL A   1      38.741  32.878  36.010  1.00  0.00     0.134 A 
ATOM     82  C   UNL A   1      40.047  34.849  36.390  1.00  0.00     0.134 A 
ATOM     83  F   UNL A   1      38.416  31.808  35.266  1.00  0.00    -0.206 F 
ATOM     84  C   UNL A   1      38.149  32.999  37.268  1.00  0.00     0.040 A 
ATOM     85  C   UNL A   1      39.410  35.012  37.625  1.00  0.00     0.040 A 
ATOM     86  F   UNL A   1      40.997  35.728  36.043  1.00  0.00    -0.206 F 
ATOM     87  C   UNL A   1      38.535  34.037  38.108  1.00  0.00     0.006 A 
ENDBRANCH  59  80
BRANCH  71  88
ATOM     88  C   UNL A   1      42.635  27.086  34.706  1.00  0.00     0.057 A 
ATOM     89  C   UNL A   1      41.668  26.123  35.030  1.00  0.00     0.134 A 
ATOM     90  C   UNL A   1      43.974  26.686  34.879  1.00  0.00     0.134 A 
ATOM     91  F   UNL A   1      40.367  26.321  34.774  1.00  0.00    -0.206 F 
ATOM     92  C   UNL A   1      42.004  24.890  35.594  1.00  0.00     0.040 A 
ATOM     93  C   UNL A   1      44.324  25.431  35.380  1.00  0.00     0.040 A 
ATOM     94  F   UNL A   1      44.999  27.487  34.552  1.00  0.00    -0.206 F 
ATOM     95  C   UNL A   1      43.337  24.538  35.768  1.00  0.00     0.006 A 
ENDBRANCH  71  88
ENDBRANCH  45  46
ENDBRANCH  37  40
ENDBRANCH  35  36
ENDBRANCH  34  35
ENDBRANCH  33  34
ENDBRANCH  32  33
ENDBRANCH   3  32
TORSDOF 17
ENDMDL
MODEL 2
REMARK VINA RESULT:     -12.4      1.956      3.758
REMARK SMILES CCCN1C(=O)c2ccc(C(=O)Nc3ccc(OCC(=O)NCCCCNC(=O)c4ccc(-c5c6nc(c(-c7c(F)cccc7F)c7ccc([nH]7)c(-c7c(F)cccc7F)c7nc(c(-c8c(F)cccc8F)c8ccc5[nH]8)C=C7)C=C6)cc4)cc3C)cc2C1=O
REMARK SMILES IDX 20 1 21 2 22 3 19 5 18 6 17 7 14 8 15 9 85 10 16 11 84 12
REMARK SMILES IDX 86 13 13 14 11 15 12 16 10 18 4 19 5 20 89 21 6 22 7 23
REMARK SMILES IDX 88 24 90 25 8 26 87 27 9 28 3 29 2 30 1 31 23 32 24 33 25 34
REMARK SMILES IDX 26 35 27 36 28 37 29 39 30 40 31 41 83 42 32 43 82 44 33 45
REMARK SMILES IDX 34 46 35 47 76 48 36 49 81 50 75 51 77 52 37 53 80 54 74 55
REMARK SMILES IDX 73 56 38 58 64 59 47 60 63 61 48 62 51 63 62 64 78 65 49 66
REMARK SMILES IDX 50 67 61 69 79 70 52 71 39 72 40 73 45 74 41 75 42 76 44 77
REMARK SMILES IDX 46 78 43 79 65 80 66 81 71 82 67 83 68 84 70 85 72 86 69 87
REMARK SMILES IDX 53 88 54 89 59 90 55 91 56 92 58 93 60 94 57 95
REMARK H PARENT 22 4 13 17 27 38 77 57 51 68
REMARK Flexibility Score: inf
ROOT
ATOM      1  C   UNL A   1      33.458  28.712  23.191  1.00  0.00     0.257 C 
ATOM      2  O   UNL A   1      34.242  28.555  22.252  1.00  0.00    -0.271 OA
ATOM      3  N   UNL A   1      33.973  28.955  24.433  1.00  0.00    -0.353 N 
ATOM      4  H   UNL A   1      34.956  28.957  24.492  1.00  0.00     0.163 HD
ENDROOT
BRANCH   1   5
ATOM      5  C   UNL A   1      31.938  28.673  22.976  1.00  0.00     0.329 C 
BRANCH   5   6
ATOM      6  O   UNL A   1      31.410  27.512  22.354  1.00  0.00    -0.484 OA
BRANCH   6   7
ATOM      7  C   UNL A   1      31.579  26.314  22.991  1.00  0.00     0.120 A 
ATOM      8  C   UNL A   1      31.822  23.687  23.944  1.00  0.00     0.044 A 
ATOM      9  C   UNL A   1      32.441  24.064  22.746  1.00  0.00     0.030 A 
ATOM     10  C   UNL A   1      31.221  24.663  24.757  1.00  0.00    -0.024 A 
ATOM     11  C   UNL A   1      32.300  25.368  22.266  1.00  0.00     0.048 A 
ATOM     12  C   UNL A   1      31.100  25.977  24.257  1.00  0.00     0.052 A 
ATOM     13  C   UNL A   1      30.793  24.401  26.176  1.00  0.00     0.047 C 
BRANCH   8  14
ATOM     14  N   UNL A   1      31.775  22.307  24.201  1.00  0.00    -0.322 N 
ATOM     15  C   UNL A   1      32.781  21.449  24.612  1.00  0.00     0.255 C 
ATOM     16  O   UNL A   1      32.550  20.241  24.677  1.00  0.00    -0.269 OA
ATOM     17  H   UNL A   1      30.895  21.886  24.069  1.00  0.00     0.170 HD
BRANCH  15  18
ATOM     18  C   UNL A   1      34.115  21.941  25.076  1.00  0.00     0.041 A 
ATOM     19  N   UNL A   1      38.673  21.942  25.744  1.00  0.00    -0.274 N 
ATOM     20  C   UNL A   1      38.012  23.074  26.121  1.00  0.00     0.261 C 
ATOM     21  C   UNL A   1      37.801  20.975  25.293  1.00  0.00     0.261 C 
ATOM     22  O   UNL A   1      38.422  24.078  26.679  1.00  0.00    -0.269 OA
ATOM     23  C   UNL A   1      36.610  22.865  25.800  1.00  0.00     0.053 A 
ATOM     24  C   UNL A   1      36.465  21.585  25.304  1.00  0.00     0.054 A 
ATOM     25  O   UNL A   1      38.018  19.829  24.984  1.00  0.00    -0.269 OA
ATOM     26  C   UNL A   1      35.543  23.712  25.988  1.00  0.00     0.015 A 
ATOM     27  C   UNL A   1      35.226  21.087  24.936  1.00  0.00     0.028 A 
ATOM     28  C   UNL A   1      34.280  23.219  25.661  1.00  0.00     0.015 A 
BRANCH  19  29
ATOM     29  C   UNL A   1      40.089  21.719  25.974  1.00  0.00     0.129 C 
BRANCH  29  30
ATOM     30  C   UNL A   1      40.513  21.795  27.447  1.00  0.00     0.019 C 
ATOM     31  C   UNL A   1      41.979  21.470  27.699  1.00  0.00     0.006 C 
ENDBRANCH  29  30
ENDBRANCH  19  29
ENDBRANCH  15  18
ENDBRANCH   8  14
ENDBRANCH   6   7
ENDBRANCH   5   6
ENDBRANCH   1   5
BRANCH   3  32
ATOM     32  C   UNL A   1      33.273  29.209  25.679  1.00  0.00     0.116 C 
BRANCH  32  33
ATOM     33  C   UNL A   1      34.040  28.729  26.919  1.00  0.00     0.023 C 
BRANCH  33  34
ATOM     34  C   UNL A   1      35.318  29.501  27.253  1.00  0.00     0.023 C 
BRANCH  34  35
ATOM     35  C   UNL A   1      35.286  30.300  28.548  1.00  0.00     0.116 C 
BRANCH  35  36
ATOM     36  N   UNL A   1      34.374  31.444  28.563  1.00  0.00    -0.352 N 
ATOM     37  C   UNL A   1      34.494  32.659  29.225  1.00  0.00     0.251 C 
ATOM     38  H   UNL A   1      33.557  31.335  28.026  1.00  0.00     0.163 HD
ATOM     39  O   UNL A   1      33.606  33.501  29.118  1.00  0.00    -0.269 OA
BRANCH  37  40
ATOM     40  C   UNL A   1      35.769  33.018  29.901  1.00  0.00     0.039 A 
ATOM     41  C   UNL A   1      36.730  33.683  29.127  1.00  0.00     0.014 A 
ATOM     42  C   UNL A   1      36.146  32.364  31.062  1.00  0.00     0.014 A 
ATOM     43  C   UNL A   1      38.067  33.347  29.290  1.00  0.00     0.010 A 
ATOM     44  C   UNL A   1      37.437  31.908  31.139  1.00  0.00     0.010 A 
ATOM     45  C   UNL A   1      38.374  32.339  30.197  1.00  0.00    -0.014 A 
BRANCH  45  46
ATOM     46  C   UNL A   1      39.672  31.708  30.303  1.00  0.00     0.031 A 
ATOM     47  C   UNL A   1      39.826  30.402  29.649  1.00  0.00     0.074 A 
ATOM     48  C   UNL A   1      40.697  32.375  30.876  1.00  0.00     0.049 A 
ATOM     49  N   UNL A   1      40.704  29.525  29.970  1.00  0.00    -0.248 NA
ATOM     50  C   UNL A   1      38.937  29.963  28.578  1.00  0.00     0.031 C 
ATOM     51  C   UNL A   1      42.114  32.030  30.879  1.00  0.00     0.029 A 
ATOM     52  N   UNL A   1      40.609  33.455  31.758  1.00  0.00    -0.354 N 
ATOM     53  C   UNL A   1      40.693  28.551  28.997  1.00  0.00     0.074 A 
ATOM     54  C   UNL A   1      39.529  28.832  28.194  1.00  0.00     0.031 C 
ATOM     55  C   UNL A   1      42.711  32.650  31.912  1.00  0.00     0.029 A 
ATOM     56  C   UNL A   1      41.674  33.321  32.677  1.00  0.00     0.049 A 
ATOM     57  H   UNL A   1      39.934  34.172  31.742  1.00  0.00     0.167 HD
ATOM     58  C   UNL A   1      41.764  27.714  28.908  1.00  0.00     0.037 A 
ATOM     59  C   UNL A   1      41.406  33.106  34.001  1.00  0.00     0.037 A 
ATOM     60  C   UNL A   1      42.683  27.968  30.022  1.00  0.00     0.049 A 
ATOM     61  C   UNL A   1      41.783  31.708  34.427  1.00  0.00     0.074 A 
ATOM     62  C   UNL A   1      43.790  28.794  30.133  1.00  0.00     0.029 A 
ATOM     63  N   UNL A   1      42.262  27.702  31.325  1.00  0.00    -0.354 N 
ATOM     64  N   UNL A   1      41.985  30.727  33.588  1.00  0.00    -0.248 NA
ATOM     65  C   UNL A   1      41.998  31.312  35.815  1.00  0.00     0.031 C 
ATOM     66  C   UNL A   1      43.945  29.133  31.504  1.00  0.00     0.029 A 
ATOM     67  C   UNL A   1      42.964  28.480  32.232  1.00  0.00     0.049 A 
ATOM     68  H   UNL A   1      41.563  27.052  31.567  1.00  0.00     0.167 HD
ATOM     69  C   UNL A   1      42.364  29.609  34.273  1.00  0.00     0.074 A 
ATOM     70  C   UNL A   1      42.364  30.026  35.665  1.00  0.00     0.031 C 
ATOM     71  C   UNL A   1      42.667  28.427  33.658  1.00  0.00     0.037 A 
BRANCH  58  72
ATOM     72  C   UNL A   1      42.109  26.942  27.656  1.00  0.00     0.057 A 
ATOM     73  C   UNL A   1      42.651  27.603  26.535  1.00  0.00     0.134 A 
ATOM     74  C   UNL A   1      41.877  25.569  27.457  1.00  0.00     0.134 A 
ATOM     75  F   UNL A   1      43.000  28.896  26.584  1.00  0.00    -0.206 F 
ATOM     76  C   UNL A   1      42.854  26.974  25.299  1.00  0.00     0.040 A 
ATOM     77  C   UNL A   1      42.026  24.938  26.212  1.00  0.00     0.040 A 
ATOM     78  F   UNL A   1      41.545  24.759  28.470  1.00  0.00    -0.206 F 
ATOM     79  C   UNL A   1      42.510  25.644  25.122  1.00  0.00     0.006 A 
ENDBRANCH  58  72
BRANCH  59  80
ATOM     80  C   UNL A   1      40.216  33.894  34.448  1.00  0.00     0.057 A 
ATOM     81  C   UNL A   1      39.076  33.129  34.767  1.00  0.00     0.134 A 
ATOM     82  C   UNL A   1      40.379  35.106  35.123  1.00  0.00     0.134 A 
ATOM     83  F   UNL A   1      38.818  31.994  34.096  1.00  0.00    -0.206 F 
ATOM     84  C   UNL A   1      38.327  33.387  35.916  1.00  0.00     0.040 A 
ATOM     85  C   UNL A   1      39.590  35.404  36.239  1.00  0.00     0.040 A 
ATOM     86  F   UNL A   1      41.392  35.929  34.822  1.00  0.00    -0.206 F 
ATOM     87  C   UNL A   1      38.629  34.498  36.694  1.00  0.00     0.006 A 
ENDBRANCH  59  80
BRANCH  71  88
ATOM     88  C   UNL A   1      42.838  27.132  34.399  1.00  0.00     0.057 A 
ATOM     89  C   UNL A   1      44.072  26.677  34.888  1.00  0.00     0.134 A 
ATOM     90  C   UNL A   1      41.720  26.351  34.753  1.00  0.00     0.134 A 
ATOM     91  F   UNL A   1      45.190  27.403  34.749  1.00  0.00    -0.206 F 
ATOM     92  C   UNL A   1      44.201  25.471  35.581  1.00  0.00     0.040 A 
ATOM     93  C   UNL A   1      41.829  25.179  35.502  1.00  0.00     0.040 A 
ATOM     94  F   UNL A   1      40.473  26.704  34.402  1.00  0.00    -0.206 F 
ATOM     95  C   UNL A   1      43.076  24.719  35.894  1.00  0.00     0.006 A 
ENDBRANCH  71  88
ENDBRANCH  45  46
ENDBRANCH  37  40
ENDBRANCH  35  36
ENDBRANCH  34  35
ENDBRANCH  33  34
ENDBRANCH  32  33
ENDBRANCH   3  32
TORSDOF 17
ENDMDL
MODEL 3
REMARK VINA RESULT:     -12.4      3.155      9.852
REMARK SMILES CCCN1C(=O)c2ccc(C(=O)Nc3ccc(OCC(=O)NCCCCNC(=O)c4ccc(-c5c6nc(c(-c7c(F)cccc7F)c7ccc([nH]7)c(-c7c(F)cccc7F)c7nc(c(-c8c(F)cccc8F)c8ccc5[nH]8)C=C7)C=C6)cc4)cc3C)cc2C1=O
REMARK SMILES IDX 20 1 21 2 22 3 19 5 18 6 17 7 14 8 15 9 85 10 16 11 84 12
REMARK SMILES IDX 86 13 13 14 11 15 12 16 10 18 4 19 5 20 89 21 6 22 7 23
REMARK SMILES IDX 88 24 90 25 8 26 87 27 9 28 3 29 2 30 1 31 23 32 24 33 25 34
REMARK SMILES IDX 26 35 27 36 28 37 29 39 30 40 31 41 83 42 32 43 82 44 33 45
REMARK SMILES IDX 34 46 35 47 76 48 36 49 81 50 75 51 77 52 37 53 80 54 74 55
REMARK SMILES IDX 73 56 38 58 64 59 47 60 63 61 48 62 51 63 62 64 78 65 49 66
REMARK SMILES IDX 50 67 61 69 79 70 52 71 39 72 40 73 45 74 41 75 42 76 44 77
REMARK SMILES IDX 46 78 43 79 65 80 66 81 71 82 67 83 68 84 70 85 72 86 69 87
REMARK SMILES IDX 53 88 54 89 59 90 55 91 56 92 58 93 60 94 57 95
REMARK H PARENT 22 4 13 17 27 38 77 57 51 68
REMARK Flexibility Score: inf
ROOT
ATOM      1  C   UNL A   1      32.882  20.358  25.544  1.00  0.00     0.257 C 
ATOM      2  O   UNL A   1      32.123  19.405  25.351  1.00  0.00    -0.271 OA
ATOM      3  N   UNL A   1      34.229  20.127  25.533  1.00  0.00    -0.353 N 
ATOM      4  H   UNL A   1      34.498  19.189  25.397  1.00  0.00     0.163 HD
ENDROOT
BRANCH   1   5
ATOM      5  C   UNL A   1      32.342  21.779  25.758  1.00  0.00     0.329 C 
BRANCH   5   6
ATOM      6  O   UNL A   1      31.198  22.149  25.004  1.00  0.00    -0.484 OA
BRANCH   6   7
ATOM      7  C   UNL A   1      31.158  23.413  24.486  1.00  0.00     0.120 A 
ATOM      8  C   UNL A   1      30.679  25.998  23.508  1.00  0.00     0.044 A 
ATOM      9  C   UNL A   1      30.216  25.625  24.775  1.00  0.00     0.030 A 
ATOM     10  C   UNL A   1      31.528  25.136  22.793  1.00  0.00    -0.024 A 
ATOM     11  C   UNL A   1      30.440  24.331  25.249  1.00  0.00     0.048 A 
ATOM     12  C   UNL A   1      31.751  23.838  23.296  1.00  0.00     0.052 A 
ATOM     13  C   UNL A   1      32.296  25.566  21.571  1.00  0.00     0.047 C 
BRANCH   8  14
ATOM     14  N   UNL A   1      30.168  27.204  23.000  1.00  0.00    -0.322 N 
ATOM     15  C   UNL A   1      30.444  28.508  23.374  1.00  0.00     0.255 C 
ATOM     16  O   UNL A   1      29.800  29.427  22.866  1.00  0.00    -0.269 OA
ATOM     17  H   UNL A   1      29.517  27.108  22.268  1.00  0.00     0.170 HD
BRANCH  15  18
ATOM     18  C   UNL A   1      31.563  28.857  24.304  1.00  0.00     0.041 A 
ATOM     19  N   UNL A   1      33.800  31.108  27.643  1.00  0.00    -0.274 N 
ATOM     20  C   UNL A   1      34.434  30.016  27.127  1.00  0.00     0.261 C 
ATOM     21  C   UNL A   1      32.615  31.360  26.986  1.00  0.00     0.261 C 
ATOM     22  O   UNL A   1      35.545  29.567  27.357  1.00  0.00    -0.269 OA
ATOM     23  C   UNL A   1      33.548  29.454  26.122  1.00  0.00     0.053 A 
ATOM     24  C   UNL A   1      32.439  30.270  26.017  1.00  0.00     0.054 A 
ATOM     25  O   UNL A   1      31.856  32.290  27.101  1.00  0.00    -0.269 OA
ATOM     26  C   UNL A   1      33.733  28.351  25.322  1.00  0.00     0.015 A 
ATOM     27  C   UNL A   1      31.426  30.003  25.111  1.00  0.00     0.028 A 
ATOM     28  C   UNL A   1      32.746  28.083  24.375  1.00  0.00     0.015 A 
BRANCH  19  29
ATOM     29  C   UNL A   1      34.395  31.999  28.622  1.00  0.00     0.129 C 
BRANCH  29  30
ATOM     30  C   UNL A   1      35.241  33.129  28.023  1.00  0.00     0.019 C 
ATOM     31  C   UNL A   1      34.775  34.531  28.393  1.00  0.00     0.006 C 
ENDBRANCH  29  30
ENDBRANCH  19  29
ENDBRANCH  15  18
ENDBRANCH   8  14
ENDBRANCH   6   7
ENDBRANCH   5   6
ENDBRANCH   1   5
BRANCH   3  32
ATOM     32  C   UNL A   1      35.320  21.071  25.693  1.00  0.00     0.116 C 
BRANCH  32  33
ATOM     33  C   UNL A   1      36.154  21.264  24.419  1.00  0.00     0.023 C 
BRANCH  33  34
ATOM     34  C   UNL A   1      37.669  21.341  24.618  1.00  0.00     0.023 C 
BRANCH  34  35
ATOM     35  C   UNL A   1      38.153  22.420  25.576  1.00  0.00     0.116 C 
BRANCH  35  36
ATOM     36  N   UNL A   1      39.527  22.271  26.055  1.00  0.00    -0.352 N 
ATOM     37  C   UNL A   1      40.394  23.229  26.566  1.00  0.00     0.251 C 
ATOM     38  H   UNL A   1      39.890  21.357  26.007  1.00  0.00     0.163 HD
ATOM     39  O   UNL A   1      41.526  22.903  26.912  1.00  0.00    -0.269 OA
BRANCH  37  40
ATOM     40  C   UNL A   1      39.896  24.596  26.873  1.00  0.00     0.039 A 
ATOM     41  C   UNL A   1      40.458  25.653  26.145  1.00  0.00     0.014 A 
ATOM     42  C   UNL A   1      39.257  24.847  28.077  1.00  0.00     0.014 A 
ATOM     43  C   UNL A   1      40.733  26.845  26.801  1.00  0.00     0.010 A 
ATOM     44  C   UNL A   1      39.652  25.955  28.782  1.00  0.00     0.010 A 
ATOM     45  C   UNL A   1      40.461  26.909  28.163  1.00  0.00    -0.014 A 
BRANCH  45  46
ATOM     46  C   UNL A   1      40.911  27.975  29.032  1.00  0.00     0.031 A 
ATOM     47  C   UNL A   1      39.963  29.069  29.281  1.00  0.00     0.074 A 
ATOM     48  C   UNL A   1      42.102  27.870  29.661  1.00  0.00     0.049 A 
ATOM     49  N   UNL A   1      40.295  30.252  29.645  1.00  0.00    -0.248 NA
ATOM     50  C   UNL A   1      38.526  28.906  29.084  1.00  0.00     0.031 C 
ATOM     51  C   UNL A   1      42.634  28.698  30.737  1.00  0.00     0.029 A 
ATOM     52  N   UNL A   1      43.177  27.055  29.296  1.00  0.00    -0.354 N 
ATOM     53  C   UNL A   1      39.141  30.915  30.001  1.00  0.00     0.074 A 
ATOM     54  C   UNL A   1      38.065  30.061  29.567  1.00  0.00     0.031 C 
ATOM     55  C   UNL A   1      43.974  28.581  30.753  1.00  0.00     0.029 A 
ATOM     56  C   UNL A   1      44.356  27.766  29.613  1.00  0.00     0.049 A 
ATOM     57  H   UNL A   1      43.122  26.158  28.894  1.00  0.00     0.167 HD
ATOM     58  C   UNL A   1      39.252  32.042  30.758  1.00  0.00     0.037 A 
ATOM     59  C   UNL A   1      45.204  28.156  28.614  1.00  0.00     0.037 A 
ATOM     60  C   UNL A   1      40.666  32.392  30.921  1.00  0.00     0.049 A 
ATOM     61  C   UNL A   1      45.186  29.653  28.417  1.00  0.00     0.074 A 
ATOM     62  C   UNL A   1      41.587  32.071  31.905  1.00  0.00     0.029 A 
ATOM     63  N   UNL A   1      41.406  32.767  29.800  1.00  0.00    -0.354 N 
ATOM     64  N   UNL A   1      44.236  30.428  28.869  1.00  0.00    -0.248 NA
ATOM     65  C   UNL A   1      46.241  30.395  27.737  1.00  0.00     0.031 C 
ATOM     66  C   UNL A   1      42.882  32.123  31.322  1.00  0.00     0.029 A 
ATOM     67  C   UNL A   1      42.755  32.519  30.001  1.00  0.00     0.049 A 
ATOM     68  H   UNL A   1      41.025  33.156  28.979  1.00  0.00     0.167 HD
ATOM     69  C   UNL A   1      44.533  31.730  28.581  1.00  0.00     0.074 A 
ATOM     70  C   UNL A   1      45.802  31.659  27.877  1.00  0.00     0.031 C 
ATOM     71  C   UNL A   1      43.733  32.773  28.951  1.00  0.00     0.037 A 
BRANCH  58  72
ATOM     72  C   UNL A   1      38.119  32.589  31.597  1.00  0.00     0.057 A 
ATOM     73  C   UNL A   1      37.771  31.975  32.816  1.00  0.00     0.134 A 
ATOM     74  C   UNL A   1      37.292  33.670  31.239  1.00  0.00     0.134 A 
ATOM     75  F   UNL A   1      38.503  30.981  33.335  1.00  0.00    -0.206 F 
ATOM     76  C   UNL A   1      36.643  32.342  33.563  1.00  0.00     0.040 A 
ATOM     77  C   UNL A   1      36.131  34.014  31.949  1.00  0.00     0.040 A 
ATOM     78  F   UNL A   1      37.594  34.477  30.216  1.00  0.00    -0.206 F 
ATOM     79  C   UNL A   1      35.797  33.343  33.115  1.00  0.00     0.006 A 
ENDBRANCH  58  72
BRANCH  59  80
ATOM     80  C   UNL A   1      45.306  27.110  27.550  1.00  0.00     0.057 A 
ATOM     81  C   UNL A   1      44.741  27.461  26.306  1.00  0.00     0.134 A 
ATOM     82  C   UNL A   1      46.379  26.216  27.532  1.00  0.00     0.134 A 
ATOM     83  F   UNL A   1      43.655  28.251  26.261  1.00  0.00    -0.206 F 
ATOM     84  C   UNL A   1      45.409  27.207  25.108  1.00  0.00     0.040 A 
ATOM     85  C   UNL A   1      47.017  25.903  26.327  1.00  0.00     0.040 A 
ATOM     86  F   UNL A   1      46.921  25.770  28.673  1.00  0.00    -0.206 F 
ATOM     87  C   UNL A   1      46.592  26.478  25.127  1.00  0.00     0.006 A 
ENDBRANCH  59  80
BRANCH  71  88
ATOM     88  C   UNL A   1      43.909  34.172  28.431  1.00  0.00     0.057 A 
ATOM     89  C   UNL A   1      44.327  35.246  29.229  1.00  0.00     0.134 A 
ATOM     90  C   UNL A   1      43.775  34.451  27.056  1.00  0.00     0.134 A 
ATOM     91  F   UNL A   1      44.633  35.081  30.523  1.00  0.00    -0.206 F 
ATOM     92  C   UNL A   1      44.489  36.536  28.717  1.00  0.00     0.040 A 
ATOM     93  C   UNL A   1      44.000  35.721  26.523  1.00  0.00     0.040 A 
ATOM     94  F   UNL A   1      43.440  33.500  26.172  1.00  0.00    -0.206 F 
ATOM     95  C   UNL A   1      44.330  36.777  27.359  1.00  0.00     0.006 A 
ENDBRANCH  71  88
ENDBRANCH  45  46
ENDBRANCH  37  40
ENDBRANCH  35  36
ENDBRANCH  34  35
ENDBRANCH  33  34
ENDBRANCH  32  33
ENDBRANCH   3  32
TORSDOF 17
ENDMDL
