MODEL 1
REMARK VINA RESULT:     -12.7      0.000      0.000
REMARK SMILES CCn1nc(-c2cccnc2)c2cc(C(=O)NCCCCNC(=O)c3ccc(-c4c5nc(c(-c6c(F)cccc6F)c6ccc([nH]6)c(-c6c(F)cccc6F)c6nc(c(-c7c(F)cccc7F)c7ccc4[nH]7)C=C6)C=C5)cc3)sc21
REMARK SMILES IDX 20 1 19 2 18 3 17 4 15 5 16 6 14 8 3 9 4 10 80 11 5 12 12 13
REMARK SMILES IDX 79 14 13 15 2 16 1 17 6 18 7 19 11 20 8 21 10 22 9 23 21 24
REMARK SMILES IDX 22 25 23 26 24 28 25 29 26 30 78 31 27 32 77 33 28 34 29 35
REMARK SMILES IDX 30 36 71 37 31 38 76 39 70 40 72 41 32 42 75 43 69 44 68 45
REMARK SMILES IDX 33 47 59 48 42 49 58 50 43 51 46 52 57 53 73 54 44 55 45 56
REMARK SMILES IDX 56 58 74 59 47 60 34 61 35 62 40 63 36 64 37 65 39 66 41 67
REMARK SMILES IDX 38 68 60 69 61 70 66 71 62 72 63 73 65 74 67 75 64 76 48 77
REMARK SMILES IDX 49 78 54 79 50 80 51 81 53 82 55 83 52 84
REMARK H PARENT 17 7 22 27 72 46 46 57
REMARK Flexibility Score: inf
ROOT
ATOM      1  C   UNL A   1      40.952  19.823  26.139  1.00  0.00     0.023 C 
ENDROOT
BRANCH   1   2
ATOM      2  C   UNL A   1      40.093  21.058  26.439  1.00  0.00     0.023 C 
BRANCH   2   3
ATOM      3  C   UNL A   1      38.687  21.037  25.827  1.00  0.00     0.116 C 
BRANCH   3   4
ATOM      4  N   UNL A   1      38.316  22.305  25.211  1.00  0.00    -0.351 N 
ATOM      5  C   UNL A   1      37.100  22.920  24.977  1.00  0.00     0.261 C 
ATOM      6  O   UNL A   1      37.170  24.084  24.576  1.00  0.00    -0.268 OA
ATOM      7  H   UNL A   1      39.088  22.830  24.898  1.00  0.00     0.163 HD
BRANCH   5   8
ATOM      8  C   UNL A   1      35.811  22.281  25.232  1.00  0.00     0.095 A 
ATOM      9  N   UNL A   1      32.152  21.635  25.515  1.00  0.00    -0.254 N 
ATOM     10  N   UNL A   1      31.895  20.326  25.228  1.00  0.00    -0.171 NA
ATOM     11  C   UNL A   1      33.476  21.870  25.564  1.00  0.00     0.122 A 
ATOM     12  C   UNL A   1      33.128  19.753  25.103  1.00  0.00     0.103 A 
ATOM     13  C   UNL A   1      34.102  20.754  25.207  1.00  0.00     0.040 A 
ATOM     14  S   UNL A   1      34.457  23.141  25.905  1.00  0.00    -0.110 S 
ATOM     15  C   UNL A   1      35.479  20.923  25.035  1.00  0.00     0.038 A 
BRANCH   9  16
ATOM     16  C   UNL A   1      31.150  22.679  25.576  1.00  0.00     0.142 C 
ATOM     17  C   UNL A   1      31.013  23.581  24.371  1.00  0.00     0.029 C 
ENDBRANCH   9  16
BRANCH  12  18
ATOM     18  C   UNL A   1      33.282  18.314  24.954  1.00  0.00     0.021 A 
ATOM     19  C   UNL A   1      34.026  17.748  23.916  1.00  0.00     0.013 A 
ATOM     20  C   UNL A   1      32.612  17.440  25.806  1.00  0.00     0.121 A 
ATOM     21  C   UNL A   1      34.077  16.360  23.780  1.00  0.00     0.021 A 
ATOM     22  N   UNL A   1      32.643  16.087  25.700  1.00  0.00    -0.264 NA
ATOM     23  C   UNL A   1      33.372  15.580  24.684  1.00  0.00     0.111 A 
ENDBRANCH  12  18
ENDBRANCH   5   8
ENDBRANCH   3   4
ENDBRANCH   2   3
ENDBRANCH   1   2
BRANCH   1  24
ATOM     24  C   UNL A   1      42.318  19.807  26.817  1.00  0.00     0.116 C 
BRANCH  24  25
ATOM     25  N   UNL A   1      43.411  19.477  25.907  1.00  0.00    -0.352 N 
ATOM     26  C   UNL A   1      44.088  20.339  25.070  1.00  0.00     0.251 C 
ATOM     27  H   UNL A   1      43.697  18.535  25.889  1.00  0.00     0.163 HD
ATOM     28  O   UNL A   1      44.668  19.925  24.067  1.00  0.00    -0.269 OA
BRANCH  26  29
ATOM     29  C   UNL A   1      44.109  21.774  25.397  1.00  0.00     0.039 A 
ATOM     30  C   UNL A   1      43.153  22.640  24.869  1.00  0.00     0.014 A 
ATOM     31  C   UNL A   1      45.077  22.232  26.293  1.00  0.00     0.014 A 
ATOM     32  C   UNL A   1      43.113  23.951  25.333  1.00  0.00     0.010 A 
ATOM     33  C   UNL A   1      44.972  23.500  26.827  1.00  0.00     0.010 A 
ATOM     34  C   UNL A   1      43.996  24.370  26.348  1.00  0.00    -0.014 A 
BRANCH  34  35
ATOM     35  C   UNL A   1      43.731  25.633  27.046  1.00  0.00     0.031 A 
ATOM     36  C   UNL A   1      44.696  26.705  26.674  1.00  0.00     0.074 A 
ATOM     37  C   UNL A   1      42.627  25.917  27.777  1.00  0.00     0.049 A 
ATOM     38  N   UNL A   1      45.630  27.207  27.413  1.00  0.00    -0.248 NA
ATOM     39  C   UNL A   1      44.745  27.164  25.273  1.00  0.00     0.031 C 
ATOM     40  C   UNL A   1      41.430  25.082  27.924  1.00  0.00     0.029 A 
ATOM     41  N   UNL A   1      42.282  27.054  28.465  1.00  0.00    -0.354 N 
ATOM     42  C   UNL A   1      46.168  28.252  26.666  1.00  0.00     0.074 A 
ATOM     43  C   UNL A   1      45.764  28.028  25.306  1.00  0.00     0.031 C 
ATOM     44  C   UNL A   1      40.416  25.821  28.424  1.00  0.00     0.029 A 
ATOM     45  C   UNL A   1      40.932  27.120  28.813  1.00  0.00     0.049 A 
ATOM     46  H   UNL A   1      42.928  27.761  28.692  1.00  0.00     0.167 HD
ATOM     47  C   UNL A   1      46.545  29.396  27.303  1.00  0.00     0.037 A 
ATOM     48  C   UNL A   1      40.269  28.151  29.394  1.00  0.00     0.037 A 
ATOM     49  C   UNL A   1      46.664  29.168  28.721  1.00  0.00     0.049 A 
ATOM     50  C   UNL A   1      41.258  29.007  30.079  1.00  0.00     0.074 A 
ATOM     51  C   UNL A   1      47.550  28.588  29.600  1.00  0.00     0.029 A 
ATOM     52  N   UNL A   1      45.471  29.286  29.372  1.00  0.00    -0.354 N 
ATOM     53  N   UNL A   1      41.914  28.637  31.142  1.00  0.00    -0.248 NA
ATOM     54  C   UNL A   1      41.765  30.199  29.406  1.00  0.00     0.031 C 
ATOM     55  C   UNL A   1      46.817  28.321  30.800  1.00  0.00     0.029 A 
ATOM     56  C   UNL A   1      45.515  28.783  30.639  1.00  0.00     0.049 A 
ATOM     57  H   UNL A   1      44.667  29.690  28.972  1.00  0.00     0.167 HD
ATOM     58  C   UNL A   1      43.134  29.258  31.007  1.00  0.00     0.074 A 
ATOM     59  C   UNL A   1      42.925  30.339  30.052  1.00  0.00     0.031 C 
ATOM     60  C   UNL A   1      44.281  28.616  31.366  1.00  0.00     0.037 A 
BRANCH  47  61
ATOM     61  C   UNL A   1      46.225  30.798  26.801  1.00  0.00     0.057 A 
ATOM     62  C   UNL A   1      47.255  31.760  26.797  1.00  0.00     0.134 A 
ATOM     63  C   UNL A   1      44.925  31.328  26.661  1.00  0.00     0.134 A 
ATOM     64  F   UNL A   1      48.538  31.394  26.940  1.00  0.00    -0.206 F 
ATOM     65  C   UNL A   1      47.003  33.138  26.736  1.00  0.00     0.040 A 
ATOM     66  C   UNL A   1      44.667  32.699  26.553  1.00  0.00     0.040 A 
ATOM     67  F   UNL A   1      43.824  30.572  26.725  1.00  0.00    -0.206 F 
ATOM     68  C   UNL A   1      45.703  33.612  26.622  1.00  0.00     0.006 A 
ENDBRANCH  47  61
BRANCH  48  69
ATOM     69  C   UNL A   1      38.850  28.563  29.297  1.00  0.00     0.057 A 
ATOM     70  C   UNL A   1      38.012  28.562  30.424  1.00  0.00     0.134 A 
ATOM     71  C   UNL A   1      38.372  29.255  28.173  1.00  0.00     0.134 A 
ATOM     72  F   UNL A   1      38.391  27.950  31.555  1.00  0.00    -0.206 F 
ATOM     73  C   UNL A   1      36.793  29.251  30.448  1.00  0.00     0.040 A 
ATOM     74  C   UNL A   1      37.155  29.944  28.182  1.00  0.00     0.040 A 
ATOM     75  F   UNL A   1      39.118  29.362  27.062  1.00  0.00    -0.206 F 
ATOM     76  C   UNL A   1      36.369  29.961  29.330  1.00  0.00     0.006 A 
ENDBRANCH  48  69
BRANCH  60  77
ATOM     77  C   UNL A   1      44.202  27.598  32.452  1.00  0.00     0.057 A 
ATOM     78  C   UNL A   1      44.093  27.884  33.819  1.00  0.00     0.134 A 
ATOM     79  C   UNL A   1      44.196  26.250  32.077  1.00  0.00     0.134 A 
ATOM     80  F   UNL A   1      44.026  29.148  34.262  1.00  0.00    -0.206 F 
ATOM     81  C   UNL A   1      44.018  26.863  34.772  1.00  0.00     0.040 A 
ATOM     82  C   UNL A   1      44.092  25.224  33.014  1.00  0.00     0.040 A 
ATOM     83  F   UNL A   1      44.272  25.910  30.780  1.00  0.00    -0.206 F 
ATOM     84  C   UNL A   1      44.013  25.529  34.369  1.00  0.00     0.006 A 
ENDBRANCH  60  77
ENDBRANCH  34  35
ENDBRANCH  26  29
ENDBRANCH  24  25
ENDBRANCH   1  24
TORSDOF 13
ENDMDL
MODEL 2
REMARK VINA RESULT:     -12.3      5.088     10.516
REMARK SMILES CCn1nc(-c2cccnc2)c2cc(C(=O)NCCCCNC(=O)c3ccc(-c4c5nc(c(-c6c(F)cccc6F)c6ccc([nH]6)c(-c6c(F)cccc6F)c6nc(c(-c7c(F)cccc7F)c7ccc4[nH]7)C=C6)C=C5)cc3)sc21
REMARK SMILES IDX 20 1 19 2 18 3 17 4 15 5 16 6 14 8 3 9 4 10 80 11 5 12 12 13
REMARK SMILES IDX 79 14 13 15 2 16 1 17 6 18 7 19 11 20 8 21 10 22 9 23 21 24
REMARK SMILES IDX 22 25 23 26 24 28 25 29 26 30 78 31 27 32 77 33 28 34 29 35
REMARK SMILES IDX 30 36 71 37 31 38 76 39 70 40 72 41 32 42 75 43 69 44 68 45
REMARK SMILES IDX 33 47 59 48 42 49 58 50 43 51 46 52 57 53 73 54 44 55 45 56
REMARK SMILES IDX 56 58 74 59 47 60 34 61 35 62 40 63 36 64 37 65 39 66 41 67
REMARK SMILES IDX 38 68 60 69 61 70 66 71 62 72 63 73 65 74 67 75 64 76 48 77
REMARK SMILES IDX 49 78 54 79 50 80 51 81 53 82 55 83 52 84
REMARK H PARENT 17 7 22 27 72 46 46 57
REMARK Flexibility Score: inf
ROOT
ATOM      1  C   UNL A   1      32.910  34.348  28.529  1.00  0.00     0.023 C 
ENDROOT
BRANCH   1   2
ATOM      2  C   UNL A   1      33.941  33.268  28.179  1.00  0.00     0.023 C 
BRANCH   2   3
ATOM      3  C   UNL A   1      33.354  31.966  27.618  1.00  0.00     0.116 C 
BRANCH   3   4
ATOM      4  N   UNL A   1      34.236  30.820  27.798  1.00  0.00    -0.351 N 
ATOM      5  C   UNL A   1      34.311  29.582  27.188  1.00  0.00     0.261 C 
ATOM      6  O   UNL A   1      35.304  28.911  27.484  1.00  0.00    -0.268 OA
ATOM      7  H   UNL A   1      34.916  30.955  28.498  1.00  0.00     0.163 HD
BRANCH   5   8
ATOM      8  C   UNL A   1      33.331  29.101  26.217  1.00  0.00     0.095 A 
ATOM      9  N   UNL A   1      30.782  27.027  24.460  1.00  0.00    -0.254 N 
ATOM     10  N   UNL A   1      29.875  27.841  23.846  1.00  0.00    -0.171 NA
ATOM     11  C   UNL A   1      31.797  27.741  24.982  1.00  0.00     0.122 A 
ATOM     12  C   UNL A   1      30.377  29.100  24.009  1.00  0.00     0.103 A 
ATOM     13  C   UNL A   1      31.519  29.029  24.815  1.00  0.00     0.040 A 
ATOM     14  S   UNL A   1      33.204  27.427  25.766  1.00  0.00    -0.110 S 
ATOM     15  C   UNL A   1      32.407  29.878  25.483  1.00  0.00     0.038 A 
BRANCH   9  16
ATOM     16  C   UNL A   1      30.597  25.610  24.689  1.00  0.00     0.142 C 
ATOM     17  C   UNL A   1      30.561  24.709  23.476  1.00  0.00     0.029 C 
ENDBRANCH   9  16
BRANCH  12  18
ATOM     18  C   UNL A   1      29.772  30.247  23.348  1.00  0.00     0.021 A 
ATOM     19  C   UNL A   1      29.396  31.396  24.047  1.00  0.00     0.013 A 
ATOM     20  C   UNL A   1      29.468  30.200  21.990  1.00  0.00     0.121 A 
ATOM     21  C   UNL A   1      28.751  32.435  23.373  1.00  0.00     0.021 A 
ATOM     22  N   UNL A   1      28.844  31.193  21.307  1.00  0.00    -0.264 NA
ATOM     23  C   UNL A   1      28.496  32.286  22.018  1.00  0.00     0.111 A 
ENDBRANCH  12  18
ENDBRANCH   5   8
ENDBRANCH   3   4
ENDBRANCH   2   3
ENDBRANCH   1   2
BRANCH   1  24
ATOM     24  C   UNL A   1      33.484  35.595  29.196  1.00  0.00     0.116 C 
BRANCH  24  25
ATOM     25  N   UNL A   1      32.786  35.964  30.426  1.00  0.00    -0.352 N 
ATOM     26  C   UNL A   1      32.876  35.343  31.653  1.00  0.00     0.251 C 
ATOM     27  H   UNL A   1      32.187  36.743  30.372  1.00  0.00     0.163 HD
ATOM     28  O   UNL A   1      31.970  35.440  32.481  1.00  0.00    -0.269 OA
BRANCH  26  29
ATOM     29  C   UNL A   1      34.081  34.558  31.965  1.00  0.00     0.039 A 
ATOM     30  C   UNL A   1      34.061  33.165  31.897  1.00  0.00     0.014 A 
ATOM     31  C   UNL A   1      35.255  35.246  32.273  1.00  0.00     0.014 A 
ATOM     32  C   UNL A   1      35.261  32.474  32.039  1.00  0.00     0.010 A 
ATOM     33  C   UNL A   1      36.457  34.569  32.311  1.00  0.00     0.010 A 
ATOM     34  C   UNL A   1      36.469  33.181  32.201  1.00  0.00    -0.014 A 
BRANCH  34  35
ATOM     35  C   UNL A   1      37.740  32.469  32.023  1.00  0.00     0.031 A 
ATOM     36  C   UNL A   1      38.454  32.243  33.311  1.00  0.00     0.074 A 
ATOM     37  C   UNL A   1      38.158  31.868  30.884  1.00  0.00     0.049 A 
ATOM     38  N   UNL A   1      39.540  32.815  33.713  1.00  0.00    -0.248 NA
ATOM     39  C   UNL A   1      37.809  31.412  34.346  1.00  0.00     0.031 C 
ATOM     40  C   UNL A   1      37.390  31.700  29.645  1.00  0.00     0.029 A 
ATOM     41  N   UNL A   1      39.316  31.182  30.611  1.00  0.00    -0.354 N 
ATOM     42  C   UNL A   1      39.869  32.180  34.909  1.00  0.00     0.074 A 
ATOM     43  C   UNL A   1      38.675  31.519  35.358  1.00  0.00     0.031 C 
ATOM     44  C   UNL A   1      37.979  30.768  28.866  1.00  0.00     0.029 A 
ATOM     45  C   UNL A   1      39.259  30.410  29.450  1.00  0.00     0.049 A 
ATOM     46  H   UNL A   1      40.114  31.230  31.184  1.00  0.00     0.167 HD
ATOM     47  C   UNL A   1      41.179  31.935  35.191  1.00  0.00     0.037 A 
ATOM     48  C   UNL A   1      40.190  29.546  28.976  1.00  0.00     0.037 A 
ATOM     49  C   UNL A   1      42.034  32.730  34.346  1.00  0.00     0.049 A 
ATOM     50  C   UNL A   1      41.494  29.901  29.571  1.00  0.00     0.074 A 
ATOM     51  C   UNL A   1      42.473  34.032  34.258  1.00  0.00     0.029 A 
ATOM     52  N   UNL A   1      42.262  32.147  33.134  1.00  0.00    -0.354 N 
ATOM     53  N   UNL A   1      42.143  30.992  29.280  1.00  0.00    -0.248 NA
ATOM     54  C   UNL A   1      41.965  29.180  30.751  1.00  0.00     0.031 C 
ATOM     55  C   UNL A   1      42.935  34.216  32.918  1.00  0.00     0.029 A 
ATOM     56  C   UNL A   1      42.807  33.013  32.232  1.00  0.00     0.049 A 
ATOM     57  H   UNL A   1      42.055  31.206  32.933  1.00  0.00     0.167 HD
ATOM     58  C   UNL A   1      42.780  31.318  30.455  1.00  0.00     0.074 A 
ATOM     59  C   UNL A   1      42.799  30.096  31.248  1.00  0.00     0.031 C 
ATOM     60  C   UNL A   1      42.884  32.619  30.847  1.00  0.00     0.037 A 
BRANCH  47  61
ATOM     61  C   UNL A   1      41.701  30.614  35.742  1.00  0.00     0.057 A 
ATOM     62  C   UNL A   1      42.719  30.650  36.715  1.00  0.00     0.134 A 
ATOM     63  C   UNL A   1      41.512  29.355  35.134  1.00  0.00     0.134 A 
ATOM     64  F   UNL A   1      43.016  31.789  37.358  1.00  0.00    -0.206 F 
ATOM     65  C   UNL A   1      43.532  29.543  37.002  1.00  0.00     0.040 A 
ATOM     66  C   UNL A   1      42.287  28.233  35.446  1.00  0.00     0.040 A 
ATOM     67  F   UNL A   1      40.647  29.156  34.134  1.00  0.00    -0.206 F 
ATOM     68  C   UNL A   1      43.321  28.330  36.360  1.00  0.00     0.006 A 
ENDBRANCH  47  61
BRANCH  48  69
ATOM     69  C   UNL A   1      40.043  28.325  28.150  1.00  0.00     0.057 A 
ATOM     70  C   UNL A   1      40.709  28.192  26.922  1.00  0.00     0.134 A 
ATOM     71  C   UNL A   1      39.499  27.149  28.689  1.00  0.00     0.134 A 
ATOM     72  F   UNL A   1      41.284  29.253  26.338  1.00  0.00    -0.206 F 
ATOM     73  C   UNL A   1      40.867  26.952  26.289  1.00  0.00     0.040 A 
ATOM     74  C   UNL A   1      39.646  25.905  28.066  1.00  0.00     0.040 A 
ATOM     75  F   UNL A   1      38.889  27.157  29.884  1.00  0.00    -0.206 F 
ATOM     76  C   UNL A   1      40.352  25.800  26.872  1.00  0.00     0.006 A 
ENDBRANCH  48  69
BRANCH  60  77
ATOM     77  C   UNL A   1      42.924  33.668  29.788  1.00  0.00     0.057 A 
ATOM     78  C   UNL A   1      44.036  33.967  28.990  1.00  0.00     0.134 A 
ATOM     79  C   UNL A   1      41.748  34.386  29.542  1.00  0.00     0.134 A 
ATOM     80  F   UNL A   1      45.184  33.284  29.114  1.00  0.00    -0.206 F 
ATOM     81  C   UNL A   1      43.983  34.966  28.013  1.00  0.00     0.040 A 
ATOM     82  C   UNL A   1      41.674  35.363  28.552  1.00  0.00     0.040 A 
ATOM     83  F   UNL A   1      40.639  34.130  30.256  1.00  0.00    -0.206 F 
ATOM     84  C   UNL A   1      42.798  35.664  27.790  1.00  0.00     0.006 A 
ENDBRANCH  60  77
ENDBRANCH  34  35
ENDBRANCH  26  29
ENDBRANCH  24  25
ENDBRANCH   1  24
TORSDOF 13
ENDMDL
MODEL 3
REMARK VINA RESULT:     -12.2      2.696      7.224
REMARK SMILES CCn1nc(-c2cccnc2)c2cc(C(=O)NCCCCNC(=O)c3ccc(-c4c5nc(c(-c6c(F)cccc6F)c6ccc([nH]6)c(-c6c(F)cccc6F)c6nc(c(-c7c(F)cccc7F)c7ccc4[nH]7)C=C6)C=C5)cc3)sc21
REMARK SMILES IDX 20 1 19 2 18 3 17 4 15 5 16 6 14 8 3 9 4 10 80 11 5 12 12 13
REMARK SMILES IDX 79 14 13 15 2 16 1 17 6 18 7 19 11 20 8 21 10 22 9 23 21 24
REMARK SMILES IDX 22 25 23 26 24 28 25 29 26 30 78 31 27 32 77 33 28 34 29 35
REMARK SMILES IDX 30 36 71 37 31 38 76 39 70 40 72 41 32 42 75 43 69 44 68 45
REMARK SMILES IDX 33 47 59 48 42 49 58 50 43 51 46 52 57 53 73 54 44 55 45 56
REMARK SMILES IDX 56 58 74 59 47 60 34 61 35 62 40 63 36 64 37 65 39 66 41 67
REMARK SMILES IDX 38 68 60 69 61 70 66 71 62 72 63 73 65 74 67 75 64 76 48 77
REMARK SMILES IDX 49 78 54 79 50 80 51 81 53 82 55 83 52 84
REMARK H PARENT 17 7 22 27 72 46 46 57
REMARK Flexibility Score: inf
ROOT
ATOM      1  C   UNL A   1      33.492  29.129  26.546  1.00  0.00     0.023 C 
ENDROOT
BRANCH   1   2
ATOM      2  C   UNL A   1      33.708  28.655  25.102  1.00  0.00     0.023 C 
BRANCH   2   3
ATOM      3  C   UNL A   1      33.579  27.141  24.889  1.00  0.00     0.116 C 
BRANCH   3   4
ATOM      4  N   UNL A   1      33.656  26.757  23.485  1.00  0.00    -0.351 N 
ATOM      5  C   UNL A   1      33.791  25.538  22.847  1.00  0.00     0.261 C 
ATOM      6  O   UNL A   1      33.653  25.570  21.621  1.00  0.00    -0.268 OA
ATOM      7  H   UNL A   1      33.601  27.521  22.866  1.00  0.00     0.163 HD
BRANCH   5   8
ATOM      8  C   UNL A   1      34.022  24.280  23.552  1.00  0.00     0.095 A 
ATOM      9  N   UNL A   1      33.733  20.760  24.743  1.00  0.00    -0.254 N 
ATOM     10  N   UNL A   1      34.977  20.256  24.985  1.00  0.00    -0.171 NA
ATOM     11  C   UNL A   1      33.791  22.073  24.451  1.00  0.00     0.122 A 
ATOM     12  C   UNL A   1      35.816  21.322  24.832  1.00  0.00     0.103 A 
ATOM     13  C   UNL A   1      35.071  22.422  24.391  1.00  0.00     0.040 A 
ATOM     14  S   UNL A   1      32.724  23.278  24.130  1.00  0.00    -0.110 S 
ATOM     15  C   UNL A   1      35.269  23.720  23.908  1.00  0.00     0.038 A 
BRANCH   9  16
ATOM     16  C   UNL A   1      32.528  19.966  24.628  1.00  0.00     0.142 C 
ATOM     17  C   UNL A   1      32.462  18.964  23.498  1.00  0.00     0.029 C 
ENDBRANCH   9  16
BRANCH  12  18
ATOM     18  C   UNL A   1      37.229  21.228  25.167  1.00  0.00     0.021 A 
ATOM     19  C   UNL A   1      37.957  20.047  25.001  1.00  0.00     0.013 A 
ATOM     20  C   UNL A   1      37.889  22.305  25.753  1.00  0.00     0.121 A 
ATOM     21  C   UNL A   1      39.291  19.994  25.410  1.00  0.00     0.021 A 
ATOM     22  N   UNL A   1      39.184  22.285  26.159  1.00  0.00    -0.264 NA
ATOM     23  C   UNL A   1      39.852  21.125  25.982  1.00  0.00     0.111 A 
ENDBRANCH  12  18
ENDBRANCH   5   8
ENDBRANCH   3   4
ENDBRANCH   2   3
ENDBRANCH   1   2
BRANCH   1  24
ATOM     24  C   UNL A   1      34.677  28.908  27.480  1.00  0.00     0.116 C 
BRANCH  24  25
ATOM     25  N   UNL A   1      35.022  30.091  28.265  1.00  0.00    -0.352 N 
ATOM     26  C   UNL A   1      36.147  30.279  29.038  1.00  0.00     0.251 C 
ATOM     27  H   UNL A   1      34.380  30.837  28.237  1.00  0.00     0.163 HD
ATOM     28  O   UNL A   1      36.150  31.086  29.968  1.00  0.00    -0.269 OA
BRANCH  26  29
ATOM     29  C   UNL A   1      37.355  29.497  28.735  1.00  0.00     0.039 A 
ATOM     30  C   UNL A   1      38.071  29.719  27.559  1.00  0.00     0.014 A 
ATOM     31  C   UNL A   1      37.797  28.570  29.680  1.00  0.00     0.014 A 
ATOM     32  C   UNL A   1      39.293  29.075  27.390  1.00  0.00     0.010 A 
ATOM     33  C   UNL A   1      39.054  28.013  29.560  1.00  0.00     0.010 A 
ATOM     34  C   UNL A   1      39.807  28.255  28.414  1.00  0.00    -0.014 A 
BRANCH  34  35
ATOM     35  C   UNL A   1      41.218  27.853  28.364  1.00  0.00     0.031 A 
ATOM     36  C   UNL A   1      41.424  26.583  27.614  1.00  0.00     0.074 A 
ATOM     37  C   UNL A   1      42.272  28.616  28.739  1.00  0.00     0.049 A 
ATOM     38  N   UNL A   1      41.752  25.432  28.101  1.00  0.00    -0.248 NA
ATOM     39  C   UNL A   1      41.066  26.535  26.183  1.00  0.00     0.031 C 
ATOM     40  C   UNL A   1      42.237  30.022  29.154  1.00  0.00     0.029 A 
ATOM     41  N   UNL A   1      43.618  28.341  28.734  1.00  0.00    -0.354 N 
ATOM     42  C   UNL A   1      41.943  24.606  26.996  1.00  0.00     0.074 A 
ATOM     43  C   UNL A   1      41.289  25.250  25.891  1.00  0.00     0.031 C 
ATOM     44  C   UNL A   1      43.483  30.541  29.113  1.00  0.00     0.029 A 
ATOM     45  C   UNL A   1      44.429  29.470  28.860  1.00  0.00     0.049 A 
ATOM     46  H   UNL A   1      43.978  27.429  28.647  1.00  0.00     0.167 HD
ATOM     47  C   UNL A   1      42.951  23.690  27.019  1.00  0.00     0.037 A 
ATOM     48  C   UNL A   1      45.781  29.539  28.782  1.00  0.00     0.037 A 
ATOM     49  C   UNL A   1      43.417  23.487  28.367  1.00  0.00     0.049 A 
ATOM     50  C   UNL A   1      46.327  28.194  29.053  1.00  0.00     0.074 A 
ATOM     51  C   UNL A   1      43.018  22.824  29.506  1.00  0.00     0.029 A 
ATOM     52  N   UNL A   1      44.347  24.411  28.746  1.00  0.00    -0.354 N 
ATOM     53  N   UNL A   1      46.277  27.621  30.222  1.00  0.00    -0.248 NA
ATOM     54  C   UNL A   1      46.678  27.323  27.935  1.00  0.00     0.031 C 
ATOM     55  C   UNL A   1      43.722  23.427  30.596  1.00  0.00     0.029 A 
ATOM     56  C   UNL A   1      44.563  24.413  30.093  1.00  0.00     0.049 A 
ATOM     57  H   UNL A   1      44.810  25.010  28.117  1.00  0.00     0.167 HD
ATOM     58  C   UNL A   1      46.146  26.283  29.925  1.00  0.00     0.074 A 
ATOM     59  C   UNL A   1      46.589  26.138  28.545  1.00  0.00     0.031 C 
ATOM     60  C   UNL A   1      45.332  25.486  30.673  1.00  0.00     0.037 A 
BRANCH  47  61
ATOM     61  C   UNL A   1      43.907  23.443  25.859  1.00  0.00     0.057 A 
ATOM     62  C   UNL A   1      44.131  22.114  25.446  1.00  0.00     0.134 A 
ATOM     63  C   UNL A   1      44.852  24.376  25.379  1.00  0.00     0.134 A 
ATOM     64  F   UNL A   1      43.319  21.124  25.846  1.00  0.00    -0.206 F 
ATOM     65  C   UNL A   1      45.246  21.737  24.683  1.00  0.00     0.040 A 
ATOM     66  C   UNL A   1      45.941  24.015  24.578  1.00  0.00     0.040 A 
ATOM     67  F   UNL A   1      44.842  25.664  25.734  1.00  0.00    -0.206 F 
ATOM     68  C   UNL A   1      46.160  22.688  24.253  1.00  0.00     0.006 A 
ENDBRANCH  47  61
BRANCH  48  69
ATOM     69  C   UNL A   1      46.667  30.642  28.346  1.00  0.00     0.057 A 
ATOM     70  C   UNL A   1      46.636  31.124  27.028  1.00  0.00     0.134 A 
ATOM     71  C   UNL A   1      47.336  31.446  29.282  1.00  0.00     0.134 A 
ATOM     72  F   UNL A   1      45.999  30.441  26.065  1.00  0.00    -0.206 F 
ATOM     73  C   UNL A   1      47.194  32.359  26.671  1.00  0.00     0.040 A 
ATOM     74  C   UNL A   1      47.901  32.679  28.939  1.00  0.00     0.040 A 
ATOM     75  F   UNL A   1      47.378  31.102  30.579  1.00  0.00    -0.206 F 
ATOM     76  C   UNL A   1      47.813  33.150  27.633  1.00  0.00     0.006 A 
ENDBRANCH  48  69
BRANCH  60  77
ATOM     77  C   UNL A   1      45.126  25.844  32.105  1.00  0.00     0.057 A 
ATOM     78  C   UNL A   1      45.992  25.508  33.154  1.00  0.00     0.134 A 
ATOM     79  C   UNL A   1      43.999  26.610  32.426  1.00  0.00     0.134 A 
ATOM     80  F   UNL A   1      47.128  24.832  32.927  1.00  0.00    -0.206 F 
ATOM     81  C   UNL A   1      45.723  25.892  34.471  1.00  0.00     0.040 A 
ATOM     82  C   UNL A   1      43.735  27.024  33.729  1.00  0.00     0.040 A 
ATOM     83  F   UNL A   1      43.143  26.986  31.462  1.00  0.00    -0.206 F 
ATOM     84  C   UNL A   1      44.594  26.655  34.761  1.00  0.00     0.006 A 
ENDBRANCH  60  77
ENDBRANCH  34  35
ENDBRANCH  26  29
ENDBRANCH  24  25
ENDBRANCH   1  24
TORSDOF 13
ENDMDL
