MODEL 1
REMARK VINA RESULT:     -11.7      0.000      0.000
REMARK SMILES O=C(C[C@H]1CN(S(=O)(=O)c2cc(F)cc(F)c2)CCO1)NCCCCNC(=O)c1ccc(-c2c3nc(c(-c4c(F)cccc4F)c4ccc([nH]4)c(-c4c(F)cccc4F)c4nc(c(-c5c(F)cccc5F)c5ccc2[nH]5)C=C4)C=C3)cc1
REMARK SMILES IDX 23 1 22 2 21 3 1 4 2 5 3 7 4 8 5 9 20 10 6 11 19 12 18 13
REMARK SMILES IDX 7 14 8 15 9 16 10 17 11 18 17 19 12 20 15 21 13 22 14 23
REMARK SMILES IDX 16 24 24 25 25 26 26 27 27 28 28 30 29 31 30 32 82 33 31 34
REMARK SMILES IDX 81 35 32 36 33 37 34 38 75 39 35 40 80 41 74 42 76 43 36 44
REMARK SMILES IDX 79 45 73 46 72 47 37 49 63 50 46 51 62 52 47 53 50 54 61 55
REMARK SMILES IDX 77 56 48 57 49 58 60 60 78 61 51 62 38 63 39 64 44 65 40 66
REMARK SMILES IDX 41 67 43 68 45 69 42 70 64 71 65 72 70 73 66 74 67 75 69 76
REMARK SMILES IDX 71 77 68 78 52 79 53 80 58 81 54 82 55 83 57 84 59 85 56 86
REMARK H PARENT 21 6 26 29 76 48 50 59
REMARK Flexibility Score: inf
ROOT
ATOM      1  C   UNL A   1      31.580  30.777  26.091  1.00  0.00     0.023 C 
ENDROOT
BRANCH   1   2
ATOM      2  C   UNL A   1      32.997  30.201  26.182  1.00  0.00     0.116 C 
BRANCH   2   3
ATOM      3  N   UNL A   1      33.280  29.346  25.048  1.00  0.00    -0.356 N 
ATOM      4  O   UNL A   1      33.994  27.467  26.126  1.00  0.00    -0.275 OA
ATOM      5  C   UNL A   1      33.673  28.030  25.087  1.00  0.00     0.222 C 
ATOM      6  H   UNL A   1      33.180  29.750  24.155  1.00  0.00     0.163 HD
BRANCH   5   7
ATOM      7  C   UNL A   1      33.679  27.323  23.725  1.00  0.00     0.133 C 
BRANCH   7   8
ATOM      8  C   UNL A   1      32.280  27.108  23.123  1.00  0.00     0.142 C 
ATOM      9  C   UNL A   1      32.104  25.825  22.321  1.00  0.00     0.135 C 
ATOM     10  O   UNL A   1      31.233  27.305  24.090  1.00  0.00    -0.375 OA
ATOM     11  N   UNL A   1      31.720  24.620  23.135  1.00  0.00    -0.193 NA
ATOM     12  C   UNL A   1      30.242  26.279  24.315  1.00  0.00     0.177 C 
ATOM     13  C   UNL A   1      30.286  24.971  23.488  1.00  0.00     0.131 C 
BRANCH  11  14
ATOM     14  S   UNL A   1      32.457  23.953  24.571  1.00  0.00     0.243 S 
ATOM     15  O   UNL A   1      32.166  24.826  25.685  1.00  0.00    -0.207 OA
ATOM     16  O   UNL A   1      31.997  22.579  24.613  1.00  0.00    -0.207 OA
BRANCH  14  17
ATOM     17  C   UNL A   1      34.243  23.828  24.515  1.00  0.00     0.088 A 
ATOM     18  C   UNL A   1      34.999  23.974  25.691  1.00  0.00     0.061 A 
ATOM     19  C   UNL A   1      34.878  23.296  23.385  1.00  0.00     0.061 A 
ATOM     20  C   UNL A   1      36.380  23.781  25.677  1.00  0.00     0.127 A 
ATOM     21  C   UNL A   1      36.257  23.046  23.416  1.00  0.00     0.127 A 
ATOM     22  F   UNL A   1      37.096  24.074  26.771  1.00  0.00    -0.207 F 
ATOM     23  C   UNL A   1      37.025  23.321  24.542  1.00  0.00     0.078 A 
ATOM     24  F   UNL A   1      36.860  22.556  22.326  1.00  0.00    -0.207 F 
ENDBRANCH  14  17
ENDBRANCH  11  14
ENDBRANCH   7   8
ENDBRANCH   5   7
ENDBRANCH   2   3
ENDBRANCH   1   2
BRANCH   1  25
ATOM     25  C   UNL A   1      31.388  32.225  26.553  1.00  0.00     0.023 C 
BRANCH  25  26
ATOM     26  C   UNL A   1      32.607  32.803  27.244  1.00  0.00     0.116 C 
BRANCH  26  27
ATOM     27  N   UNL A   1      32.394  34.180  27.675  1.00  0.00    -0.352 N 
ATOM     28  C   UNL A   1      33.049  34.909  28.632  1.00  0.00     0.251 C 
ATOM     29  H   UNL A   1      31.669  34.657  27.210  1.00  0.00     0.163 HD
ATOM     30  O   UNL A   1      32.638  36.018  28.958  1.00  0.00    -0.269 OA
BRANCH  28  31
ATOM     31  C   UNL A   1      34.232  34.328  29.287  1.00  0.00     0.039 A 
ATOM     32  C   UNL A   1      34.061  33.484  30.385  1.00  0.00     0.014 A 
ATOM     33  C   UNL A   1      35.504  34.578  28.771  1.00  0.00     0.014 A 
ATOM     34  C   UNL A   1      35.170  32.837  30.925  1.00  0.00     0.010 A 
ATOM     35  C   UNL A   1      36.579  33.835  29.222  1.00  0.00     0.010 A 
ATOM     36  C   UNL A   1      36.430  32.977  30.321  1.00  0.00    -0.014 A 
BRANCH  36  37
ATOM     37  C   UNL A   1      37.632  32.289  30.843  1.00  0.00     0.031 A 
ATOM     38  C   UNL A   1      38.262  32.784  32.117  1.00  0.00     0.074 A 
ATOM     39  C   UNL A   1      38.198  31.294  30.135  1.00  0.00     0.049 A 
ATOM     40  N   UNL A   1      39.393  32.434  32.671  1.00  0.00    -0.248 NA
ATOM     41  C   UNL A   1      37.554  33.859  32.835  1.00  0.00     0.031 C 
ATOM     42  C   UNL A   1      37.712  30.777  28.854  1.00  0.00     0.029 A 
ATOM     43  N   UNL A   1      39.314  30.540  30.394  1.00  0.00    -0.354 N 
ATOM     44  C   UNL A   1      39.546  33.274  33.767  1.00  0.00     0.074 A 
ATOM     45  C   UNL A   1      38.438  34.198  33.759  1.00  0.00     0.031 C 
ATOM     46  C   UNL A   1      38.495  29.758  28.465  1.00  0.00     0.029 A 
ATOM     47  C   UNL A   1      39.561  29.579  29.444  1.00  0.00     0.049 A 
ATOM     48  H   UNL A   1      39.883  30.675  31.186  1.00  0.00     0.167 HD
ATOM     49  C   UNL A   1      40.504  33.247  34.721  1.00  0.00     0.037 A 
ATOM     50  C   UNL A   1      40.538  28.655  29.382  1.00  0.00     0.037 A 
ATOM     51  C   UNL A   1      41.552  32.265  34.765  1.00  0.00     0.049 A 
ATOM     52  C   UNL A   1      41.559  28.606  30.485  1.00  0.00     0.074 A 
ATOM     53  C   UNL A   1      42.527  32.089  35.728  1.00  0.00     0.029 A 
ATOM     54  N   UNL A   1      41.740  31.276  33.810  1.00  0.00    -0.354 N 
ATOM     55  N   UNL A   1      41.667  29.375  31.542  1.00  0.00    -0.248 NA
ATOM     56  C   UNL A   1      42.589  27.564  30.390  1.00  0.00     0.031 C 
ATOM     57  C   UNL A   1      43.324  31.008  35.343  1.00  0.00     0.029 A 
ATOM     58  C   UNL A   1      42.821  30.489  34.159  1.00  0.00     0.049 A 
ATOM     59  H   UNL A   1      41.187  31.154  33.006  1.00  0.00     0.167 HD
ATOM     60  C   UNL A   1      42.761  28.897  32.251  1.00  0.00     0.074 A 
ATOM     61  C   UNL A   1      43.274  27.762  31.510  1.00  0.00     0.031 C 
ATOM     62  C   UNL A   1      43.297  29.356  33.407  1.00  0.00     0.037 A 
BRANCH  49  63
ATOM     63  C   UNL A   1      40.435  34.279  35.808  1.00  0.00     0.057 A 
ATOM     64  C   UNL A   1      39.800  33.999  37.023  1.00  0.00     0.134 A 
ATOM     65  C   UNL A   1      40.971  35.564  35.641  1.00  0.00     0.134 A 
ATOM     66  F   UNL A   1      39.263  32.789  37.249  1.00  0.00    -0.206 F 
ATOM     67  C   UNL A   1      39.697  34.958  38.031  1.00  0.00     0.040 A 
ATOM     68  C   UNL A   1      40.901  36.522  36.653  1.00  0.00     0.040 A 
ATOM     69  F   UNL A   1      41.608  35.892  34.506  1.00  0.00    -0.206 F 
ATOM     70  C   UNL A   1      40.254  36.223  37.850  1.00  0.00     0.006 A 
ENDBRANCH  49  63
BRANCH  50  71
ATOM     71  C   UNL A   1      40.559  27.672  28.270  1.00  0.00     0.057 A 
ATOM     72  C   UNL A   1      41.263  27.910  27.084  1.00  0.00     0.134 A 
ATOM     73  C   UNL A   1      39.845  26.471  28.366  1.00  0.00     0.134 A 
ATOM     74  F   UNL A   1      41.955  29.049  26.925  1.00  0.00    -0.206 F 
ATOM     75  C   UNL A   1      41.249  26.995  26.030  1.00  0.00     0.040 A 
ATOM     76  C   UNL A   1      39.842  25.536  27.329  1.00  0.00     0.040 A 
ATOM     77  F   UNL A   1      39.161  26.179  29.482  1.00  0.00    -0.206 F 
ATOM     78  C   UNL A   1      40.542  25.800  26.153  1.00  0.00     0.006 A 
ENDBRANCH  50  71
BRANCH  62  79
ATOM     79  C   UNL A   1      44.482  28.623  33.957  1.00  0.00     0.057 A 
ATOM     80  C   UNL A   1      44.308  27.572  34.866  1.00  0.00     0.134 A 
ATOM     81  C   UNL A   1      45.790  29.015  33.656  1.00  0.00     0.134 A 
ATOM     82  F   UNL A   1      43.077  27.159  35.203  1.00  0.00    -0.206 F 
ATOM     83  C   UNL A   1      45.399  26.946  35.469  1.00  0.00     0.040 A 
ATOM     84  C   UNL A   1      46.889  28.381  34.234  1.00  0.00     0.040 A 
ATOM     85  F   UNL A   1      46.018  30.011  32.785  1.00  0.00    -0.206 F 
ATOM     86  C   UNL A   1      46.694  27.350  35.151  1.00  0.00     0.006 A 
ENDBRANCH  62  79
ENDBRANCH  36  37
ENDBRANCH  28  31
ENDBRANCH  26  27
ENDBRANCH  25  26
ENDBRANCH   1  25
TORSDOF 14
ENDMDL
MODEL 2
REMARK VINA RESULT:     -11.7      3.824      8.358
REMARK SMILES O=C(C[C@H]1CN(S(=O)(=O)c2cc(F)cc(F)c2)CCO1)NCCCCNC(=O)c1ccc(-c2c3nc(c(-c4c(F)cccc4F)c4ccc([nH]4)c(-c4c(F)cccc4F)c4nc(c(-c5c(F)cccc5F)c5ccc2[nH]5)C=C4)C=C3)cc1
REMARK SMILES IDX 23 1 22 2 21 3 1 4 2 5 3 7 4 8 5 9 20 10 6 11 19 12 18 13
REMARK SMILES IDX 7 14 8 15 9 16 10 17 11 18 17 19 12 20 15 21 13 22 14 23
REMARK SMILES IDX 16 24 24 25 25 26 26 27 27 28 28 30 29 31 30 32 82 33 31 34
REMARK SMILES IDX 81 35 32 36 33 37 34 38 75 39 35 40 80 41 74 42 76 43 36 44
REMARK SMILES IDX 79 45 73 46 72 47 37 49 63 50 46 51 62 52 47 53 50 54 61 55
REMARK SMILES IDX 77 56 48 57 49 58 60 60 78 61 51 62 38 63 39 64 44 65 40 66
REMARK SMILES IDX 41 67 43 68 45 69 42 70 64 71 65 72 70 73 66 74 67 75 69 76
REMARK SMILES IDX 71 77 68 78 52 79 53 80 58 81 54 82 55 83 57 84 59 85 56 86
REMARK H PARENT 21 6 26 29 76 48 50 59
REMARK Flexibility Score: inf
ROOT
ATOM      1  C   UNL A   1      34.534  22.795  25.382  1.00  0.00     0.023 C 
ENDROOT
BRANCH   1   2
ATOM      2  C   UNL A   1      33.777  23.523  26.498  1.00  0.00     0.116 C 
BRANCH   2   3
ATOM      3  N   UNL A   1      32.783  24.420  25.946  1.00  0.00    -0.356 N 
ATOM      4  O   UNL A   1      30.989  23.887  27.250  1.00  0.00    -0.275 OA
ATOM      5  C   UNL A   1      31.499  24.606  26.400  1.00  0.00     0.222 C 
ATOM      6  H   UNL A   1      33.055  24.953  25.164  1.00  0.00     0.163 HD
BRANCH   5   7
ATOM      7  C   UNL A   1      30.757  25.784  25.756  1.00  0.00     0.133 C 
BRANCH   7   8
ATOM      8  C   UNL A   1      30.396  25.565  24.276  1.00  0.00     0.142 C 
ATOM      9  C   UNL A   1      30.243  26.833  23.448  1.00  0.00     0.135 C 
ATOM     10  O   UNL A   1      31.244  24.588  23.646  1.00  0.00    -0.375 OA
ATOM     11  N   UNL A   1      31.522  27.355  22.851  1.00  0.00    -0.193 NA
ATOM     12  C   UNL A   1      31.953  24.912  22.430  1.00  0.00     0.177 C 
ATOM     13  C   UNL A   1      31.775  26.307  21.783  1.00  0.00     0.131 C 
BRANCH  11  14
ATOM     14  S   UNL A   1      33.056  27.701  23.610  1.00  0.00     0.243 S 
ATOM     15  O   UNL A   1      33.649  26.454  24.036  1.00  0.00    -0.207 OA
ATOM     16  O   UNL A   1      33.761  28.525  22.648  1.00  0.00    -0.207 OA
BRANCH  14  17
ATOM     17  C   UNL A   1      32.959  28.712  25.084  1.00  0.00     0.088 A 
ATOM     18  C   UNL A   1      34.027  28.736  25.997  1.00  0.00     0.061 A 
ATOM     19  C   UNL A   1      31.973  29.701  25.197  1.00  0.00     0.061 A 
ATOM     20  C   UNL A   1      34.004  29.595  27.097  1.00  0.00     0.127 A 
ATOM     21  C   UNL A   1      32.008  30.598  26.274  1.00  0.00     0.127 A 
ATOM     22  F   UNL A   1      34.958  29.491  28.032  1.00  0.00    -0.207 F 
ATOM     23  C   UNL A   1      32.994  30.529  27.251  1.00  0.00     0.078 A 
ATOM     24  F   UNL A   1      31.052  31.528  26.386  1.00  0.00    -0.207 F 
ENDBRANCH  14  17
ENDBRANCH  11  14
ENDBRANCH   7   8
ENDBRANCH   5   7
ENDBRANCH   2   3
ENDBRANCH   1   2
BRANCH   1  25
ATOM     25  C   UNL A   1      35.882  23.386  24.957  1.00  0.00     0.023 C 
BRANCH  25  26
ATOM     26  C   UNL A   1      36.836  23.600  26.115  1.00  0.00     0.116 C 
BRANCH  26  27
ATOM     27  N   UNL A   1      37.861  22.565  26.184  1.00  0.00    -0.352 N 
ATOM     28  C   UNL A   1      39.198  22.673  26.461  1.00  0.00     0.251 C 
ATOM     29  H   UNL A   1      37.544  21.651  26.003  1.00  0.00     0.163 HD
ATOM     30  O   UNL A   1      39.939  21.702  26.336  1.00  0.00    -0.269 OA
BRANCH  28  31
ATOM     31  C   UNL A   1      39.738  23.978  26.876  1.00  0.00     0.039 A 
ATOM     32  C   UNL A   1      40.094  24.911  25.902  1.00  0.00     0.014 A 
ATOM     33  C   UNL A   1      39.834  24.290  28.232  1.00  0.00     0.014 A 
ATOM     34  C   UNL A   1      40.487  26.189  26.296  1.00  0.00     0.010 A 
ATOM     35  C   UNL A   1      40.094  25.593  28.614  1.00  0.00     0.010 A 
ATOM     36  C   UNL A   1      40.450  26.550  27.653  1.00  0.00    -0.014 A 
BRANCH  36  37
ATOM     37  C   UNL A   1      40.832  27.902  28.116  1.00  0.00     0.031 A 
ATOM     38  C   UNL A   1      42.286  28.292  28.113  1.00  0.00     0.074 A 
ATOM     39  C   UNL A   1      39.897  28.731  28.616  1.00  0.00     0.049 A 
ATOM     40  N   UNL A   1      42.858  29.355  28.612  1.00  0.00    -0.248 NA
ATOM     41  C   UNL A   1      43.231  27.328  27.521  1.00  0.00     0.031 C 
ATOM     42  C   UNL A   1      38.468  28.433  28.730  1.00  0.00     0.029 A 
ATOM     43  N   UNL A   1      40.013  29.999  29.127  1.00  0.00    -0.354 N 
ATOM     44  C   UNL A   1      44.223  29.163  28.432  1.00  0.00     0.074 A 
ATOM     45  C   UNL A   1      44.399  27.854  27.851  1.00  0.00     0.031 C 
ATOM     46  C   UNL A   1      37.833  29.506  29.228  1.00  0.00     0.029 A 
ATOM     47  C   UNL A   1      38.813  30.549  29.509  1.00  0.00     0.049 A 
ATOM     48  H   UNL A   1      40.873  30.469  29.211  1.00  0.00     0.167 HD
ATOM     49  C   UNL A   1      45.235  30.022  28.688  1.00  0.00     0.037 A 
ATOM     50  C   UNL A   1      38.543  31.764  30.022  1.00  0.00     0.037 A 
ATOM     51  C   UNL A   1      45.037  31.355  29.184  1.00  0.00     0.049 A 
ATOM     52  C   UNL A   1      39.679  32.724  30.244  1.00  0.00     0.074 A 
ATOM     53  C   UNL A   1      45.979  32.342  29.402  1.00  0.00     0.029 A 
ATOM     54  N   UNL A   1      43.801  31.894  29.514  1.00  0.00    -0.354 N 
ATOM     55  N   UNL A   1      40.961  32.549  30.027  1.00  0.00    -0.248 NA
ATOM     56  C   UNL A   1      39.334  34.048  30.779  1.00  0.00     0.031 C 
ATOM     57  C   UNL A   1      45.318  33.472  29.889  1.00  0.00     0.029 A 
ATOM     58  C   UNL A   1      43.959  33.200  29.940  1.00  0.00     0.049 A 
ATOM     59  H   UNL A   1      42.943  31.418  29.453  1.00  0.00     0.167 HD
ATOM     60  C   UNL A   1      41.573  33.745  30.375  1.00  0.00     0.074 A 
ATOM     61  C   UNL A   1      40.519  34.643  30.804  1.00  0.00     0.031 C 
ATOM     62  C   UNL A   1      42.887  34.073  30.346  1.00  0.00     0.037 A 
BRANCH  49  63
ATOM     63  C   UNL A   1      46.632  29.559  28.399  1.00  0.00     0.057 A 
ATOM     64  C   UNL A   1      47.408  28.953  29.394  1.00  0.00     0.134 A 
ATOM     65  C   UNL A   1      47.224  29.741  27.141  1.00  0.00     0.134 A 
ATOM     66  F   UNL A   1      46.903  28.750  30.621  1.00  0.00    -0.206 F 
ATOM     67  C   UNL A   1      48.720  28.547  29.151  1.00  0.00     0.040 A 
ATOM     68  C   UNL A   1      48.525  29.311  26.876  1.00  0.00     0.040 A 
ATOM     69  F   UNL A   1      46.530  30.300  26.138  1.00  0.00    -0.206 F 
ATOM     70  C   UNL A   1      49.281  28.720  27.886  1.00  0.00     0.006 A 
ENDBRANCH  49  63
BRANCH  50  71
ATOM     71  C   UNL A   1      37.139  32.155  30.302  1.00  0.00     0.057 A 
ATOM     72  C   UNL A   1      36.558  31.977  31.563  1.00  0.00     0.134 A 
ATOM     73  C   UNL A   1      36.334  32.698  29.293  1.00  0.00     0.134 A 
ATOM     74  F   UNL A   1      37.272  31.448  32.569  1.00  0.00    -0.206 F 
ATOM     75  C   UNL A   1      35.227  32.316  31.809  1.00  0.00     0.040 A 
ATOM     76  C   UNL A   1      35.008  33.063  29.531  1.00  0.00     0.040 A 
ATOM     77  F   UNL A   1      36.837  32.904  28.067  1.00  0.00    -0.206 F 
ATOM     78  C   UNL A   1      34.449  32.867  30.791  1.00  0.00     0.006 A 
ENDBRANCH  50  71
BRANCH  62  79
ATOM     79  C   UNL A   1      43.262  35.460  30.767  1.00  0.00     0.057 A 
ATOM     80  C   UNL A   1      43.408  36.477  29.816  1.00  0.00     0.134 A 
ATOM     81  C   UNL A   1      43.563  35.765  32.099  1.00  0.00     0.134 A 
ATOM     82  F   UNL A   1      43.146  36.241  28.521  1.00  0.00    -0.206 F 
ATOM     83  C   UNL A   1      43.857  37.748  30.174  1.00  0.00     0.040 A 
ATOM     84  C   UNL A   1      43.990  37.038  32.473  1.00  0.00     0.040 A 
ATOM     85  F   UNL A   1      43.433  34.833  33.056  1.00  0.00    -0.206 F 
ATOM     86  C   UNL A   1      44.148  38.031  31.507  1.00  0.00     0.006 A 
ENDBRANCH  62  79
ENDBRANCH  36  37
ENDBRANCH  28  31
ENDBRANCH  26  27
ENDBRANCH  25  26
ENDBRANCH   1  25
TORSDOF 14
ENDMDL
MODEL 3
REMARK VINA RESULT:     -11.6      4.806      9.826
REMARK SMILES O=C(C[C@H]1CN(S(=O)(=O)c2cc(F)cc(F)c2)CCO1)NCCCCNC(=O)c1ccc(-c2c3nc(c(-c4c(F)cccc4F)c4ccc([nH]4)c(-c4c(F)cccc4F)c4nc(c(-c5c(F)cccc5F)c5ccc2[nH]5)C=C4)C=C3)cc1
REMARK SMILES IDX 23 1 22 2 21 3 1 4 2 5 3 7 4 8 5 9 20 10 6 11 19 12 18 13
REMARK SMILES IDX 7 14 8 15 9 16 10 17 11 18 17 19 12 20 15 21 13 22 14 23
REMARK SMILES IDX 16 24 24 25 25 26 26 27 27 28 28 30 29 31 30 32 82 33 31 34
REMARK SMILES IDX 81 35 32 36 33 37 34 38 75 39 35 40 80 41 74 42 76 43 36 44
REMARK SMILES IDX 79 45 73 46 72 47 37 49 63 50 46 51 62 52 47 53 50 54 61 55
REMARK SMILES IDX 77 56 48 57 49 58 60 60 78 61 51 62 38 63 39 64 44 65 40 66
REMARK SMILES IDX 41 67 43 68 45 69 42 70 64 71 65 72 70 73 66 74 67 75 69 76
REMARK SMILES IDX 71 77 68 78 52 79 53 80 58 81 54 82 55 83 57 84 59 85 56 86
REMARK H PARENT 21 6 26 29 76 48 50 59
REMARK Flexibility Score: inf
ROOT
ATOM      1  C   UNL A   1      37.402  20.960  24.717  1.00  0.00     0.023 C 
ENDROOT
BRANCH   1   2
ATOM      2  C   UNL A   1      37.468  22.095  25.744  1.00  0.00     0.116 C 
BRANCH   2   3
ATOM      3  N   UNL A   1      36.150  22.394  26.266  1.00  0.00    -0.356 N 
ATOM      4  O   UNL A   1      35.819  24.463  25.363  1.00  0.00    -0.275 OA
ATOM      5  C   UNL A   1      35.385  23.500  25.982  1.00  0.00     0.222 C 
ATOM      6  H   UNL A   1      35.763  21.738  26.889  1.00  0.00     0.163 HD
BRANCH   5   7
ATOM      7  C   UNL A   1      33.944  23.431  26.507  1.00  0.00     0.133 C 
BRANCH   7   8
ATOM      8  C   UNL A   1      33.024  22.502  25.696  1.00  0.00     0.142 C 
ATOM      9  C   UNL A   1      31.579  22.965  25.567  1.00  0.00     0.135 C 
ATOM     10  O   UNL A   1      33.602  22.129  24.432  1.00  0.00    -0.375 OA
ATOM     11  N   UNL A   1      31.315  23.899  24.418  1.00  0.00    -0.193 NA
ATOM     12  C   UNL A   1      32.872  22.340  23.204  1.00  0.00     0.177 C 
ATOM     13  C   UNL A   1      31.446  22.941  23.248  1.00  0.00     0.131 C 
BRANCH  11  14
ATOM     14  S   UNL A   1      32.123  25.380  23.966  1.00  0.00     0.243 S 
ATOM     15  O   UNL A   1      33.418  25.047  23.418  1.00  0.00    -0.207 OA
ATOM     16  O   UNL A   1      31.164  26.080  23.134  1.00  0.00    -0.207 OA
BRANCH  14  17
ATOM     17  C   UNL A   1      32.451  26.505  25.320  1.00  0.00     0.088 A 
ATOM     18  C   UNL A   1      33.637  27.260  25.340  1.00  0.00     0.061 A 
ATOM     19  C   UNL A   1      31.424  26.867  26.201  1.00  0.00     0.061 A 
ATOM     20  C   UNL A   1      33.857  28.211  26.337  1.00  0.00     0.127 A 
ATOM     21  C   UNL A   1      31.645  27.874  27.151  1.00  0.00     0.127 A 
ATOM     22  F   UNL A   1      35.054  28.807  26.424  1.00  0.00    -0.207 F 
ATOM     23  C   UNL A   1      32.869  28.525  27.254  1.00  0.00     0.078 A 
ATOM     24  F   UNL A   1      30.665  28.202  28.001  1.00  0.00    -0.207 F 
ENDBRANCH  14  17
ENDBRANCH  11  14
ENDBRANCH   7   8
ENDBRANCH   5   7
ENDBRANCH   2   3
ENDBRANCH   1   2
BRANCH   1  25
ATOM     25  C   UNL A   1      38.286  19.736  24.978  1.00  0.00     0.023 C 
BRANCH  25  26
ATOM     26  C   UNL A   1      39.278  19.939  26.106  1.00  0.00     0.116 C 
BRANCH  26  27
ATOM     27  N   UNL A   1      40.375  18.980  26.054  1.00  0.00    -0.352 N 
ATOM     28  C   UNL A   1      41.726  19.190  26.129  1.00  0.00     0.251 C 
ATOM     29  H   UNL A   1      40.103  18.039  25.949  1.00  0.00     0.163 HD
ATOM     30  O   UNL A   1      42.511  18.268  25.926  1.00  0.00    -0.269 OA
BRANCH  28  31
ATOM     31  C   UNL A   1      42.224  20.544  26.422  1.00  0.00     0.039 A 
ATOM     32  C   UNL A   1      42.483  21.419  25.367  1.00  0.00     0.014 A 
ATOM     33  C   UNL A   1      42.375  20.958  27.745  1.00  0.00     0.014 A 
ATOM     34  C   UNL A   1      42.833  22.738  25.648  1.00  0.00     0.010 A 
ATOM     35  C   UNL A   1      42.591  22.295  28.019  1.00  0.00     0.010 A 
ATOM     36  C   UNL A   1      42.850  23.195  26.976  1.00  0.00    -0.014 A 
BRANCH  36  37
ATOM     37  C   UNL A   1      43.190  24.593  27.321  1.00  0.00     0.031 A 
ATOM     38  C   UNL A   1      44.625  25.038  27.236  1.00  0.00     0.074 A 
ATOM     39  C   UNL A   1      42.237  25.420  27.790  1.00  0.00     0.049 A 
ATOM     40  N   UNL A   1      45.168  26.159  27.632  1.00  0.00    -0.248 NA
ATOM     41  C   UNL A   1      45.590  24.070  26.686  1.00  0.00     0.031 C 
ATOM     42  C   UNL A   1      40.826  25.076  27.978  1.00  0.00     0.029 A 
ATOM     43  N   UNL A   1      42.316  26.727  28.199  1.00  0.00    -0.354 N 
ATOM     44  C   UNL A   1      46.533  26.007  27.419  1.00  0.00     0.074 A 
ATOM     45  C   UNL A   1      46.745  24.665  26.933  1.00  0.00     0.031 C 
ATOM     46  C   UNL A   1      40.163  26.158  28.416  1.00  0.00     0.029 A 
ATOM     47  C   UNL A   1      41.108  27.258  28.582  1.00  0.00     0.049 A 
ATOM     48  H   UNL A   1      43.158  27.236  28.216  1.00  0.00     0.167 HD
ATOM     49  C   UNL A   1      47.515  26.923  27.573  1.00  0.00     0.037 A 
ATOM     50  C   UNL A   1      40.804  28.497  29.010  1.00  0.00     0.037 A 
ATOM     51  C   UNL A   1      47.278  28.282  27.973  1.00  0.00     0.049 A 
ATOM     52  C   UNL A   1      41.904  29.515  29.118  1.00  0.00     0.074 A 
ATOM     53  C   UNL A   1      48.185  29.319  28.082  1.00  0.00     0.029 A 
ATOM     54  N   UNL A   1      46.032  28.795  28.305  1.00  0.00    -0.354 N 
ATOM     55  N   UNL A   1      43.185  29.375  28.869  1.00  0.00    -0.248 NA
ATOM     56  C   UNL A   1      41.522  30.861  29.563  1.00  0.00     0.031 C 
ATOM     57  C   UNL A   1      47.492  30.456  28.505  1.00  0.00     0.029 A 
ATOM     58  C   UNL A   1      46.148  30.135  28.625  1.00  0.00     0.049 A 
ATOM     59  H   UNL A   1      45.193  28.282  28.312  1.00  0.00     0.167 HD
ATOM     60  C   UNL A   1      43.757  30.617  29.103  1.00  0.00     0.074 A 
ATOM     61  C   UNL A   1      42.681  31.503  29.501  1.00  0.00     0.031 C 
ATOM     62  C   UNL A   1      45.055  30.993  29.003  1.00  0.00     0.037 A 
BRANCH  49  63
ATOM     63  C   UNL A   1      48.921  26.495  27.269  1.00  0.00     0.057 A 
ATOM     64  C   UNL A   1      49.426  26.565  25.965  1.00  0.00     0.134 A 
ATOM     65  C   UNL A   1      49.768  25.982  28.262  1.00  0.00     0.134 A 
ATOM     66  F   UNL A   1      48.668  27.044  24.966  1.00  0.00    -0.206 F 
ATOM     67  C   UNL A   1      50.719  26.139  25.660  1.00  0.00     0.040 A 
ATOM     68  C   UNL A   1      51.073  25.582  27.975  1.00  0.00     0.040 A 
ATOM     69  F   UNL A   1      49.351  25.903  29.536  1.00  0.00    -0.206 F 
ATOM     70  C   UNL A   1      51.549  25.651  26.667  1.00  0.00     0.006 A 
ENDBRANCH  49  63
BRANCH  50  71
ATOM     71  C   UNL A   1      39.394  28.852  29.310  1.00  0.00     0.057 A 
ATOM     72  C   UNL A   1      38.833  28.649  30.576  1.00  0.00     0.134 A 
ATOM     73  C   UNL A   1      38.565  29.386  28.316  1.00  0.00     0.134 A 
ATOM     74  F   UNL A   1      39.571  28.128  31.568  1.00  0.00    -0.206 F 
ATOM     75  C   UNL A   1      37.497  28.955  30.841  1.00  0.00     0.040 A 
ATOM     76  C   UNL A   1      37.234  29.717  28.572  1.00  0.00     0.040 A 
ATOM     77  F   UNL A   1      39.049  29.614  27.086  1.00  0.00    -0.206 F 
ATOM     78  C   UNL A   1      36.694  29.496  29.838  1.00  0.00     0.006 A 
ENDBRANCH  50  71
BRANCH  62  79
ATOM     79  C   UNL A   1      45.384  32.423  29.304  1.00  0.00     0.057 A 
ATOM     80  C   UNL A   1      45.704  32.819  30.608  1.00  0.00     0.134 A 
ATOM     81  C   UNL A   1      45.298  33.417  28.323  1.00  0.00     0.134 A 
ATOM     82  F   UNL A   1      45.790  31.913  31.594  1.00  0.00    -0.206 F 
ATOM     83  C   UNL A   1      45.912  34.160  30.930  1.00  0.00     0.040 A 
ATOM     84  C   UNL A   1      45.527  34.758  28.627  1.00  0.00     0.040 A 
ATOM     85  F   UNL A   1      45.003  33.096  27.054  1.00  0.00    -0.206 F 
ATOM     86  C   UNL A   1      45.825  35.133  29.937  1.00  0.00     0.006 A 
ENDBRANCH  62  79
ENDBRANCH  36  37
ENDBRANCH  28  31
ENDBRANCH  26  27
ENDBRANCH  25  26
ENDBRANCH   1  25
TORSDOF 14
ENDMDL
