MODEL 1
REMARK VINA RESULT:     -13.0      0.000      0.000
REMARK SMILES CCc1sc(NC(=O)[C@H]2CC(C)=C(C)C[C@H]2C(=O)NCCCCNC(=O)c2ccc(-c3c4nc(c(-c5c(F)cccc5F)c5ccc([nH]5)c(-c5c(F)cccc5F)c5nc(c(-c6c(F)cccc6F)c6ccc3[nH]6)C=C5)C=C4)cc2)nc1-c1ccccc1
REMARK SMILES IDX 21 1 20 2 19 3 17 4 18 5 16 7 9 8 10 9 11 10 15 11 12 12
REMARK SMILES IDX 13 13 14 14 7 15 6 16 8 18 5 19 3 20 4 21 82 22 81 23 2 24
REMARK SMILES IDX 1 25 83 26 84 27 88 28 85 29 87 30 86 31 22 32 23 33 24 34
REMARK SMILES IDX 25 35 26 37 27 38 28 39 80 40 29 41 79 42 30 43 31 44 32 45
REMARK SMILES IDX 73 46 33 47 78 48 72 49 74 50 34 51 77 52 71 53 70 54 35 56
REMARK SMILES IDX 61 57 44 58 60 59 45 60 48 61 59 62 75 63 46 64 47 65 58 67
REMARK SMILES IDX 76 68 49 69 36 70 37 71 42 72 38 73 39 74 41 75 43 76 40 77
REMARK SMILES IDX 62 78 63 79 68 80 64 81 65 82 67 83 69 84 66 85 50 86 51 87
REMARK SMILES IDX 56 88 52 89 53 90 55 91 57 92 54 93
REMARK H PARENT 19 6 6 17 24 36 74 55 48 66
REMARK Flexibility Score: inf
ROOT
ATOM      1  C   UNL A   1      37.365  19.569  24.978  1.00  0.00     0.023 C 
ENDROOT
BRANCH   1   2
ATOM      2  C   UNL A   1      35.975  20.185  24.966  1.00  0.00     0.116 C 
BRANCH   2   3
ATOM      3  N   UNL A   1      35.939  21.460  25.639  1.00  0.00    -0.356 N 
ATOM      4  C   UNL A   1      34.886  22.243  25.965  1.00  0.00     0.224 C 
ATOM      5  O   UNL A   1      35.128  23.261  26.617  1.00  0.00    -0.275 OA
ATOM      6  H   UNL A   1      36.818  21.815  25.902  1.00  0.00     0.163 HD
BRANCH   4   7
ATOM      7  C   UNL A   1      33.448  21.903  25.583  1.00  0.00     0.095 C 
ATOM      8  C   UNL A   1      32.979  22.289  24.165  1.00  0.00     0.095 C 
ATOM      9  C   UNL A   1      32.817  21.068  23.215  1.00  0.00     0.045 C 
ATOM     10  C   UNL A   1      32.601  19.696  23.812  1.00  0.00    -0.074 C 
ATOM     11  C   UNL A   1      32.992  20.543  26.128  1.00  0.00     0.045 C 
ATOM     12  C   UNL A   1      32.418  18.614  22.774  1.00  0.00     0.039 C 
ATOM     13  C   UNL A   1      32.680  19.459  25.136  1.00  0.00    -0.074 C 
ATOM     14  C   UNL A   1      32.528  18.089  25.747  1.00  0.00     0.039 C 
BRANCH   8  15
ATOM     15  C   UNL A   1      33.822  23.367  23.440  1.00  0.00     0.230 C 
ATOM     16  N   UNL A   1      33.711  24.706  23.587  1.00  0.00    -0.302 N 
ATOM     17  H   UNL A   1      34.448  25.191  23.150  1.00  0.00     0.172 HD
ATOM     18  O   UNL A   1      34.695  23.023  22.628  1.00  0.00    -0.274 OA
BRANCH  16  19
ATOM     19  C   UNL A   1      32.828  25.547  24.193  1.00  0.00     0.190 A 
ATOM     20  C   UNL A   1      31.661  27.048  25.665  1.00  0.00     0.034 A 
ATOM     21  S   UNL A   1      32.647  25.661  25.871  1.00  0.00    -0.101 S 
ATOM     22  C   UNL A   1      31.316  27.139  24.325  1.00  0.00     0.087 A 
ATOM     23  N   UNL A   1      31.971  26.250  23.490  1.00  0.00    -0.220 NA
BRANCH  20  24
ATOM     24  C   UNL A   1      31.285  27.876  26.850  1.00  0.00     0.046 C 
ATOM     25  C   UNL A   1      32.377  28.848  27.250  1.00  0.00     0.010 C 
ENDBRANCH  20  24
BRANCH  22  26
ATOM     26  C   UNL A   1      30.275  28.019  23.824  1.00  0.00     0.001 A 
ATOM     27  C   UNL A   1      30.448  29.406  23.771  1.00  0.00     0.010 A 
ATOM     28  C   UNL A   1      29.040  27.464  23.470  1.00  0.00     0.010 A 
ATOM     29  C   UNL A   1      29.375  30.232  23.430  1.00  0.00     0.001 A 
ATOM     30  C   UNL A   1      27.969  28.290  23.129  1.00  0.00     0.001 A 
ATOM     31  C   UNL A   1      28.133  29.674  23.123  1.00  0.00     0.000 A 
ENDBRANCH  22  26
ENDBRANCH  16  19
ENDBRANCH   8  15
ENDBRANCH   4   7
ENDBRANCH   2   3
ENDBRANCH   1   2
BRANCH   1  32
ATOM     32  C   UNL A   1      38.501  20.585  24.998  1.00  0.00     0.023 C 
BRANCH  32  33
ATOM     33  C   UNL A   1      39.451  20.443  26.177  1.00  0.00     0.116 C 
BRANCH  33  34
ATOM     34  N   UNL A   1      40.333  19.288  26.073  1.00  0.00    -0.352 N 
ATOM     35  C   UNL A   1      41.704  19.256  26.144  1.00  0.00     0.251 C 
ATOM     36  H   UNL A   1      39.890  18.420  25.933  1.00  0.00     0.163 HD
ATOM     37  O   UNL A   1      42.327  18.220  25.942  1.00  0.00    -0.269 OA
BRANCH  35  38
ATOM     38  C   UNL A   1      42.414  20.515  26.429  1.00  0.00     0.039 A 
ATOM     39  C   UNL A   1      42.857  21.297  25.362  1.00  0.00     0.014 A 
ATOM     40  C   UNL A   1      42.545  20.956  27.749  1.00  0.00     0.014 A 
ATOM     41  C   UNL A   1      43.371  22.568  25.617  1.00  0.00     0.010 A 
ATOM     42  C   UNL A   1      42.979  22.251  27.992  1.00  0.00     0.010 A 
ATOM     43  C   UNL A   1      43.398  23.067  26.930  1.00  0.00    -0.014 A 
BRANCH  43  44
ATOM     44  C   UNL A   1      43.864  24.443  27.220  1.00  0.00     0.031 A 
ATOM     45  C   UNL A   1      42.878  25.485  27.664  1.00  0.00     0.074 A 
ATOM     46  C   UNL A   1      45.149  24.774  26.994  1.00  0.00     0.049 A 
ATOM     47  N   UNL A   1      43.065  26.760  27.880  1.00  0.00    -0.248 NA
ATOM     48  C   UNL A   1      41.486  25.041  27.845  1.00  0.00     0.031 C 
ATOM     49  C   UNL A   1      46.183  23.869  26.487  1.00  0.00     0.029 A 
ATOM     50  N   UNL A   1      45.800  25.972  27.144  1.00  0.00    -0.354 N 
ATOM     51  C   UNL A   1      41.813  27.275  28.192  1.00  0.00     0.074 A 
ATOM     52  C   UNL A   1      40.868  26.186  28.086  1.00  0.00     0.031 C 
ATOM     53  C   UNL A   1      47.340  24.540  26.382  1.00  0.00     0.029 A 
ATOM     54  C   UNL A   1      47.125  25.927  26.787  1.00  0.00     0.049 A 
ATOM     55  H   UNL A   1      45.359  26.788  27.476  1.00  0.00     0.167 HD
ATOM     56  C   UNL A   1      41.486  28.537  28.557  1.00  0.00     0.037 A 
ATOM     57  C   UNL A   1      48.059  26.895  26.784  1.00  0.00     0.037 A 
ATOM     58  C   UNL A   1      42.439  29.602  28.708  1.00  0.00     0.049 A 
ATOM     59  C   UNL A   1      47.686  28.274  27.249  1.00  0.00     0.074 A 
ATOM     60  C   UNL A   1      42.229  30.888  29.173  1.00  0.00     0.029 A 
ATOM     61  N   UNL A   1      43.786  29.503  28.396  1.00  0.00    -0.354 N 
ATOM     62  N   UNL A   1      46.518  28.726  27.634  1.00  0.00    -0.248 NA
ATOM     63  C   UNL A   1      48.764  29.273  27.292  1.00  0.00     0.031 C 
ATOM     64  C   UNL A   1      43.444  31.578  29.110  1.00  0.00     0.029 A 
ATOM     65  C   UNL A   1      44.418  30.711  28.640  1.00  0.00     0.049 A 
ATOM     66  H   UNL A   1      44.229  28.694  28.053  1.00  0.00     0.167 HD
ATOM     67  C   UNL A   1      46.719  30.056  27.981  1.00  0.00     0.074 A 
ATOM     68  C   UNL A   1      48.127  30.331  27.775  1.00  0.00     0.031 C 
ATOM     69  C   UNL A   1      45.820  30.965  28.428  1.00  0.00     0.037 A 
BRANCH  56  70
ATOM     70  C   UNL A   1      40.037  28.820  28.820  1.00  0.00     0.057 A 
ATOM     71  C   UNL A   1      39.483  28.715  30.102  1.00  0.00     0.134 A 
ATOM     72  C   UNL A   1      39.186  29.206  27.777  1.00  0.00     0.134 A 
ATOM     73  F   UNL A   1      40.240  28.333  31.141  1.00  0.00    -0.206 F 
ATOM     74  C   UNL A   1      38.126  28.948  30.332  1.00  0.00     0.040 A 
ATOM     75  C   UNL A   1      37.833  29.469  28.000  1.00  0.00     0.040 A 
ATOM     76  F   UNL A   1      39.652  29.329  26.526  1.00  0.00    -0.206 F 
ATOM     77  C   UNL A   1      37.298  29.332  29.280  1.00  0.00     0.006 A 
ENDBRANCH  56  70
BRANCH  57  78
ATOM     78  C   UNL A   1      49.443  26.581  26.352  1.00  0.00     0.057 A 
ATOM     79  C   UNL A   1      50.361  26.005  27.238  1.00  0.00     0.134 A 
ATOM     80  C   UNL A   1      49.874  26.827  25.044  1.00  0.00     0.134 A 
ATOM     81  F   UNL A   1      50.009  25.761  28.509  1.00  0.00    -0.206 F 
ATOM     82  C   UNL A   1      51.662  25.694  26.842  1.00  0.00     0.040 A 
ATOM     83  C   UNL A   1      51.167  26.503  24.628  1.00  0.00     0.040 A 
ATOM     84  F   UNL A   1      49.038  27.368  24.147  1.00  0.00    -0.206 F 
ATOM     85  C   UNL A   1      52.066  25.938  25.531  1.00  0.00     0.006 A 
ENDBRANCH  57  78
BRANCH  69  86
ATOM     86  C   UNL A   1      46.334  32.337  28.742  1.00  0.00     0.057 A 
ATOM     87  C   UNL A   1      46.868  32.652  29.998  1.00  0.00     0.134 A 
ATOM     88  C   UNL A   1      46.335  33.340  27.765  1.00  0.00     0.134 A 
ATOM     89  F   UNL A   1      46.884  31.738  30.979  1.00  0.00    -0.206 F 
ATOM     90  C   UNL A   1      47.372  33.924  30.275  1.00  0.00     0.040 A 
ATOM     91  C   UNL A   1      46.857  34.608  28.023  1.00  0.00     0.040 A 
ATOM     92  F   UNL A   1      45.844  33.098  26.540  1.00  0.00    -0.206 F 
ATOM     93  C   UNL A   1      47.374  34.904  29.283  1.00  0.00     0.006 A 
ENDBRANCH  69  86
ENDBRANCH  43  44
ENDBRANCH  35  38
ENDBRANCH  33  34
ENDBRANCH  32  33
ENDBRANCH   1  32
TORSDOF 15
ENDMDL
MODEL 2
REMARK VINA RESULT:     -12.9      1.669      6.085
REMARK SMILES CCc1sc(NC(=O)[C@H]2CC(C)=C(C)C[C@H]2C(=O)NCCCCNC(=O)c2ccc(-c3c4nc(c(-c5c(F)cccc5F)c5ccc([nH]5)c(-c5c(F)cccc5F)c5nc(c(-c6c(F)cccc6F)c6ccc3[nH]6)C=C5)C=C4)cc2)nc1-c1ccccc1
REMARK SMILES IDX 21 1 20 2 19 3 17 4 18 5 16 7 9 8 10 9 11 10 15 11 12 12
REMARK SMILES IDX 13 13 14 14 7 15 6 16 8 18 5 19 3 20 4 21 82 22 81 23 2 24
REMARK SMILES IDX 1 25 83 26 84 27 88 28 85 29 87 30 86 31 22 32 23 33 24 34
REMARK SMILES IDX 25 35 26 37 27 38 28 39 80 40 29 41 79 42 30 43 31 44 32 45
REMARK SMILES IDX 73 46 33 47 78 48 72 49 74 50 34 51 77 52 71 53 70 54 35 56
REMARK SMILES IDX 61 57 44 58 60 59 45 60 48 61 59 62 75 63 46 64 47 65 58 67
REMARK SMILES IDX 76 68 49 69 36 70 37 71 42 72 38 73 39 74 41 75 43 76 40 77
REMARK SMILES IDX 62 78 63 79 68 80 64 81 65 82 67 83 69 84 66 85 50 86 51 87
REMARK SMILES IDX 56 88 52 89 53 90 55 91 57 92 54 93
REMARK H PARENT 19 6 6 17 24 36 74 55 48 66
REMARK Flexibility Score: inf
ROOT
ATOM      1  C   UNL A   1      37.298  19.640  24.925  1.00  0.00     0.023 C 
ENDROOT
BRANCH   1   2
ATOM      2  C   UNL A   1      35.923  20.287  24.861  1.00  0.00     0.116 C 
BRANCH   2   3
ATOM      3  N   UNL A   1      35.891  21.563  25.532  1.00  0.00    -0.356 N 
ATOM      4  C   UNL A   1      34.839  22.345  25.866  1.00  0.00     0.224 C 
ATOM      5  O   UNL A   1      35.086  23.366  26.513  1.00  0.00    -0.275 OA
ATOM      6  H   UNL A   1      36.772  21.922  25.784  1.00  0.00     0.163 HD
BRANCH   4   7
ATOM      7  C   UNL A   1      33.398  22.000  25.500  1.00  0.00     0.095 C 
ATOM      8  C   UNL A   1      32.915  22.374  24.084  1.00  0.00     0.095 C 
ATOM      9  C   UNL A   1      32.747  21.146  23.145  1.00  0.00     0.045 C 
ATOM     10  C   UNL A   1      32.537  19.778  23.756  1.00  0.00    -0.074 C 
ATOM     11  C   UNL A   1      32.949  20.644  26.061  1.00  0.00     0.045 C 
ATOM     12  C   UNL A   1      32.347  18.688  22.728  1.00  0.00     0.039 C 
ATOM     13  C   UNL A   1      32.629  19.551  25.080  1.00  0.00    -0.074 C 
ATOM     14  C   UNL A   1      32.485  18.186  25.703  1.00  0.00     0.039 C 
BRANCH   8  15
ATOM     15  C   UNL A   1      33.751  23.448  23.344  1.00  0.00     0.230 C 
ATOM     16  N   UNL A   1      33.638  24.788  23.479  1.00  0.00    -0.302 N 
ATOM     17  H   UNL A   1      34.370  25.270  23.032  1.00  0.00     0.172 HD
ATOM     18  O   UNL A   1      34.618  23.099  22.527  1.00  0.00    -0.274 OA
BRANCH  16  19
ATOM     19  C   UNL A   1      32.758  25.632  24.084  1.00  0.00     0.190 A 
ATOM     20  C   UNL A   1      31.606  27.158  25.544  1.00  0.00     0.034 A 
ATOM     21  S   UNL A   1      32.621  25.794  25.763  1.00  0.00    -0.101 S 
ATOM     22  C   UNL A   1      31.222  27.203  24.212  1.00  0.00     0.087 A 
ATOM     23  N   UNL A   1      31.869  26.299  23.385  1.00  0.00    -0.220 NA
BRANCH  20  24
ATOM     24  C   UNL A   1      31.248  28.015  26.714  1.00  0.00     0.046 C 
ATOM     25  C   UNL A   1      32.469  28.531  27.451  1.00  0.00     0.010 C 
ENDBRANCH  20  24
BRANCH  22  26
ATOM     26  C   UNL A   1      30.153  28.050  23.715  1.00  0.00     0.001 A 
ATOM     27  C   UNL A   1      30.326  29.428  23.545  1.00  0.00     0.010 A 
ATOM     28  C   UNL A   1      28.896  27.479  23.486  1.00  0.00     0.010 A 
ATOM     29  C   UNL A   1      29.235  30.234  23.213  1.00  0.00     0.001 A 
ATOM     30  C   UNL A   1      27.807  28.286  23.154  1.00  0.00     0.001 A 
ATOM     31  C   UNL A   1      27.974  29.664  23.032  1.00  0.00     0.000 A 
ENDBRANCH  22  26
ENDBRANCH  16  19
ENDBRANCH   8  15
ENDBRANCH   4   7
ENDBRANCH   2   3
ENDBRANCH   1   2
BRANCH   1  32
ATOM     32  C   UNL A   1      38.454  20.630  25.001  1.00  0.00     0.023 C 
BRANCH  32  33
ATOM     33  C   UNL A   1      39.384  20.422  26.186  1.00  0.00     0.116 C 
BRANCH  33  34
ATOM     34  N   UNL A   1      40.445  19.458  25.925  1.00  0.00    -0.352 N 
ATOM     35  C   UNL A   1      41.802  19.638  26.032  1.00  0.00     0.251 C 
ATOM     36  H   UNL A   1      40.152  18.564  25.635  1.00  0.00     0.163 HD
ATOM     37  O   UNL A   1      42.589  18.764  25.686  1.00  0.00    -0.269 OA
BRANCH  35  38
ATOM     38  C   UNL A   1      42.294  20.932  26.538  1.00  0.00     0.039 A 
ATOM     39  C   UNL A   1      42.681  21.911  25.622  1.00  0.00     0.014 A 
ATOM     40  C   UNL A   1      42.271  21.197  27.910  1.00  0.00     0.014 A 
ATOM     41  C   UNL A   1      42.979  23.193  26.082  1.00  0.00     0.010 A 
ATOM     42  C   UNL A   1      42.487  22.493  28.354  1.00  0.00     0.010 A 
ATOM     43  C   UNL A   1      42.844  23.501  27.446  1.00  0.00    -0.014 A 
BRANCH  43  44
ATOM     44  C   UNL A   1      43.077  24.875  27.951  1.00  0.00     0.031 A 
ATOM     45  C   UNL A   1      44.459  25.293  28.360  1.00  0.00     0.074 A 
ATOM     46  C   UNL A   1      42.033  25.707  28.128  1.00  0.00     0.049 A 
ATOM     47  N   UNL A   1      44.856  26.413  28.906  1.00  0.00    -0.248 NA
ATOM     48  C   UNL A   1      45.532  24.304  28.168  1.00  0.00     0.031 C 
ATOM     49  C   UNL A   1      40.633  25.386  27.842  1.00  0.00     0.029 A 
ATOM     50  N   UNL A   1      41.988  26.989  28.612  1.00  0.00    -0.354 N 
ATOM     51  C   UNL A   1      46.213  26.249  29.152  1.00  0.00     0.074 A 
ATOM     52  C   UNL A   1      46.560  24.907  28.743  1.00  0.00     0.031 C 
ATOM     53  C   UNL A   1      39.869  26.448  28.143  1.00  0.00     0.029 A 
ATOM     54  C   UNL A   1      40.720  27.513  28.666  1.00  0.00     0.049 A 
ATOM     55  H   UNL A   1      42.789  27.488  28.893  1.00  0.00     0.167 HD
ATOM     56  C   UNL A   1      47.095  27.147  29.652  1.00  0.00     0.037 A 
ATOM     57  C   UNL A   1      40.292  28.715  29.094  1.00  0.00     0.037 A 
ATOM     58  C   UNL A   1      46.752  28.496  30.011  1.00  0.00     0.049 A 
ATOM     59  C   UNL A   1      41.297  29.716  29.589  1.00  0.00     0.074 A 
ATOM     60  C   UNL A   1      47.588  29.517  30.427  1.00  0.00     0.029 A 
ATOM     61  N   UNL A   1      45.465  29.011  29.994  1.00  0.00    -0.354 N 
ATOM     62  N   UNL A   1      42.593  29.583  29.727  1.00  0.00    -0.248 NA
ATOM     63  C   UNL A   1      40.781  31.036  29.976  1.00  0.00     0.031 C 
ATOM     64  C   UNL A   1      46.801  30.641  30.696  1.00  0.00     0.029 A 
ATOM     65  C   UNL A   1      45.480  30.332  30.412  1.00  0.00     0.049 A 
ATOM     66  H   UNL A   1      44.660  28.513  29.725  1.00  0.00     0.167 HD
ATOM     67  C   UNL A   1      43.053  30.806  30.200  1.00  0.00     0.074 A 
ATOM     68  C   UNL A   1      41.896  31.672  30.310  1.00  0.00     0.031 C 
ATOM     69  C   UNL A   1      44.317  31.176  30.515  1.00  0.00     0.037 A 
BRANCH  56  70
ATOM     70  C   UNL A   1      48.512  26.689  29.830  1.00  0.00     0.057 A 
ATOM     71  C   UNL A   1      48.930  26.006  30.980  1.00  0.00     0.134 A 
ATOM     72  C   UNL A   1      49.469  26.930  28.838  1.00  0.00     0.134 A 
ATOM     73  F   UNL A   1      48.066  25.757  31.975  1.00  0.00    -0.206 F 
ATOM     74  C   UNL A   1      50.258  25.612  31.152  1.00  0.00     0.040 A 
ATOM     75  C   UNL A   1      50.794  26.517  28.987  1.00  0.00     0.040 A 
ATOM     76  F   UNL A   1      49.135  27.576  27.711  1.00  0.00    -0.206 F 
ATOM     77  C   UNL A   1      51.193  25.862  30.151  1.00  0.00     0.006 A 
ENDBRANCH  56  70
BRANCH  57  78
ATOM     78  C   UNL A   1      38.847  29.042  29.041  1.00  0.00     0.057 A 
ATOM     79  C   UNL A   1      38.037  28.916  30.176  1.00  0.00     0.134 A 
ATOM     80  C   UNL A   1      38.246  29.508  27.866  1.00  0.00     0.134 A 
ATOM     81  F   UNL A   1      38.554  28.460  31.326  1.00  0.00    -0.206 F 
ATOM     82  C   UNL A   1      36.678  29.231  30.142  1.00  0.00     0.040 A 
ATOM     83  C   UNL A   1      36.891  29.845  27.823  1.00  0.00     0.040 A 
ATOM     84  F   UNL A   1      38.971  29.658  26.749  1.00  0.00    -0.206 F 
ATOM     85  C   UNL A   1      36.103  29.703  28.963  1.00  0.00     0.006 A 
ENDBRANCH  57  78
BRANCH  69  86
ATOM     86  C   UNL A   1      44.519  32.583  30.992  1.00  0.00     0.057 A 
ATOM     87  C   UNL A   1      44.677  33.647  30.095  1.00  0.00     0.134 A 
ATOM     88  C   UNL A   1      44.510  32.881  32.360  1.00  0.00     0.134 A 
ATOM     89  F   UNL A   1      44.707  33.423  28.773  1.00  0.00    -0.206 F 
ATOM     90  C   UNL A   1      44.836  34.959  30.545  1.00  0.00     0.040 A 
ATOM     91  C   UNL A   1      44.644  34.191  32.820  1.00  0.00     0.040 A 
ATOM     92  F   UNL A   1      44.354  31.907  33.268  1.00  0.00    -0.206 F 
ATOM     93  C   UNL A   1      44.812  35.234  31.911  1.00  0.00     0.006 A 
ENDBRANCH  69  86
ENDBRANCH  43  44
ENDBRANCH  35  38
ENDBRANCH  33  34
ENDBRANCH  32  33
ENDBRANCH   1  32
TORSDOF 15
ENDMDL
MODEL 3
REMARK VINA RESULT:     -12.9      0.894      5.918
REMARK SMILES CCc1sc(NC(=O)[C@H]2CC(C)=C(C)C[C@H]2C(=O)NCCCCNC(=O)c2ccc(-c3c4nc(c(-c5c(F)cccc5F)c5ccc([nH]5)c(-c5c(F)cccc5F)c5nc(c(-c6c(F)cccc6F)c6ccc3[nH]6)C=C5)C=C4)cc2)nc1-c1ccccc1
REMARK SMILES IDX 21 1 20 2 19 3 17 4 18 5 16 7 9 8 10 9 11 10 15 11 12 12
REMARK SMILES IDX 13 13 14 14 7 15 6 16 8 18 5 19 3 20 4 21 82 22 81 23 2 24
REMARK SMILES IDX 1 25 83 26 84 27 88 28 85 29 87 30 86 31 22 32 23 33 24 34
REMARK SMILES IDX 25 35 26 37 27 38 28 39 80 40 29 41 79 42 30 43 31 44 32 45
REMARK SMILES IDX 73 46 33 47 78 48 72 49 74 50 34 51 77 52 71 53 70 54 35 56
REMARK SMILES IDX 61 57 44 58 60 59 45 60 48 61 59 62 75 63 46 64 47 65 58 67
REMARK SMILES IDX 76 68 49 69 36 70 37 71 42 72 38 73 39 74 41 75 43 76 40 77
REMARK SMILES IDX 62 78 63 79 68 80 64 81 65 82 67 83 69 84 66 85 50 86 51 87
REMARK SMILES IDX 56 88 52 89 53 90 55 91 57 92 54 93
REMARK H PARENT 19 6 6 17 24 36 74 55 48 66
REMARK Flexibility Score: inf
ROOT
ATOM      1  C   UNL A   1      36.752  20.405  25.309  1.00  0.00     0.023 C 
ENDROOT
BRANCH   1   2
ATOM      2  C   UNL A   1      36.037  21.363  24.369  1.00  0.00     0.116 C 
BRANCH   2   3
ATOM      3  N   UNL A   1      35.948  22.695  24.915  1.00  0.00    -0.356 N 
ATOM      4  C   UNL A   1      34.866  23.405  25.305  1.00  0.00     0.224 C 
ATOM      5  O   UNL A   1      35.078  24.509  25.816  1.00  0.00    -0.275 OA
ATOM      6  H   UNL A   1      36.810  23.159  25.016  1.00  0.00     0.163 HD
BRANCH   4   7
ATOM      7  C   UNL A   1      33.437  22.890  25.162  1.00  0.00     0.095 C 
ATOM      8  C   UNL A   1      32.796  22.953  23.761  1.00  0.00     0.095 C 
ATOM      9  C   UNL A   1      32.660  21.561  23.081  1.00  0.00     0.045 C 
ATOM     10  C   UNL A   1      32.636  20.321  23.945  1.00  0.00    -0.074 C 
ATOM     11  C   UNL A   1      33.170  21.633  26.001  1.00  0.00     0.045 C 
ATOM     12  C   UNL A   1      32.457  19.045  23.156  1.00  0.00     0.039 C 
ATOM     13  C   UNL A   1      32.868  20.354  25.272  1.00  0.00    -0.074 C 
ATOM     14  C   UNL A   1      32.910  19.124  26.141  1.00  0.00     0.039 C 
BRANCH   8  15
ATOM     15  C   UNL A   1      33.456  23.929  22.755  1.00  0.00     0.230 C 
ATOM     16  N   UNL A   1      33.323  25.273  22.736  1.00  0.00    -0.302 N 
ATOM     17  H   UNL A   1      33.951  25.701  22.110  1.00  0.00     0.172 HD
ATOM     18  O   UNL A   1      34.183  23.485  21.853  1.00  0.00    -0.274 OA
BRANCH  16  19
ATOM     19  C   UNL A   1      32.530  26.181  23.370  1.00  0.00     0.190 A 
ATOM     20  C   UNL A   1      31.589  27.865  24.806  1.00  0.00     0.034 A 
ATOM     21  S   UNL A   1      32.657  26.541  25.019  1.00  0.00    -0.101 S 
ATOM     22  C   UNL A   1      30.999  27.749  23.557  1.00  0.00     0.087 A 
ATOM     23  N   UNL A   1      31.527  26.756  22.749  1.00  0.00    -0.220 NA
BRANCH  20  24
ATOM     24  C   UNL A   1      31.402  28.854  25.910  1.00  0.00     0.046 C 
ATOM     25  C   UNL A   1      32.294  30.070  25.758  1.00  0.00     0.010 C 
ENDBRANCH  20  24
BRANCH  22  26
ATOM     26  C   UNL A   1      29.845  28.526  23.141  1.00  0.00     0.001 A 
ATOM     27  C   UNL A   1      29.980  29.805  22.588  1.00  0.00     0.010 A 
ATOM     28  C   UNL A   1      28.566  28.012  23.385  1.00  0.00     0.010 A 
ATOM     29  C   UNL A   1      28.848  30.584  22.343  1.00  0.00     0.001 A 
ATOM     30  C   UNL A   1      27.436  28.793  23.139  1.00  0.00     0.001 A 
ATOM     31  C   UNL A   1      27.578  30.083  22.632  1.00  0.00     0.000 A 
ENDBRANCH  22  26
ENDBRANCH  16  19
ENDBRANCH   8  15
ENDBRANCH   4   7
ENDBRANCH   2   3
ENDBRANCH   1   2
BRANCH   1  32
ATOM     32  C   UNL A   1      38.108  19.926  24.803  1.00  0.00     0.023 C 
BRANCH  32  33
ATOM     33  C   UNL A   1      39.265  20.198  25.751  1.00  0.00     0.116 C 
BRANCH  33  34
ATOM     34  N   UNL A   1      40.205  19.088  25.849  1.00  0.00    -0.352 N 
ATOM     35  C   UNL A   1      41.550  19.135  26.122  1.00  0.00     0.251 C 
ATOM     36  H   UNL A   1      39.827  18.191  25.701  1.00  0.00     0.163 HD
ATOM     37  O   UNL A   1      42.243  18.125  26.078  1.00  0.00    -0.269 OA
BRANCH  35  38
ATOM     38  C   UNL A   1      42.151  20.444  26.428  1.00  0.00     0.039 A 
ATOM     39  C   UNL A   1      42.536  21.274  25.374  1.00  0.00     0.014 A 
ATOM     40  C   UNL A   1      42.236  20.878  27.754  1.00  0.00     0.014 A 
ATOM     41  C   UNL A   1      42.942  22.579  25.649  1.00  0.00     0.010 A 
ATOM     42  C   UNL A   1      42.559  22.201  28.017  1.00  0.00     0.010 A 
ATOM     43  C   UNL A   1      42.917  23.062  26.968  1.00  0.00    -0.014 A 
BRANCH  43  44
ATOM     44  C   UNL A   1      43.266  24.468  27.279  1.00  0.00     0.031 A 
ATOM     45  C   UNL A   1      44.696  24.916  27.195  1.00  0.00     0.074 A 
ATOM     46  C   UNL A   1      42.313  25.310  27.724  1.00  0.00     0.049 A 
ATOM     47  N   UNL A   1      45.220  26.072  27.511  1.00  0.00    -0.248 NA
ATOM     48  C   UNL A   1      45.675  23.916  26.738  1.00  0.00     0.031 C 
ATOM     49  C   UNL A   1      40.903  24.968  27.923  1.00  0.00     0.029 A 
ATOM     50  N   UNL A   1      42.395  26.623  28.110  1.00  0.00    -0.354 N 
ATOM     51  C   UNL A   1      46.588  25.928  27.320  1.00  0.00     0.074 A 
ATOM     52  C   UNL A   1      46.818  24.560  26.912  1.00  0.00     0.031 C 
ATOM     53  C   UNL A   1      40.250  26.048  28.380  1.00  0.00     0.029 A 
ATOM     54  C   UNL A   1      41.198  27.148  28.531  1.00  0.00     0.049 A 
ATOM     55  H   UNL A   1      43.232  27.142  28.086  1.00  0.00     0.167 HD
ATOM     56  C   UNL A   1      47.562  26.859  27.451  1.00  0.00     0.037 A 
ATOM     57  C   UNL A   1      40.901  28.377  28.992  1.00  0.00     0.037 A 
ATOM     58  C   UNL A   1      47.319  28.230  27.810  1.00  0.00     0.049 A 
ATOM     59  C   UNL A   1      41.987  29.412  29.072  1.00  0.00     0.074 A 
ATOM     60  C   UNL A   1      48.220  29.278  27.868  1.00  0.00     0.029 A 
ATOM     61  N   UNL A   1      46.082  28.742  28.171  1.00  0.00    -0.354 N 
ATOM     62  N   UNL A   1      43.263  29.290  28.798  1.00  0.00    -0.248 NA
ATOM     63  C   UNL A   1      41.590  30.756  29.515  1.00  0.00     0.031 C 
ATOM     64  C   UNL A   1      47.534  30.419  28.298  1.00  0.00     0.029 A 
ATOM     65  C   UNL A   1      46.198  30.088  28.472  1.00  0.00     0.049 A 
ATOM     66  H   UNL A   1      45.246  28.225  28.207  1.00  0.00     0.167 HD
ATOM     67  C   UNL A   1      43.820  30.544  29.016  1.00  0.00     0.074 A 
ATOM     68  C   UNL A   1      42.738  31.414  29.431  1.00  0.00     0.031 C 
ATOM     69  C   UNL A   1      45.110  30.937  28.885  1.00  0.00     0.037 A 
BRANCH  56  70
ATOM     70  C   UNL A   1      48.972  26.416  27.198  1.00  0.00     0.057 A 
ATOM     71  C   UNL A   1      49.809  25.982  28.234  1.00  0.00     0.134 A 
ATOM     72  C   UNL A   1      49.497  26.420  25.900  1.00  0.00     0.134 A 
ATOM     73  F   UNL A   1      49.372  25.970  29.502  1.00  0.00    -0.206 F 
ATOM     74  C   UNL A   1      51.131  25.603  27.994  1.00  0.00     0.040 A 
ATOM     75  C   UNL A   1      50.809  26.016  25.644  1.00  0.00     0.040 A 
ATOM     76  F   UNL A   1      48.749  26.820  24.862  1.00  0.00    -0.206 F 
ATOM     77  C   UNL A   1      51.632  25.614  26.695  1.00  0.00     0.006 A 
ENDBRANCH  56  70
BRANCH  57  78
ATOM     78  C   UNL A   1      39.506  28.699  29.382  1.00  0.00     0.057 A 
ATOM     79  C   UNL A   1      39.075  28.550  30.705  1.00  0.00     0.134 A 
ATOM     80  C   UNL A   1      38.580  29.181  28.450  1.00  0.00     0.134 A 
ATOM     81  F   UNL A   1      39.914  28.077  31.638  1.00  0.00    -0.206 F 
ATOM     82  C   UNL A   1      37.769  28.859  31.087  1.00  0.00     0.040 A 
ATOM     83  C   UNL A   1      37.276  29.513  28.822  1.00  0.00     0.040 A 
ATOM     84  F   UNL A   1      38.936  29.353  27.169  1.00  0.00    -0.206 F 
ATOM     85  C   UNL A   1      36.867  29.347  30.144  1.00  0.00     0.006 A 
ENDBRANCH  57  78
BRANCH  69  86
ATOM     86  C   UNL A   1      45.419  32.374  29.177  1.00  0.00     0.057 A 
ATOM     87  C   UNL A   1      45.831  32.793  30.449  1.00  0.00     0.134 A 
ATOM     88  C   UNL A   1      45.348  33.340  28.166  1.00  0.00     0.134 A 
ATOM     89  F   UNL A   1      45.907  31.917  31.462  1.00  0.00    -0.206 F 
ATOM     90  C   UNL A   1      46.145  34.128  30.707  1.00  0.00     0.040 A 
ATOM     91  C   UNL A   1      45.682  34.672  28.407  1.00  0.00     0.040 A 
ATOM     92  F   UNL A   1      44.968  33.000  26.925  1.00  0.00    -0.206 F 
ATOM     93  C   UNL A   1      46.079  35.071  29.682  1.00  0.00     0.006 A 
ENDBRANCH  69  86
ENDBRANCH  43  44
ENDBRANCH  35  38
ENDBRANCH  33  34
ENDBRANCH  32  33
ENDBRANCH   1  32
TORSDOF 15
ENDMDL
