MODEL 1
REMARK VINA RESULT:     -11.0      0.000      0.000
REMARK SMILES CCOc1ccc(-c2nc(C(=O)NCCCCNC(=O)c3ccc(-c4c5nc(c(-c6c(F)cccc6F)c6ccc([nH]6)c(-c6c(F)cccc6F)c6nc(c(-c7c(F)cccc7F)c7ccc4[nH]7)C=C6)C=C5)cc3)cc(=O)[nH]2)cc1
REMARK SMILES IDX 15 1 14 2 13 3 11 4 12 5 10 7 8 8 9 9 78 10 76 11 75 13
REMARK SMILES IDX 77 14 7 15 4 16 5 17 80 18 6 19 79 20 3 21 2 22 1 23 16 24
REMARK SMILES IDX 17 25 18 26 19 27 20 29 21 30 22 31 74 32 23 33 73 34 24 35
REMARK SMILES IDX 25 36 26 37 67 38 27 39 72 40 66 41 68 42 28 43 71 44 65 45
REMARK SMILES IDX 64 46 29 48 55 49 38 50 54 51 39 52 42 53 53 54 69 55 40 56
REMARK SMILES IDX 41 57 52 59 70 60 43 61 30 62 31 63 36 64 32 65 33 66 35 67
REMARK SMILES IDX 37 68 34 69 56 70 57 71 62 72 58 73 59 74 61 75 63 76 60 77
REMARK SMILES IDX 44 78 45 79 50 80 46 81 47 82 49 83 51 84 48 85
REMARK H PARENT 13 6 78 12 18 28 68 47 42 58
REMARK Flexibility Score: inf
ROOT
ATOM      1  C   UNL A   1      39.039  22.394  26.330  1.00  0.00     0.023 C 
ENDROOT
BRANCH   1   2
ATOM      2  C   UNL A   1      37.928  23.317  25.849  1.00  0.00     0.116 C 
BRANCH   2   3
ATOM      3  N   UNL A   1      37.611  23.165  24.442  1.00  0.00    -0.351 N 
ATOM      4  C   UNL A   1      36.432  23.150  23.750  1.00  0.00     0.270 C 
ATOM      5  O   UNL A   1      36.517  22.981  22.530  1.00  0.00    -0.268 OA
ATOM      6  H   UNL A   1      38.404  23.050  23.871  1.00  0.00     0.163 HD
BRANCH   4   7
ATOM      7  C   UNL A   1      35.074  23.277  24.414  1.00  0.00     0.136 A 
ATOM      8  C   UNL A   1      33.530  24.701  25.337  1.00  0.00     0.141 A 
ATOM      9  N   UNL A   1      34.622  24.565  24.657  1.00  0.00    -0.225 NA
ATOM     10  N   UNL A   1      32.729  23.645  25.677  1.00  0.00    -0.306 N 
ATOM     11  C   UNL A   1      33.093  22.363  25.427  1.00  0.00     0.251 A 
ATOM     12  H   UNL A   1      31.865  23.820  26.114  1.00  0.00     0.171 HD
ATOM     13  C   UNL A   1      34.444  22.195  24.888  1.00  0.00     0.105 A 
ATOM     14  O   UNL A   1      32.365  21.405  25.631  1.00  0.00    -0.269 OA
BRANCH   8  15
ATOM     15  C   UNL A   1      33.079  26.023  25.826  1.00  0.00     0.018 A 
ATOM     16  C   UNL A   1      32.238  28.468  26.852  1.00  0.00     0.119 A 
ATOM     17  C   UNL A   1      31.356  27.393  26.840  1.00  0.00     0.047 A 
ATOM     18  C   UNL A   1      33.553  28.313  26.409  1.00  0.00     0.047 A 
ATOM     19  C   UNL A   1      31.775  26.167  26.323  1.00  0.00     0.016 A 
ATOM     20  C   UNL A   1      33.976  27.089  25.889  1.00  0.00     0.016 A 
BRANCH  16  21
ATOM     21  O   UNL A   1      31.824  29.637  27.426  1.00  0.00    -0.494 OA
BRANCH  21  22
ATOM     22  C   UNL A   1      32.410  30.790  26.809  1.00  0.00     0.226 C 
ATOM     23  C   UNL A   1      31.359  31.838  26.482  1.00  0.00     0.049 C 
ENDBRANCH  21  22
ENDBRANCH  16  21
ENDBRANCH   8  15
ENDBRANCH   4   7
ENDBRANCH   2   3
ENDBRANCH   1   2
BRANCH   1  24
ATOM     24  C   UNL A   1      39.187  21.080  25.575  1.00  0.00     0.023 C 
BRANCH  24  25
ATOM     25  C   UNL A   1      39.703  19.905  26.394  1.00  0.00     0.116 C 
BRANCH  25  26
ATOM     26  N   UNL A   1      40.906  19.290  25.849  1.00  0.00    -0.352 N 
ATOM     27  C   UNL A   1      42.182  19.798  25.783  1.00  0.00     0.251 C 
ATOM     28  H   UNL A   1      40.790  18.386  25.478  1.00  0.00     0.163 HD
ATOM     29  O   UNL A   1      43.070  19.178  25.207  1.00  0.00    -0.269 OA
BRANCH  27  30
ATOM     30  C   UNL A   1      42.469  21.116  26.385  1.00  0.00     0.039 A 
ATOM     31  C   UNL A   1      42.747  22.198  25.546  1.00  0.00     0.014 A 
ATOM     32  C   UNL A   1      42.425  21.288  27.770  1.00  0.00     0.014 A 
ATOM     33  C   UNL A   1      42.931  23.466  26.100  1.00  0.00     0.010 A 
ATOM     34  C   UNL A   1      42.501  22.566  28.307  1.00  0.00     0.010 A 
ATOM     35  C   UNL A   1      42.783  23.664  27.483  1.00  0.00    -0.014 A 
BRANCH  35  36
ATOM     36  C   UNL A   1      42.977  25.002  28.092  1.00  0.00     0.031 A 
ATOM     37  C   UNL A   1      44.340  25.410  28.578  1.00  0.00     0.074 A 
ATOM     38  C   UNL A   1      41.926  25.829  28.254  1.00  0.00     0.049 A 
ATOM     39  N   UNL A   1      44.715  26.519  29.166  1.00  0.00    -0.248 NA
ATOM     40  C   UNL A   1      45.420  24.424  28.418  1.00  0.00     0.031 C 
ATOM     41  C   UNL A   1      40.542  25.525  27.885  1.00  0.00     0.029 A 
ATOM     42  N   UNL A   1      41.861  27.094  28.779  1.00  0.00    -0.354 N 
ATOM     43  C   UNL A   1      46.064  26.354  29.453  1.00  0.00     0.074 A 
ATOM     44  C   UNL A   1      46.420  25.010  29.057  1.00  0.00     0.031 C 
ATOM     45  C   UNL A   1      39.770  26.586  28.169  1.00  0.00     0.029 A 
ATOM     46  C   UNL A   1      40.596  27.630  28.768  1.00  0.00     0.049 A 
ATOM     47  H   UNL A   1      42.645  27.574  29.130  1.00  0.00     0.167 HD
ATOM     48  C   UNL A   1      46.939  27.250  29.965  1.00  0.00     0.037 A 
ATOM     49  C   UNL A   1      40.154  28.829  29.191  1.00  0.00     0.037 A 
ATOM     50  C   UNL A   1      46.582  28.590  30.348  1.00  0.00     0.049 A 
ATOM     51  C   UNL A   1      41.140  29.817  29.750  1.00  0.00     0.074 A 
ATOM     52  C   UNL A   1      47.397  29.597  30.835  1.00  0.00     0.029 A 
ATOM     53  N   UNL A   1      45.296  29.108  30.291  1.00  0.00    -0.354 N 
ATOM     54  N   UNL A   1      42.430  29.678  29.946  1.00  0.00    -0.248 NA
ATOM     55  C   UNL A   1      40.613  31.136  30.124  1.00  0.00     0.031 C 
ATOM     56  C   UNL A   1      46.593  30.707  31.121  1.00  0.00     0.029 A 
ATOM     57  C   UNL A   1      45.290  30.415  30.749  1.00  0.00     0.049 A 
ATOM     58  H   UNL A   1      44.504  28.620  29.970  1.00  0.00     0.167 HD
ATOM     59  C   UNL A   1      42.875  30.900  30.438  1.00  0.00     0.074 A 
ATOM     60  C   UNL A   1      41.717  31.769  30.496  1.00  0.00     0.031 C 
ATOM     61  C   UNL A   1      44.129  31.269  30.799  1.00  0.00     0.037 A 
BRANCH  48  62
ATOM     62  C   UNL A   1      48.362  26.792  30.138  1.00  0.00     0.057 A 
ATOM     63  C   UNL A   1      49.336  27.008  29.151  1.00  0.00     0.134 A 
ATOM     64  C   UNL A   1      48.760  26.107  31.292  1.00  0.00     0.134 A 
ATOM     65  F   UNL A   1      49.023  27.645  28.013  1.00  0.00    -0.206 F 
ATOM     66  C   UNL A   1      50.634  26.512  29.282  1.00  0.00     0.040 A 
ATOM     67  C   UNL A   1      50.065  25.638  31.450  1.00  0.00     0.040 A 
ATOM     68  F   UNL A   1      47.884  25.870  32.280  1.00  0.00    -0.206 F 
ATOM     69  C   UNL A   1      51.003  25.828  30.437  1.00  0.00     0.006 A 
ENDBRANCH  48  62
BRANCH  49  70
ATOM     70  C   UNL A   1      38.715  29.168  29.062  1.00  0.00     0.057 A 
ATOM     71  C   UNL A   1      37.848  29.087  30.159  1.00  0.00     0.134 A 
ATOM     72  C   UNL A   1      38.176  29.606  27.846  1.00  0.00     0.134 A 
ATOM     73  F   UNL A   1      38.301  28.661  31.347  1.00  0.00    -0.206 F 
ATOM     74  C   UNL A   1      36.495  29.415  30.048  1.00  0.00     0.040 A 
ATOM     75  C   UNL A   1      36.832  29.962  27.728  1.00  0.00     0.040 A 
ATOM     76  F   UNL A   1      38.956  29.716  26.761  1.00  0.00    -0.206 F 
ATOM     77  C   UNL A   1      35.985  29.860  28.831  1.00  0.00     0.006 A 
ENDBRANCH  49  70
BRANCH  61  78
ATOM     78  C   UNL A   1      44.324  32.691  31.245  1.00  0.00     0.057 A 
ATOM     79  C   UNL A   1      44.229  33.074  32.589  1.00  0.00     0.134 A 
ATOM     80  C   UNL A   1      44.640  33.688  30.311  1.00  0.00     0.134 A 
ATOM     81  F   UNL A   1      43.921  32.172  33.534  1.00  0.00    -0.206 F 
ATOM     82  C   UNL A   1      44.408  34.402  32.983  1.00  0.00     0.040 A 
ATOM     83  C   UNL A   1      44.852  35.011  30.697  1.00  0.00     0.040 A 
ATOM     84  F   UNL A   1      44.759  33.388  29.008  1.00  0.00    -0.206 F 
ATOM     85  C   UNL A   1      44.726  35.373  32.036  1.00  0.00     0.006 A 
ENDBRANCH  61  78
ENDBRANCH  35  36
ENDBRANCH  27  30
ENDBRANCH  25  26
ENDBRANCH  24  25
ENDBRANCH   1  24
TORSDOF 14
ENDMDL
MODEL 2
REMARK VINA RESULT:     -11.0      4.247      9.404
REMARK SMILES CCOc1ccc(-c2nc(C(=O)NCCCCNC(=O)c3ccc(-c4c5nc(c(-c6c(F)cccc6F)c6ccc([nH]6)c(-c6c(F)cccc6F)c6nc(c(-c7c(F)cccc7F)c7ccc4[nH]7)C=C6)C=C5)cc3)cc(=O)[nH]2)cc1
REMARK SMILES IDX 15 1 14 2 13 3 11 4 12 5 10 7 8 8 9 9 78 10 76 11 75 13
REMARK SMILES IDX 77 14 7 15 4 16 5 17 80 18 6 19 79 20 3 21 2 22 1 23 16 24
REMARK SMILES IDX 17 25 18 26 19 27 20 29 21 30 22 31 74 32 23 33 73 34 24 35
REMARK SMILES IDX 25 36 26 37 67 38 27 39 72 40 66 41 68 42 28 43 71 44 65 45
REMARK SMILES IDX 64 46 29 48 55 49 38 50 54 51 39 52 42 53 53 54 69 55 40 56
REMARK SMILES IDX 41 57 52 59 70 60 43 61 30 62 31 63 36 64 32 65 33 66 35 67
REMARK SMILES IDX 37 68 34 69 56 70 57 71 62 72 58 73 59 74 61 75 63 76 60 77
REMARK SMILES IDX 44 78 45 79 50 80 46 81 47 82 49 83 51 84 48 85
REMARK H PARENT 13 6 78 12 18 28 68 47 42 58
REMARK Flexibility Score: inf
ROOT
ATOM      1  C   UNL A   1      31.445  30.386  26.038  1.00  0.00     0.023 C 
ENDROOT
BRANCH   1   2
ATOM      2  C   UNL A   1      32.862  29.850  25.892  1.00  0.00     0.116 C 
BRANCH   2   3
ATOM      3  N   UNL A   1      33.270  29.648  24.515  1.00  0.00    -0.351 N 
ATOM      4  C   UNL A   1      32.817  28.829  23.520  1.00  0.00     0.270 C 
ATOM      5  O   UNL A   1      33.412  28.897  22.441  1.00  0.00    -0.268 OA
ATOM      6  H   UNL A   1      34.026  30.218  24.242  1.00  0.00     0.163 HD
BRANCH   4   7
ATOM      7  C   UNL A   1      31.684  27.837  23.708  1.00  0.00     0.136 A 
ATOM      8  C   UNL A   1      31.109  25.677  24.223  1.00  0.00     0.141 A 
ATOM      9  N   UNL A   1      32.033  26.580  24.176  1.00  0.00    -0.225 NA
ATOM     10  N   UNL A   1      29.788  25.952  23.991  1.00  0.00    -0.306 N 
ATOM     11  C   UNL A   1      29.376  27.175  23.574  1.00  0.00     0.251 A 
ATOM     12  H   UNL A   1      29.119  25.244  24.131  1.00  0.00     0.171 HD
ATOM     13  C   UNL A   1      30.450  28.123  23.275  1.00  0.00     0.105 A 
ATOM     14  O   UNL A   1      28.201  27.481  23.448  1.00  0.00    -0.269 OA
BRANCH   8  15
ATOM     15  C   UNL A   1      31.421  24.258  24.505  1.00  0.00     0.018 A 
ATOM     16  C   UNL A   1      31.905  21.564  24.999  1.00  0.00     0.119 A 
ATOM     17  C   UNL A   1      31.068  22.275  25.853  1.00  0.00     0.047 A 
ATOM     18  C   UNL A   1      32.454  22.176  23.871  1.00  0.00     0.047 A 
ATOM     19  C   UNL A   1      30.827  23.627  25.609  1.00  0.00     0.016 A 
ATOM     20  C   UNL A   1      32.218  23.528  23.623  1.00  0.00     0.016 A 
BRANCH  16  21
ATOM     21  O   UNL A   1      32.070  20.226  25.223  1.00  0.00    -0.494 OA
BRANCH  21  22
ATOM     22  C   UNL A   1      32.515  19.525  24.056  1.00  0.00     0.226 C 
ATOM     23  C   UNL A   1      33.714  18.643  24.362  1.00  0.00     0.049 C 
ENDBRANCH  21  22
ENDBRANCH  16  21
ENDBRANCH   8  15
ENDBRANCH   4   7
ENDBRANCH   2   3
ENDBRANCH   1   2
BRANCH   1  24
ATOM     24  C   UNL A   1      31.324  31.833  26.499  1.00  0.00     0.023 C 
BRANCH  24  25
ATOM     25  C   UNL A   1      32.593  32.450  27.070  1.00  0.00     0.116 C 
BRANCH  25  26
ATOM     26  N   UNL A   1      32.428  33.824  27.525  1.00  0.00    -0.352 N 
ATOM     27  C   UNL A   1      33.156  34.516  28.464  1.00  0.00     0.251 C 
ATOM     28  H   UNL A   1      31.695  34.326  27.102  1.00  0.00     0.163 HD
ATOM     29  O   UNL A   1      32.826  35.649  28.797  1.00  0.00    -0.269 OA
BRANCH  27  30
ATOM     30  C   UNL A   1      34.325  33.869  29.096  1.00  0.00     0.039 A 
ATOM     31  C   UNL A   1      34.114  32.850  30.028  1.00  0.00     0.014 A 
ATOM     32  C   UNL A   1      35.622  34.243  28.739  1.00  0.00     0.014 A 
ATOM     33  C   UNL A   1      35.209  32.173  30.564  1.00  0.00     0.010 A 
ATOM     34  C   UNL A   1      36.702  33.496  29.190  1.00  0.00     0.010 A 
ATOM     35  C   UNL A   1      36.511  32.472  30.129  1.00  0.00    -0.014 A 
BRANCH  35  36
ATOM     36  C   UNL A   1      37.690  31.766  30.686  1.00  0.00     0.031 A 
ATOM     37  C   UNL A   1      38.163  32.088  32.078  1.00  0.00     0.074 A 
ATOM     38  C   UNL A   1      38.363  30.877  29.933  1.00  0.00     0.049 A 
ATOM     39  N   UNL A   1      39.187  31.609  32.738  1.00  0.00    -0.248 NA
ATOM     40  C   UNL A   1      37.407  33.116  32.810  1.00  0.00     0.031 C 
ATOM     41  C   UNL A   1      38.045  30.526  28.547  1.00  0.00     0.029 A 
ATOM     42  N   UNL A   1      39.461  30.109  30.227  1.00  0.00    -0.354 N 
ATOM     43  C   UNL A   1      39.200  32.285  33.951  1.00  0.00     0.074 A 
ATOM     44  C   UNL A   1      38.141  33.266  33.901  1.00  0.00     0.031 C 
ATOM     45  C   UNL A   1      38.911  29.592  28.122  1.00  0.00     0.029 A 
ATOM     46  C   UNL A   1      39.862  29.302  29.191  1.00  0.00     0.049 A 
ATOM     47  H   UNL A   1      39.919  30.134  31.098  1.00  0.00     0.167 HD
ATOM     48  C   UNL A   1      39.997  32.083  35.027  1.00  0.00     0.037 A 
ATOM     49  C   UNL A   1      40.881  28.426  29.114  1.00  0.00     0.037 A 
ATOM     50  C   UNL A   1      41.043  31.097  35.075  1.00  0.00     0.049 A 
ATOM     51  C   UNL A   1      41.752  28.207  30.320  1.00  0.00     0.074 A 
ATOM     52  C   UNL A   1      41.881  30.776  36.129  1.00  0.00     0.029 A 
ATOM     53  N   UNL A   1      41.399  30.274  34.017  1.00  0.00    -0.354 N 
ATOM     54  N   UNL A   1      41.708  28.798  31.490  1.00  0.00    -0.248 NA
ATOM     55  C   UNL A   1      42.799  27.184  30.201  1.00  0.00     0.031 C 
ATOM     56  C   UNL A   1      42.777  29.795  35.689  1.00  0.00     0.029 A 
ATOM     57  C   UNL A   1      42.454  29.456  34.385  1.00  0.00     0.049 A 
ATOM     58  H   UNL A   1      40.964  30.270  33.134  1.00  0.00     0.167 HD
ATOM     59  C   UNL A   1      42.699  28.198  32.258  1.00  0.00     0.074 A 
ATOM     60  C   UNL A   1      43.317  27.189  31.422  1.00  0.00     0.031 C 
ATOM     61  C   UNL A   1      43.058  28.454  33.540  1.00  0.00     0.037 A 
BRANCH  48  62
ATOM     62  C   UNL A   1      39.756  32.958  36.227  1.00  0.00     0.057 A 
ATOM     63  C   UNL A   1      38.805  32.630  37.205  1.00  0.00     0.134 A 
ATOM     64  C   UNL A   1      40.464  34.153  36.397  1.00  0.00     0.134 A 
ATOM     65  F   UNL A   1      38.079  31.507  37.100  1.00  0.00    -0.206 F 
ATOM     66  C   UNL A   1      38.530  33.483  38.275  1.00  0.00     0.040 A 
ATOM     67  C   UNL A   1      40.224  34.997  37.483  1.00  0.00     0.040 A 
ATOM     68  F   UNL A   1      41.394  34.528  35.505  1.00  0.00    -0.206 F 
ATOM     69  C   UNL A   1      39.245  34.670  38.418  1.00  0.00     0.006 A 
ENDBRANCH  48  62
BRANCH  49  70
ATOM     70  C   UNL A   1      41.100  27.664  27.858  1.00  0.00     0.057 A 
ATOM     71  C   UNL A   1      40.510  26.410  27.657  1.00  0.00     0.134 A 
ATOM     72  C   UNL A   1      41.882  28.182  26.819  1.00  0.00     0.134 A 
ATOM     73  F   UNL A   1      39.760  25.855  28.620  1.00  0.00    -0.206 F 
ATOM     74  C   UNL A   1      40.702  25.693  26.474  1.00  0.00     0.040 A 
ATOM     75  C   UNL A   1      42.061  27.488  25.622  1.00  0.00     0.040 A 
ATOM     76  F   UNL A   1      42.465  29.383  26.945  1.00  0.00    -0.206 F 
ATOM     77  C   UNL A   1      41.474  26.235  25.450  1.00  0.00     0.006 A 
ENDBRANCH  49  70
BRANCH  61  78
ATOM     78  C   UNL A   1      44.139  27.597  34.136  1.00  0.00     0.057 A 
ATOM     79  C   UNL A   1      43.871  26.351  34.717  1.00  0.00     0.134 A 
ATOM     80  C   UNL A   1      45.475  28.018  34.101  1.00  0.00     0.134 A 
ATOM     81  F   UNL A   1      42.612  25.891  34.792  1.00  0.00    -0.206 F 
ATOM     82  C   UNL A   1      44.888  25.571  35.271  1.00  0.00     0.040 A 
ATOM     83  C   UNL A   1      46.504  27.233  34.622  1.00  0.00     0.040 A 
ATOM     84  F   UNL A   1      45.805  29.195  33.548  1.00  0.00    -0.206 F 
ATOM     85  C   UNL A   1      46.210  26.010  35.220  1.00  0.00     0.006 A 
ENDBRANCH  61  78
ENDBRANCH  35  36
ENDBRANCH  27  30
ENDBRANCH  25  26
ENDBRANCH  24  25
ENDBRANCH   1  24
TORSDOF 14
ENDMDL
MODEL 3
REMARK VINA RESULT:     -10.9      3.759      9.398
REMARK SMILES CCOc1ccc(-c2nc(C(=O)NCCCCNC(=O)c3ccc(-c4c5nc(c(-c6c(F)cccc6F)c6ccc([nH]6)c(-c6c(F)cccc6F)c6nc(c(-c7c(F)cccc7F)c7ccc4[nH]7)C=C6)C=C5)cc3)cc(=O)[nH]2)cc1
REMARK SMILES IDX 15 1 14 2 13 3 11 4 12 5 10 7 8 8 9 9 78 10 76 11 75 13
REMARK SMILES IDX 77 14 7 15 4 16 5 17 80 18 6 19 79 20 3 21 2 22 1 23 16 24
REMARK SMILES IDX 17 25 18 26 19 27 20 29 21 30 22 31 74 32 23 33 73 34 24 35
REMARK SMILES IDX 25 36 26 37 67 38 27 39 72 40 66 41 68 42 28 43 71 44 65 45
REMARK SMILES IDX 64 46 29 48 55 49 38 50 54 51 39 52 42 53 53 54 69 55 40 56
REMARK SMILES IDX 41 57 52 59 70 60 43 61 30 62 31 63 36 64 32 65 33 66 35 67
REMARK SMILES IDX 37 68 34 69 56 70 57 71 62 72 58 73 59 74 61 75 63 76 60 77
REMARK SMILES IDX 44 78 45 79 50 80 46 81 47 82 49 83 51 84 48 85
REMARK H PARENT 13 6 78 12 18 28 68 47 42 58
REMARK Flexibility Score: inf
ROOT
ATOM      1  C   UNL A   1      31.585  30.580  26.643  1.00  0.00     0.023 C 
ENDROOT
BRANCH   1   2
ATOM      2  C   UNL A   1      32.501  30.064  25.541  1.00  0.00     0.116 C 
BRANCH   2   3
ATOM      3  N   UNL A   1      31.804  29.726  24.315  1.00  0.00    -0.351 N 
ATOM      4  C   UNL A   1      31.300  28.555  23.824  1.00  0.00     0.270 C 
ATOM      5  O   UNL A   1      30.766  28.612  22.712  1.00  0.00    -0.268 OA
ATOM      6  H   UNL A   1      31.666  30.495  23.716  1.00  0.00     0.163 HD
BRANCH   4   7
ATOM      7  C   UNL A   1      31.418  27.227  24.549  1.00  0.00     0.136 A 
ATOM      8  C   UNL A   1      32.722  25.381  24.943  1.00  0.00     0.141 A 
ATOM      9  N   UNL A   1      32.635  26.572  24.445  1.00  0.00    -0.225 NA
ATOM     10  N   UNL A   1      31.731  24.818  25.701  1.00  0.00    -0.306 N 
ATOM     11  C   UNL A   1      30.533  25.429  25.878  1.00  0.00     0.251 A 
ATOM     12  H   UNL A   1      31.892  23.946  26.129  1.00  0.00     0.171 HD
ATOM     13  C   UNL A   1      30.342  26.657  25.105  1.00  0.00     0.105 A 
ATOM     14  O   UNL A   1      29.664  25.001  26.621  1.00  0.00    -0.269 OA
BRANCH   8  15
ATOM     15  C   UNL A   1      33.902  24.522  24.702  1.00  0.00     0.018 A 
ATOM     16  C   UNL A   1      36.156  22.980  24.171  1.00  0.00     0.119 A 
ATOM     17  C   UNL A   1      35.110  23.000  23.253  1.00  0.00     0.047 A 
ATOM     18  C   UNL A   1      36.105  23.769  25.322  1.00  0.00     0.047 A 
ATOM     19  C   UNL A   1      33.978  23.770  23.519  1.00  0.00     0.016 A 
ATOM     20  C   UNL A   1      34.974  24.539  25.593  1.00  0.00     0.016 A 
BRANCH  16  21
ATOM     21  O   UNL A   1      37.280  22.272  23.853  1.00  0.00    -0.494 OA
BRANCH  21  22
ATOM     22  C   UNL A   1      37.679  21.377  24.898  1.00  0.00     0.226 C 
ATOM     23  C   UNL A   1      36.756  20.172  24.978  1.00  0.00     0.049 C 
ENDBRANCH  21  22
ENDBRANCH  16  21
ENDBRANCH   8  15
ENDBRANCH   4   7
ENDBRANCH   2   3
ENDBRANCH   1   2
BRANCH   1  24
ATOM     24  C   UNL A   1      31.397  32.090  26.702  1.00  0.00     0.023 C 
BRANCH  24  25
ATOM     25  C   UNL A   1      32.637  32.894  27.068  1.00  0.00     0.116 C 
BRANCH  25  26
ATOM     26  N   UNL A   1      32.346  34.203  27.636  1.00  0.00    -0.352 N 
ATOM     27  C   UNL A   1      33.000  34.873  28.642  1.00  0.00     0.251 C 
ATOM     28  H   UNL A   1      31.575  34.673  27.245  1.00  0.00     0.163 HD
ATOM     29  O   UNL A   1      32.567  35.939  29.065  1.00  0.00    -0.269 OA
BRANCH  27  30
ATOM     30  C   UNL A   1      34.216  34.280  29.236  1.00  0.00     0.039 A 
ATOM     31  C   UNL A   1      34.085  33.396  30.310  1.00  0.00     0.014 A 
ATOM     32  C   UNL A   1      35.477  34.567  28.707  1.00  0.00     0.014 A 
ATOM     33  C   UNL A   1      35.219  32.762  30.819  1.00  0.00     0.010 A 
ATOM     34  C   UNL A   1      36.585  33.855  29.144  1.00  0.00     0.010 A 
ATOM     35  C   UNL A   1      36.474  32.966  30.223  1.00  0.00    -0.014 A 
BRANCH  35  36
ATOM     36  C   UNL A   1      37.692  32.304  30.750  1.00  0.00     0.031 A 
ATOM     37  C   UNL A   1      38.336  32.819  32.008  1.00  0.00     0.074 A 
ATOM     38  C   UNL A   1      38.247  31.278  30.078  1.00  0.00     0.049 A 
ATOM     39  N   UNL A   1      39.419  32.405  32.616  1.00  0.00    -0.248 NA
ATOM     40  C   UNL A   1      37.700  33.983  32.646  1.00  0.00     0.031 C 
ATOM     41  C   UNL A   1      37.757  30.727  28.813  1.00  0.00     0.029 A 
ATOM     42  N   UNL A   1      39.352  30.517  30.366  1.00  0.00    -0.354 N 
ATOM     43  C   UNL A   1      39.595  33.262  33.695  1.00  0.00     0.074 A 
ATOM     44  C   UNL A   1      38.563  34.270  33.608  1.00  0.00     0.031 C 
ATOM     45  C   UNL A   1      38.541  29.701  28.449  1.00  0.00     0.029 A 
ATOM     46  C   UNL A   1      39.605  29.540  29.435  1.00  0.00     0.049 A 
ATOM     47  H   UNL A   1      39.911  30.659  31.164  1.00  0.00     0.167 HD
ATOM     48  C   UNL A   1      40.509  33.197  34.691  1.00  0.00     0.037 A 
ATOM     49  C   UNL A   1      40.584  28.618  29.386  1.00  0.00     0.037 A 
ATOM     50  C   UNL A   1      41.527  32.185  34.780  1.00  0.00     0.049 A 
ATOM     51  C   UNL A   1      41.587  28.553  30.504  1.00  0.00     0.074 A 
ATOM     52  C   UNL A   1      42.476  31.996  35.769  1.00  0.00     0.029 A 
ATOM     53  N   UNL A   1      41.732  31.190  33.835  1.00  0.00    -0.354 N 
ATOM     54  N   UNL A   1      41.698  29.322  31.561  1.00  0.00    -0.248 NA
ATOM     55  C   UNL A   1      42.585  27.478  30.435  1.00  0.00     0.031 C 
ATOM     56  C   UNL A   1      43.287  30.919  35.395  1.00  0.00     0.029 A 
ATOM     57  C   UNL A   1      42.802  30.394  34.208  1.00  0.00     0.049 A 
ATOM     58  H   UNL A   1      41.194  31.067  33.019  1.00  0.00     0.167 HD
ATOM     59  C   UNL A   1      42.758  28.807  32.298  1.00  0.00     0.074 A 
ATOM     60  C   UNL A   1      43.245  27.652  31.571  1.00  0.00     0.031 C 
ATOM     61  C   UNL A   1      43.274  29.245  33.473  1.00  0.00     0.037 A 
BRANCH  48  62
ATOM     62  C   UNL A   1      40.435  34.259  35.754  1.00  0.00     0.057 A 
ATOM     63  C   UNL A   1      39.705  34.076  36.938  1.00  0.00     0.134 A 
ATOM     64  C   UNL A   1      41.081  35.490  35.584  1.00  0.00     0.134 A 
ATOM     65  F   UNL A   1      39.049  32.927  37.163  1.00  0.00    -0.206 F 
ATOM     66  C   UNL A   1      39.577  35.094  37.885  1.00  0.00     0.040 A 
ATOM     67  C   UNL A   1      40.990  36.502  36.541  1.00  0.00     0.040 A 
ATOM     68  F   UNL A   1      41.803  35.734  34.479  1.00  0.00    -0.206 F 
ATOM     69  C   UNL A   1      40.224  36.310  37.689  1.00  0.00     0.006 A 
ENDBRANCH  48  62
BRANCH  49  70
ATOM     70  C   UNL A   1      40.632  27.659  28.253  1.00  0.00     0.057 A 
ATOM     71  C   UNL A   1      39.938  26.443  28.301  1.00  0.00     0.134 A 
ATOM     72  C   UNL A   1      41.350  27.946  27.086  1.00  0.00     0.134 A 
ATOM     73  F   UNL A   1      39.244  26.105  29.397  1.00  0.00    -0.206 F 
ATOM     74  C   UNL A   1      39.969  25.541  27.236  1.00  0.00     0.040 A 
ATOM     75  C   UNL A   1      41.367  27.065  26.003  1.00  0.00     0.040 A 
ATOM     76  F   UNL A   1      42.025  29.098  26.973  1.00  0.00    -0.206 F 
ATOM     77  C   UNL A   1      40.680  25.855  26.079  1.00  0.00     0.006 A 
ENDBRANCH  49  70
BRANCH  61  78
ATOM     78  C   UNL A   1      44.395  28.445  34.073  1.00  0.00     0.057 A 
ATOM     79  C   UNL A   1      45.742  28.744  33.829  1.00  0.00     0.134 A 
ATOM     80  C   UNL A   1      44.118  27.371  34.930  1.00  0.00     0.134 A 
ATOM     81  F   UNL A   1      46.079  29.753  33.011  1.00  0.00    -0.206 F 
ATOM     82  C   UNL A   1      46.771  27.984  34.390  1.00  0.00     0.040 A 
ATOM     83  C   UNL A   1      45.138  26.625  35.522  1.00  0.00     0.040 A 
ATOM     84  F   UNL A   1      42.851  27.037  35.216  1.00  0.00    -0.206 F 
ATOM     85  C   UNL A   1      46.469  26.924  35.243  1.00  0.00     0.006 A 
ENDBRANCH  61  78
ENDBRANCH  35  36
ENDBRANCH  27  30
ENDBRANCH  25  26
ENDBRANCH  24  25
ENDBRANCH   1  24
TORSDOF 14
ENDMDL
