MODEL 1
REMARK VINA RESULT:     -11.7      0.000      0.000
REMARK SMILES Cc1cc(NC(=O)c2sccc2/C=C/C(=O)NCCCCNC(=O)c2ccc(-c3c4nc(c(-c5c(F)cccc5F)c5ccc([nH]5)c(-c5c(F)cccc5F)c5nc(c(-c6c(F)cccc6F)c6ccc3[nH]6)C=C5)C=C4)cc2)ccn1
REMARK SMILES IDX 19 1 18 2 17 3 15 4 16 5 14 7 13 8 12 9 8 10 9 11 10 12
REMARK SMILES IDX 11 13 6 14 5 15 7 17 4 18 1 19 2 20 3 21 81 22 80 23 79 24
REMARK SMILES IDX 20 25 21 26 22 27 23 28 24 30 25 31 26 32 78 33 27 34 77 35
REMARK SMILES IDX 28 36 29 37 30 38 71 39 31 40 76 41 70 42 72 43 32 44 75 45
REMARK SMILES IDX 69 46 68 47 33 49 59 50 42 51 58 52 43 53 46 54 57 55 73 56
REMARK SMILES IDX 44 57 45 58 56 60 74 61 47 62 34 63 35 64 40 65 36 66 37 67
REMARK SMILES IDX 39 68 41 69 38 70 60 71 61 72 66 73 62 74 63 75 65 76 67 77
REMARK SMILES IDX 64 78 48 79 49 80 54 81 50 82 51 83 53 84 55 85 52 86
REMARK H PARENT 17 6 5 16 22 29 72 48 46 59
REMARK Flexibility Score: inf
ROOT
ATOM      1  C   UNL A   1      37.105  21.812  25.632  1.00  0.00     0.023 C 
ENDROOT
BRANCH   1   2
ATOM      2  C   UNL A   1      35.666  21.308  25.603  1.00  0.00     0.116 C 
BRANCH   2   3
ATOM      3  N   UNL A   1      34.994  21.535  26.865  1.00  0.00    -0.353 N 
ATOM      4  C   UNL A   1      33.979  22.386  27.173  1.00  0.00     0.243 C 
ATOM      5  O   UNL A   1      33.465  22.342  28.288  1.00  0.00    -0.270 OA
ATOM      6  H   UNL A   1      35.322  20.989  27.616  1.00  0.00     0.163 HD
BRANCH   4   7
ATOM      7  C   UNL A   1      33.416  23.302  26.156  1.00  0.00     0.072 C 
ATOM      8  C   UNL A   1      33.820  24.565  25.942  1.00  0.00     0.015 C 
BRANCH   8   9
ATOM      9  C   UNL A   1      33.270  25.417  24.930  1.00  0.00    -0.002 A 
ATOM     10  C   UNL A   1      32.133  26.192  25.105  1.00  0.00     0.099 A 
ATOM     11  S   UNL A   1      31.703  27.014  23.659  1.00  0.00    -0.138 S 
ATOM     12  C   UNL A   1      33.084  26.435  22.842  1.00  0.00     0.066 A 
ATOM     13  C   UNL A   1      33.832  25.586  23.626  1.00  0.00     0.020 A 
BRANCH  10  14
ATOM     14  C   UNL A   1      31.275  26.383  26.257  1.00  0.00     0.266 C 
ATOM     15  N   UNL A   1      31.448  27.450  27.118  1.00  0.00    -0.321 N 
ATOM     16  H   UNL A   1      30.869  27.407  27.913  1.00  0.00     0.170 HD
ATOM     17  O   UNL A   1      30.388  25.579  26.557  1.00  0.00    -0.268 OA
BRANCH  15  18
ATOM     18  C   UNL A   1      32.280  28.586  27.098  1.00  0.00     0.044 A 
ATOM     19  C   UNL A   1      31.739  32.333  26.880  1.00  0.00     0.067 C 
ATOM     20  C   UNL A   1      32.395  30.990  26.981  1.00  0.00     0.039 A 
ATOM     21  C   UNL A   1      31.652  29.817  26.878  1.00  0.00     0.049 A 
ATOM     22  N   UNL A   1      33.717  30.984  27.251  1.00  0.00    -0.261 NA
ATOM     23  C   UNL A   1      34.317  29.786  27.388  1.00  0.00     0.113 A 
ATOM     24  C   UNL A   1      33.651  28.575  27.309  1.00  0.00     0.046 A 
ENDBRANCH  15  18
ENDBRANCH  10  14
ENDBRANCH   8   9
ENDBRANCH   4   7
ENDBRANCH   2   3
ENDBRANCH   1   2
BRANCH   1  25
ATOM     25  C   UNL A   1      37.244  23.310  25.359  1.00  0.00     0.023 C 
BRANCH  25  26
ATOM     26  C   UNL A   1      38.162  24.057  26.323  1.00  0.00     0.116 C 
BRANCH  26  27
ATOM     27  N   UNL A   1      39.576  23.885  26.028  1.00  0.00    -0.352 N 
ATOM     28  C   UNL A   1      40.643  24.619  26.494  1.00  0.00     0.251 C 
ATOM     29  H   UNL A   1      39.800  23.147  25.415  1.00  0.00     0.163 HD
ATOM     30  O   UNL A   1      41.775  24.398  26.086  1.00  0.00    -0.269 OA
BRANCH  28  31
ATOM     31  C   UNL A   1      40.396  25.707  27.462  1.00  0.00     0.039 A 
ATOM     32  C   UNL A   1      39.498  25.483  28.508  1.00  0.00     0.014 A 
ATOM     33  C   UNL A   1      41.088  26.917  27.365  1.00  0.00     0.014 A 
ATOM     34  C   UNL A   1      39.347  26.451  29.502  1.00  0.00     0.010 A 
ATOM     35  C   UNL A   1      40.985  27.850  28.392  1.00  0.00     0.010 A 
ATOM     36  C   UNL A   1      40.119  27.624  29.472  1.00  0.00    -0.014 A 
BRANCH  36  37
ATOM     37  C   UNL A   1      40.043  28.623  30.567  1.00  0.00     0.031 A 
ATOM     38  C   UNL A   1      39.049  29.747  30.492  1.00  0.00     0.074 A 
ATOM     39  C   UNL A   1      40.920  28.562  31.587  1.00  0.00     0.049 A 
ATOM     40  N   UNL A   1      38.886  30.761  31.303  1.00  0.00    -0.248 NA
ATOM     41  C   UNL A   1      38.139  29.748  29.336  1.00  0.00     0.031 C 
ATOM     42  C   UNL A   1      41.966  27.549  31.747  1.00  0.00     0.029 A 
ATOM     43  N   UNL A   1      41.078  29.377  32.678  1.00  0.00    -0.354 N 
ATOM     44  C   UNL A   1      37.869  31.526  30.749  1.00  0.00     0.074 A 
ATOM     45  C   UNL A   1      37.487  30.889  29.508  1.00  0.00     0.031 C 
ATOM     46  C   UNL A   1      42.645  27.794  32.879  1.00  0.00     0.029 A 
ATOM     47  C   UNL A   1      42.105  28.996  33.507  1.00  0.00     0.049 A 
ATOM     48  H   UNL A   1      40.511  30.163  32.851  1.00  0.00     0.167 HD
ATOM     49  C   UNL A   1      37.290  32.647  31.241  1.00  0.00     0.037 A 
ATOM     50  C   UNL A   1      42.564  29.557  34.642  1.00  0.00     0.037 A 
ATOM     51  C   UNL A   1      37.650  33.263  32.490  1.00  0.00     0.049 A 
ATOM     52  C   UNL A   1      41.898  30.796  35.172  1.00  0.00     0.074 A 
ATOM     53  C   UNL A   1      37.078  34.364  33.106  1.00  0.00     0.029 A 
ATOM     54  N   UNL A   1      38.677  32.831  33.316  1.00  0.00    -0.354 N 
ATOM     55  N   UNL A   1      40.893  31.471  34.672  1.00  0.00    -0.248 NA
ATOM     56  C   UNL A   1      42.429  31.347  36.428  1.00  0.00     0.031 C 
ATOM     57  C   UNL A   1      37.784  34.618  34.287  1.00  0.00     0.029 A 
ATOM     58  C   UNL A   1      38.767  33.653  34.427  1.00  0.00     0.049 A 
ATOM     59  H   UNL A   1      39.256  32.055  33.138  1.00  0.00     0.167 HD
ATOM     60  C   UNL A   1      40.653  32.510  35.563  1.00  0.00     0.074 A 
ATOM     61  C   UNL A   1      41.609  32.368  36.640  1.00  0.00     0.031 C 
ATOM     62  C   UNL A   1      39.720  33.492  35.494  1.00  0.00     0.037 A 
BRANCH  49  63
ATOM     63  C   UNL A   1      36.198  33.274  30.425  1.00  0.00     0.057 A 
ATOM     64  C   UNL A   1      36.479  34.061  29.299  1.00  0.00     0.134 A 
ATOM     65  C   UNL A   1      34.852  33.067  30.749  1.00  0.00     0.134 A 
ATOM     66  F   UNL A   1      37.748  34.310  28.943  1.00  0.00    -0.206 F 
ATOM     67  C   UNL A   1      35.460  34.643  28.543  1.00  0.00     0.040 A 
ATOM     68  C   UNL A   1      33.824  33.621  29.985  1.00  0.00     0.040 A 
ATOM     69  F   UNL A   1      34.515  32.319  31.811  1.00  0.00    -0.206 F 
ATOM     70  C   UNL A   1      34.128  34.418  28.882  1.00  0.00     0.006 A 
ENDBRANCH  49  63
BRANCH  50  71
ATOM     71  C   UNL A   1      43.696  28.935  35.372  1.00  0.00     0.057 A 
ATOM     72  C   UNL A   1      45.017  29.313  35.109  1.00  0.00     0.134 A 
ATOM     73  C   UNL A   1      43.488  27.948  36.343  1.00  0.00     0.134 A 
ATOM     74  F   UNL A   1      45.279  30.241  34.176  1.00  0.00    -0.206 F 
ATOM     75  C   UNL A   1      46.094  28.721  35.770  1.00  0.00     0.040 A 
ATOM     76  C   UNL A   1      44.555  27.363  37.029  1.00  0.00     0.040 A 
ATOM     77  F   UNL A   1      42.245  27.547  36.647  1.00  0.00    -0.206 F 
ATOM     78  C   UNL A   1      45.863  27.745  36.737  1.00  0.00     0.006 A 
ENDBRANCH  50  71
BRANCH  62  79
ATOM     79  C   UNL A   1      39.671  34.470  36.630  1.00  0.00     0.057 A 
ATOM     80  C   UNL A   1      40.312  35.713  36.562  1.00  0.00     0.134 A 
ATOM     81  C   UNL A   1      38.940  34.178  37.789  1.00  0.00     0.134 A 
ATOM     82  F   UNL A   1      41.039  36.046  35.485  1.00  0.00    -0.206 F 
ATOM     83  C   UNL A   1      40.243  36.625  37.617  1.00  0.00     0.040 A 
ATOM     84  C   UNL A   1      38.845  35.092  38.839  1.00  0.00     0.040 A 
ATOM     85  F   UNL A   1      38.298  33.007  37.912  1.00  0.00    -0.206 F 
ATOM     86  C   UNL A   1      39.501  36.318  38.756  1.00  0.00     0.006 A 
ENDBRANCH  62  79
ENDBRANCH  36  37
ENDBRANCH  28  31
ENDBRANCH  26  27
ENDBRANCH  25  26
ENDBRANCH   1  25
TORSDOF 14
ENDMDL
MODEL 2
REMARK VINA RESULT:     -11.7      4.247      9.245
REMARK SMILES Cc1cc(NC(=O)c2sccc2/C=C/C(=O)NCCCCNC(=O)c2ccc(-c3c4nc(c(-c5c(F)cccc5F)c5ccc([nH]5)c(-c5c(F)cccc5F)c5nc(c(-c6c(F)cccc6F)c6ccc3[nH]6)C=C5)C=C4)cc2)ccn1
REMARK SMILES IDX 19 1 18 2 17 3 15 4 16 5 14 7 13 8 12 9 8 10 9 11 10 12
REMARK SMILES IDX 11 13 6 14 5 15 7 17 4 18 1 19 2 20 3 21 81 22 80 23 79 24
REMARK SMILES IDX 20 25 21 26 22 27 23 28 24 30 25 31 26 32 78 33 27 34 77 35
REMARK SMILES IDX 28 36 29 37 30 38 71 39 31 40 76 41 70 42 72 43 32 44 75 45
REMARK SMILES IDX 69 46 68 47 33 49 59 50 42 51 58 52 43 53 46 54 57 55 73 56
REMARK SMILES IDX 44 57 45 58 56 60 74 61 47 62 34 63 35 64 40 65 36 66 37 67
REMARK SMILES IDX 39 68 41 69 38 70 60 71 61 72 66 73 62 74 63 75 65 76 67 77
REMARK SMILES IDX 64 78 48 79 49 80 54 81 50 82 51 83 53 84 55 85 52 86
REMARK H PARENT 17 6 5 16 22 29 72 48 46 59
REMARK Flexibility Score: inf
ROOT
ATOM      1  C   UNL A   1      31.914  29.640  25.639  1.00  0.00     0.023 C 
ENDROOT
BRANCH   1   2
ATOM      2  C   UNL A   1      31.456  29.163  24.265  1.00  0.00     0.116 C 
BRANCH   2   3
ATOM      3  N   UNL A   1      32.560  29.078  23.332  1.00  0.00    -0.353 N 
ATOM      4  C   UNL A   1      33.259  27.993  22.902  1.00  0.00     0.243 C 
ATOM      5  O   UNL A   1      34.092  28.120  22.008  1.00  0.00    -0.270 OA
ATOM      6  H   UNL A   1      32.851  29.938  22.951  1.00  0.00     0.163 HD
BRANCH   4   7
ATOM      7  C   UNL A   1      32.964  26.640  23.425  1.00  0.00     0.072 C 
ATOM      8  C   UNL A   1      33.634  26.030  24.416  1.00  0.00     0.015 C 
BRANCH   8   9
ATOM      9  C   UNL A   1      33.306  24.727  24.916  1.00  0.00    -0.002 A 
ATOM     10  C   UNL A   1      33.664  23.544  24.287  1.00  0.00     0.099 A 
ATOM     11  S   UNL A   1      33.026  22.177  25.108  1.00  0.00    -0.138 S 
ATOM     12  C   UNL A   1      32.378  23.146  26.354  1.00  0.00     0.066 A 
ATOM     13  C   UNL A   1      32.587  24.487  26.128  1.00  0.00     0.020 A 
BRANCH  10  14
ATOM     14  C   UNL A   1      34.431  23.297  23.083  1.00  0.00     0.266 C 
ATOM     15  N   UNL A   1      35.777  22.982  23.135  1.00  0.00    -0.321 N 
ATOM     16  H   UNL A   1      36.201  22.940  22.249  1.00  0.00     0.170 HD
ATOM     17  O   UNL A   1      33.942  23.407  21.956  1.00  0.00    -0.268 OA
BRANCH  15  18
ATOM     18  C   UNL A   1      36.667  22.709  24.192  1.00  0.00     0.044 A 
ATOM     19  C   UNL A   1      38.678  19.702  25.329  1.00  0.00     0.067 C 
ATOM     20  C   UNL A   1      38.088  21.077  25.251  1.00  0.00     0.039 A 
ATOM     21  C   UNL A   1      37.105  21.386  24.315  1.00  0.00     0.049 A 
ATOM     22  N   UNL A   1      38.615  22.006  26.076  1.00  0.00    -0.261 NA
ATOM     23  C   UNL A   1      38.128  23.260  25.991  1.00  0.00     0.113 A 
ATOM     24  C   UNL A   1      37.158  23.651  25.084  1.00  0.00     0.046 A 
ENDBRANCH  15  18
ENDBRANCH  10  14
ENDBRANCH   8   9
ENDBRANCH   4   7
ENDBRANCH   2   3
ENDBRANCH   1   2
BRANCH   1  25
ATOM     25  C   UNL A   1      32.496  28.533  26.518  1.00  0.00     0.023 C 
BRANCH  25  26
ATOM     26  C   UNL A   1      33.784  28.902  27.250  1.00  0.00     0.116 C 
BRANCH  26  27
ATOM     27  N   UNL A   1      33.752  30.227  27.848  1.00  0.00    -0.352 N 
ATOM     28  C   UNL A   1      34.756  30.887  28.520  1.00  0.00     0.251 C 
ATOM     29  H   UNL A   1      32.902  30.716  27.762  1.00  0.00     0.163 HD
ATOM     30  O   UNL A   1      34.546  31.975  29.038  1.00  0.00    -0.269 OA
BRANCH  28  31
ATOM     31  C   UNL A   1      36.080  30.244  28.642  1.00  0.00     0.039 A 
ATOM     32  C   UNL A   1      36.968  30.326  27.567  1.00  0.00     0.014 A 
ATOM     33  C   UNL A   1      36.457  29.611  29.829  1.00  0.00     0.014 A 
ATOM     34  C   UNL A   1      38.266  29.835  27.709  1.00  0.00     0.010 A 
ATOM     35  C   UNL A   1      37.771  29.184  29.991  1.00  0.00     0.010 A 
ATOM     36  C   UNL A   1      38.689  29.295  28.935  1.00  0.00    -0.014 A 
BRANCH  36  37
ATOM     37  C   UNL A   1      40.091  28.853  29.139  1.00  0.00     0.031 A 
ATOM     38  C   UNL A   1      41.099  29.798  29.730  1.00  0.00     0.074 A 
ATOM     39  C   UNL A   1      40.472  27.632  28.721  1.00  0.00     0.049 A 
ATOM     40  N   UNL A   1      42.383  29.629  29.909  1.00  0.00    -0.248 NA
ATOM     41  C   UNL A   1      40.602  31.119  30.146  1.00  0.00     0.031 C 
ATOM     42  C   UNL A   1      39.600  26.642  28.085  1.00  0.00     0.029 A 
ATOM     43  N   UNL A   1      41.698  27.018  28.757  1.00  0.00    -0.354 N 
ATOM     44  C   UNL A   1      42.850  30.822  30.443  1.00  0.00     0.074 A 
ATOM     45  C   UNL A   1      41.721  31.725  30.511  1.00  0.00     0.031 C 
ATOM     46  C   UNL A   1      40.315  25.540  27.807  1.00  0.00     0.029 A 
ATOM     47  C   UNL A   1      41.700  25.755  28.216  1.00  0.00     0.049 A 
ATOM     48  H   UNL A   1      42.503  27.442  29.135  1.00  0.00     0.167 HD
ATOM     49  C   UNL A   1      44.101  31.131  30.859  1.00  0.00     0.037 A 
ATOM     50  C   UNL A   1      42.705  24.874  28.061  1.00  0.00     0.037 A 
ATOM     51  C   UNL A   1      45.215  30.223  30.818  1.00  0.00     0.049 A 
ATOM     52  C   UNL A   1      44.083  25.238  28.538  1.00  0.00     0.074 A 
ATOM     53  C   UNL A   1      46.507  30.420  31.277  1.00  0.00     0.029 A 
ATOM     54  N   UNL A   1      45.170  28.942  30.289  1.00  0.00    -0.354 N 
ATOM     55  N   UNL A   1      44.495  26.346  29.103  1.00  0.00    -0.248 NA
ATOM     56  C   UNL A   1      45.134  24.225  28.363  1.00  0.00     0.031 C 
ATOM     57  C   UNL A   1      47.252  29.271  30.991  1.00  0.00     0.029 A 
ATOM     58  C   UNL A   1      46.415  28.344  30.392  1.00  0.00     0.049 A 
ATOM     59  H   UNL A   1      44.371  28.520  29.897  1.00  0.00     0.167 HD
ATOM     60  C   UNL A   1      45.844  26.156  29.373  1.00  0.00     0.074 A 
ATOM     61  C   UNL A   1      46.178  24.821  28.923  1.00  0.00     0.031 C 
ATOM     62  C   UNL A   1      46.727  27.011  29.946  1.00  0.00     0.037 A 
BRANCH  49  63
ATOM     63  C   UNL A   1      44.325  32.512  31.402  1.00  0.00     0.057 A 
ATOM     64  C   UNL A   1      44.166  32.803  32.763  1.00  0.00     0.134 A 
ATOM     65  C   UNL A   1      44.730  33.556  30.561  1.00  0.00     0.134 A 
ATOM     66  F   UNL A   1      43.765  31.851  33.620  1.00  0.00    -0.206 F 
ATOM     67  C   UNL A   1      44.374  34.090  33.264  1.00  0.00     0.040 A 
ATOM     68  C   UNL A   1      44.968  34.839  31.054  1.00  0.00     0.040 A 
ATOM     69  F   UNL A   1      44.906  33.343  29.248  1.00  0.00    -0.206 F 
ATOM     70  C   UNL A   1      44.783  35.110  32.409  1.00  0.00     0.006 A 
ENDBRANCH  49  63
BRANCH  50  71
ATOM     71  C   UNL A   1      42.442  23.548  27.450  1.00  0.00     0.057 A 
ATOM     72  C   UNL A   1      42.118  22.441  28.244  1.00  0.00     0.134 A 
ATOM     73  C   UNL A   1      42.512  23.351  26.066  1.00  0.00     0.134 A 
ATOM     74  F   UNL A   1      42.054  22.565  29.578  1.00  0.00    -0.206 F 
ATOM     75  C   UNL A   1      41.890  21.182  27.687  1.00  0.00     0.040 A 
ATOM     76  C   UNL A   1      42.266  22.101  25.493  1.00  0.00     0.040 A 
ATOM     77  F   UNL A   1      42.811  24.372  25.250  1.00  0.00    -0.206 F 
ATOM     78  C   UNL A   1      41.960  21.012  26.305  1.00  0.00     0.006 A 
ENDBRANCH  50  71
BRANCH  62  79
ATOM     79  C   UNL A   1      48.129  26.516  30.145  1.00  0.00     0.057 A 
ATOM     80  C   UNL A   1      48.515  25.842  31.310  1.00  0.00     0.134 A 
ATOM     81  C   UNL A   1      49.092  26.682  29.142  1.00  0.00     0.134 A 
ATOM     82  F   UNL A   1      47.642  25.663  32.314  1.00  0.00    -0.206 F 
ATOM     83  C   UNL A   1      49.817  25.367  31.478  1.00  0.00     0.040 A 
ATOM     84  C   UNL A   1      50.389  26.190  29.288  1.00  0.00     0.040 A 
ATOM     85  F   UNL A   1      48.783  27.313  27.999  1.00  0.00    -0.206 F 
ATOM     86  C   UNL A   1      50.755  25.534  30.461  1.00  0.00     0.006 A 
ENDBRANCH  62  79
ENDBRANCH  36  37
ENDBRANCH  28  31
ENDBRANCH  26  27
ENDBRANCH  25  26
ENDBRANCH   1  25
TORSDOF 14
ENDMDL
MODEL 3
REMARK VINA RESULT:     -11.6      2.426      7.551
REMARK SMILES Cc1cc(NC(=O)c2sccc2/C=C/C(=O)NCCCCNC(=O)c2ccc(-c3c4nc(c(-c5c(F)cccc5F)c5ccc([nH]5)c(-c5c(F)cccc5F)c5nc(c(-c6c(F)cccc6F)c6ccc3[nH]6)C=C5)C=C4)cc2)ccn1
REMARK SMILES IDX 19 1 18 2 17 3 15 4 16 5 14 7 13 8 12 9 8 10 9 11 10 12
REMARK SMILES IDX 11 13 6 14 5 15 7 17 4 18 1 19 2 20 3 21 81 22 80 23 79 24
REMARK SMILES IDX 20 25 21 26 22 27 23 28 24 30 25 31 26 32 78 33 27 34 77 35
REMARK SMILES IDX 28 36 29 37 30 38 71 39 31 40 76 41 70 42 72 43 32 44 75 45
REMARK SMILES IDX 69 46 68 47 33 49 59 50 42 51 58 52 43 53 46 54 57 55 73 56
REMARK SMILES IDX 44 57 45 58 56 60 74 61 47 62 34 63 35 64 40 65 36 66 37 67
REMARK SMILES IDX 39 68 41 69 38 70 60 71 61 72 66 73 62 74 63 75 65 76 67 77
REMARK SMILES IDX 64 78 48 79 49 80 54 81 50 82 51 83 53 84 55 85 52 86
REMARK H PARENT 17 6 5 16 22 29 72 48 46 59
REMARK Flexibility Score: inf
ROOT
ATOM      1  C   UNL A   1      31.691  30.816  26.167  1.00  0.00     0.023 C 
ENDROOT
BRANCH   1   2
ATOM      2  C   UNL A   1      31.889  29.668  27.152  1.00  0.00     0.116 C 
BRANCH   2   3
ATOM      3  N   UNL A   1      33.277  29.532  27.543  1.00  0.00    -0.353 N 
ATOM      4  C   UNL A   1      34.249  28.721  27.044  1.00  0.00     0.243 C 
ATOM      5  O   UNL A   1      35.406  28.843  27.441  1.00  0.00    -0.270 OA
ATOM      6  H   UNL A   1      33.560  30.115  28.284  1.00  0.00     0.163 HD
BRANCH   4   7
ATOM      7  C   UNL A   1      33.956  27.758  25.959  1.00  0.00     0.072 C 
ATOM      8  C   UNL A   1      33.553  26.490  26.138  1.00  0.00     0.015 C 
BRANCH   8   9
ATOM      9  C   UNL A   1      33.254  25.590  25.063  1.00  0.00    -0.002 A 
ATOM     10  C   UNL A   1      31.975  25.156  24.750  1.00  0.00     0.099 A 
ATOM     11  S   UNL A   1      31.995  24.011  23.469  1.00  0.00    -0.138 S 
ATOM     12  C   UNL A   1      33.680  24.180  23.257  1.00  0.00     0.066 A 
ATOM     13  C   UNL A   1      34.233  25.043  24.175  1.00  0.00     0.020 A 
BRANCH  10  14
ATOM     14  C   UNL A   1      30.687  25.481  25.328  1.00  0.00     0.266 C 
ATOM     15  N   UNL A   1      29.965  26.584  24.911  1.00  0.00    -0.321 N 
ATOM     16  H   UNL A   1      29.161  26.750  25.453  1.00  0.00     0.170 HD
ATOM     17  O   UNL A   1      30.198  24.829  26.254  1.00  0.00    -0.268 OA
BRANCH  15  18
ATOM     18  C   UNL A   1      30.139  27.519  23.873  1.00  0.00     0.044 A 
ATOM     19  C   UNL A   1      27.873  29.847  21.918  1.00  0.00     0.067 C 
ATOM     20  C   UNL A   1      29.085  29.120  22.413  1.00  0.00     0.039 A 
ATOM     21  C   UNL A   1      28.977  28.091  23.345  1.00  0.00     0.049 A 
ATOM     22  N   UNL A   1      30.279  29.568  21.969  1.00  0.00    -0.261 NA
ATOM     23  C   UNL A   1      31.384  28.955  22.436  1.00  0.00     0.113 A 
ATOM     24  C   UNL A   1      31.364  27.931  23.368  1.00  0.00     0.046 A 
ENDBRANCH  15  18
ENDBRANCH  10  14
ENDBRANCH   8   9
ENDBRANCH   4   7
ENDBRANCH   2   3
ENDBRANCH   1   2
BRANCH   1  25
ATOM     25  C   UNL A   1      31.386  32.158  26.832  1.00  0.00     0.023 C 
BRANCH  25  26
ATOM     26  C   UNL A   1      32.613  32.943  27.293  1.00  0.00     0.116 C 
BRANCH  26  27
ATOM     27  N   UNL A   1      32.317  34.319  27.659  1.00  0.00    -0.352 N 
ATOM     28  C   UNL A   1      32.962  35.117  28.577  1.00  0.00     0.251 C 
ATOM     29  H   UNL A   1      31.557  34.734  27.190  1.00  0.00     0.163 HD
ATOM     30  O   UNL A   1      32.539  36.236  28.832  1.00  0.00    -0.269 OA
BRANCH  28  31
ATOM     31  C   UNL A   1      34.147  34.587  29.280  1.00  0.00     0.039 A 
ATOM     32  C   UNL A   1      33.973  33.985  30.528  1.00  0.00     0.014 A 
ATOM     33  C   UNL A   1      35.410  34.639  28.686  1.00  0.00     0.014 A 
ATOM     34  C   UNL A   1      35.059  33.367  31.150  1.00  0.00     0.010 A 
ATOM     35  C   UNL A   1      36.474  33.965  29.276  1.00  0.00     0.010 A 
ATOM     36  C   UNL A   1      36.309  33.319  30.510  1.00  0.00    -0.014 A 
BRANCH  36  37
ATOM     37  C   UNL A   1      37.452  32.587  31.109  1.00  0.00     0.031 A 
ATOM     38  C   UNL A   1      38.033  33.041  32.418  1.00  0.00     0.074 A 
ATOM     39  C   UNL A   1      38.015  31.565  30.438  1.00  0.00     0.049 A 
ATOM     40  N   UNL A   1      39.078  32.587  33.060  1.00  0.00    -0.248 NA
ATOM     41  C   UNL A   1      37.367  34.175  33.079  1.00  0.00     0.031 C 
ATOM     42  C   UNL A   1      37.576  31.062  29.134  1.00  0.00     0.029 A 
ATOM     43  N   UNL A   1      39.088  30.771  30.754  1.00  0.00    -0.354 N 
ATOM     44  C   UNL A   1      39.205  33.387  34.187  1.00  0.00     0.074 A 
ATOM     45  C   UNL A   1      38.162  34.387  34.117  1.00  0.00     0.031 C 
ATOM     46  C   UNL A   1      38.362  30.036  28.772  1.00  0.00     0.029 A 
ATOM     47  C   UNL A   1      39.377  29.827  29.799  1.00  0.00     0.049 A 
ATOM     48  H   UNL A   1      39.604  30.870  31.587  1.00  0.00     0.167 HD
ATOM     49  C   UNL A   1      40.098  33.285  35.201  1.00  0.00     0.037 A 
ATOM     50  C   UNL A   1      40.354  28.902  29.755  1.00  0.00     0.037 A 
ATOM     51  C   UNL A   1      41.116  32.273  35.284  1.00  0.00     0.049 A 
ATOM     52  C   UNL A   1      41.327  28.804  30.897  1.00  0.00     0.074 A 
ATOM     53  C   UNL A   1      42.026  32.047  36.303  1.00  0.00     0.029 A 
ATOM     54  N   UNL A   1      41.359  31.316  34.310  1.00  0.00    -0.354 N 
ATOM     55  N   UNL A   1      41.394  29.525  31.989  1.00  0.00    -0.248 NA
ATOM     56  C   UNL A   1      42.357  27.759  30.802  1.00  0.00     0.031 C 
ATOM     57  C   UNL A   1      42.844  30.975  35.928  1.00  0.00     0.029 A 
ATOM     58  C   UNL A   1      42.416  30.509  34.696  1.00  0.00     0.049 A 
ATOM     59  H   UNL A   1      40.855  31.225  33.470  1.00  0.00     0.167 HD
ATOM     60  C   UNL A   1      42.453  29.006  32.723  1.00  0.00     0.074 A 
ATOM     61  C   UNL A   1      42.992  27.902  31.957  1.00  0.00     0.031 C 
ATOM     62  C   UNL A   1      42.935  29.408  33.925  1.00  0.00     0.037 A 
BRANCH  49  63
ATOM     63  C   UNL A   1      40.003  34.295  36.306  1.00  0.00     0.057 A 
ATOM     64  C   UNL A   1      40.681  35.521  36.245  1.00  0.00     0.134 A 
ATOM     65  C   UNL A   1      39.205  34.055  37.431  1.00  0.00     0.134 A 
ATOM     66  F   UNL A   1      41.473  35.807  35.201  1.00  0.00    -0.206 F 
ATOM     67  C   UNL A   1      40.591  36.457  37.276  1.00  0.00     0.040 A 
ATOM     68  C   UNL A   1      39.086  34.994  38.456  1.00  0.00     0.040 A 
ATOM     69  F   UNL A   1      38.525  32.903  37.549  1.00  0.00    -0.206 F 
ATOM     70  C   UNL A   1      39.786  36.197  38.383  1.00  0.00     0.006 A 
ENDBRANCH  49  63
BRANCH  50  71
ATOM     71  C   UNL A   1      40.446  27.974  28.601  1.00  0.00     0.057 A 
ATOM     72  C   UNL A   1      41.193  28.309  27.465  1.00  0.00     0.134 A 
ATOM     73  C   UNL A   1      39.789  26.738  28.601  1.00  0.00     0.134 A 
ATOM     74  F   UNL A   1      41.829  29.488  27.402  1.00  0.00    -0.206 F 
ATOM     75  C   UNL A   1      41.270  27.457  26.363  1.00  0.00     0.040 A 
ATOM     76  C   UNL A   1      39.875  25.866  27.513  1.00  0.00     0.040 A 
ATOM     77  F   UNL A   1      39.064  26.355  29.662  1.00  0.00    -0.206 F 
ATOM     78  C   UNL A   1      40.612  26.228  26.388  1.00  0.00     0.006 A 
ENDBRANCH  50  71
BRANCH  62  79
ATOM     79  C   UNL A   1      44.081  28.630  34.498  1.00  0.00     0.057 A 
ATOM     80  C   UNL A   1      43.878  27.491  35.287  1.00  0.00     0.134 A 
ATOM     81  C   UNL A   1      45.403  29.003  34.224  1.00  0.00     0.134 A 
ATOM     82  F   UNL A   1      42.636  27.088  35.596  1.00  0.00    -0.206 F 
ATOM     83  C   UNL A   1      44.953  26.760  35.799  1.00  0.00     0.040 A 
ATOM     84  C   UNL A   1      46.484  28.268  34.711  1.00  0.00     0.040 A 
ATOM     85  F   UNL A   1      45.663  30.081  33.469  1.00  0.00    -0.206 F 
ATOM     86  C   UNL A   1      46.259  27.145  35.505  1.00  0.00     0.006 A 
ENDBRANCH  62  79
ENDBRANCH  36  37
ENDBRANCH  28  31
ENDBRANCH  26  27
ENDBRANCH  25  26
ENDBRANCH   1  25
TORSDOF 14
ENDMDL
