MODEL 1
REMARK VINA RESULT:     -10.2      0.000      0.000
REMARK SMILES C[N@@H+](CC(C)(C)C(=O)NCCCCNC(=O)c1ccc(-c2c3nc(c(-c4c(F)cccc4F)c4ccc([nH]4)c(-c4c(F)cccc4F)c4nc(c(-c5c(F)cccc5F)c5ccc2[nH]5)C=C4)C=C3)cc1)[C@@H]1CCCC[C@@H]1C[NH3+]
REMARK SMILES IDX 10 1 9 2 7 3 8 4 4 6 5 7 6 8 3 9 2 10 1 11 71 13 72 14 76 15
REMARK SMILES IDX 73 16 75 17 74 18 77 19 78 20 11 24 12 25 13 26 14 27 15 28
REMARK SMILES IDX 16 30 17 31 18 32 70 33 19 34 69 35 20 36 21 37 22 38 63 39
REMARK SMILES IDX 23 40 68 41 62 42 64 43 24 44 67 45 61 46 60 47 25 49 51 50
REMARK SMILES IDX 34 51 50 52 35 53 38 54 49 55 65 56 36 57 37 58 48 60 66 61
REMARK SMILES IDX 39 62 26 63 27 64 32 65 28 66 29 67 31 68 33 69 30 70 52 71
REMARK SMILES IDX 53 72 58 73 54 74 55 75 57 76 59 77 56 78 40 79 41 80 46 81
REMARK SMILES IDX 42 82 43 83 45 84 47 85 44 86
REMARK H PARENT 9 5 2 12 78 21 78 22 78 23 14 29 64 48 38 59
REMARK Flexibility Score: inf
ROOT
ATOM      1  C   UNL A   1      33.906  25.555  25.695  1.00  0.00     0.116 C 
ENDROOT
BRANCH   1   2
ATOM      2  N   UNL A   1      34.073  24.930  24.399  1.00  0.00    -0.355 N 
ATOM      3  C   UNL A   1      34.912  23.955  23.952  1.00  0.00     0.231 C 
ATOM      4  O   UNL A   1      34.884  23.774  22.730  1.00  0.00    -0.274 OA
ATOM      5  H   UNL A   1      33.462  25.276  23.709  1.00  0.00     0.163 HD
BRANCH   3   6
ATOM      6  C   UNL A   1      35.934  23.245  24.856  1.00  0.00     0.092 C 
ATOM      7  C   UNL A   1      36.850  24.166  25.659  1.00  0.00     0.027 C 
ATOM      8  C   UNL A   1      36.834  22.438  23.884  1.00  0.00     0.027 C 
BRANCH   6   9
ATOM      9  C   UNL A   1      35.242  22.205  25.821  1.00  0.00     0.278 C 
BRANCH   9  10
ATOM     10  N   UNL A   1      33.902  21.612  25.677  1.00  0.00    -0.334 N 
ATOM     11  C   UNL A   1      33.015  21.931  26.798  1.00  0.00     0.333 C 
ATOM     12  H   UNL A   1      33.738  22.120  24.807  1.00  0.00     0.348 HD
BRANCH  10  13
ATOM     13  C   UNL A   1      33.574  20.318  25.047  1.00  0.00     0.192 C 
ATOM     14  C   UNL A   1      34.762  19.435  24.635  1.00  0.00     0.065 C 
ATOM     15  C   UNL A   1      32.359  20.262  24.057  1.00  0.00     0.102 C 
ATOM     16  C   UNL A   1      34.332  17.998  24.360  1.00  0.00     0.006 C 
ATOM     17  C   UNL A   1      32.050  18.797  23.648  1.00  0.00     0.015 C 
ATOM     18  C   UNL A   1      33.272  17.961  23.269  1.00  0.00     0.001 C 
BRANCH  15  19
ATOM     19  C   UNL A   1      32.308  21.195  22.831  1.00  0.00     0.268 C 
BRANCH  19  20
ATOM     20  N   UNL A   1      31.715  20.657  21.616  1.00  0.00    -0.357 N 
ATOM     21  H   UNL A   1      31.460  19.680  21.766  1.00  0.00     0.344 HD
ATOM     22  H   UNL A   1      32.388  20.719  20.852  1.00  0.00     0.344 HD
ATOM     23  H   UNL A   1      30.880  21.193  21.379  1.00  0.00     0.344 HD
ENDBRANCH  19  20
ENDBRANCH  15  19
ENDBRANCH  10  13
ENDBRANCH   9  10
ENDBRANCH   6   9
ENDBRANCH   3   6
ENDBRANCH   1   2
BRANCH   1  24
ATOM     24  C   UNL A   1      34.175  27.054  25.656  1.00  0.00     0.023 C 
BRANCH  24  25
ATOM     25  C   UNL A   1      33.029  27.925  26.155  1.00  0.00     0.023 C 
BRANCH  25  26
ATOM     26  C   UNL A   1      33.184  28.430  27.583  1.00  0.00     0.116 C 
BRANCH  26  27
ATOM     27  N   UNL A   1      33.216  29.885  27.671  1.00  0.00    -0.352 N 
ATOM     28  C   UNL A   1      34.273  30.704  28.000  1.00  0.00     0.251 C 
ATOM     29  H   UNL A   1      32.369  30.344  27.470  1.00  0.00     0.163 HD
ATOM     30  O   UNL A   1      34.122  31.906  28.151  1.00  0.00    -0.269 OA
BRANCH  28  31
ATOM     31  C   UNL A   1      35.594  30.081  28.200  1.00  0.00     0.039 A 
ATOM     32  C   UNL A   1      36.501  30.056  27.139  1.00  0.00     0.014 A 
ATOM     33  C   UNL A   1      35.958  29.632  29.471  1.00  0.00     0.014 A 
ATOM     34  C   UNL A   1      37.817  29.659  27.377  1.00  0.00     0.010 A 
ATOM     35  C   UNL A   1      37.285  29.314  29.721  1.00  0.00     0.010 A 
ATOM     36  C   UNL A   1      38.227  29.333  28.680  1.00  0.00    -0.014 A 
BRANCH  36  37
ATOM     37  C   UNL A   1      39.637  28.999  28.998  1.00  0.00     0.031 A 
ATOM     38  C   UNL A   1      40.521  30.051  29.603  1.00  0.00     0.074 A 
ATOM     39  C   UNL A   1      40.143  27.803  28.643  1.00  0.00     0.049 A 
ATOM     40  N   UNL A   1      41.816  30.039  29.787  1.00  0.00    -0.248 NA
ATOM     41  C   UNL A   1      39.863  31.301  30.017  1.00  0.00     0.031 C 
ATOM     42  C   UNL A   1      39.395  26.714  28.012  1.00  0.00     0.029 A 
ATOM     43  N   UNL A   1      41.422  27.313  28.740  1.00  0.00    -0.354 N 
ATOM     44  C   UNL A   1      42.130  31.288  30.304  1.00  0.00     0.074 A 
ATOM     45  C   UNL A   1      40.900  32.048  30.363  1.00  0.00     0.031 C 
ATOM     46  C   UNL A   1      40.224  25.681  27.789  1.00  0.00     0.029 A 
ATOM     47  C   UNL A   1      41.570  26.050  28.219  1.00  0.00     0.049 A 
ATOM     48  H   UNL A   1      42.164  27.819  29.144  1.00  0.00     0.167 HD
ATOM     49  C   UNL A   1      43.334  31.753  30.709  1.00  0.00     0.037 A 
ATOM     50  C   UNL A   1      42.670  25.285  28.088  1.00  0.00     0.037 A 
ATOM     51  C   UNL A   1      44.544  30.978  30.690  1.00  0.00     0.049 A 
ATOM     52  C   UNL A   1      43.994  25.819  28.560  1.00  0.00     0.074 A 
ATOM     53  C   UNL A   1      45.803  31.333  31.141  1.00  0.00     0.029 A 
ATOM     54  N   UNL A   1      44.641  29.684  30.200  1.00  0.00    -0.354 N 
ATOM     55  N   UNL A   1      44.273  26.985  29.092  1.00  0.00    -0.248 NA
ATOM     56  C   UNL A   1      45.159  24.933  28.412  1.00  0.00     0.031 C 
ATOM     57  C   UNL A   1      46.670  30.263  30.896  1.00  0.00     0.029 A 
ATOM     58  C   UNL A   1      45.943  29.231  30.328  1.00  0.00     0.049 A 
ATOM     59  H   UNL A   1      43.896  29.166  29.818  1.00  0.00     0.167 HD
ATOM     60  C   UNL A   1      45.633  26.961  29.371  1.00  0.00     0.074 A 
ATOM     61  C   UNL A   1      46.124  25.665  28.952  1.00  0.00     0.031 C 
ATOM     62  C   UNL A   1      46.404  27.926  29.927  1.00  0.00     0.037 A 
BRANCH  49  63
ATOM     63  C   UNL A   1      43.394  33.164  31.212  1.00  0.00     0.057 A 
ATOM     64  C   UNL A   1      43.627  34.245  30.352  1.00  0.00     0.134 A 
ATOM     65  C   UNL A   1      43.198  33.448  32.569  1.00  0.00     0.134 A 
ATOM     66  F   UNL A   1      43.839  34.038  29.043  1.00  0.00    -0.206 F 
ATOM     67  C   UNL A   1      43.690  35.555  30.827  1.00  0.00     0.040 A 
ATOM     68  C   UNL A   1      43.232  34.756  33.052  1.00  0.00     0.040 A 
ATOM     69  F   UNL A   1      42.967  32.459  33.446  1.00  0.00    -0.206 F 
ATOM     70  C   UNL A   1      43.486  35.814  32.181  1.00  0.00     0.006 A 
ENDBRANCH  49  63
BRANCH  50  71
ATOM     71  C   UNL A   1      42.567  23.926  27.502  1.00  0.00     0.057 A 
ATOM     72  C   UNL A   1      42.633  23.735  26.116  1.00  0.00     0.134 A 
ATOM     73  C   UNL A   1      42.399  22.790  28.302  1.00  0.00     0.134 A 
ATOM     74  F   UNL A   1      42.776  24.787  25.298  1.00  0.00    -0.206 F 
ATOM     75  C   UNL A   1      42.517  22.467  25.546  1.00  0.00     0.040 A 
ATOM     76  C   UNL A   1      42.302  21.513  27.747  1.00  0.00     0.040 A 
ATOM     77  F   UNL A   1      42.335  22.906  29.637  1.00  0.00    -0.206 F 
ATOM     78  C   UNL A   1      42.356  21.350  26.365  1.00  0.00     0.006 A 
ENDBRANCH  50  71
BRANCH  62  79
ATOM     79  C   UNL A   1      47.848  27.606  30.161  1.00  0.00     0.057 A 
ATOM     80  C   UNL A   1      48.837  27.925  29.223  1.00  0.00     0.134 A 
ATOM     81  C   UNL A   1      48.260  27.037  31.374  1.00  0.00     0.134 A 
ATOM     82  F   UNL A   1      48.503  28.460  28.040  1.00  0.00    -0.206 F 
ATOM     83  C   UNL A   1      50.187  27.683  29.480  1.00  0.00     0.040 A 
ATOM     84  C   UNL A   1      49.607  26.809  31.651  1.00  0.00     0.040 A 
ATOM     85  F   UNL A   1      47.360  26.717  32.315  1.00  0.00    -0.206 F 
ATOM     86  C   UNL A   1      50.575  27.132  30.701  1.00  0.00     0.006 A 
ENDBRANCH  62  79
ENDBRANCH  36  37
ENDBRANCH  28  31
ENDBRANCH  26  27
ENDBRANCH  25  26
ENDBRANCH  24  25
ENDBRANCH   1  24
TORSDOF 16
ENDMDL
MODEL 2
REMARK VINA RESULT:     -10.2      2.753      7.434
REMARK SMILES C[N@@H+](CC(C)(C)C(=O)NCCCCNC(=O)c1ccc(-c2c3nc(c(-c4c(F)cccc4F)c4ccc([nH]4)c(-c4c(F)cccc4F)c4nc(c(-c5c(F)cccc5F)c5ccc2[nH]5)C=C4)C=C3)cc1)[C@@H]1CCCC[C@@H]1C[NH3+]
REMARK SMILES IDX 10 1 9 2 7 3 8 4 4 6 5 7 6 8 3 9 2 10 1 11 71 13 72 14 76 15
REMARK SMILES IDX 73 16 75 17 74 18 77 19 78 20 11 24 12 25 13 26 14 27 15 28
REMARK SMILES IDX 16 30 17 31 18 32 70 33 19 34 69 35 20 36 21 37 22 38 63 39
REMARK SMILES IDX 23 40 68 41 62 42 64 43 24 44 67 45 61 46 60 47 25 49 51 50
REMARK SMILES IDX 34 51 50 52 35 53 38 54 49 55 65 56 36 57 37 58 48 60 66 61
REMARK SMILES IDX 39 62 26 63 27 64 32 65 28 66 29 67 31 68 33 69 30 70 52 71
REMARK SMILES IDX 53 72 58 73 54 74 55 75 57 76 59 77 56 78 40 79 41 80 46 81
REMARK SMILES IDX 42 82 43 83 45 84 47 85 44 86
REMARK H PARENT 9 5 2 12 78 21 78 22 78 23 14 29 64 48 38 59
REMARK Flexibility Score: inf
ROOT
ATOM      1  C   UNL A   1      32.386  27.880  26.741  1.00  0.00     0.116 C 
ENDROOT
BRANCH   1   2
ATOM      2  N   UNL A   1      31.394  26.832  26.860  1.00  0.00    -0.355 N 
ATOM      3  C   UNL A   1      30.623  26.190  25.940  1.00  0.00     0.231 C 
ATOM      4  O   UNL A   1      29.761  25.446  26.420  1.00  0.00    -0.274 OA
ATOM      5  H   UNL A   1      31.249  26.525  27.784  1.00  0.00     0.163 HD
BRANCH   3   6
ATOM      6  C   UNL A   1      30.696  26.482  24.430  1.00  0.00     0.092 C 
ATOM      7  C   UNL A   1      30.600  27.956  24.043  1.00  0.00     0.027 C 
ATOM      8  C   UNL A   1      29.460  25.766  23.826  1.00  0.00     0.027 C 
BRANCH   6   9
ATOM      9  C   UNL A   1      31.976  25.837  23.769  1.00  0.00     0.278 C 
BRANCH   9  10
ATOM     10  N   UNL A   1      32.899  24.865  24.379  1.00  0.00    -0.334 N 
ATOM     11  C   UNL A   1      34.239  25.416  24.602  1.00  0.00     0.333 C 
ATOM     12  H   UNL A   1      32.303  24.770  25.202  1.00  0.00     0.348 HD
BRANCH  10  13
ATOM     13  C   UNL A   1      32.918  23.406  24.155  1.00  0.00     0.192 C 
ATOM     14  C   UNL A   1      31.898  22.854  23.149  1.00  0.00     0.065 C 
ATOM     15  C   UNL A   1      33.175  22.471  25.388  1.00  0.00     0.102 C 
ATOM     16  C   UNL A   1      32.245  21.436  22.709  1.00  0.00     0.006 C 
ATOM     17  C   UNL A   1      33.350  20.997  24.932  1.00  0.00     0.015 C 
ATOM     18  C   UNL A   1      32.319  20.510  23.914  1.00  0.00     0.001 C 
BRANCH  15  19
ATOM     19  C   UNL A   1      32.272  22.555  26.634  1.00  0.00     0.268 C 
BRANCH  19  20
ATOM     20  N   UNL A   1      32.848  22.121  27.897  1.00  0.00    -0.357 N 
ATOM     21  H   UNL A   1      32.099  21.902  28.555  1.00  0.00     0.344 HD
ATOM     22  H   UNL A   1      33.430  22.866  28.280  1.00  0.00     0.344 HD
ATOM     23  H   UNL A   1      33.418  21.289  27.742  1.00  0.00     0.344 HD
ENDBRANCH  19  20
ENDBRANCH  15  19
ENDBRANCH  10  13
ENDBRANCH   9  10
ENDBRANCH   6   9
ENDBRANCH   3   6
ENDBRANCH   1   2
BRANCH   1  24
ATOM     24  C   UNL A   1      32.032  29.112  27.565  1.00  0.00     0.023 C 
BRANCH  24  25
ATOM     25  C   UNL A   1      31.985  30.417  26.781  1.00  0.00     0.023 C 
BRANCH  25  26
ATOM     26  C   UNL A   1      33.071  31.421  27.144  1.00  0.00     0.116 C 
BRANCH  26  27
ATOM     27  N   UNL A   1      32.548  32.754  27.412  1.00  0.00    -0.352 N 
ATOM     28  C   UNL A   1      33.077  33.742  28.211  1.00  0.00     0.251 C 
ATOM     29  H   UNL A   1      31.701  32.979  26.963  1.00  0.00     0.163 HD
ATOM     30  O   UNL A   1      32.465  34.774  28.438  1.00  0.00    -0.269 OA
BRANCH  28  31
ATOM     31  C   UNL A   1      34.401  33.504  28.818  1.00  0.00     0.039 A 
ATOM     32  C   UNL A   1      34.482  32.780  30.008  1.00  0.00     0.014 A 
ATOM     33  C   UNL A   1      35.551  33.907  28.138  1.00  0.00     0.014 A 
ATOM     34  C   UNL A   1      35.733  32.376  30.476  1.00  0.00     0.010 A 
ATOM     35  C   UNL A   1      36.786  33.436  28.562  1.00  0.00     0.010 A 
ATOM     36  C   UNL A   1      36.887  32.660  29.728  1.00  0.00    -0.014 A 
BRANCH  36  37
ATOM     37  C   UNL A   1      38.226  32.169  30.134  1.00  0.00     0.031 A 
ATOM     38  C   UNL A   1      38.729  30.869  29.577  1.00  0.00     0.074 A 
ATOM     39  C   UNL A   1      38.928  32.825  31.077  1.00  0.00     0.049 A 
ATOM     40  N   UNL A   1      39.773  30.165  29.931  1.00  0.00    -0.248 NA
ATOM     41  C   UNL A   1      37.925  30.259  28.505  1.00  0.00     0.031 C 
ATOM     42  C   UNL A   1      38.526  34.076  31.723  1.00  0.00     0.029 A 
ATOM     43  N   UNL A   1      40.123  32.512  31.677  1.00  0.00    -0.354 N 
ATOM     44  C   UNL A   1      39.730  29.017  29.152  1.00  0.00     0.074 A 
ATOM     45  C   UNL A   1      38.536  29.097  28.339  1.00  0.00     0.031 C 
ATOM     46  C   UNL A   1      39.461  34.429  32.619  1.00  0.00     0.029 A 
ATOM     47  C   UNL A   1      40.506  33.410  32.644  1.00  0.00     0.049 A 
ATOM     48  H   UNL A   1      40.655  31.719  31.436  1.00  0.00     0.167 HD
ATOM     49  C   UNL A   1      40.617  27.996  29.106  1.00  0.00     0.037 A 
ATOM     50  C   UNL A   1      41.570  33.400  33.468  1.00  0.00     0.037 A 
ATOM     51  C   UNL A   1      41.825  27.944  29.884  1.00  0.00     0.049 A 
ATOM     52  C   UNL A   1      42.549  32.262  33.389  1.00  0.00     0.074 A 
ATOM     53  C   UNL A   1      42.823  26.987  29.862  1.00  0.00     0.029 A 
ATOM     54  N   UNL A   1      42.200  28.899  30.817  1.00  0.00    -0.354 N 
ATOM     55  N   UNL A   1      42.525  31.204  32.613  1.00  0.00    -0.248 NA
ATOM     56  C   UNL A   1      43.704  32.313  34.297  1.00  0.00     0.031 C 
ATOM     57  C   UNL A   1      43.791  27.348  30.805  1.00  0.00     0.029 A 
ATOM     58  C   UNL A   1      43.412  28.547  31.386  1.00  0.00     0.049 A 
ATOM     59  H   UNL A   1      41.683  29.705  31.041  1.00  0.00     0.167 HD
ATOM     60  C   UNL A   1      43.671  30.483  32.917  1.00  0.00     0.074 A 
ATOM     61  C   UNL A   1      44.372  31.223  33.945  1.00  0.00     0.031 C 
ATOM     62  C   UNL A   1      44.105  29.312  32.390  1.00  0.00     0.037 A 
BRANCH  49  63
ATOM     63  C   UNL A   1      40.310  26.858  28.180  1.00  0.00     0.057 A 
ATOM     64  C   UNL A   1      40.869  26.780  26.898  1.00  0.00     0.134 A 
ATOM     65  C   UNL A   1      39.461  25.820  28.580  1.00  0.00     0.134 A 
ATOM     66  F   UNL A   1      41.677  27.752  26.448  1.00  0.00    -0.206 F 
ATOM     67  C   UNL A   1      40.573  25.723  26.037  1.00  0.00     0.040 A 
ATOM     68  C   UNL A   1      39.179  24.744  27.738  1.00  0.00     0.040 A 
ATOM     69  F   UNL A   1      38.896  25.831  29.797  1.00  0.00    -0.206 F 
ATOM     70  C   UNL A   1      39.730  24.697  26.459  1.00  0.00     0.006 A 
ENDBRANCH  49  63
BRANCH  50  71
ATOM     71  C   UNL A   1      41.778  34.511  34.429  1.00  0.00     0.057 A 
ATOM     72  C   UNL A   1      41.325  34.413  35.750  1.00  0.00     0.134 A 
ATOM     73  C   UNL A   1      42.427  35.695  34.057  1.00  0.00     0.134 A 
ATOM     74  F   UNL A   1      40.681  33.310  36.161  1.00  0.00    -0.206 F 
ATOM     75  C   UNL A   1      41.494  35.456  36.662  1.00  0.00     0.040 A 
ATOM     76  C   UNL A   1      42.621  36.739  34.963  1.00  0.00     0.040 A 
ATOM     77  F   UNL A   1      42.890  35.849  32.807  1.00  0.00    -0.206 F 
ATOM     78  C   UNL A   1      42.148  36.623  36.269  1.00  0.00     0.006 A 
ENDBRANCH  50  71
BRANCH  62  79
ATOM     79  C   UNL A   1      45.419  28.782  32.876  1.00  0.00     0.057 A 
ATOM     80  C   UNL A   1      45.502  27.886  33.947  1.00  0.00     0.134 A 
ATOM     81  C   UNL A   1      46.606  29.116  32.212  1.00  0.00     0.134 A 
ATOM     82  F   UNL A   1      44.401  27.538  34.629  1.00  0.00    -0.206 F 
ATOM     83  C   UNL A   1      46.725  27.346  34.349  1.00  0.00     0.040 A 
ATOM     84  C   UNL A   1      47.831  28.567  32.590  1.00  0.00     0.040 A 
ATOM     85  F   UNL A   1      46.590  29.964  31.172  1.00  0.00    -0.206 F 
ATOM     86  C   UNL A   1      47.892  27.680  33.662  1.00  0.00     0.006 A 
ENDBRANCH  62  79
ENDBRANCH  36  37
ENDBRANCH  28  31
ENDBRANCH  26  27
ENDBRANCH  25  26
ENDBRANCH  24  25
ENDBRANCH   1  24
TORSDOF 16
ENDMDL
MODEL 3
REMARK VINA RESULT:     -10.2      3.094      7.572
REMARK SMILES C[N@@H+](CC(C)(C)C(=O)NCCCCNC(=O)c1ccc(-c2c3nc(c(-c4c(F)cccc4F)c4ccc([nH]4)c(-c4c(F)cccc4F)c4nc(c(-c5c(F)cccc5F)c5ccc2[nH]5)C=C4)C=C3)cc1)[C@@H]1CCCC[C@@H]1C[NH3+]
REMARK SMILES IDX 10 1 9 2 7 3 8 4 4 6 5 7 6 8 3 9 2 10 1 11 71 13 72 14 76 15
REMARK SMILES IDX 73 16 75 17 74 18 77 19 78 20 11 24 12 25 13 26 14 27 15 28
REMARK SMILES IDX 16 30 17 31 18 32 70 33 19 34 69 35 20 36 21 37 22 38 63 39
REMARK SMILES IDX 23 40 68 41 62 42 64 43 24 44 67 45 61 46 60 47 25 49 51 50
REMARK SMILES IDX 34 51 50 52 35 53 38 54 49 55 65 56 36 57 37 58 48 60 66 61
REMARK SMILES IDX 39 62 26 63 27 64 32 65 28 66 29 67 31 68 33 69 30 70 52 71
REMARK SMILES IDX 53 72 58 73 54 74 55 75 57 76 59 77 56 78 40 79 41 80 46 81
REMARK SMILES IDX 42 82 43 83 45 84 47 85 44 86
REMARK H PARENT 9 5 2 12 78 21 78 22 78 23 14 29 64 48 38 59
REMARK Flexibility Score: inf
ROOT
ATOM      1  C   UNL A   1      32.784  29.607  24.941  1.00  0.00     0.116 C 
ENDROOT
BRANCH   1   2
ATOM      2  N   UNL A   1      32.191  28.557  24.139  1.00  0.00    -0.355 N 
ATOM      3  C   UNL A   1      31.958  27.238  24.381  1.00  0.00     0.231 C 
ATOM      4  O   UNL A   1      31.571  26.595  23.399  1.00  0.00    -0.274 OA
ATOM      5  H   UNL A   1      31.900  28.855  23.247  1.00  0.00     0.163 HD
BRANCH   3   6
ATOM      6  C   UNL A   1      32.302  26.554  25.716  1.00  0.00     0.092 C 
ATOM      7  C   UNL A   1      31.426  26.954  26.901  1.00  0.00     0.027 C 
ATOM      8  C   UNL A   1      33.748  27.013  26.039  1.00  0.00     0.027 C 
BRANCH   6   9
ATOM      9  C   UNL A   1      32.333  24.982  25.579  1.00  0.00     0.278 C 
BRANCH   9  10
ATOM     10  N   UNL A   1      33.027  24.191  24.549  1.00  0.00    -0.334 N 
ATOM     11  C   UNL A   1      32.191  23.126  23.989  1.00  0.00     0.333 C 
ATOM     12  H   UNL A   1      33.164  25.017  23.965  1.00  0.00     0.348 HD
BRANCH  10  13
ATOM     13  C   UNL A   1      34.465  23.859  24.513  1.00  0.00     0.192 C 
ATOM     14  C   UNL A   1      34.933  22.969  23.352  1.00  0.00     0.065 C 
ATOM     15  C   UNL A   1      35.197  23.580  25.872  1.00  0.00     0.102 C 
ATOM     16  C   UNL A   1      36.449  23.003  23.187  1.00  0.00     0.006 C 
ATOM     17  C   UNL A   1      36.727  23.441  25.653  1.00  0.00     0.015 C 
ATOM     18  C   UNL A   1      37.133  22.560  24.471  1.00  0.00     0.001 C 
BRANCH  15  19
ATOM     19  C   UNL A   1      34.678  22.488  26.827  1.00  0.00     0.268 C 
BRANCH  19  20
ATOM     20  N   UNL A   1      34.750  21.113  26.359  1.00  0.00    -0.357 N 
ATOM     21  H   UNL A   1      34.731  21.099  25.339  1.00  0.00     0.344 HD
ATOM     22  H   UNL A   1      33.954  20.588  26.721  1.00  0.00     0.344 HD
ATOM     23  H   UNL A   1      35.617  20.686  26.688  1.00  0.00     0.344 HD
ENDBRANCH  19  20
ENDBRANCH  15  19
ENDBRANCH  10  13
ENDBRANCH   9  10
ENDBRANCH   6   9
ENDBRANCH   3   6
ENDBRANCH   1   2
BRANCH   1  24
ATOM     24  C   UNL A   1      31.743  30.401  25.720  1.00  0.00     0.023 C 
BRANCH  24  25
ATOM     25  C   UNL A   1      32.152  30.780  27.138  1.00  0.00     0.023 C 
BRANCH  25  26
ATOM     26  C   UNL A   1      33.228  31.854  27.227  1.00  0.00     0.116 C 
BRANCH  26  27
ATOM     27  N   UNL A   1      32.691  33.173  27.539  1.00  0.00    -0.352 N 
ATOM     28  C   UNL A   1      33.175  34.112  28.422  1.00  0.00     0.251 C 
ATOM     29  H   UNL A   1      31.873  33.426  27.054  1.00  0.00     0.163 HD
ATOM     30  O   UNL A   1      32.551  35.132  28.670  1.00  0.00    -0.269 OA
BRANCH  28  31
ATOM     31  C   UNL A   1      34.460  33.834  29.091  1.00  0.00     0.039 A 
ATOM     32  C   UNL A   1      34.468  33.058  30.251  1.00  0.00     0.014 A 
ATOM     33  C   UNL A   1      35.650  34.254  28.494  1.00  0.00     0.014 A 
ATOM     34  C   UNL A   1      35.687  32.621  30.769  1.00  0.00     0.010 A 
ATOM     35  C   UNL A   1      36.855  33.753  28.966  1.00  0.00     0.010 A 
ATOM     36  C   UNL A   1      36.884  32.926  30.101  1.00  0.00    -0.014 A 
BRANCH  36  37
ATOM     37  C   UNL A   1      38.194  32.403  30.559  1.00  0.00     0.031 A 
ATOM     38  C   UNL A   1      38.731  31.139  29.953  1.00  0.00     0.074 A 
ATOM     39  C   UNL A   1      38.835  32.995  31.585  1.00  0.00     0.049 A 
ATOM     40  N   UNL A   1      39.750  30.410  30.327  1.00  0.00    -0.248 NA
ATOM     41  C   UNL A   1      37.997  30.603  28.796  1.00  0.00     0.031 C 
ATOM     42  C   UNL A   1      38.392  34.204  32.282  1.00  0.00     0.029 A 
ATOM     43  N   UNL A   1      39.988  32.639  32.238  1.00  0.00    -0.354 N 
ATOM     44  C   UNL A   1      39.756  29.314  29.475  1.00  0.00     0.074 A 
ATOM     45  C   UNL A   1      38.617  29.451  28.595  1.00  0.00     0.031 C 
ATOM     46  C   UNL A   1      39.269  34.495  33.257  1.00  0.00     0.029 A 
ATOM     47  C   UNL A   1      40.309  33.471  33.283  1.00  0.00     0.049 A 
ATOM     48  H   UNL A   1      40.534  31.861  31.982  1.00  0.00     0.167 HD
ATOM     49  C   UNL A   1      40.644  28.294  29.421  1.00  0.00     0.037 A 
ATOM     50  C   UNL A   1      41.319  33.404  34.172  1.00  0.00     0.037 A 
ATOM     51  C   UNL A   1      41.799  28.187  30.269  1.00  0.00     0.049 A 
ATOM     52  C   UNL A   1      42.300  32.269  34.082  1.00  0.00     0.074 A 
ATOM     53  C   UNL A   1      42.797  27.229  30.250  1.00  0.00     0.029 A 
ATOM     54  N   UNL A   1      42.115  29.078  31.284  1.00  0.00    -0.354 N 
ATOM     55  N   UNL A   1      42.325  31.263  33.241  1.00  0.00    -0.248 NA
ATOM     56  C   UNL A   1      43.395  32.257  35.065  1.00  0.00     0.031 C 
ATOM     57  C   UNL A   1      43.703  27.524  31.274  1.00  0.00     0.029 A 
ATOM     58  C   UNL A   1      43.288  28.685  31.905  1.00  0.00     0.049 A 
ATOM     59  H   UNL A   1      41.585  29.871  31.526  1.00  0.00     0.167 HD
ATOM     60  C   UNL A   1      43.449  30.518  33.571  1.00  0.00     0.074 A 
ATOM     61  C   UNL A   1      44.083  31.188  34.687  1.00  0.00     0.031 C 
ATOM     62  C   UNL A   1      43.915  29.382  32.999  1.00  0.00     0.037 A 
BRANCH  49  63
ATOM     63  C   UNL A   1      40.397  27.219  28.406  1.00  0.00     0.057 A 
ATOM     64  C   UNL A   1      39.549  26.136  28.670  1.00  0.00     0.134 A 
ATOM     65  C   UNL A   1      40.999  27.277  27.143  1.00  0.00     0.134 A 
ATOM     66  F   UNL A   1      38.955  26.013  29.867  1.00  0.00    -0.206 F 
ATOM     67  C   UNL A   1      39.330  25.134  27.724  1.00  0.00     0.040 A 
ATOM     68  C   UNL A   1      40.767  26.295  26.179  1.00  0.00     0.040 A 
ATOM     69  F   UNL A   1      41.819  28.290  26.825  1.00  0.00    -0.206 F 
ATOM     70  C   UNL A   1      39.935  25.216  26.471  1.00  0.00     0.006 A 
ENDBRANCH  49  63
BRANCH  50  71
ATOM     71  C   UNL A   1      41.465  34.451  35.213  1.00  0.00     0.057 A 
ATOM     72  C   UNL A   1      40.823  34.327  36.452  1.00  0.00     0.134 A 
ATOM     73  C   UNL A   1      42.241  35.596  35.001  1.00  0.00     0.134 A 
ATOM     74  F   UNL A   1      40.053  33.260  36.707  1.00  0.00    -0.206 F 
ATOM     75  C   UNL A   1      40.933  35.311  37.435  1.00  0.00     0.040 A 
ATOM     76  C   UNL A   1      42.377  36.580  35.983  1.00  0.00     0.040 A 
ATOM     77  F   UNL A   1      42.886  35.772  33.838  1.00  0.00    -0.206 F 
ATOM     78  C   UNL A   1      41.717  36.440  37.202  1.00  0.00     0.006 A 
ENDBRANCH  50  71
BRANCH  62  79
ATOM     79  C   UNL A   1      45.195  28.815  33.532  1.00  0.00     0.057 A 
ATOM     80  C   UNL A   1      46.442  29.228  33.051  1.00  0.00     0.134 A 
ATOM     81  C   UNL A   1      45.176  27.899  34.592  1.00  0.00     0.134 A 
ATOM     82  F   UNL A   1      46.524  30.094  32.030  1.00  0.00    -0.206 F 
ATOM     83  C   UNL A   1      47.630  28.743  33.601  1.00  0.00     0.040 A 
ATOM     84  C   UNL A   1      46.355  27.423  35.163  1.00  0.00     0.040 A 
ATOM     85  F   UNL A   1      44.011  27.471  35.101  1.00  0.00    -0.206 F 
ATOM     86  C   UNL A   1      47.587  27.845  34.666  1.00  0.00     0.006 A 
ENDBRANCH  62  79
ENDBRANCH  36  37
ENDBRANCH  28  31
ENDBRANCH  26  27
ENDBRANCH  25  26
ENDBRANCH  24  25
ENDBRANCH   1  24
TORSDOF 16
ENDMDL
