MODEL 1
REMARK VINA RESULT:     -12.5      0.000      0.000
REMARK SMILES Cc1ccc([C@@H](CC(=O)NCCCCNC(=O)c2ccc(-c3c4nc(c(-c5c(F)cccc5F)c5ccc([nH]5)c(-c5c(F)cccc5F)c5nc(c(-c6c(F)cccc6F)c6ccc3[nH]6)C=C5)C=C4)cc2)NC(=O)c2ccc(OC(F)F)cc2)cc1
REMARK SMILES IDX 11 1 10 2 8 3 9 4 7 6 6 7 5 8 1 9 2 10 3 11 86 12 4 13 85 14
REMARK SMILES IDX 72 15 73 16 74 18 75 19 76 20 84 21 77 22 83 23 78 24 79 25
REMARK SMILES IDX 80 26 81 27 82 28 12 29 13 30 14 31 15 32 16 33 17 35 18 36
REMARK SMILES IDX 19 37 71 38 20 39 70 40 21 41 22 42 23 43 64 44 24 45 69 46
REMARK SMILES IDX 63 47 65 48 25 49 68 50 62 51 61 52 26 54 52 55 35 56 51 57
REMARK SMILES IDX 36 58 39 59 50 60 66 61 37 62 38 63 49 65 67 66 40 67 27 68
REMARK SMILES IDX 28 69 33 70 29 71 30 72 32 73 34 74 31 75 53 76 54 77 59 78
REMARK SMILES IDX 55 79 56 80 58 81 60 82 57 83 41 84 42 85 47 86 43 87 44 88
REMARK SMILES IDX 46 89 48 90 45 91
REMARK H PARENT 10 5 72 17 15 34 65 53 39 64
REMARK Flexibility Score: inf
ROOT
ATOM      1  C   UNL A   1      31.784  27.366  26.173  1.00  0.00     0.116 C 
ENDROOT
BRANCH   1   2
ATOM      2  N   UNL A   1      30.660  27.207  25.258  1.00  0.00    -0.356 N 
ATOM      3  C   UNL A   1      30.272  26.186  24.447  1.00  0.00     0.222 C 
ATOM      4  O   UNL A   1      29.369  26.417  23.637  1.00  0.00    -0.275 OA
ATOM      5  H   UNL A   1      30.066  27.992  25.220  1.00  0.00     0.163 HD
BRANCH   3   6
ATOM      6  C   UNL A   1      30.840  24.788  24.567  1.00  0.00     0.129 C 
BRANCH   6   7
ATOM      7  C   UNL A   1      30.982  23.951  23.274  1.00  0.00     0.122 C 
BRANCH   7   8
ATOM      8  C   UNL A   1      31.489  22.554  23.633  1.00  0.00    -0.025 A 
ATOM      9  C   UNL A   1      33.908  19.118  24.606  1.00  0.00     0.044 C 
ATOM     10  C   UNL A   1      32.951  20.230  24.302  1.00  0.00    -0.051 A 
ATOM     11  C   UNL A   1      32.496  20.435  22.999  1.00  0.00     0.004 A 
ATOM     12  C   UNL A   1      32.568  21.132  25.298  1.00  0.00     0.004 A 
ATOM     13  C   UNL A   1      31.748  21.571  22.675  1.00  0.00     0.006 A 
ATOM     14  C   UNL A   1      31.841  22.279  24.967  1.00  0.00     0.006 A 
ENDBRANCH   7   8
BRANCH   7  15
ATOM     15  N   UNL A   1      31.769  24.586  22.220  1.00  0.00    -0.345 N 
ATOM     16  C   UNL A   1      33.065  25.035  22.240  1.00  0.00     0.251 C 
ATOM     17  H   UNL A   1      31.298  24.710  21.364  1.00  0.00     0.164 HD
ATOM     18  O   UNL A   1      33.422  25.883  21.424  1.00  0.00    -0.269 OA
BRANCH  16  19
ATOM     19  C   UNL A   1      34.049  24.494  23.204  1.00  0.00     0.040 A 
ATOM     20  C   UNL A   1      34.786  23.355  22.867  1.00  0.00     0.017 A 
ATOM     21  C   UNL A   1      34.155  25.025  24.491  1.00  0.00     0.017 A 
ATOM     22  C   UNL A   1      35.662  22.790  23.801  1.00  0.00     0.047 A 
ATOM     23  C   UNL A   1      35.043  24.468  25.416  1.00  0.00     0.047 A 
ATOM     24  C   UNL A   1      35.806  23.349  25.075  1.00  0.00     0.126 A 
BRANCH  24  25
ATOM     25  O   UNL A   1      36.691  22.702  25.889  1.00  0.00    -0.435 OA
BRANCH  25  26
ATOM     26  C   UNL A   1      37.699  21.903  25.283  1.00  0.00     0.542 C 
ATOM     27  F   UNL A   1      38.901  22.159  25.856  1.00  0.00    -0.167 F 
ATOM     28  F   UNL A   1      37.418  20.589  25.453  1.00  0.00    -0.167 F 
ENDBRANCH  25  26
ENDBRANCH  24  25
ENDBRANCH  16  19
ENDBRANCH   7  15
ENDBRANCH   6   7
ENDBRANCH   3   6
ENDBRANCH   1   2
BRANCH   1  29
ATOM     29  C   UNL A   1      32.846  28.298  25.568  1.00  0.00     0.023 C 
BRANCH  29  30
ATOM     30  C   UNL A   1      34.215  28.445  26.244  1.00  0.00     0.023 C 
BRANCH  30  31
ATOM     31  C   UNL A   1      34.317  29.271  27.523  1.00  0.00     0.116 C 
BRANCH  31  32
ATOM     32  N   UNL A   1      34.979  30.577  27.385  1.00  0.00    -0.352 N 
ATOM     33  C   UNL A   1      36.139  31.021  28.007  1.00  0.00     0.251 C 
ATOM     34  H   UNL A   1      34.545  31.218  26.776  1.00  0.00     0.163 HD
ATOM     35  O   UNL A   1      36.387  32.221  28.128  1.00  0.00    -0.269 OA
BRANCH  33  36
ATOM     36  C   UNL A   1      37.122  30.024  28.469  1.00  0.00     0.039 A 
ATOM     37  C   UNL A   1      36.997  29.244  29.628  1.00  0.00     0.014 A 
ATOM     38  C   UNL A   1      38.259  29.927  27.687  1.00  0.00     0.014 A 
ATOM     39  C   UNL A   1      38.031  28.361  29.971  1.00  0.00     0.010 A 
ATOM     40  C   UNL A   1      39.106  28.879  27.853  1.00  0.00     0.010 A 
ATOM     41  C   UNL A   1      39.090  28.206  29.075  1.00  0.00    -0.014 A 
BRANCH  41  42
ATOM     42  C   UNL A   1      40.392  27.600  29.324  1.00  0.00     0.031 A 
ATOM     43  C   UNL A   1      40.815  26.350  28.694  1.00  0.00     0.074 A 
ATOM     44  C   UNL A   1      41.302  28.505  29.755  1.00  0.00     0.049 A 
ATOM     45  N   UNL A   1      41.953  25.791  28.913  1.00  0.00    -0.248 NA
ATOM     46  C   UNL A   1      39.994  25.640  27.728  1.00  0.00     0.031 C 
ATOM     47  C   UNL A   1      42.741  28.558  29.558  1.00  0.00     0.029 A 
ATOM     48  N   UNL A   1      41.030  29.660  30.497  1.00  0.00    -0.354 N 
ATOM     49  C   UNL A   1      42.151  24.848  27.932  1.00  0.00     0.074 A 
ATOM     50  C   UNL A   1      40.867  24.733  27.275  1.00  0.00     0.031 C 
ATOM     51  C   UNL A   1      43.250  29.494  30.384  1.00  0.00     0.029 A 
ATOM     52  C   UNL A   1      42.173  29.930  31.262  1.00  0.00     0.049 A 
ATOM     53  H   UNL A   1      40.195  30.182  30.485  1.00  0.00     0.167 HD
ATOM     54  C   UNL A   1      43.420  24.380  27.721  1.00  0.00     0.037 A 
ATOM     55  C   UNL A   1      42.071  29.675  32.604  1.00  0.00     0.037 A 
ATOM     56  C   UNL A   1      44.363  25.001  28.665  1.00  0.00     0.049 A 
ATOM     57  C   UNL A   1      42.848  28.442  33.024  1.00  0.00     0.074 A 
ATOM     58  C   UNL A   1      45.252  26.063  28.594  1.00  0.00     0.029 A 
ATOM     59  N   UNL A   1      44.221  24.725  30.012  1.00  0.00    -0.354 N 
ATOM     60  N   UNL A   1      43.565  27.708  32.215  1.00  0.00    -0.248 NA
ATOM     61  C   UNL A   1      42.818  27.897  34.380  1.00  0.00     0.031 C 
ATOM     62  C   UNL A   1      45.556  26.475  29.932  1.00  0.00     0.029 A 
ATOM     63  C   UNL A   1      44.876  25.646  30.809  1.00  0.00     0.049 A 
ATOM     64  H   UNL A   1      43.713  23.959  30.365  1.00  0.00     0.167 HD
ATOM     65  C   UNL A   1      44.003  26.595  32.867  1.00  0.00     0.074 A 
ATOM     66  C   UNL A   1      43.533  26.768  34.232  1.00  0.00     0.031 C 
ATOM     67  C   UNL A   1      44.678  25.582  32.252  1.00  0.00     0.037 A 
BRANCH  54  68
ATOM     68  C   UNL A   1      43.863  23.521  26.554  1.00  0.00     0.057 A 
ATOM     69  C   UNL A   1      43.535  22.150  26.507  1.00  0.00     0.134 A 
ATOM     70  C   UNL A   1      44.608  23.966  25.447  1.00  0.00     0.134 A 
ATOM     71  F   UNL A   1      42.755  21.580  27.435  1.00  0.00    -0.206 F 
ATOM     72  C   UNL A   1      43.982  21.286  25.494  1.00  0.00     0.040 A 
ATOM     73  C   UNL A   1      45.106  23.106  24.454  1.00  0.00     0.040 A 
ATOM     74  F   UNL A   1      44.836  25.262  25.219  1.00  0.00    -0.206 F 
ATOM     75  C   UNL A   1      44.796  21.757  24.477  1.00  0.00     0.006 A 
ENDBRANCH  54  68
BRANCH  55  76
ATOM     76  C   UNL A   1      40.708  30.067  33.109  1.00  0.00     0.057 A 
ATOM     77  C   UNL A   1      40.396  31.444  33.149  1.00  0.00     0.134 A 
ATOM     78  C   UNL A   1      39.625  29.180  33.047  1.00  0.00     0.134 A 
ATOM     79  F   UNL A   1      41.381  32.356  33.196  1.00  0.00    -0.206 F 
ATOM     80  C   UNL A   1      39.091  31.914  32.970  1.00  0.00     0.040 A 
ATOM     81  C   UNL A   1      38.311  29.643  32.888  1.00  0.00     0.040 A 
ATOM     82  F   UNL A   1      39.827  27.856  32.997  1.00  0.00    -0.206 F 
ATOM     83  C   UNL A   1      38.049  31.009  32.798  1.00  0.00     0.006 A 
ENDBRANCH  55  76
BRANCH  67  84
ATOM     84  C   UNL A   1      45.197  24.416  33.032  1.00  0.00     0.057 A 
ATOM     85  C   UNL A   1      44.417  23.270  33.228  1.00  0.00     0.134 A 
ATOM     86  C   UNL A   1      46.434  24.447  33.697  1.00  0.00     0.134 A 
ATOM     87  F   UNL A   1      43.200  23.161  32.673  1.00  0.00    -0.206 F 
ATOM     88  C   UNL A   1      44.858  22.199  34.008  1.00  0.00     0.040 A 
ATOM     89  C   UNL A   1      46.861  23.409  34.526  1.00  0.00     0.040 A 
ATOM     90  F   UNL A   1      47.287  25.471  33.552  1.00  0.00    -0.206 F 
ATOM     91  C   UNL A   1      46.077  22.273  34.673  1.00  0.00     0.006 A 
ENDBRANCH  67  84
ENDBRANCH  41  42
ENDBRANCH  33  36
ENDBRANCH  31  32
ENDBRANCH  30  31
ENDBRANCH  29  30
ENDBRANCH   1  29
TORSDOF 17
ENDMDL
MODEL 2
REMARK VINA RESULT:     -12.4      1.838      3.037
REMARK SMILES Cc1ccc([C@@H](CC(=O)NCCCCNC(=O)c2ccc(-c3c4nc(c(-c5c(F)cccc5F)c5ccc([nH]5)c(-c5c(F)cccc5F)c5nc(c(-c6c(F)cccc6F)c6ccc3[nH]6)C=C5)C=C4)cc2)NC(=O)c2ccc(OC(F)F)cc2)cc1
REMARK SMILES IDX 11 1 10 2 8 3 9 4 7 6 6 7 5 8 1 9 2 10 3 11 86 12 4 13 85 14
REMARK SMILES IDX 72 15 73 16 74 18 75 19 76 20 84 21 77 22 83 23 78 24 79 25
REMARK SMILES IDX 80 26 81 27 82 28 12 29 13 30 14 31 15 32 16 33 17 35 18 36
REMARK SMILES IDX 19 37 71 38 20 39 70 40 21 41 22 42 23 43 64 44 24 45 69 46
REMARK SMILES IDX 63 47 65 48 25 49 68 50 62 51 61 52 26 54 52 55 35 56 51 57
REMARK SMILES IDX 36 58 39 59 50 60 66 61 37 62 38 63 49 65 67 66 40 67 27 68
REMARK SMILES IDX 28 69 33 70 29 71 30 72 32 73 34 74 31 75 53 76 54 77 59 78
REMARK SMILES IDX 55 79 56 80 58 81 60 82 57 83 41 84 42 85 47 86 43 87 44 88
REMARK SMILES IDX 46 89 48 90 45 91
REMARK H PARENT 10 5 72 17 15 34 65 53 39 64
REMARK Flexibility Score: inf
ROOT
ATOM      1  C   UNL A   1      32.434  28.258  24.082  1.00  0.00     0.116 C 
ENDROOT
BRANCH   1   2
ATOM      2  N   UNL A   1      32.797  27.623  22.820  1.00  0.00    -0.356 N 
ATOM      3  C   UNL A   1      33.214  26.365  22.512  1.00  0.00     0.222 C 
ATOM      4  O   UNL A   1      33.633  26.173  21.366  1.00  0.00    -0.275 OA
ATOM      5  H   UNL A   1      32.729  28.222  22.041  1.00  0.00     0.163 HD
BRANCH   3   6
ATOM      6  C   UNL A   1      33.098  25.206  23.478  1.00  0.00     0.129 C 
BRANCH   6   7
ATOM      7  C   UNL A   1      33.860  25.303  24.820  1.00  0.00     0.122 C 
BRANCH   7   8
ATOM      8  C   UNL A   1      35.103  24.415  24.757  1.00  0.00    -0.025 A 
ATOM      9  C   UNL A   1      37.897  21.133  24.936  1.00  0.00     0.044 C 
ATOM     10  C   UNL A   1      37.032  22.350  24.805  1.00  0.00    -0.051 A 
ATOM     11  C   UNL A   1      36.955  23.277  25.845  1.00  0.00     0.004 A 
ATOM     12  C   UNL A   1      36.221  22.529  23.682  1.00  0.00     0.004 A 
ATOM     13  C   UNL A   1      36.020  24.316  25.806  1.00  0.00     0.006 A 
ATOM     14  C   UNL A   1      35.270  23.554  23.657  1.00  0.00     0.006 A 
ENDBRANCH   7   8
BRANCH   7  15
ATOM     15  N   UNL A   1      33.044  25.051  26.005  1.00  0.00    -0.345 N 
ATOM     16  C   UNL A   1      32.365  23.920  26.381  1.00  0.00     0.251 C 
ATOM     17  H   UNL A   1      32.970  25.810  26.629  1.00  0.00     0.164 HD
ATOM     18  O   UNL A   1      31.430  24.014  27.173  1.00  0.00    -0.269 OA
BRANCH  16  19
ATOM     19  C   UNL A   1      32.759  22.586  25.876  1.00  0.00     0.040 A 
ATOM     20  C   UNL A   1      32.162  22.087  24.714  1.00  0.00     0.017 A 
ATOM     21  C   UNL A   1      33.617  21.768  26.613  1.00  0.00     0.017 A 
ATOM     22  C   UNL A   1      32.469  20.796  24.272  1.00  0.00     0.047 A 
ATOM     23  C   UNL A   1      33.935  20.484  26.160  1.00  0.00     0.047 A 
ATOM     24  C   UNL A   1      33.367  19.992  24.983  1.00  0.00     0.126 A 
BRANCH  24  25
ATOM     25  O   UNL A   1      33.579  18.754  24.445  1.00  0.00    -0.435 OA
BRANCH  25  26
ATOM     26  C   UNL A   1      32.460  17.892  24.286  1.00  0.00     0.542 C 
ATOM     27  F   UNL A   1      32.713  16.979  23.316  1.00  0.00    -0.167 F 
ATOM     28  F   UNL A   1      32.214  17.228  25.441  1.00  0.00    -0.167 F 
ENDBRANCH  25  26
ENDBRANCH  24  25
ENDBRANCH  16  19
ENDBRANCH   7  15
ENDBRANCH   6   7
ENDBRANCH   3   6
ENDBRANCH   1   2
BRANCH   1  29
ATOM     29  C   UNL A   1      33.654  28.945  24.713  1.00  0.00     0.023 C 
BRANCH  29  30
ATOM     30  C   UNL A   1      34.066  28.611  26.152  1.00  0.00     0.023 C 
BRANCH  30  31
ATOM     31  C   UNL A   1      33.500  29.452  27.292  1.00  0.00     0.116 C 
BRANCH  31  32
ATOM     32  N   UNL A   1      33.945  30.853  27.332  1.00  0.00    -0.352 N 
ATOM     33  C   UNL A   1      34.978  31.404  28.080  1.00  0.00     0.251 C 
ATOM     34  H   UNL A   1      33.449  31.480  26.756  1.00  0.00     0.163 HD
ATOM     35  O   UNL A   1      35.018  32.608  28.334  1.00  0.00    -0.269 OA
BRANCH  33  36
ATOM     36  C   UNL A   1      36.082  30.531  28.517  1.00  0.00     0.039 A 
ATOM     37  C   UNL A   1      36.122  29.828  29.731  1.00  0.00     0.014 A 
ATOM     38  C   UNL A   1      37.155  30.474  27.647  1.00  0.00     0.014 A 
ATOM     39  C   UNL A   1      37.257  29.064  30.039  1.00  0.00     0.010 A 
ATOM     40  C   UNL A   1      38.104  29.517  27.806  1.00  0.00     0.010 A 
ATOM     41  C   UNL A   1      38.249  28.935  29.066  1.00  0.00    -0.014 A 
BRANCH  41  42
ATOM     42  C   UNL A   1      39.617  28.461  29.238  1.00  0.00     0.031 A 
ATOM     43  C   UNL A   1      40.049  27.127  28.821  1.00  0.00     0.074 A 
ATOM     44  C   UNL A   1      40.501  29.481  29.337  1.00  0.00     0.049 A 
ATOM     45  N   UNL A   1      41.247  26.686  28.979  1.00  0.00    -0.248 NA
ATOM     46  C   UNL A   1      39.165  26.189  28.151  1.00  0.00     0.031 C 
ATOM     47  C   UNL A   1      41.892  29.562  28.922  1.00  0.00     0.029 A 
ATOM     48  N   UNL A   1      40.240  30.752  29.859  1.00  0.00    -0.354 N 
ATOM     49  C   UNL A   1      41.387  25.566  28.193  1.00  0.00     0.074 A 
ATOM     50  C   UNL A   1      40.039  25.250  27.769  1.00  0.00     0.031 C 
ATOM     51  C   UNL A   1      42.431  30.676  29.456  1.00  0.00     0.029 A 
ATOM     52  C   UNL A   1      41.450  31.235  30.376  1.00  0.00     0.049 A 
ATOM     53  H   UNL A   1      39.373  31.218  29.863  1.00  0.00     0.167 HD
ATOM     54  C   UNL A   1      42.649  25.127  27.897  1.00  0.00     0.037 A 
ATOM     55  C   UNL A   1      41.549  31.268  31.741  1.00  0.00     0.037 A 
ATOM     56  C   UNL A   1      43.658  25.981  28.544  1.00  0.00     0.049 A 
ATOM     57  C   UNL A   1      42.471  30.192  32.285  1.00  0.00     0.074 A 
ATOM     58  C   UNL A   1      44.441  27.046  28.129  1.00  0.00     0.029 A 
ATOM     59  N   UNL A   1      43.719  25.991  29.926  1.00  0.00    -0.354 N 
ATOM     60  N   UNL A   1      43.129  29.339  31.546  1.00  0.00    -0.248 NA
ATOM     61  C   UNL A   1      42.666  29.948  33.713  1.00  0.00     0.031 C 
ATOM     62  C   UNL A   1      44.888  27.748  29.294  1.00  0.00     0.029 A 
ATOM     63  C   UNL A   1      44.399  27.093  30.412  1.00  0.00     0.049 A 
ATOM     64  H   UNL A   1      43.326  25.294  30.498  1.00  0.00     0.167 HD
ATOM     65  C   UNL A   1      43.737  28.413  32.339  1.00  0.00     0.074 A 
ATOM     66  C   UNL A   1      43.441  28.850  33.694  1.00  0.00     0.031 C 
ATOM     67  C   UNL A   1      44.402  27.328  31.852  1.00  0.00     0.037 A 
BRANCH  54  68
ATOM     68  C   UNL A   1      42.999  24.062  26.877  1.00  0.00     0.057 A 
ATOM     69  C   UNL A   1      43.290  22.744  27.287  1.00  0.00     0.134 A 
ATOM     70  C   UNL A   1      43.068  24.253  25.485  1.00  0.00     0.134 A 
ATOM     71  F   UNL A   1      43.185  22.366  28.567  1.00  0.00    -0.206 F 
ATOM     72  C   UNL A   1      43.696  21.735  26.400  1.00  0.00     0.040 A 
ATOM     73  C   UNL A   1      43.522  23.269  24.592  1.00  0.00     0.040 A 
ATOM     74  F   UNL A   1      42.633  25.372  24.899  1.00  0.00    -0.206 F 
ATOM     75  C   UNL A   1      43.843  22.003  25.049  1.00  0.00     0.006 A 
ENDBRANCH  54  68
BRANCH  55  76
ATOM     76  C   UNL A   1      40.239  31.691  32.352  1.00  0.00     0.057 A 
ATOM     77  C   UNL A   1      39.826  33.026  32.153  1.00  0.00     0.134 A 
ATOM     78  C   UNL A   1      39.232  30.758  32.634  1.00  0.00     0.134 A 
ATOM     79  F   UNL A   1      40.732  33.975  31.866  1.00  0.00    -0.206 F 
ATOM     80  C   UNL A   1      38.475  33.381  32.077  1.00  0.00     0.040 A 
ATOM     81  C   UNL A   1      37.876  31.109  32.579  1.00  0.00     0.040 A 
ATOM     82  F   UNL A   1      39.531  29.465  32.828  1.00  0.00    -0.206 F 
ATOM     83  C   UNL A   1      37.495  32.409  32.250  1.00  0.00     0.006 A 
ENDBRANCH  55  76
BRANCH  67  84
ATOM     84  C   UNL A   1      45.112  26.382  32.767  1.00  0.00     0.057 A 
ATOM     85  C   UNL A   1      46.504  26.237  32.722  1.00  0.00     0.134 A 
ATOM     86  C   UNL A   1      44.425  25.515  33.633  1.00  0.00     0.134 A 
ATOM     87  F   UNL A   1      47.249  26.986  31.893  1.00  0.00    -0.206 F 
ATOM     88  C   UNL A   1      47.178  25.311  33.521  1.00  0.00     0.040 A 
ATOM     89  C   UNL A   1      45.081  24.547  34.394  1.00  0.00     0.040 A 
ATOM     90  F   UNL A   1      43.095  25.588  33.795  1.00  0.00    -0.206 F 
ATOM     91  C   UNL A   1      46.465  24.452  34.349  1.00  0.00     0.006 A 
ENDBRANCH  67  84
ENDBRANCH  41  42
ENDBRANCH  33  36
ENDBRANCH  31  32
ENDBRANCH  30  31
ENDBRANCH  29  30
ENDBRANCH   1  29
TORSDOF 17
ENDMDL
MODEL 3
REMARK VINA RESULT:     -12.3      0.999      1.685
REMARK SMILES Cc1ccc([C@@H](CC(=O)NCCCCNC(=O)c2ccc(-c3c4nc(c(-c5c(F)cccc5F)c5ccc([nH]5)c(-c5c(F)cccc5F)c5nc(c(-c6c(F)cccc6F)c6ccc3[nH]6)C=C5)C=C4)cc2)NC(=O)c2ccc(OC(F)F)cc2)cc1
REMARK SMILES IDX 11 1 10 2 8 3 9 4 7 6 6 7 5 8 1 9 2 10 3 11 86 12 4 13 85 14
REMARK SMILES IDX 72 15 73 16 74 18 75 19 76 20 84 21 77 22 83 23 78 24 79 25
REMARK SMILES IDX 80 26 81 27 82 28 12 29 13 30 14 31 15 32 16 33 17 35 18 36
REMARK SMILES IDX 19 37 71 38 20 39 70 40 21 41 22 42 23 43 64 44 24 45 69 46
REMARK SMILES IDX 63 47 65 48 25 49 68 50 62 51 61 52 26 54 52 55 35 56 51 57
REMARK SMILES IDX 36 58 39 59 50 60 66 61 37 62 38 63 49 65 67 66 40 67 27 68
REMARK SMILES IDX 28 69 33 70 29 71 30 72 32 73 34 74 31 75 53 76 54 77 59 78
REMARK SMILES IDX 55 79 56 80 58 81 60 82 57 83 41 84 42 85 47 86 43 87 44 88
REMARK SMILES IDX 46 89 48 90 45 91
REMARK H PARENT 10 5 72 17 15 34 65 53 39 64
REMARK Flexibility Score: inf
ROOT
ATOM      1  C   UNL A   1      31.604  27.053  26.763  1.00  0.00     0.116 C 
ENDROOT
BRANCH   1   2
ATOM      2  N   UNL A   1      30.791  27.176  25.558  1.00  0.00    -0.356 N 
ATOM      3  C   UNL A   1      30.519  26.313  24.542  1.00  0.00     0.222 C 
ATOM      4  O   UNL A   1      29.941  26.770  23.551  1.00  0.00    -0.275 OA
ATOM      5  H   UNL A   1      30.357  28.054  25.462  1.00  0.00     0.163 HD
BRANCH   3   6
ATOM      6  C   UNL A   1      30.816  24.831  24.627  1.00  0.00     0.129 C 
BRANCH   6   7
ATOM      7  C   UNL A   1      30.971  24.047  23.303  1.00  0.00     0.122 C 
BRANCH   7   8
ATOM      8  C   UNL A   1      31.424  22.620  23.614  1.00  0.00    -0.025 A 
ATOM      9  C   UNL A   1      33.703  19.077  24.540  1.00  0.00     0.044 C 
ATOM     10  C   UNL A   1      32.791  20.227  24.241  1.00  0.00    -0.051 A 
ATOM     11  C   UNL A   1      32.421  20.514  22.926  1.00  0.00     0.004 A 
ATOM     12  C   UNL A   1      32.368  21.084  25.260  1.00  0.00     0.004 A 
ATOM     13  C   UNL A   1      31.720  21.684  22.621  1.00  0.00     0.006 A 
ATOM     14  C   UNL A   1      31.688  22.265  24.950  1.00  0.00     0.006 A 
ENDBRANCH   7   8
BRANCH   7  15
ATOM     15  N   UNL A   1      31.808  24.701  22.301  1.00  0.00    -0.345 N 
ATOM     16  C   UNL A   1      33.114  25.112  22.379  1.00  0.00     0.251 C 
ATOM     17  H   UNL A   1      31.367  24.874  21.437  1.00  0.00     0.164 HD
ATOM     18  O   UNL A   1      33.520  25.981  21.611  1.00  0.00    -0.269 OA
BRANCH  16  19
ATOM     19  C   UNL A   1      34.052  24.504  23.349  1.00  0.00     0.040 A 
ATOM     20  C   UNL A   1      34.792  23.377  22.975  1.00  0.00     0.017 A 
ATOM     21  C   UNL A   1      34.109  24.957  24.668  1.00  0.00     0.017 A 
ATOM     22  C   UNL A   1      35.622  22.748  23.909  1.00  0.00     0.047 A 
ATOM     23  C   UNL A   1      34.953  24.335  25.594  1.00  0.00     0.047 A 
ATOM     24  C   UNL A   1      35.719  23.230  25.219  1.00  0.00     0.126 A 
BRANCH  24  25
ATOM     25  O   UNL A   1      36.563  22.525  26.029  1.00  0.00    -0.435 OA
BRANCH  25  26
ATOM     26  C   UNL A   1      37.955  22.804  25.951  1.00  0.00     0.542 C 
ATOM     27  F   UNL A   1      38.587  21.821  25.265  1.00  0.00    -0.167 F 
ATOM     28  F   UNL A   1      38.161  23.976  25.303  1.00  0.00    -0.167 F 
ENDBRANCH  25  26
ENDBRANCH  24  25
ENDBRANCH  16  19
ENDBRANCH   7  15
ENDBRANCH   6   7
ENDBRANCH   3   6
ENDBRANCH   1   2
BRANCH   1  29
ATOM     29  C   UNL A   1      31.815  28.428  27.416  1.00  0.00     0.023 C 
BRANCH  29  30
ATOM     30  C   UNL A   1      32.523  29.546  26.640  1.00  0.00     0.023 C 
BRANCH  30  31
ATOM     31  C   UNL A   1      34.015  29.768  26.869  1.00  0.00     0.116 C 
BRANCH  31  32
ATOM     32  N   UNL A   1      34.405  31.134  27.248  1.00  0.00    -0.352 N 
ATOM     33  C   UNL A   1      35.301  31.529  28.233  1.00  0.00     0.251 C 
ATOM     34  H   UNL A   1      33.976  31.861  26.740  1.00  0.00     0.163 HD
ATOM     35  O   UNL A   1      35.264  32.659  28.721  1.00  0.00    -0.269 OA
BRANCH  33  36
ATOM     36  C   UNL A   1      36.359  30.590  28.647  1.00  0.00     0.039 A 
ATOM     37  C   UNL A   1      36.324  29.794  29.803  1.00  0.00     0.014 A 
ATOM     38  C   UNL A   1      37.469  30.568  27.823  1.00  0.00     0.014 A 
ATOM     39  C   UNL A   1      37.422  28.973  30.098  1.00  0.00     0.010 A 
ATOM     40  C   UNL A   1      38.383  29.572  27.947  1.00  0.00     0.010 A 
ATOM     41  C   UNL A   1      38.454  28.889  29.162  1.00  0.00    -0.014 A 
BRANCH  41  42
ATOM     42  C   UNL A   1      39.798  28.361  29.356  1.00  0.00     0.031 A 
ATOM     43  C   UNL A   1      40.211  27.049  28.858  1.00  0.00     0.074 A 
ATOM     44  C   UNL A   1      40.706  29.343  29.568  1.00  0.00     0.049 A 
ATOM     45  N   UNL A   1      41.387  26.559  29.033  1.00  0.00    -0.248 NA
ATOM     46  C   UNL A   1      39.331  26.191  28.083  1.00  0.00     0.031 C 
ATOM     47  C   UNL A   1      42.116  29.410  29.220  1.00  0.00     0.029 A 
ATOM     48  N   UNL A   1      40.458  30.579  30.173  1.00  0.00    -0.354 N 
ATOM     49  C   UNL A   1      41.530  25.497  28.171  1.00  0.00     0.074 A 
ATOM     50  C   UNL A   1      40.194  25.256  27.668  1.00  0.00     0.031 C 
ATOM     51  C   UNL A   1      42.662  30.464  29.859  1.00  0.00     0.029 A 
ATOM     52  C   UNL A   1      41.657  30.984  30.775  1.00  0.00     0.049 A 
ATOM     53  H   UNL A   1      39.605  31.071  30.176  1.00  0.00     0.167 HD
ATOM     54  C   UNL A   1      42.791  25.041  27.897  1.00  0.00     0.037 A 
ATOM     55  C   UNL A   1      41.696  30.913  32.143  1.00  0.00     0.037 A 
ATOM     56  C   UNL A   1      43.794  25.812  28.649  1.00  0.00     0.049 A 
ATOM     57  C   UNL A   1      42.562  29.771  32.643  1.00  0.00     0.074 A 
ATOM     58  C   UNL A   1      44.625  26.880  28.348  1.00  0.00     0.029 A 
ATOM     59  N   UNL A   1      43.794  25.719  30.028  1.00  0.00    -0.354 N 
ATOM     60  N   UNL A   1      43.227  28.955  31.869  1.00  0.00    -0.248 NA
ATOM     61  C   UNL A   1      42.686  29.416  34.054  1.00  0.00     0.031 C 
ATOM     62  C   UNL A   1      45.040  27.480  29.581  1.00  0.00     0.029 A 
ATOM     63  C   UNL A   1      44.483  26.760  30.625  1.00  0.00     0.049 A 
ATOM     64  H   UNL A   1      43.356  24.994  30.529  1.00  0.00     0.167 HD
ATOM     65  C   UNL A   1      43.773  27.954  32.616  1.00  0.00     0.074 A 
ATOM     66  C   UNL A   1      43.430  28.298  33.986  1.00  0.00     0.031 C 
ATOM     67  C   UNL A   1      44.429  26.887  32.077  1.00  0.00     0.037 A 
BRANCH  54  68
ATOM     68  C   UNL A   1      43.156  24.044  26.815  1.00  0.00     0.057 A 
ATOM     69  C   UNL A   1      43.079  22.658  27.063  1.00  0.00     0.134 A 
ATOM     70  C   UNL A   1      43.586  24.367  25.515  1.00  0.00     0.134 A 
ATOM     71  F   UNL A   1      42.604  22.174  28.217  1.00  0.00    -0.206 F 
ATOM     72  C   UNL A   1      43.477  21.687  26.130  1.00  0.00     0.040 A 
ATOM     73  C   UNL A   1      44.036  23.411  24.590  1.00  0.00     0.040 A 
ATOM     74  F   UNL A   1      43.528  25.613  25.037  1.00  0.00    -0.206 F 
ATOM     75  C   UNL A   1      43.986  22.062  24.898  1.00  0.00     0.006 A 
ENDBRANCH  54  68
BRANCH  55  76
ATOM     76  C   UNL A   1      40.373  31.330  32.727  1.00  0.00     0.057 A 
ATOM     77  C   UNL A   1      39.521  30.314  33.210  1.00  0.00     0.134 A 
ATOM     78  C   UNL A   1      40.184  32.613  33.261  1.00  0.00     0.134 A 
ATOM     79  F   UNL A   1      39.649  29.056  32.755  1.00  0.00    -0.206 F 
ATOM     80  C   UNL A   1      38.645  30.526  34.280  1.00  0.00     0.040 A 
ATOM     81  C   UNL A   1      39.294  32.838  34.321  1.00  0.00     0.040 A 
ATOM     82  F   UNL A   1      40.955  33.638  32.869  1.00  0.00    -0.206 F 
ATOM     83  C   UNL A   1      38.561  31.784  34.865  1.00  0.00     0.006 A 
ENDBRANCH  55  76
BRANCH  67  84
ATOM     84  C   UNL A   1      45.069  25.854  32.947  1.00  0.00     0.057 A 
ATOM     85  C   UNL A   1      46.461  25.696  32.981  1.00  0.00     0.134 A 
ATOM     86  C   UNL A   1      44.321  24.922  33.684  1.00  0.00     0.134 A 
ATOM     87  F   UNL A   1      47.263  26.507  32.274  1.00  0.00    -0.206 F 
ATOM     88  C   UNL A   1      47.074  24.694  33.736  1.00  0.00     0.040 A 
ATOM     89  C   UNL A   1      44.918  23.881  34.396  1.00  0.00     0.040 A 
ATOM     90  F   UNL A   1      42.984  24.996  33.764  1.00  0.00    -0.206 F 
ATOM     91  C   UNL A   1      46.302  23.773  34.434  1.00  0.00     0.006 A 
ENDBRANCH  67  84
ENDBRANCH  41  42
ENDBRANCH  33  36
ENDBRANCH  31  32
ENDBRANCH  30  31
ENDBRANCH  29  30
ENDBRANCH   1  29
TORSDOF 17
ENDMDL
