MODEL 1
REMARK VINA RESULT:     -10.4      0.000      0.000
REMARK SMILES O=C(NCCCCNC(=O)c1cc(Br)cnc1S)c1ccc(-c2c3nc(c(-c4c(F)cccc4F)c4ccc([nH]4)c(-c4c(F)cccc4F)c4nc(c(-c5c(F)cccc5F)c5ccc2[nH]5)C=C4)C=C3)cc1
REMARK SMILES IDX 5 1 4 2 3 3 1 4 2 5 19 7 20 8 72 9 21 10 71 11 22 12 23 13
REMARK SMILES IDX 24 14 65 15 25 16 70 17 64 18 66 19 26 20 69 21 63 22 62 23
REMARK SMILES IDX 27 25 53 26 36 27 52 28 37 29 40 30 51 31 67 32 38 33 39 34
REMARK SMILES IDX 50 36 68 37 41 38 28 39 29 40 34 41 30 42 31 43 33 44 35 45
REMARK SMILES IDX 32 46 54 47 55 48 60 49 56 50 57 51 59 52 61 53 58 54 42 55
REMARK SMILES IDX 43 56 48 57 44 58 45 59 47 60 49 61 46 62 6 63 7 64 8 65
REMARK SMILES IDX 9 66 10 68 11 69 12 70 17 71 13 72 16 73 14 74 15 75 18 76
REMARK H PARENT 3 6 66 24 40 35 8 67 18 77
REMARK Flexibility Score: inf
ROOT
ATOM      1  C   UNL A   1      37.462  19.457  24.926  1.00  0.00     0.023 C 
ENDROOT
BRANCH   1   2
ATOM      2  C   UNL A   1      38.675  20.125  25.564  1.00  0.00     0.116 C 
BRANCH   2   3
ATOM      3  N   UNL A   1      39.812  19.230  25.686  1.00  0.00    -0.352 N 
ATOM      4  O   UNL A   1      41.965  18.627  25.946  1.00  0.00    -0.269 OA
ATOM      5  C   UNL A   1      41.106  19.499  26.059  1.00  0.00     0.251 C 
ATOM      6  H   UNL A   1      39.628  18.288  25.468  1.00  0.00     0.163 HD
BRANCH   5   7
ATOM      7  C   UNL A   1      41.480  20.832  26.582  1.00  0.00     0.039 A 
ATOM      8  C   UNL A   1      41.351  21.078  27.951  1.00  0.00     0.014 A 
ATOM      9  C   UNL A   1      41.909  21.853  25.729  1.00  0.00     0.014 A 
ATOM     10  C   UNL A   1      41.680  22.335  28.469  1.00  0.00     0.010 A 
ATOM     11  C   UNL A   1      42.320  23.074  26.255  1.00  0.00     0.010 A 
ATOM     12  C   UNL A   1      42.180  23.339  27.626  1.00  0.00    -0.014 A 
BRANCH  12  13
ATOM     13  C   UNL A   1      42.471  24.703  28.140  1.00  0.00     0.031 A 
ATOM     14  C   UNL A   1      43.887  25.075  28.492  1.00  0.00     0.074 A 
ATOM     15  C   UNL A   1      41.479  25.598  28.309  1.00  0.00     0.049 A 
ATOM     16  N   UNL A   1      44.350  26.180  29.020  1.00  0.00    -0.248 NA
ATOM     17  C   UNL A   1      44.919  24.056  28.238  1.00  0.00     0.031 C 
ATOM     18  C   UNL A   1      40.065  25.365  28.010  1.00  0.00     0.029 A 
ATOM     19  N   UNL A   1      41.513  26.890  28.771  1.00  0.00    -0.354 N 
ATOM     20  C   UNL A   1      45.719  25.984  29.166  1.00  0.00     0.074 A 
ATOM     21  C   UNL A   1      45.999  24.631  28.741  1.00  0.00     0.031 C 
ATOM     22  C   UNL A   1      39.373  26.489  28.263  1.00  0.00     0.029 A 
ATOM     23  C   UNL A   1      40.285  27.505  28.783  1.00  0.00     0.049 A 
ATOM     24  H   UNL A   1      42.340  27.334  29.067  1.00  0.00     0.167 HD
ATOM     25  C   UNL A   1      46.664  26.860  29.580  1.00  0.00     0.037 A 
ATOM     26  C   UNL A   1      39.937  28.745  29.172  1.00  0.00     0.037 A 
ATOM     27  C   UNL A   1      46.391  28.211  29.990  1.00  0.00     0.049 A 
ATOM     28  C   UNL A   1      40.998  29.677  29.698  1.00  0.00     0.074 A 
ATOM     29  C   UNL A   1      47.280  29.183  30.414  1.00  0.00     0.029 A 
ATOM     30  N   UNL A   1      45.128  28.784  30.021  1.00  0.00    -0.354 N 
ATOM     31  N   UNL A   1      42.290  29.486  29.809  1.00  0.00    -0.248 NA
ATOM     32  C   UNL A   1      40.544  30.998  30.157  1.00  0.00     0.031 C 
ATOM     33  C   UNL A   1      46.550  30.329  30.744  1.00  0.00     0.029 A 
ATOM     34  C   UNL A   1      45.212  30.089  30.476  1.00  0.00     0.049 A 
ATOM     35  H   UNL A   1      44.294  28.329  29.760  1.00  0.00     0.167 HD
ATOM     36  C   UNL A   1      42.807  30.671  30.317  1.00  0.00     0.074 A 
ATOM     37  C   UNL A   1      41.690  31.579  30.477  1.00  0.00     0.031 C 
ATOM     38  C   UNL A   1      44.091  30.982  30.625  1.00  0.00     0.037 A 
BRANCH  25  39
ATOM     39  C   UNL A   1      48.085  26.371  29.605  1.00  0.00     0.057 A 
ATOM     40  C   UNL A   1      48.623  25.780  30.755  1.00  0.00     0.134 A 
ATOM     41  C   UNL A   1      48.925  26.491  28.489  1.00  0.00     0.134 A 
ATOM     42  F   UNL A   1      47.877  25.637  31.861  1.00  0.00    -0.206 F 
ATOM     43  C   UNL A   1      49.940  25.319  30.791  1.00  0.00     0.040 A 
ATOM     44  C   UNL A   1      50.234  26.007  28.503  1.00  0.00     0.040 A 
ATOM     45  F   UNL A   1      48.468  27.035  27.350  1.00  0.00    -0.206 F 
ATOM     46  C   UNL A   1      50.747  25.424  29.660  1.00  0.00     0.006 A 
ENDBRANCH  25  39
BRANCH  26  47
ATOM     47  C   UNL A   1      38.527  29.201  29.068  1.00  0.00     0.057 A 
ATOM     48  C   UNL A   1      37.662  29.180  30.168  1.00  0.00     0.134 A 
ATOM     49  C   UNL A   1      38.024  29.708  27.863  1.00  0.00     0.134 A 
ATOM     50  F   UNL A   1      38.080  28.705  31.351  1.00  0.00    -0.206 F 
ATOM     51  C   UNL A   1      36.350  29.646  30.075  1.00  0.00     0.040 A 
ATOM     52  C   UNL A   1      36.723  30.202  27.762  1.00  0.00     0.040 A 
ATOM     53  F   UNL A   1      38.811  29.774  26.779  1.00  0.00    -0.206 F 
ATOM     54  C   UNL A   1      35.880  30.169  28.872  1.00  0.00     0.006 A 
ENDBRANCH  26  47
BRANCH  38  55
ATOM     55  C   UNL A   1      44.358  32.372  31.127  1.00  0.00     0.057 A 
ATOM     56  C   UNL A   1      44.327  32.651  32.499  1.00  0.00     0.134 A 
ATOM     57  C   UNL A   1      44.625  33.435  30.256  1.00  0.00     0.134 A 
ATOM     58  F   UNL A   1      44.067  31.681  33.387  1.00  0.00    -0.206 F 
ATOM     59  C   UNL A   1      44.551  33.940  32.986  1.00  0.00     0.040 A 
ATOM     60  C   UNL A   1      44.882  34.722  30.733  1.00  0.00     0.040 A 
ATOM     61  F   UNL A   1      44.684  33.232  28.931  1.00  0.00    -0.206 F 
ATOM     62  C   UNL A   1      44.839  34.978  32.103  1.00  0.00     0.006 A 
ENDBRANCH  38  55
ENDBRANCH  12  13
ENDBRANCH   5   7
ENDBRANCH   2   3
ENDBRANCH   1   2
BRANCH   1  63
ATOM     63  C   UNL A   1      36.177  20.285  24.931  1.00  0.00     0.023 C 
BRANCH  63  64
ATOM     64  C   UNL A   1      36.230  21.567  25.755  1.00  0.00     0.116 C 
BRANCH  64  65
ATOM     65  N   UNL A   1      35.294  21.561  26.869  1.00  0.00    -0.352 N 
ATOM     66  C   UNL A   1      34.077  22.185  26.975  1.00  0.00     0.254 C 
ATOM     67  H   UNL A   1      35.571  21.035  27.654  1.00  0.00     0.163 HD
ATOM     68  O   UNL A   1      33.435  22.131  28.018  1.00  0.00    -0.269 OA
BRANCH  66  69
ATOM     69  C   UNL A   1      33.557  22.965  25.847  1.00  0.00     0.072 A 
ATOM     70  C   UNL A   1      33.784  24.346  25.870  1.00  0.00     0.034 A 
ATOM     71  C   UNL A   1      32.856  22.399  24.781  1.00  0.00     0.106 A 
ATOM     72  C   UNL A   1      33.357  25.113  24.798  1.00  0.00     0.037 A 
ATOM     73  N   UNL A   1      32.458  23.147  23.719  1.00  0.00    -0.248 NA
ATOM     74  Br  UNL A   1      33.647  26.974  24.770  1.00  0.00    -0.049 Br
ATOM     75  C   UNL A   1      32.720  24.477  23.746  1.00  0.00     0.128 A 
BRANCH  71  76
ATOM     76  S   UNL A   1      32.381  20.685  24.668  1.00  0.00    -0.123 SA
ATOM     77  H   UNL A   1      31.038  20.575  24.849  1.00  0.00     0.109 HD
ENDBRANCH  71  76
ENDBRANCH  66  69
ENDBRANCH  64  65
ENDBRANCH  63  64
ENDBRANCH   1  63
TORSDOF 12
ENDMDL
MODEL 2
REMARK VINA RESULT:     -10.4      4.786      9.553
REMARK SMILES O=C(NCCCCNC(=O)c1cc(Br)cnc1S)c1ccc(-c2c3nc(c(-c4c(F)cccc4F)c4ccc([nH]4)c(-c4c(F)cccc4F)c4nc(c(-c5c(F)cccc5F)c5ccc2[nH]5)C=C4)C=C3)cc1
REMARK SMILES IDX 5 1 4 2 3 3 1 4 2 5 19 7 20 8 72 9 21 10 71 11 22 12 23 13
REMARK SMILES IDX 24 14 65 15 25 16 70 17 64 18 66 19 26 20 69 21 63 22 62 23
REMARK SMILES IDX 27 25 53 26 36 27 52 28 37 29 40 30 51 31 67 32 38 33 39 34
REMARK SMILES IDX 50 36 68 37 41 38 28 39 29 40 34 41 30 42 31 43 33 44 35 45
REMARK SMILES IDX 32 46 54 47 55 48 60 49 56 50 57 51 59 52 61 53 58 54 42 55
REMARK SMILES IDX 43 56 48 57 44 58 45 59 47 60 49 61 46 62 6 63 7 64 8 65
REMARK SMILES IDX 9 66 10 68 11 69 12 70 17 71 13 72 16 73 14 74 15 75 18 76
REMARK H PARENT 3 6 66 24 40 35 8 67 18 77
REMARK Flexibility Score: inf
ROOT
ATOM      1  C   UNL A   1      31.221  32.168  26.492  1.00  0.00     0.023 C 
ENDROOT
BRANCH   1   2
ATOM      2  C   UNL A   1      32.535  32.639  27.106  1.00  0.00     0.116 C 
BRANCH   2   3
ATOM      3  N   UNL A   1      32.458  33.989  27.634  1.00  0.00    -0.352 N 
ATOM      4  O   UNL A   1      32.862  35.697  29.043  1.00  0.00    -0.269 OA
ATOM      5  C   UNL A   1      33.188  34.586  28.632  1.00  0.00     0.251 C 
ATOM      6  H   UNL A   1      31.780  34.565  27.211  1.00  0.00     0.163 HD
BRANCH   5   7
ATOM      7  C   UNL A   1      34.354  33.898  29.230  1.00  0.00     0.039 A 
ATOM      8  C   UNL A   1      35.636  34.251  28.802  1.00  0.00     0.014 A 
ATOM      9  C   UNL A   1      34.191  32.876  30.171  1.00  0.00     0.014 A 
ATOM     10  C   UNL A   1      36.753  33.603  29.336  1.00  0.00     0.010 A 
ATOM     11  C   UNL A   1      35.306  32.294  30.767  1.00  0.00     0.010 A 
ATOM     12  C   UNL A   1      36.598  32.628  30.333  1.00  0.00    -0.014 A 
BRANCH  12  13
ATOM     13  C   UNL A   1      37.764  31.877  30.867  1.00  0.00     0.031 A 
ATOM     14  C   UNL A   1      38.276  32.190  32.249  1.00  0.00     0.074 A 
ATOM     15  C   UNL A   1      38.375  30.938  30.121  1.00  0.00     0.049 A 
ATOM     16  N   UNL A   1      39.319  31.708  32.878  1.00  0.00    -0.248 NA
ATOM     17  C   UNL A   1      37.528  33.200  33.016  1.00  0.00     0.031 C 
ATOM     18  C   UNL A   1      37.983  30.541  28.768  1.00  0.00     0.029 A 
ATOM     19  N   UNL A   1      39.456  30.140  30.401  1.00  0.00    -0.354 N 
ATOM     20  C   UNL A   1      39.352  32.360  34.106  1.00  0.00     0.074 A 
ATOM     21  C   UNL A   1      38.273  33.321  34.104  1.00  0.00     0.031 C 
ATOM     22  C   UNL A   1      38.790  29.550  28.350  1.00  0.00     0.029 A 
ATOM     23  C   UNL A   1      39.781  29.274  29.386  1.00  0.00     0.049 A 
ATOM     24  H   UNL A   1      39.953  30.186  31.250  1.00  0.00     0.167 HD
ATOM     25  C   UNL A   1      40.181  32.153  35.157  1.00  0.00     0.037 A 
ATOM     26  C   UNL A   1      40.770  28.364  29.303  1.00  0.00     0.037 A 
ATOM     27  C   UNL A   1      41.246  31.187  35.168  1.00  0.00     0.049 A 
ATOM     28  C   UNL A   1      41.724  28.205  30.457  1.00  0.00     0.074 A 
ATOM     29  C   UNL A   1      42.133  30.891  36.188  1.00  0.00     0.029 A 
ATOM     30  N   UNL A   1      41.565  30.354  34.106  1.00  0.00    -0.354 N 
ATOM     31  N   UNL A   1      41.729  28.811  31.619  1.00  0.00    -0.248 NA
ATOM     32  C   UNL A   1      42.813  27.233  30.281  1.00  0.00     0.031 C 
ATOM     33  C   UNL A   1      43.017  29.910  35.726  1.00  0.00     0.029 A 
ATOM     34  C   UNL A   1      42.648  29.557  34.439  1.00  0.00     0.049 A 
ATOM     35  H   UNL A   1      41.092  30.333  33.243  1.00  0.00     0.167 HD
ATOM     36  C   UNL A   1      42.799  28.271  32.324  1.00  0.00     0.074 A 
ATOM     37  C   UNL A   1      43.406  27.277  31.464  1.00  0.00     0.031 C 
ATOM     38  C   UNL A   1      43.238  28.570  33.572  1.00  0.00     0.037 A 
BRANCH  25  39
ATOM     39  C   UNL A   1      39.956  32.995  36.381  1.00  0.00     0.057 A 
ATOM     40  C   UNL A   1      40.706  34.156  36.604  1.00  0.00     0.134 A 
ATOM     41  C   UNL A   1      38.997  32.653  37.345  1.00  0.00     0.134 A 
ATOM     42  F   UNL A   1      41.645  34.540  35.725  1.00  0.00    -0.206 F 
ATOM     43  C   UNL A   1      40.507  34.949  37.736  1.00  0.00     0.040 A 
ATOM     44  C   UNL A   1      38.766  33.454  38.464  1.00  0.00     0.040 A 
ATOM     45  F   UNL A   1      38.233  31.561  37.185  1.00  0.00    -0.206 F 
ATOM     46  C   UNL A   1      39.528  34.603  38.665  1.00  0.00     0.006 A 
ENDBRANCH  25  39
BRANCH  26  47
ATOM     47  C   UNL A   1      40.910  27.512  28.094  1.00  0.00     0.057 A 
ATOM     48  C   UNL A   1      40.278  26.268  27.991  1.00  0.00     0.134 A 
ATOM     49  C   UNL A   1      41.655  27.950  26.991  1.00  0.00     0.134 A 
ATOM     50  F   UNL A   1      39.552  25.789  29.012  1.00  0.00    -0.206 F 
ATOM     51  C   UNL A   1      40.382  25.489  26.837  1.00  0.00     0.040 A 
ATOM     52  C   UNL A   1      41.744  27.194  25.821  1.00  0.00     0.040 A 
ATOM     53  F   UNL A   1      42.266  29.143  27.021  1.00  0.00    -0.206 F 
ATOM     54  C   UNL A   1      41.107  25.957  25.744  1.00  0.00     0.006 A 
ENDBRANCH  26  47
BRANCH  38  55
ATOM     55  C   UNL A   1      44.409  27.785  34.092  1.00  0.00     0.057 A 
ATOM     56  C   UNL A   1      45.714  28.268  33.939  1.00  0.00     0.134 A 
ATOM     57  C   UNL A   1      44.248  26.546  34.724  1.00  0.00     0.134 A 
ATOM     58  F   UNL A   1      45.940  29.444  33.334  1.00  0.00    -0.206 F 
ATOM     59  C   UNL A   1      46.818  27.546  34.396  1.00  0.00     0.040 A 
ATOM     60  C   UNL A   1      45.341  25.828  35.213  1.00  0.00     0.040 A 
ATOM     61  F   UNL A   1      43.022  26.033  34.914  1.00  0.00    -0.206 F 
ATOM     62  C   UNL A   1      46.632  26.326  35.043  1.00  0.00     0.006 A 
ENDBRANCH  38  55
ENDBRANCH  12  13
ENDBRANCH   5   7
ENDBRANCH   2   3
ENDBRANCH   1   2
BRANCH   1  63
ATOM     63  C   UNL A   1      31.286  30.838  25.742  1.00  0.00     0.023 C 
BRANCH  63  64
ATOM     64  C   UNL A   1      32.562  30.030  25.953  1.00  0.00     0.116 C 
BRANCH  64  65
ATOM     65  N   UNL A   1      33.245  29.718  24.706  1.00  0.00    -0.352 N 
ATOM     66  C   UNL A   1      33.078  28.636  23.880  1.00  0.00     0.254 C 
ATOM     67  H   UNL A   1      33.919  30.375  24.415  1.00  0.00     0.163 HD
ATOM     68  O   UNL A   1      33.786  28.489  22.890  1.00  0.00    -0.269 OA
BRANCH  66  69
ATOM     69  C   UNL A   1      32.073  27.619  24.206  1.00  0.00     0.072 A 
ATOM     70  C   UNL A   1      32.491  26.546  25.003  1.00  0.00     0.034 A 
ATOM     71  C   UNL A   1      30.752  27.672  23.759  1.00  0.00     0.106 A 
ATOM     72  C   UNL A   1      31.561  25.590  25.379  1.00  0.00     0.037 A 
ATOM     73  N   UNL A   1      29.835  26.748  24.148  1.00  0.00    -0.248 NA
ATOM     74  Br  UNL A   1      32.065  24.132  26.461  1.00  0.00    -0.049 Br
ATOM     75  C   UNL A   1      30.253  25.738  24.948  1.00  0.00     0.128 A 
BRANCH  71  76
ATOM     76  S   UNL A   1      30.103  28.900  22.643  1.00  0.00    -0.123 SA
ATOM     77  H   UNL A   1      30.784  28.848  21.467  1.00  0.00     0.109 HD
ENDBRANCH  71  76
ENDBRANCH  66  69
ENDBRANCH  64  65
ENDBRANCH  63  64
ENDBRANCH   1  63
TORSDOF 12
ENDMDL
MODEL 3
REMARK VINA RESULT:     -10.3      1.458      2.151
REMARK SMILES O=C(NCCCCNC(=O)c1cc(Br)cnc1S)c1ccc(-c2c3nc(c(-c4c(F)cccc4F)c4ccc([nH]4)c(-c4c(F)cccc4F)c4nc(c(-c5c(F)cccc5F)c5ccc2[nH]5)C=C4)C=C3)cc1
REMARK SMILES IDX 5 1 4 2 3 3 1 4 2 5 19 7 20 8 72 9 21 10 71 11 22 12 23 13
REMARK SMILES IDX 24 14 65 15 25 16 70 17 64 18 66 19 26 20 69 21 63 22 62 23
REMARK SMILES IDX 27 25 53 26 36 27 52 28 37 29 40 30 51 31 67 32 38 33 39 34
REMARK SMILES IDX 50 36 68 37 41 38 28 39 29 40 34 41 30 42 31 43 33 44 35 45
REMARK SMILES IDX 32 46 54 47 55 48 60 49 56 50 57 51 59 52 61 53 58 54 42 55
REMARK SMILES IDX 43 56 48 57 44 58 45 59 47 60 49 61 46 62 6 63 7 64 8 65
REMARK SMILES IDX 9 66 10 68 11 69 12 70 17 71 13 72 16 73 14 74 15 75 18 76
REMARK H PARENT 3 6 66 24 40 35 8 67 18 77
REMARK Flexibility Score: inf
ROOT
ATOM      1  C   UNL A   1      37.972  19.272  24.840  1.00  0.00     0.023 C 
ENDROOT
BRANCH   1   2
ATOM      2  C   UNL A   1      39.071  19.790  25.759  1.00  0.00     0.116 C 
BRANCH   2   3
ATOM      3  N   UNL A   1      40.216  18.900  25.826  1.00  0.00    -0.352 N 
ATOM      4  O   UNL A   1      42.386  18.304  25.882  1.00  0.00    -0.269 OA
ATOM      5  C   UNL A   1      41.545  19.190  26.016  1.00  0.00     0.251 C 
ATOM      6  H   UNL A   1      40.009  17.944  25.720  1.00  0.00     0.163 HD
BRANCH   5   7
ATOM      7  C   UNL A   1      41.977  20.562  26.364  1.00  0.00     0.039 A 
ATOM      8  C   UNL A   1      42.099  20.907  27.713  1.00  0.00     0.014 A 
ATOM      9  C   UNL A   1      42.214  21.522  25.376  1.00  0.00     0.014 A 
ATOM     10  C   UNL A   1      42.487  22.202  28.070  1.00  0.00     0.010 A 
ATOM     11  C   UNL A   1      42.686  22.783  25.729  1.00  0.00     0.010 A 
ATOM     12  C   UNL A   1      42.796  23.147  27.080  1.00  0.00    -0.014 A 
BRANCH  12  13
ATOM     13  C   UNL A   1      43.143  24.549  27.433  1.00  0.00     0.031 A 
ATOM     14  C   UNL A   1      44.580  24.997  27.357  1.00  0.00     0.074 A 
ATOM     15  C   UNL A   1      42.191  25.410  27.836  1.00  0.00     0.049 A 
ATOM     16  N   UNL A   1      45.110  26.148  27.687  1.00  0.00    -0.248 NA
ATOM     17  C   UNL A   1      45.554  24.008  26.867  1.00  0.00     0.031 C 
ATOM     18  C   UNL A   1      40.764  25.104  27.957  1.00  0.00     0.029 A 
ATOM     19  N   UNL A   1      42.281  26.726  28.215  1.00  0.00    -0.354 N 
ATOM     20  C   UNL A   1      46.474  26.016  27.450  1.00  0.00     0.074 A 
ATOM     21  C   UNL A   1      46.699  24.654  27.021  1.00  0.00     0.031 C 
ATOM     22  C   UNL A   1      40.110  26.211  28.346  1.00  0.00     0.029 A 
ATOM     23  C   UNL A   1      41.074  27.291  28.545  1.00  0.00     0.049 A 
ATOM     24  H   UNL A   1      43.133  27.219  28.248  1.00  0.00     0.167 HD
ATOM     25  C   UNL A   1      47.448  26.951  27.545  1.00  0.00     0.037 A 
ATOM     26  C   UNL A   1      40.781  28.536  28.963  1.00  0.00     0.037 A 
ATOM     27  C   UNL A   1      47.226  28.311  27.957  1.00  0.00     0.049 A 
ATOM     28  C   UNL A   1      41.893  29.537  29.131  1.00  0.00     0.074 A 
ATOM     29  C   UNL A   1      48.143  29.340  28.073  1.00  0.00     0.029 A 
ATOM     30  N   UNL A   1      45.992  28.833  28.318  1.00  0.00    -0.354 N 
ATOM     31  N   UNL A   1      43.173  29.405  28.882  1.00  0.00    -0.248 NA
ATOM     32  C   UNL A   1      41.514  30.863  29.642  1.00  0.00     0.031 C 
ATOM     33  C   UNL A   1      47.473  30.472  28.546  1.00  0.00     0.029 A 
ATOM     34  C   UNL A   1      46.129  30.164  28.675  1.00  0.00     0.049 A 
ATOM     35  H   UNL A   1      45.145  28.330  28.321  1.00  0.00     0.167 HD
ATOM     36  C   UNL A   1      43.746  30.638  29.174  1.00  0.00     0.074 A 
ATOM     37  C   UNL A   1      42.670  31.507  29.602  1.00  0.00     0.031 C 
ATOM     38  C   UNL A   1      45.046  31.017  29.095  1.00  0.00     0.037 A 
BRANCH  25  39
ATOM     39  C   UNL A   1      48.844  26.523  27.190  1.00  0.00     0.057 A 
ATOM     40  C   UNL A   1      49.709  26.010  28.164  1.00  0.00     0.134 A 
ATOM     41  C   UNL A   1      49.335  26.623  25.881  1.00  0.00     0.134 A 
ATOM     42  F   UNL A   1      49.306  25.890  29.439  1.00  0.00    -0.206 F 
ATOM     43  C   UNL A   1      51.008  25.606  27.848  1.00  0.00     0.040 A 
ATOM     44  C   UNL A   1      50.620  26.194  25.546  1.00  0.00     0.040 A 
ATOM     45  F   UNL A   1      48.553  27.092  24.896  1.00  0.00    -0.206 F 
ATOM     46  C   UNL A   1      51.463  25.689  26.535  1.00  0.00     0.006 A 
ENDBRANCH  25  39
BRANCH  26  47
ATOM     47  C   UNL A   1      39.375  28.927  29.241  1.00  0.00     0.057 A 
ATOM     48  C   UNL A   1      38.550  29.467  28.248  1.00  0.00     0.134 A 
ATOM     49  C   UNL A   1      38.813  28.730  30.509  1.00  0.00     0.134 A 
ATOM     50  F   UNL A   1      39.027  29.684  27.013  1.00  0.00    -0.206 F 
ATOM     51  C   UNL A   1      37.217  29.796  28.504  1.00  0.00     0.040 A 
ATOM     52  C   UNL A   1      37.475  29.029  30.771  1.00  0.00     0.040 A 
ATOM     53  F   UNL A   1      39.547  28.196  31.496  1.00  0.00    -0.206 F 
ATOM     54  C   UNL A   1      36.674  29.567  29.766  1.00  0.00     0.006 A 
ENDBRANCH  26  47
BRANCH  38  55
ATOM     55  C   UNL A   1      45.366  32.443  29.442  1.00  0.00     0.057 A 
ATOM     56  C   UNL A   1      45.332  33.439  28.460  1.00  0.00     0.134 A 
ATOM     57  C   UNL A   1      45.726  32.826  30.740  1.00  0.00     0.134 A 
ATOM     58  F   UNL A   1      45.005  33.138  27.194  1.00  0.00    -0.206 F 
ATOM     59  C   UNL A   1      45.646  34.767  28.755  1.00  0.00     0.040 A 
ATOM     60  C   UNL A   1      46.012  34.156  31.055  1.00  0.00     0.040 A 
ATOM     61  F   UNL A   1      45.764  31.922  31.732  1.00  0.00    -0.206 F 
ATOM     62  C   UNL A   1      45.978  35.130  30.058  1.00  0.00     0.006 A 
ENDBRANCH  38  55
ENDBRANCH  12  13
ENDBRANCH   5   7
ENDBRANCH   2   3
ENDBRANCH   1   2
BRANCH   1  63
ATOM     63  C   UNL A   1      36.610  19.948  24.997  1.00  0.00     0.023 C 
BRANCH  63  64
ATOM     64  C   UNL A   1      36.654  21.441  25.306  1.00  0.00     0.116 C 
BRANCH  64  65
ATOM     65  N   UNL A   1      35.806  21.809  26.430  1.00  0.00    -0.352 N 
ATOM     66  C   UNL A   1      34.517  22.278  26.419  1.00  0.00     0.254 C 
ATOM     67  H   UNL A   1      36.213  21.706  27.321  1.00  0.00     0.163 HD
ATOM     68  O   UNL A   1      33.962  22.606  27.462  1.00  0.00    -0.269 OA
BRANCH  66  69
ATOM     69  C   UNL A   1      33.808  22.432  25.145  1.00  0.00     0.072 A 
ATOM     70  C   UNL A   1      33.846  23.698  24.546  1.00  0.00     0.034 A 
ATOM     71  C   UNL A   1      33.109  21.396  24.523  1.00  0.00     0.106 A 
ATOM     72  C   UNL A   1      33.236  23.874  23.315  1.00  0.00     0.037 A 
ATOM     73  N   UNL A   1      32.531  21.563  23.306  1.00  0.00    -0.248 NA
ATOM     74  Br  UNL A   1      33.266  25.551  22.457  1.00  0.00    -0.049 Br
ATOM     75  C   UNL A   1      32.610  22.787  22.728  1.00  0.00     0.128 A 
BRANCH  71  76
ATOM     76  S   UNL A   1      32.865  19.773  25.216  1.00  0.00    -0.123 SA
ATOM     77  H   UNL A   1      33.472  18.848  24.427  1.00  0.00     0.109 HD
ENDBRANCH  71  76
ENDBRANCH  66  69
ENDBRANCH  64  65
ENDBRANCH  63  64
ENDBRANCH   1  63
TORSDOF 12
ENDMDL
