MODEL 1
REMARK VINA RESULT:     -12.0      0.000      0.000
REMARK SMILES O=C(NCCCCNC(=O)c1cc(Br)cn(Cc2cccc(F)c2)c1=O)c1ccc(-c2c3nc(c(-c4c(F)cccc4F)c4ccc([nH]4)c(-c4c(F)cccc4F)c4nc(c(-c5c(F)cccc5F)c5ccc2[nH]5)C=C4)C=C3)cc1
REMARK SMILES IDX 5 1 4 2 3 3 1 4 2 5 27 7 28 8 80 9 29 10 79 11 30 12 31 13
REMARK SMILES IDX 32 14 73 15 33 16 78 17 72 18 74 19 34 20 77 21 71 22 70 23
REMARK SMILES IDX 35 25 61 26 44 27 60 28 45 29 48 30 59 31 75 32 46 33 47 34
REMARK SMILES IDX 58 36 76 37 49 38 36 39 37 40 42 41 38 42 39 43 41 44 43 45
REMARK SMILES IDX 40 46 62 47 63 48 68 49 64 50 65 51 67 52 69 53 66 54 50 55
REMARK SMILES IDX 51 56 56 57 52 58 53 59 55 60 57 61 54 62 6 63 7 64 8 65
REMARK SMILES IDX 9 66 10 68 11 69 12 70 25 71 13 72 16 73 26 74 14 75 15 76
REMARK SMILES IDX 17 77 18 78 19 79 24 80 20 81 22 82 21 83 23 84
REMARK H PARENT 3 6 74 24 48 35 8 67
REMARK Flexibility Score: inf
ROOT
ATOM      1  C   UNL A   1      33.246  28.289  25.726  1.00  0.00     0.023 C 
ENDROOT
BRANCH   1   2
ATOM      2  C   UNL A   1      33.637  28.466  27.190  1.00  0.00     0.116 C 
BRANCH   2   3
ATOM      3  N   UNL A   1      33.596  29.856  27.617  1.00  0.00    -0.352 N 
ATOM      4  O   UNL A   1      34.273  31.735  28.648  1.00  0.00    -0.269 OA
ATOM      5  C   UNL A   1      34.561  30.617  28.225  1.00  0.00     0.251 C 
ATOM      6  H   UNL A   1      32.747  30.321  27.441  1.00  0.00     0.163 HD
BRANCH   5   7
ATOM      7  C   UNL A   1      35.942  30.107  28.389  1.00  0.00     0.039 A 
ATOM      8  C   UNL A   1      36.300  29.525  29.609  1.00  0.00     0.014 A 
ATOM      9  C   UNL A   1      36.899  30.253  27.380  1.00  0.00     0.014 A 
ATOM     10  C   UNL A   1      37.606  29.069  29.809  1.00  0.00     0.010 A 
ATOM     11  C   UNL A   1      38.178  29.728  27.551  1.00  0.00     0.010 A 
ATOM     12  C   UNL A   1      38.554  29.159  28.777  1.00  0.00    -0.014 A 
BRANCH  12  13
ATOM     13  C   UNL A   1      39.965  28.752  28.994  1.00  0.00     0.031 A 
ATOM     14  C   UNL A   1      40.913  29.703  29.677  1.00  0.00     0.074 A 
ATOM     15  C   UNL A   1      40.406  27.557  28.562  1.00  0.00     0.049 A 
ATOM     16  N   UNL A   1      42.196  29.576  29.903  1.00  0.00    -0.248 NA
ATOM     17  C   UNL A   1      40.344  30.976  30.147  1.00  0.00     0.031 C 
ATOM     18  C   UNL A   1      39.597  26.551  27.871  1.00  0.00     0.029 A 
ATOM     19  N   UNL A   1      41.652  26.986  28.638  1.00  0.00    -0.354 N 
ATOM     20  C   UNL A   1      42.587  30.757  30.523  1.00  0.00     0.074 A 
ATOM     21  C   UNL A   1      41.420  31.609  30.587  1.00  0.00     0.031 C 
ATOM     22  C   UNL A   1      40.362  25.477  27.610  1.00  0.00     0.029 A 
ATOM     23  C   UNL A   1      41.720  25.732  28.082  1.00  0.00     0.049 A 
ATOM     24  H   UNL A   1      42.424  27.434  29.054  1.00  0.00     0.167 HD
ATOM     25  C   UNL A   1      43.801  31.094  31.023  1.00  0.00     0.037 A 
ATOM     26  C   UNL A   1      42.763  24.890  27.962  1.00  0.00     0.037 A 
ATOM     27  C   UNL A   1      44.956  30.238  30.989  1.00  0.00     0.049 A 
ATOM     28  C   UNL A   1      44.109  25.299  28.498  1.00  0.00     0.074 A 
ATOM     29  C   UNL A   1      46.219  30.470  31.504  1.00  0.00     0.029 A 
ATOM     30  N   UNL A   1      44.985  28.980  30.407  1.00  0.00    -0.354 N 
ATOM     31  N   UNL A   1      44.454  26.401  29.117  1.00  0.00    -0.248 NA
ATOM     32  C   UNL A   1      45.209  24.342  28.317  1.00  0.00     0.031 C 
ATOM     33  C   UNL A   1      47.023  29.365  31.204  1.00  0.00     0.029 A 
ATOM     34  C   UNL A   1      46.249  28.429  30.536  1.00  0.00     0.049 A 
ATOM     35  H   UNL A   1      44.220  28.542  29.968  1.00  0.00     0.167 HD
ATOM     36  C   UNL A   1      45.801  26.260  29.421  1.00  0.00     0.074 A 
ATOM     37  C   UNL A   1      46.207  24.958  28.933  1.00  0.00     0.031 C 
ATOM     38  C   UNL A   1      46.632  27.130  30.048  1.00  0.00     0.037 A 
BRANCH  25  39
ATOM     39  C   UNL A   1      43.928  32.452  31.650  1.00  0.00     0.057 A 
ATOM     40  C   UNL A   1      43.685  32.635  33.017  1.00  0.00     0.134 A 
ATOM     41  C   UNL A   1      44.288  33.580  30.900  1.00  0.00     0.134 A 
ATOM     42  F   UNL A   1      43.330  31.600  33.792  1.00  0.00    -0.206 F 
ATOM     43  C   UNL A   1      43.803  33.891  33.616  1.00  0.00     0.040 A 
ATOM     44  C   UNL A   1      44.437  34.834  31.493  1.00  0.00     0.040 A 
ATOM     45  F   UNL A   1      44.551  33.468  29.589  1.00  0.00    -0.206 F 
ATOM     46  C   UNL A   1      44.189  34.993  32.855  1.00  0.00     0.006 A 
ENDBRANCH  25  39
BRANCH  26  47
ATOM     47  C   UNL A   1      42.584  23.562  27.324  1.00  0.00     0.057 A 
ATOM     48  C   UNL A   1      42.800  23.371  25.954  1.00  0.00     0.134 A 
ATOM     49  C   UNL A   1      42.221  22.443  28.082  1.00  0.00     0.134 A 
ATOM     50  F   UNL A   1      43.147  24.404  25.173  1.00  0.00    -0.206 F 
ATOM     51  C   UNL A   1      42.661  22.114  25.362  1.00  0.00     0.040 A 
ATOM     52  C   UNL A   1      42.101  21.177  27.508  1.00  0.00     0.040 A 
ATOM     53  F   UNL A   1      42.022  22.560  29.404  1.00  0.00    -0.206 F 
ATOM     54  C   UNL A   1      42.320  21.011  26.142  1.00  0.00     0.006 A 
ENDBRANCH  26  47
BRANCH  38  55
ATOM     55  C   UNL A   1      48.048  26.684  30.265  1.00  0.00     0.057 A 
ATOM     56  C   UNL A   1      49.044  26.992  29.329  1.00  0.00     0.134 A 
ATOM     57  C   UNL A   1      48.421  25.934  31.387  1.00  0.00     0.134 A 
ATOM     58  F   UNL A   1      48.750  27.701  28.230  1.00  0.00    -0.206 F 
ATOM     59  C   UNL A   1      50.361  26.568  29.502  1.00  0.00     0.040 A 
ATOM     60  C   UNL A   1      49.742  25.525  31.583  1.00  0.00     0.040 A 
ATOM     61  F   UNL A   1      47.517  25.619  32.327  1.00  0.00    -0.206 F 
ATOM     62  C   UNL A   1      50.715  25.839  30.636  1.00  0.00     0.006 A 
ENDBRANCH  38  55
ENDBRANCH  12  13
ENDBRANCH   5   7
ENDBRANCH   2   3
ENDBRANCH   1   2
BRANCH   1  63
ATOM     63  C   UNL A   1      31.889  27.630  25.488  1.00  0.00     0.023 C 
BRANCH  63  64
ATOM     64  C   UNL A   1      31.933  26.288  24.763  1.00  0.00     0.116 C 
BRANCH  64  65
ATOM     65  N   UNL A   1      32.491  26.389  23.424  1.00  0.00    -0.352 N 
ATOM     66  C   UNL A   1      33.296  25.504  22.761  1.00  0.00     0.256 C 
ATOM     67  H   UNL A   1      32.259  27.206  22.927  1.00  0.00     0.163 HD
ATOM     68  O   UNL A   1      33.714  25.779  21.638  1.00  0.00    -0.269 OA
BRANCH  66  69
ATOM     69  C   UNL A   1      33.744  24.290  23.471  1.00  0.00     0.106 A 
ATOM     70  C   UNL A   1      34.965  24.341  24.031  1.00  0.00     0.036 A 
ATOM     71  C   UNL A   1      32.871  23.095  23.667  1.00  0.00     0.263 A 
ATOM     72  C   UNL A   1      35.420  23.281  24.895  1.00  0.00     0.035 A 
ATOM     73  N   UNL A   1      33.337  22.157  24.595  1.00  0.00    -0.309 N 
ATOM     74  O   UNL A   1      31.791  23.002  23.089  1.00  0.00    -0.268 OA
ATOM     75  Br  UNL A   1      37.112  23.430  25.659  1.00  0.00    -0.049 Br
ATOM     76  C   UNL A   1      34.594  22.264  25.176  1.00  0.00     0.105 A 
BRANCH  73  77
ATOM     77  C   UNL A   1      32.465  21.040  24.957  1.00  0.00     0.161 C 
BRANCH  77  78
ATOM     78  C   UNL A   1      32.836  19.746  24.274  1.00  0.00    -0.025 A 
ATOM     79  C   UNL A   1      32.167  19.328  23.111  1.00  0.00     0.006 A 
ATOM     80  C   UNL A   1      33.858  18.937  24.791  1.00  0.00     0.044 A 
ATOM     81  C   UNL A   1      32.506  18.128  22.482  1.00  0.00     0.003 A 
ATOM     82  C   UNL A   1      34.199  17.752  24.146  1.00  0.00     0.123 A 
ATOM     83  C   UNL A   1      33.531  17.339  22.999  1.00  0.00     0.039 A 
ATOM     84  F   UNL A   1      35.193  16.998  24.633  1.00  0.00    -0.207 F 
ENDBRANCH  77  78
ENDBRANCH  73  77
ENDBRANCH  66  69
ENDBRANCH  64  65
ENDBRANCH  63  64
ENDBRANCH   1  63
TORSDOF 13
ENDMDL
MODEL 2
REMARK VINA RESULT:     -12.0      2.511      7.284
REMARK SMILES O=C(NCCCCNC(=O)c1cc(Br)cn(Cc2cccc(F)c2)c1=O)c1ccc(-c2c3nc(c(-c4c(F)cccc4F)c4ccc([nH]4)c(-c4c(F)cccc4F)c4nc(c(-c5c(F)cccc5F)c5ccc2[nH]5)C=C4)C=C3)cc1
REMARK SMILES IDX 5 1 4 2 3 3 1 4 2 5 27 7 28 8 80 9 29 10 79 11 30 12 31 13
REMARK SMILES IDX 32 14 73 15 33 16 78 17 72 18 74 19 34 20 77 21 71 22 70 23
REMARK SMILES IDX 35 25 61 26 44 27 60 28 45 29 48 30 59 31 75 32 46 33 47 34
REMARK SMILES IDX 58 36 76 37 49 38 36 39 37 40 42 41 38 42 39 43 41 44 43 45
REMARK SMILES IDX 40 46 62 47 63 48 68 49 64 50 65 51 67 52 69 53 66 54 50 55
REMARK SMILES IDX 51 56 56 57 52 58 53 59 55 60 57 61 54 62 6 63 7 64 8 65
REMARK SMILES IDX 9 66 10 68 11 69 12 70 25 71 13 72 16 73 26 74 14 75 15 76
REMARK SMILES IDX 17 77 18 78 19 79 24 80 20 81 22 82 21 83 23 84
REMARK H PARENT 3 6 74 24 48 35 8 67
REMARK Flexibility Score: inf
ROOT
ATOM      1  C   UNL A   1      39.093  21.101  25.451  1.00  0.00     0.023 C 
ENDROOT
BRANCH   1   2
ATOM      2  C   UNL A   1      39.332  19.833  26.265  1.00  0.00     0.116 C 
BRANCH   2   3
ATOM      3  N   UNL A   1      40.569  19.160  25.904  1.00  0.00    -0.352 N 
ATOM      4  O   UNL A   1      42.748  18.947  25.396  1.00  0.00    -0.269 OA
ATOM      5  C   UNL A   1      41.855  19.636  25.885  1.00  0.00     0.251 C 
ATOM      6  H   UNL A   1      40.468  18.220  25.633  1.00  0.00     0.163 HD
BRANCH   5   7
ATOM      7  C   UNL A   1      42.181  20.972  26.435  1.00  0.00     0.039 A 
ATOM      8  C   UNL A   1      42.077  21.172  27.815  1.00  0.00     0.014 A 
ATOM      9  C   UNL A   1      42.526  22.040  25.602  1.00  0.00     0.014 A 
ATOM     10  C   UNL A   1      42.341  22.431  28.361  1.00  0.00     0.010 A 
ATOM     11  C   UNL A   1      42.864  23.273  26.153  1.00  0.00     0.010 A 
ATOM     12  C   UNL A   1      42.746  23.491  27.534  1.00  0.00    -0.014 A 
BRANCH  12  13
ATOM     13  C   UNL A   1      42.956  24.854  28.082  1.00  0.00     0.031 A 
ATOM     14  C   UNL A   1      44.342  25.285  28.483  1.00  0.00     0.074 A 
ATOM     15  C   UNL A   1      41.917  25.693  28.246  1.00  0.00     0.049 A 
ATOM     16  N   UNL A   1      44.735  26.401  29.044  1.00  0.00    -0.248 NA
ATOM     17  C   UNL A   1      45.428  24.321  28.241  1.00  0.00     0.031 C 
ATOM     18  C   UNL A   1      40.523  25.394  27.915  1.00  0.00     0.029 A 
ATOM     19  N   UNL A   1      41.874  26.973  28.740  1.00  0.00    -0.354 N 
ATOM     20  C   UNL A   1      46.104  26.263  29.237  1.00  0.00     0.074 A 
ATOM     21  C   UNL A   1      46.465  24.938  28.786  1.00  0.00     0.031 C 
ATOM     22  C   UNL A   1      39.766  26.470  28.191  1.00  0.00     0.029 A 
ATOM     23  C   UNL A   1      40.614  27.518  28.751  1.00  0.00     0.049 A 
ATOM     24  H   UNL A   1      42.673  27.455  29.056  1.00  0.00     0.167 HD
ATOM     25  C   UNL A   1      46.991  27.168  29.718  1.00  0.00     0.037 A 
ATOM     26  C   UNL A   1      40.193  28.727  29.171  1.00  0.00     0.037 A 
ATOM     27  C   UNL A   1      46.642  28.498  30.139  1.00  0.00     0.049 A 
ATOM     28  C   UNL A   1      41.192  29.703  29.730  1.00  0.00     0.074 A 
ATOM     29  C   UNL A   1      47.471  29.504  30.603  1.00  0.00     0.029 A 
ATOM     30  N   UNL A   1      45.352  29.008  30.143  1.00  0.00    -0.354 N 
ATOM     31  N   UNL A   1      42.489  29.575  29.870  1.00  0.00    -0.248 NA
ATOM     32  C   UNL A   1      40.664  30.996  30.190  1.00  0.00     0.031 C 
ATOM     33  C   UNL A   1      46.678  30.613  30.920  1.00  0.00     0.029 A 
ATOM     34  C   UNL A   1      45.361  30.310  30.616  1.00  0.00     0.049 A 
ATOM     35  H   UNL A   1      44.549  28.518  29.852  1.00  0.00     0.167 HD
ATOM     36  C   UNL A   1      42.934  30.775  30.407  1.00  0.00     0.074 A 
ATOM     37  C   UNL A   1      41.771  31.625  30.554  1.00  0.00     0.031 C 
ATOM     38  C   UNL A   1      44.194  31.142  30.751  1.00  0.00     0.037 A 
BRANCH  25  39
ATOM     39  C   UNL A   1      48.426  26.737  29.809  1.00  0.00     0.057 A 
ATOM     40  C   UNL A   1      48.895  26.037  30.927  1.00  0.00     0.134 A 
ATOM     41  C   UNL A   1      49.345  27.018  28.790  1.00  0.00     0.134 A 
ATOM     42  F   UNL A   1      48.069  25.741  31.942  1.00  0.00    -0.206 F 
ATOM     43  C   UNL A   1      50.225  25.627  31.025  1.00  0.00     0.040 A 
ATOM     44  C   UNL A   1      50.671  26.588  28.863  1.00  0.00     0.040 A 
ATOM     45  F   UNL A   1      48.955  27.671  27.684  1.00  0.00    -0.206 F 
ATOM     46  C   UNL A   1      51.115  25.894  29.986  1.00  0.00     0.006 A 
ENDBRANCH  25  39
BRANCH  26  47
ATOM     47  C   UNL A   1      38.760  29.098  29.068  1.00  0.00     0.057 A 
ATOM     48  C   UNL A   1      37.903  29.032  30.172  1.00  0.00     0.134 A 
ATOM     49  C   UNL A   1      38.222  29.560  27.860  1.00  0.00     0.134 A 
ATOM     50  F   UNL A   1      38.356  28.595  31.356  1.00  0.00    -0.206 F 
ATOM     51  C   UNL A   1      36.563  29.412  30.080  1.00  0.00     0.040 A 
ATOM     52  C   UNL A   1      36.891  29.965  27.759  1.00  0.00     0.040 A 
ATOM     53  F   UNL A   1      39.001  29.666  26.772  1.00  0.00    -0.206 F 
ATOM     54  C   UNL A   1      36.057  29.889  28.872  1.00  0.00     0.006 A 
ENDBRANCH  26  47
BRANCH  38  55
ATOM     55  C   UNL A   1      44.376  32.531  31.288  1.00  0.00     0.057 A 
ATOM     56  C   UNL A   1      44.291  32.780  32.664  1.00  0.00     0.134 A 
ATOM     57  C   UNL A   1      44.614  33.622  30.444  1.00  0.00     0.134 A 
ATOM     58  F   UNL A   1      44.058  31.779  33.524  1.00  0.00    -0.206 F 
ATOM     59  C   UNL A   1      44.436  34.068  33.181  1.00  0.00     0.040 A 
ATOM     60  C   UNL A   1      44.785  34.912  30.951  1.00  0.00     0.040 A 
ATOM     61  F   UNL A   1      44.720  33.447  29.118  1.00  0.00    -0.206 F 
ATOM     62  C   UNL A   1      44.691  35.137  32.324  1.00  0.00     0.006 A 
ENDBRANCH  38  55
ENDBRANCH  12  13
ENDBRANCH   5   7
ENDBRANCH   2   3
ENDBRANCH   1   2
BRANCH   1  63
ATOM     63  C   UNL A   1      38.905  22.377  26.269  1.00  0.00     0.023 C 
BRANCH  63  64
ATOM     64  C   UNL A   1      37.725  23.251  25.854  1.00  0.00     0.116 C 
BRANCH  64  65
ATOM     65  N   UNL A   1      37.521  23.276  24.415  1.00  0.00    -0.352 N 
ATOM     66  C   UNL A   1      36.365  23.092  23.709  1.00  0.00     0.256 C 
ATOM     67  H   UNL A   1      38.325  23.448  23.874  1.00  0.00     0.163 HD
ATOM     68  O   UNL A   1      36.389  23.102  22.479  1.00  0.00    -0.269 OA
BRANCH  66  69
ATOM     69  C   UNL A   1      35.132  22.757  24.449  1.00  0.00     0.106 A 
ATOM     70  C   UNL A   1      34.193  23.717  24.511  1.00  0.00     0.036 A 
ATOM     71  C   UNL A   1      34.867  21.401  25.015  1.00  0.00     0.263 A 
ATOM     72  C   UNL A   1      32.888  23.431  25.053  1.00  0.00     0.035 A 
ATOM     73  N   UNL A   1      33.551  21.171  25.429  1.00  0.00    -0.309 N 
ATOM     74  O   UNL A   1      35.748  20.546  25.039  1.00  0.00    -0.268 OA
ATOM     75  Br  UNL A   1      31.626  24.801  25.084  1.00  0.00    -0.049 Br
ATOM     76  C   UNL A   1      32.601  22.183  25.448  1.00  0.00     0.105 A 
BRANCH  73  77
ATOM     77  C   UNL A   1      33.177  19.820  25.846  1.00  0.00     0.161 C 
BRANCH  77  78
ATOM     78  C   UNL A   1      33.293  18.798  24.740  1.00  0.00    -0.025 A 
ATOM     79  C   UNL A   1      34.042  17.623  24.921  1.00  0.00     0.006 A 
ATOM     80  C   UNL A   1      32.653  19.006  23.511  1.00  0.00     0.044 A 
ATOM     81  C   UNL A   1      34.154  16.680  23.897  1.00  0.00     0.003 A 
ATOM     82  C   UNL A   1      32.757  18.052  22.503  1.00  0.00     0.123 A 
ATOM     83  C   UNL A   1      33.504  16.894  22.683  1.00  0.00     0.039 A 
ATOM     84  F   UNL A   1      32.122  18.249  21.340  1.00  0.00    -0.207 F 
ENDBRANCH  77  78
ENDBRANCH  73  77
ENDBRANCH  66  69
ENDBRANCH  64  65
ENDBRANCH  63  64
ENDBRANCH   1  63
TORSDOF 13
ENDMDL
MODEL 3
REMARK VINA RESULT:     -12.0      1.725      2.607
REMARK SMILES O=C(NCCCCNC(=O)c1cc(Br)cn(Cc2cccc(F)c2)c1=O)c1ccc(-c2c3nc(c(-c4c(F)cccc4F)c4ccc([nH]4)c(-c4c(F)cccc4F)c4nc(c(-c5c(F)cccc5F)c5ccc2[nH]5)C=C4)C=C3)cc1
REMARK SMILES IDX 5 1 4 2 3 3 1 4 2 5 27 7 28 8 80 9 29 10 79 11 30 12 31 13
REMARK SMILES IDX 32 14 73 15 33 16 78 17 72 18 74 19 34 20 77 21 71 22 70 23
REMARK SMILES IDX 35 25 61 26 44 27 60 28 45 29 48 30 59 31 75 32 46 33 47 34
REMARK SMILES IDX 58 36 76 37 49 38 36 39 37 40 42 41 38 42 39 43 41 44 43 45
REMARK SMILES IDX 40 46 62 47 63 48 68 49 64 50 65 51 67 52 69 53 66 54 50 55
REMARK SMILES IDX 51 56 56 57 52 58 53 59 55 60 57 61 54 62 6 63 7 64 8 65
REMARK SMILES IDX 9 66 10 68 11 69 12 70 25 71 13 72 16 73 26 74 14 75 15 76
REMARK SMILES IDX 17 77 18 78 19 79 24 80 20 81 22 82 21 83 23 84
REMARK H PARENT 3 6 74 24 48 35 8 67
REMARK Flexibility Score: inf
ROOT
ATOM      1  C   UNL A   1      32.330  27.773  27.259  1.00  0.00     0.023 C 
ENDROOT
BRANCH   1   2
ATOM      2  C   UNL A   1      33.652  28.514  27.092  1.00  0.00     0.116 C 
BRANCH   2   3
ATOM      3  N   UNL A   1      33.590  29.885  27.572  1.00  0.00    -0.352 N 
ATOM      4  O   UNL A   1      34.231  31.730  28.685  1.00  0.00    -0.269 OA
ATOM      5  C   UNL A   1      34.538  30.633  28.223  1.00  0.00     0.251 C 
ATOM      6  H   UNL A   1      32.738  30.348  27.403  1.00  0.00     0.163 HD
BRANCH   5   7
ATOM      7  C   UNL A   1      35.921  30.132  28.387  1.00  0.00     0.039 A 
ATOM      8  C   UNL A   1      36.298  29.595  29.622  1.00  0.00     0.014 A 
ATOM      9  C   UNL A   1      36.865  30.243  27.360  1.00  0.00     0.014 A 
ATOM     10  C   UNL A   1      37.608  29.149  29.820  1.00  0.00     0.010 A 
ATOM     11  C   UNL A   1      38.147  29.727  27.532  1.00  0.00     0.010 A 
ATOM     12  C   UNL A   1      38.541  29.203  28.773  1.00  0.00    -0.014 A 
BRANCH  12  13
ATOM     13  C   UNL A   1      39.955  28.807  28.985  1.00  0.00     0.031 A 
ATOM     14  C   UNL A   1      40.908  29.781  29.628  1.00  0.00     0.074 A 
ATOM     15  C   UNL A   1      40.396  27.601  28.583  1.00  0.00     0.049 A 
ATOM     16  N   UNL A   1      42.195  29.665  29.843  1.00  0.00    -0.248 NA
ATOM     17  C   UNL A   1      40.341  31.066  30.067  1.00  0.00     0.031 C 
ATOM     18  C   UNL A   1      39.582  26.573  27.933  1.00  0.00     0.029 A 
ATOM     19  N   UNL A   1      41.644  27.036  28.662  1.00  0.00    -0.354 N 
ATOM     20  C   UNL A   1      42.589  30.864  30.422  1.00  0.00     0.074 A 
ATOM     21  C   UNL A   1      41.421  31.714  30.474  1.00  0.00     0.031 C 
ATOM     22  C   UNL A   1      40.347  25.494  27.695  1.00  0.00     0.029 A 
ATOM     23  C   UNL A   1      41.709  25.767  28.143  1.00  0.00     0.049 A 
ATOM     24  H   UNL A   1      42.420  27.498  29.056  1.00  0.00     0.167 HD
ATOM     25  C   UNL A   1      43.807  31.220  30.897  1.00  0.00     0.037 A 
ATOM     26  C   UNL A   1      42.754  24.924  28.036  1.00  0.00     0.037 A 
ATOM     27  C   UNL A   1      44.965  30.367  30.875  1.00  0.00     0.049 A 
ATOM     28  C   UNL A   1      44.104  25.353  28.543  1.00  0.00     0.074 A 
ATOM     29  C   UNL A   1      46.233  30.617  31.368  1.00  0.00     0.029 A 
ATOM     30  N   UNL A   1      44.991  29.091  30.331  1.00  0.00    -0.354 N 
ATOM     31  N   UNL A   1      44.454  26.474  29.125  1.00  0.00    -0.248 NA
ATOM     32  C   UNL A   1      45.206  24.393  28.378  1.00  0.00     0.031 C 
ATOM     33  C   UNL A   1      47.037  29.506  31.091  1.00  0.00     0.029 A 
ATOM     34  C   UNL A   1      46.258  28.548  30.462  1.00  0.00     0.049 A 
ATOM     35  H   UNL A   1      44.223  28.639  29.914  1.00  0.00     0.167 HD
ATOM     36  C   UNL A   1      45.805  26.346  29.417  1.00  0.00     0.074 A 
ATOM     37  C   UNL A   1      46.209  25.031  28.963  1.00  0.00     0.031 C 
ATOM     38  C   UNL A   1      46.640  27.236  30.008  1.00  0.00     0.037 A 
BRANCH  25  39
ATOM     39  C   UNL A   1      43.938  32.596  31.482  1.00  0.00     0.057 A 
ATOM     40  C   UNL A   1      43.702  32.821  32.844  1.00  0.00     0.134 A 
ATOM     41  C   UNL A   1      44.294  33.700  30.696  1.00  0.00     0.134 A 
ATOM     42  F   UNL A   1      43.351  31.810  33.652  1.00  0.00    -0.206 F 
ATOM     43  C   UNL A   1      43.822  34.095  33.403  1.00  0.00     0.040 A 
ATOM     44  C   UNL A   1      44.445  34.972  31.250  1.00  0.00     0.040 A 
ATOM     45  F   UNL A   1      44.550  33.548  29.388  1.00  0.00    -0.206 F 
ATOM     46  C   UNL A   1      44.205  35.173  32.608  1.00  0.00     0.006 A 
ENDBRANCH  25  39
BRANCH  26  47
ATOM     47  C   UNL A   1      42.571  23.577  27.439  1.00  0.00     0.057 A 
ATOM     48  C   UNL A   1      42.274  22.459  28.227  1.00  0.00     0.134 A 
ATOM     49  C   UNL A   1      42.660  23.386  26.055  1.00  0.00     0.134 A 
ATOM     50  F   UNL A   1      42.178  22.576  29.560  1.00  0.00    -0.206 F 
ATOM     51  C   UNL A   1      42.071  21.200  27.661  1.00  0.00     0.040 A 
ATOM     52  C   UNL A   1      42.437  22.138  25.473  1.00  0.00     0.040 A 
ATOM     53  F   UNL A   1      42.921  24.424  25.246  1.00  0.00    -0.206 F 
ATOM     54  C   UNL A   1      42.143  21.039  26.279  1.00  0.00     0.006 A 
ENDBRANCH  26  47
BRANCH  38  55
ATOM     55  C   UNL A   1      48.060  26.802  30.222  1.00  0.00     0.057 A 
ATOM     56  C   UNL A   1      49.043  27.084  29.265  1.00  0.00     0.134 A 
ATOM     57  C   UNL A   1      48.448  26.086  31.361  1.00  0.00     0.134 A 
ATOM     58  F   UNL A   1      48.734  27.760  28.149  1.00  0.00    -0.206 F 
ATOM     59  C   UNL A   1      50.364  26.670  29.435  1.00  0.00     0.040 A 
ATOM     60  C   UNL A   1      49.772  25.687  31.554  1.00  0.00     0.040 A 
ATOM     61  F   UNL A   1      47.556  25.797  32.320  1.00  0.00    -0.206 F 
ATOM     62  C   UNL A   1      50.734  25.975  30.586  1.00  0.00     0.006 A 
ENDBRANCH  38  55
ENDBRANCH  12  13
ENDBRANCH   5   7
ENDBRANCH   2   3
ENDBRANCH   1   2
BRANCH   1  63
ATOM     63  C   UNL A   1      31.419  27.778  26.033  1.00  0.00     0.023 C 
BRANCH  63  64
ATOM     64  C   UNL A   1      31.207  26.420  25.371  1.00  0.00     0.116 C 
BRANCH  64  65
ATOM     65  N   UNL A   1      30.685  25.421  26.289  1.00  0.00    -0.352 N 
ATOM     66  C   UNL A   1      31.058  24.114  26.437  1.00  0.00     0.256 C 
ATOM     67  H   UNL A   1      29.963  25.726  26.884  1.00  0.00     0.163 HD
ATOM     68  O   UNL A   1      30.467  23.395  27.241  1.00  0.00    -0.269 OA
BRANCH  66  69
ATOM     69  C   UNL A   1      32.084  23.566  25.528  1.00  0.00     0.106 A 
ATOM     70  C   UNL A   1      31.654  22.699  24.594  1.00  0.00     0.036 A 
ATOM     71  C   UNL A   1      33.508  24.012  25.548  1.00  0.00     0.263 A 
ATOM     72  C   UNL A   1      32.539  22.248  23.550  1.00  0.00     0.035 A 
ATOM     73  N   UNL A   1      34.277  23.613  24.448  1.00  0.00    -0.309 N 
ATOM     74  O   UNL A   1      33.930  24.735  26.447  1.00  0.00    -0.268 OA
ATOM     75  Br  UNL A   1      31.870  21.068  22.273  1.00  0.00    -0.049 Br
ATOM     76  C   UNL A   1      33.784  22.741  23.487  1.00  0.00     0.105 A 
BRANCH  73  77
ATOM     77  C   UNL A   1      35.635  24.142  24.318  1.00  0.00     0.161 C 
BRANCH  77  78
ATOM     78  C   UNL A   1      36.695  23.202  24.839  1.00  0.00    -0.025 A 
ATOM     79  C   UNL A   1      37.700  23.660  25.708  1.00  0.00     0.006 A 
ATOM     80  C   UNL A   1      36.694  21.851  24.464  1.00  0.00     0.044 A 
ATOM     81  C   UNL A   1      38.684  22.792  26.187  1.00  0.00     0.003 A 
ATOM     82  C   UNL A   1      37.669  20.991  24.961  1.00  0.00     0.123 A 
ATOM     83  C   UNL A   1      38.665  21.450  25.815  1.00  0.00     0.039 A 
ATOM     84  F   UNL A   1      37.645  19.697  24.616  1.00  0.00    -0.207 F 
ENDBRANCH  77  78
ENDBRANCH  73  77
ENDBRANCH  66  69
ENDBRANCH  64  65
ENDBRANCH  63  64
ENDBRANCH   1  63
TORSDOF 13
ENDMDL
