MODEL 1
REMARK VINA RESULT:      -8.6      0.000      0.000
REMARK SMILES C=CCN(CC(=O)NCCCCNC(=O)c1ccc(-c2c3nc(c(-c4c(F)cccc4F)c4ccc([nH]4)c(-c4c(F)cccc4F)c4nc(c(-c5c(F)cccc5F)c5ccc2[nH]5)C=C4)C=C3)cc1)C(=O)C[NH3+]
REMARK SMILES IDX 9 1 8 2 6 3 7 4 5 6 4 7 3 8 2 9 1 10 70 11 71 12 72 13 73 14
REMARK SMILES IDX 10 18 11 19 12 20 13 21 14 22 15 24 16 25 17 26 69 27 18 28
REMARK SMILES IDX 68 29 19 30 20 31 21 32 62 33 22 34 67 35 61 36 63 37 23 38
REMARK SMILES IDX 66 39 60 40 59 41 24 43 50 44 33 45 49 46 34 47 37 48 48 49
REMARK SMILES IDX 64 50 35 51 36 52 47 54 65 55 38 56 25 57 26 58 31 59 27 60
REMARK SMILES IDX 28 61 30 62 32 63 29 64 51 65 52 66 57 67 53 68 54 69 56 70
REMARK SMILES IDX 58 71 55 72 39 73 40 74 45 75 41 76 42 77 44 78 46 79 43 80
REMARK H PARENT 8 5 73 15 73 16 73 17 13 23 63 42 37 53
REMARK Flexibility Score: inf
ROOT
ATOM      1  C   UNL A   1      34.969  34.888  33.373  1.00  0.00     0.116 C 
ENDROOT
BRANCH   1   2
ATOM      2  N   UNL A   1      35.069  34.387  34.725  1.00  0.00    -0.355 N 
ATOM      3  C   UNL A   1      36.133  33.818  35.362  1.00  0.00     0.239 C 
ATOM      4  O   UNL A   1      36.035  33.659  36.582  1.00  0.00    -0.273 OA
ATOM      5  H   UNL A   1      34.250  34.467  35.264  1.00  0.00     0.163 HD
BRANCH   3   6
ATOM      6  C   UNL A   1      37.442  33.489  34.617  1.00  0.00     0.220 C 
BRANCH   6   7
ATOM      7  N   UNL A   1      37.764  32.057  34.525  1.00  0.00    -0.325 N 
BRANCH   7   8
ATOM      8  C   UNL A   1      37.105  31.263  33.494  1.00  0.00     0.147 C 
BRANCH   8   9
ATOM      9  C   UNL A   1      37.958  30.107  33.071  1.00  0.00    -0.014 C 
ATOM     10  C   UNL A   1      37.467  29.033  32.433  1.00  0.00     0.006 C 
ENDBRANCH   8   9
ENDBRANCH   7   8
BRANCH   7  11
ATOM     11  C   UNL A   1      38.682  31.425  35.365  1.00  0.00     0.278 C 
ATOM     12  O   UNL A   1      39.894  31.429  35.124  1.00  0.00    -0.268 OA
BRANCH  11  13
ATOM     13  C   UNL A   1      38.171  30.657  36.594  1.00  0.00     0.360 C 
BRANCH  13  14
ATOM     14  N   UNL A   1      37.911  31.556  37.725  1.00  0.00    -0.350 N 
ATOM     15  H   UNL A   1      38.671  32.232  37.804  1.00  0.00     0.344 HD
ATOM     16  H   UNL A   1      37.849  31.011  38.586  1.00  0.00     0.344 HD
ATOM     17  H   UNL A   1      37.031  32.050  37.572  1.00  0.00     0.344 HD
ENDBRANCH  13  14
ENDBRANCH  11  13
ENDBRANCH   7  11
ENDBRANCH   6   7
ENDBRANCH   3   6
ENDBRANCH   1   2
BRANCH   1  18
ATOM     18  C   UNL A   1      34.080  36.125  33.269  1.00  0.00     0.023 C 
BRANCH  18  19
ATOM     19  C   UNL A   1      33.035  36.076  32.154  1.00  0.00     0.023 C 
BRANCH  19  20
ATOM     20  C   UNL A   1      33.557  36.375  30.755  1.00  0.00     0.116 C 
BRANCH  20  21
ATOM     21  N   UNL A   1      32.766  35.764  29.698  1.00  0.00    -0.352 N 
ATOM     22  C   UNL A   1      33.080  34.689  28.901  1.00  0.00     0.251 C 
ATOM     23  H   UNL A   1      31.887  36.175  29.532  1.00  0.00     0.163 HD
ATOM     24  O   UNL A   1      32.337  34.365  27.979  1.00  0.00    -0.269 OA
BRANCH  22  25
ATOM     25  C   UNL A   1      34.338  33.950  29.133  1.00  0.00     0.039 A 
ATOM     26  C   UNL A   1      35.431  34.205  28.302  1.00  0.00     0.014 A 
ATOM     27  C   UNL A   1      34.449  33.031  30.181  1.00  0.00     0.014 A 
ATOM     28  C   UNL A   1      36.659  33.592  28.565  1.00  0.00     0.010 A 
ATOM     29  C   UNL A   1      35.690  32.476  30.484  1.00  0.00     0.010 A 
ATOM     30  C   UNL A   1      36.808  32.752  29.682  1.00  0.00    -0.014 A 
BRANCH  30  31
ATOM     31  C   UNL A   1      38.123  32.155  30.026  1.00  0.00     0.031 A 
ATOM     32  C   UNL A   1      39.099  32.920  30.878  1.00  0.00     0.074 A 
ATOM     33  C   UNL A   1      38.461  30.950  29.527  1.00  0.00     0.049 A 
ATOM     34  N   UNL A   1      40.322  32.604  31.220  1.00  0.00    -0.248 NA
ATOM     35  C   UNL A   1      38.650  34.224  31.393  1.00  0.00     0.031 C 
ATOM     36  C   UNL A   1      37.620  30.123  28.659  1.00  0.00     0.029 A 
ATOM     37  N   UNL A   1      39.610  30.213  29.672  1.00  0.00    -0.354 N 
ATOM     38  C   UNL A   1      40.786  33.665  31.986  1.00  0.00     0.074 A 
ATOM     39  C   UNL A   1      39.739  34.662  32.008  1.00  0.00     0.031 C 
ATOM     40  C   UNL A   1      38.271  28.985  28.369  1.00  0.00     0.029 A 
ATOM     41  C   UNL A   1      39.588  29.017  28.995  1.00  0.00     0.049 A 
ATOM     42  H   UNL A   1      40.378  30.512  30.211  1.00  0.00     0.167 HD
ATOM     43  C   UNL A   1      41.968  33.787  32.636  1.00  0.00     0.037 A 
ATOM     44  C   UNL A   1      40.530  28.060  28.885  1.00  0.00     0.037 A 
ATOM     45  C   UNL A   1      43.004  32.789  32.630  1.00  0.00     0.049 A 
ATOM     46  C   UNL A   1      41.845  28.237  29.594  1.00  0.00     0.074 A 
ATOM     47  C   UNL A   1      44.226  32.812  33.280  1.00  0.00     0.029 A 
ATOM     48  N   UNL A   1      42.938  31.588  31.943  1.00  0.00    -0.354 N 
ATOM     49  N   UNL A   1      42.250  29.225  30.354  1.00  0.00    -0.248 NA
ATOM     50  C   UNL A   1      42.835  27.162  29.431  1.00  0.00     0.031 C 
ATOM     51  C   UNL A   1      44.914  31.637  32.958  1.00  0.00     0.029 A 
ATOM     52  C   UNL A   1      44.101  30.864  32.145  1.00  0.00     0.049 A 
ATOM     53  H   UNL A   1      42.177  31.292  31.394  1.00  0.00     0.167 HD
ATOM     54  C   UNL A   1      43.520  28.873  30.791  1.00  0.00     0.074 A 
ATOM     55  C   UNL A   1      43.815  27.576  30.221  1.00  0.00     0.031 C 
ATOM     56  C   UNL A   1      44.368  29.562  31.592  1.00  0.00     0.037 A 
BRANCH  43  57
ATOM     57  C   UNL A   1      42.196  35.040  33.431  1.00  0.00     0.057 A 
ATOM     58  C   UNL A   1      41.741  35.164  34.751  1.00  0.00     0.134 A 
ATOM     59  C   UNL A   1      42.923  36.111  32.895  1.00  0.00     0.134 A 
ATOM     60  F   UNL A   1      41.028  34.180  35.318  1.00  0.00    -0.206 F 
ATOM     61  C   UNL A   1      41.987  36.313  35.503  1.00  0.00     0.040 A 
ATOM     62  C   UNL A   1      43.198  37.254  33.646  1.00  0.00     0.040 A 
ATOM     63  F   UNL A   1      43.393  36.055  31.639  1.00  0.00    -0.206 F 
ATOM     64  C   UNL A   1      42.725  37.359  34.954  1.00  0.00     0.006 A 
ENDBRANCH  43  57
BRANCH  44  65
ATOM     65  C   UNL A   1      40.270  26.834  28.085  1.00  0.00     0.057 A 
ATOM     66  C   UNL A   1      40.779  26.698  26.788  1.00  0.00     0.134 A 
ATOM     67  C   UNL A   1      39.470  25.795  28.575  1.00  0.00     0.134 A 
ATOM     68  F   UNL A   1      41.535  27.669  26.255  1.00  0.00    -0.206 F 
ATOM     69  C   UNL A   1      40.473  25.593  25.993  1.00  0.00     0.040 A 
ATOM     70  C   UNL A   1      39.179  24.669  27.802  1.00  0.00     0.040 A 
ATOM     71  F   UNL A   1      38.958  25.860  29.813  1.00  0.00    -0.206 F 
ATOM     72  C   UNL A   1      39.672  24.573  26.501  1.00  0.00     0.006 A 
ENDBRANCH  44  65
BRANCH  56  73
ATOM     73  C   UNL A   1      45.670  28.904  31.943  1.00  0.00     0.057 A 
ATOM     74  C   UNL A   1      46.834  29.108  31.191  1.00  0.00     0.134 A 
ATOM     75  C   UNL A   1      45.765  28.079  33.072  1.00  0.00     0.134 A 
ATOM     76  F   UNL A   1      46.805  29.876  30.092  1.00  0.00    -0.206 F 
ATOM     77  C   UNL A   1      48.040  28.495  31.535  1.00  0.00     0.040 A 
ATOM     78  C   UNL A   1      46.971  27.483  33.442  1.00  0.00     0.040 A 
ATOM     79  F   UNL A   1      44.690  27.849  33.841  1.00  0.00    -0.206 F 
ATOM     80  C   UNL A   1      48.112  27.686  32.667  1.00  0.00     0.006 A 
ENDBRANCH  56  73
ENDBRANCH  30  31
ENDBRANCH  22  25
ENDBRANCH  20  21
ENDBRANCH  19  20
ENDBRANCH  18  19
ENDBRANCH   1  18
TORSDOF 17
ENDMDL
MODEL 2
REMARK VINA RESULT:      -8.4      0.465      6.580
REMARK SMILES C=CCN(CC(=O)NCCCCNC(=O)c1ccc(-c2c3nc(c(-c4c(F)cccc4F)c4ccc([nH]4)c(-c4c(F)cccc4F)c4nc(c(-c5c(F)cccc5F)c5ccc2[nH]5)C=C4)C=C3)cc1)C(=O)C[NH3+]
REMARK SMILES IDX 9 1 8 2 6 3 7 4 5 6 4 7 3 8 2 9 1 10 70 11 71 12 72 13 73 14
REMARK SMILES IDX 10 18 11 19 12 20 13 21 14 22 15 24 16 25 17 26 69 27 18 28
REMARK SMILES IDX 68 29 19 30 20 31 21 32 62 33 22 34 67 35 61 36 63 37 23 38
REMARK SMILES IDX 66 39 60 40 59 41 24 43 50 44 33 45 49 46 34 47 37 48 48 49
REMARK SMILES IDX 64 50 35 51 36 52 47 54 65 55 38 56 25 57 26 58 31 59 27 60
REMARK SMILES IDX 28 61 30 62 32 63 29 64 51 65 52 66 57 67 53 68 54 69 56 70
REMARK SMILES IDX 58 71 55 72 39 73 40 74 45 75 41 76 42 77 44 78 46 79 43 80
REMARK H PARENT 8 5 73 15 73 16 73 17 13 23 63 42 37 53
REMARK Flexibility Score: inf
ROOT
ATOM      1  C   UNL A   1      35.400  34.763  33.270  1.00  0.00     0.116 C 
ENDROOT
BRANCH   1   2
ATOM      2  N   UNL A   1      35.462  34.152  34.578  1.00  0.00    -0.355 N 
ATOM      3  C   UNL A   1      36.525  33.589  35.222  1.00  0.00     0.239 C 
ATOM      4  O   UNL A   1      36.376  33.319  36.417  1.00  0.00    -0.273 OA
ATOM      5  H   UNL A   1      34.614  34.141  35.077  1.00  0.00     0.163 HD
BRANCH   3   6
ATOM      6  C   UNL A   1      37.886  33.397  34.524  1.00  0.00     0.220 C 
BRANCH   6   7
ATOM      7  N   UNL A   1      38.238  32.003  34.216  1.00  0.00    -0.325 N 
BRANCH   7   8
ATOM      8  C   UNL A   1      37.364  31.249  33.323  1.00  0.00     0.147 C 
BRANCH   8   9
ATOM      9  C   UNL A   1      38.035  30.002  32.833  1.00  0.00    -0.014 C 
ATOM     10  C   UNL A   1      37.363  28.986  32.271  1.00  0.00     0.006 C 
ENDBRANCH   8   9
ENDBRANCH   7   8
BRANCH   7  11
ATOM     11  C   UNL A   1      39.375  31.371  34.722  1.00  0.00     0.278 C 
ATOM     12  O   UNL A   1      40.374  31.173  34.022  1.00  0.00    -0.268 OA
BRANCH  11  13
ATOM     13  C   UNL A   1      39.368  30.860  36.171  1.00  0.00     0.360 C 
BRANCH  13  14
ATOM     14  N   UNL A   1      38.030  30.417  36.582  1.00  0.00    -0.350 N 
ATOM     15  H   UNL A   1      37.678  29.732  35.913  1.00  0.00     0.344 HD
ATOM     16  H   UNL A   1      37.400  31.220  36.611  1.00  0.00     0.344 HD
ATOM     17  H   UNL A   1      38.082  29.993  37.509  1.00  0.00     0.344 HD
ENDBRANCH  13  14
ENDBRANCH  11  13
ENDBRANCH   7  11
ENDBRANCH   6   7
ENDBRANCH   3   6
ENDBRANCH   1   2
BRANCH   1  18
ATOM     18  C   UNL A   1      34.336  35.854  33.181  1.00  0.00     0.023 C 
BRANCH  18  19
ATOM     19  C   UNL A   1      33.245  35.607  32.138  1.00  0.00     0.023 C 
BRANCH  19  20
ATOM     20  C   UNL A   1      33.544  36.134  30.741  1.00  0.00     0.116 C 
BRANCH  20  21
ATOM     21  N   UNL A   1      32.772  35.479  29.696  1.00  0.00    -0.352 N 
ATOM     22  C   UNL A   1      33.138  34.431  28.886  1.00  0.00     0.251 C 
ATOM     23  H   UNL A   1      31.865  35.834  29.551  1.00  0.00     0.163 HD
ATOM     24  O   UNL A   1      32.399  34.064  27.978  1.00  0.00    -0.269 OA
BRANCH  22  25
ATOM     25  C   UNL A   1      34.446  33.773  29.087  1.00  0.00     0.039 A 
ATOM     26  C   UNL A   1      35.503  34.105  28.238  1.00  0.00     0.014 A 
ATOM     27  C   UNL A   1      34.636  32.855  30.124  1.00  0.00     0.014 A 
ATOM     28  C   UNL A   1      36.773  33.571  28.472  1.00  0.00     0.010 A 
ATOM     29  C   UNL A   1      35.916  32.379  30.399  1.00  0.00     0.010 A 
ATOM     30  C   UNL A   1      36.998  32.734  29.578  1.00  0.00    -0.014 A 
BRANCH  30  31
ATOM     31  C   UNL A   1      38.355  32.221  29.891  1.00  0.00     0.031 A 
ATOM     32  C   UNL A   1      38.781  30.864  29.401  1.00  0.00     0.074 A 
ATOM     33  C   UNL A   1      39.185  32.951  30.663  1.00  0.00     0.049 A 
ATOM     34  N   UNL A   1      39.891  30.210  29.636  1.00  0.00    -0.248 NA
ATOM     35  C   UNL A   1      37.823  30.134  28.555  1.00  0.00     0.031 C 
ATOM     36  C   UNL A   1      38.878  34.265  31.232  1.00  0.00     0.029 A 
ATOM     37  N   UNL A   1      40.455  32.686  31.110  1.00  0.00    -0.354 N 
ATOM     38  C   UNL A   1      39.763  28.998  28.971  1.00  0.00     0.074 A 
ATOM     39  C   UNL A   1      38.446  28.978  28.374  1.00  0.00     0.031 C 
ATOM     40  C   UNL A   1      39.939  34.701  31.931  1.00  0.00     0.029 A 
ATOM     41  C   UNL A   1      40.983  33.683  31.895  1.00  0.00     0.049 A 
ATOM     42  H   UNL A   1      40.942  31.859  30.889  1.00  0.00     0.167 HD
ATOM     43  C   UNL A   1      40.672  28.002  28.844  1.00  0.00     0.037 A 
ATOM     44  C   UNL A   1      42.173  33.761  32.522  1.00  0.00     0.037 A 
ATOM     45  C   UNL A   1      41.989  28.027  29.422  1.00  0.00     0.049 A 
ATOM     46  C   UNL A   1      43.151  32.624  32.389  1.00  0.00     0.074 A 
ATOM     47  C   UNL A   1      42.990  27.076  29.327  1.00  0.00     0.029 A 
ATOM     48  N   UNL A   1      42.490  29.060  30.199  1.00  0.00    -0.354 N 
ATOM     49  N   UNL A   1      43.034  31.506  31.715  1.00  0.00    -0.248 NA
ATOM     50  C   UNL A   1      44.429  32.764  33.101  1.00  0.00     0.031 C 
ATOM     51  C   UNL A   1      44.086  27.518  30.076  1.00  0.00     0.029 A 
ATOM     52  C   UNL A   1      43.783  28.765  30.598  1.00  0.00     0.049 A 
ATOM     53  H   UNL A   1      42.000  29.881  30.431  1.00  0.00     0.167 HD
ATOM     54  C   UNL A   1      44.235  30.830  31.889  1.00  0.00     0.074 A 
ATOM     55  C   UNL A   1      45.070  31.669  32.721  1.00  0.00     0.031 C 
ATOM     56  C   UNL A   1      44.612  29.622  31.405  1.00  0.00     0.037 A 
BRANCH  43  57
ATOM     57  C   UNL A   1      40.279  26.805  28.028  1.00  0.00     0.057 A 
ATOM     58  C   UNL A   1      40.768  26.613  26.728  1.00  0.00     0.134 A 
ATOM     59  C   UNL A   1      39.453  25.808  28.562  1.00  0.00     0.134 A 
ATOM     60  F   UNL A   1      41.553  27.535  26.154  1.00  0.00    -0.206 F 
ATOM     61  C   UNL A   1      40.434  25.480  25.984  1.00  0.00     0.040 A 
ATOM     62  C   UNL A   1      39.134  24.659  27.837  1.00  0.00     0.040 A 
ATOM     63  F   UNL A   1      38.956  25.927  29.803  1.00  0.00    -0.206 F 
ATOM     64  C   UNL A   1      39.622  24.495  26.541  1.00  0.00     0.006 A 
ENDBRANCH  43  57
BRANCH  44  65
ATOM     65  C   UNL A   1      42.526  34.960  33.326  1.00  0.00     0.057 A 
ATOM     66  C   UNL A   1      42.156  35.060  34.673  1.00  0.00     0.134 A 
ATOM     67  C   UNL A   1      43.192  36.053  32.758  1.00  0.00     0.134 A 
ATOM     68  F   UNL A   1      41.497  34.054  35.268  1.00  0.00    -0.206 F 
ATOM     69  C   UNL A   1      42.404  36.214  35.417  1.00  0.00     0.040 A 
ATOM     70  C   UNL A   1      43.472  37.203  33.499  1.00  0.00     0.040 A 
ATOM     71  F   UNL A   1      43.579  36.019  31.475  1.00  0.00    -0.206 F 
ATOM     72  C   UNL A   1      43.066  37.290  34.830  1.00  0.00     0.006 A 
ENDBRANCH  44  65
BRANCH  56  73
ATOM     73  C   UNL A   1      46.005  29.161  31.716  1.00  0.00     0.057 A 
ATOM     74  C   UNL A   1      47.092  29.464  30.886  1.00  0.00     0.134 A 
ATOM     75  C   UNL A   1      46.266  28.432  32.883  1.00  0.00     0.134 A 
ATOM     76  F   UNL A   1      46.906  30.148  29.747  1.00  0.00    -0.206 F 
ATOM     77  C   UNL A   1      48.384  29.036  31.193  1.00  0.00     0.040 A 
ATOM     78  C   UNL A   1      47.557  28.022  33.215  1.00  0.00     0.040 A 
ATOM     79  F   UNL A   1      45.271  28.116  33.727  1.00  0.00    -0.206 F 
ATOM     80  C   UNL A   1      48.620  28.318  32.364  1.00  0.00     0.006 A 
ENDBRANCH  56  73
ENDBRANCH  30  31
ENDBRANCH  22  25
ENDBRANCH  20  21
ENDBRANCH  19  20
ENDBRANCH  18  19
ENDBRANCH   1  18
TORSDOF 17
ENDMDL
MODEL 3
REMARK VINA RESULT:      -8.2      0.795      2.112
REMARK SMILES C=CCN(CC(=O)NCCCCNC(=O)c1ccc(-c2c3nc(c(-c4c(F)cccc4F)c4ccc([nH]4)c(-c4c(F)cccc4F)c4nc(c(-c5c(F)cccc5F)c5ccc2[nH]5)C=C4)C=C3)cc1)C(=O)C[NH3+]
REMARK SMILES IDX 9 1 8 2 6 3 7 4 5 6 4 7 3 8 2 9 1 10 70 11 71 12 72 13 73 14
REMARK SMILES IDX 10 18 11 19 12 20 13 21 14 22 15 24 16 25 17 26 69 27 18 28
REMARK SMILES IDX 68 29 19 30 20 31 21 32 62 33 22 34 67 35 61 36 63 37 23 38
REMARK SMILES IDX 66 39 60 40 59 41 24 43 50 44 33 45 49 46 34 47 37 48 48 49
REMARK SMILES IDX 64 50 35 51 36 52 47 54 65 55 38 56 25 57 26 58 31 59 27 60
REMARK SMILES IDX 28 61 30 62 32 63 29 64 51 65 52 66 57 67 53 68 54 69 56 70
REMARK SMILES IDX 58 71 55 72 39 73 40 74 45 75 41 76 42 77 44 78 46 79 43 80
REMARK H PARENT 8 5 73 15 73 16 73 17 13 23 63 42 37 53
REMARK Flexibility Score: inf
ROOT
ATOM      1  C   UNL A   1      34.949  35.163  33.264  1.00  0.00     0.116 C 
ENDROOT
BRANCH   1   2
ATOM      2  N   UNL A   1      34.881  34.584  34.586  1.00  0.00    -0.355 N 
ATOM      3  C   UNL A   1      35.832  33.895  35.281  1.00  0.00     0.239 C 
ATOM      4  O   UNL A   1      35.607  33.680  36.475  1.00  0.00    -0.273 OA
ATOM      5  H   UNL A   1      34.023  34.704  35.054  1.00  0.00     0.163 HD
BRANCH   3   6
ATOM      6  C   UNL A   1      37.176  33.498  34.638  1.00  0.00     0.220 C 
BRANCH   6   7
ATOM      7  N   UNL A   1      38.024  32.621  35.459  1.00  0.00    -0.325 N 
BRANCH   7   8
ATOM      8  C   UNL A   1      38.688  33.193  36.626  1.00  0.00     0.147 C 
BRANCH   8   9
ATOM      9  C   UNL A   1      39.179  34.580  36.346  1.00  0.00    -0.014 C 
ATOM     10  C   UNL A   1      39.640  35.397  37.305  1.00  0.00     0.006 C 
ENDBRANCH   8   9
ENDBRANCH   7   8
BRANCH   7  11
ATOM     11  C   UNL A   1      38.211  31.265  35.187  1.00  0.00     0.278 C 
ATOM     12  O   UNL A   1      38.326  30.429  36.090  1.00  0.00    -0.268 OA
BRANCH  11  13
ATOM     13  C   UNL A   1      38.333  30.803  33.726  1.00  0.00     0.360 C 
BRANCH  13  14
ATOM     14  N   UNL A   1      37.119  30.108  33.276  1.00  0.00    -0.350 N 
ATOM     15  H   UNL A   1      36.298  30.586  33.644  1.00  0.00     0.344 HD
ATOM     16  H   UNL A   1      37.133  29.145  33.615  1.00  0.00     0.344 HD
ATOM     17  H   UNL A   1      37.086  30.109  32.256  1.00  0.00     0.344 HD
ENDBRANCH  13  14
ENDBRANCH  11  13
ENDBRANCH   7  11
ENDBRANCH   6   7
ENDBRANCH   3   6
ENDBRANCH   1   2
BRANCH   1  18
ATOM     18  C   UNL A   1      34.033  36.374  33.105  1.00  0.00     0.023 C 
BRANCH  18  19
ATOM     19  C   UNL A   1      32.941  36.221  32.045  1.00  0.00     0.023 C 
BRANCH  19  20
ATOM     20  C   UNL A   1      33.375  36.508  30.613  1.00  0.00     0.116 C 
BRANCH  20  21
ATOM     21  N   UNL A   1      32.736  35.647  29.630  1.00  0.00    -0.352 N 
ATOM     22  C   UNL A   1      33.240  34.529  29.009  1.00  0.00     0.251 C 
ATOM     23  H   UNL A   1      31.819  35.899  29.376  1.00  0.00     0.163 HD
ATOM     24  O   UNL A   1      32.601  33.975  28.120  1.00  0.00    -0.269 OA
BRANCH  22  25
ATOM     25  C   UNL A   1      34.574  34.021  29.389  1.00  0.00     0.039 A 
ATOM     26  C   UNL A   1      34.675  33.136  30.465  1.00  0.00     0.014 A 
ATOM     27  C   UNL A   1      35.715  34.391  28.671  1.00  0.00     0.014 A 
ATOM     28  C   UNL A   1      35.912  32.567  30.778  1.00  0.00     0.010 A 
ATOM     29  C   UNL A   1      36.932  33.769  28.938  1.00  0.00     0.010 A 
ATOM     30  C   UNL A   1      37.043  32.848  29.992  1.00  0.00    -0.014 A 
BRANCH  30  31
ATOM     31  C   UNL A   1      38.347  32.191  30.257  1.00  0.00     0.031 A 
ATOM     32  C   UNL A   1      39.385  32.885  31.095  1.00  0.00     0.074 A 
ATOM     33  C   UNL A   1      38.619  30.994  29.699  1.00  0.00     0.049 A 
ATOM     34  N   UNL A   1      40.609  32.512  31.373  1.00  0.00    -0.248 NA
ATOM     35  C   UNL A   1      39.007  34.183  31.679  1.00  0.00     0.031 C 
ATOM     36  C   UNL A   1      37.712  30.234  28.837  1.00  0.00     0.029 A 
ATOM     37  N   UNL A   1      39.744  30.211  29.767  1.00  0.00    -0.354 N 
ATOM     38  C   UNL A   1      41.144  33.524  32.159  1.00  0.00     0.074 A 
ATOM     39  C   UNL A   1      40.136  34.557  32.264  1.00  0.00     0.031 C 
ATOM     40  C   UNL A   1      38.307  29.085  28.476  1.00  0.00     0.029 A 
ATOM     41  C   UNL A   1      39.649  29.044  29.046  1.00  0.00     0.049 A 
ATOM     42  H   UNL A   1      40.544  30.461  30.284  1.00  0.00     0.167 HD
ATOM     43  C   UNL A   1      42.355  33.578  32.763  1.00  0.00     0.037 A 
ATOM     44  C   UNL A   1      40.548  28.059  28.860  1.00  0.00     0.037 A 
ATOM     45  C   UNL A   1      43.351  32.543  32.675  1.00  0.00     0.049 A 
ATOM     46  C   UNL A   1      41.898  28.161  29.519  1.00  0.00     0.074 A 
ATOM     47  C   UNL A   1      44.599  32.496  33.273  1.00  0.00     0.029 A 
ATOM     48  N   UNL A   1      43.212  31.373  31.946  1.00  0.00    -0.354 N 
ATOM     49  N   UNL A   1      42.370  29.102  30.299  1.00  0.00    -0.248 NA
ATOM     50  C   UNL A   1      42.839  27.058  29.274  1.00  0.00     0.031 C 
ATOM     51  C   UNL A   1      45.228  31.311  32.878  1.00  0.00     0.029 A 
ATOM     52  C   UNL A   1      44.354  30.600  32.071  1.00  0.00     0.049 A 
ATOM     53  H   UNL A   1      42.418  31.127  31.418  1.00  0.00     0.167 HD
ATOM     54  C   UNL A   1      43.643  28.687  30.668  1.00  0.00     0.074 A 
ATOM     55  C   UNL A   1      43.865  27.404  30.037  1.00  0.00     0.031 C 
ATOM     56  C   UNL A   1      44.549  29.313  31.458  1.00  0.00     0.037 A 
BRANCH  43  57
ATOM     57  C   UNL A   1      42.662  34.789  33.594  1.00  0.00     0.057 A 
ATOM     58  C   UNL A   1      42.585  34.756  34.993  1.00  0.00     0.134 A 
ATOM     59  C   UNL A   1      43.092  35.982  32.998  1.00  0.00     0.134 A 
ATOM     60  F   UNL A   1      42.168  33.649  35.624  1.00  0.00    -0.206 F 
ATOM     61  C   UNL A   1      42.909  35.871  35.768  1.00  0.00     0.040 A 
ATOM     62  C   UNL A   1      43.444  37.094  33.764  1.00  0.00     0.040 A 
ATOM     63  F   UNL A   1      43.194  36.079  31.664  1.00  0.00    -0.206 F 
ATOM     64  C   UNL A   1      43.349  37.042  35.154  1.00  0.00     0.006 A 
ENDBRANCH  43  57
BRANCH  44  65
ATOM     65  C   UNL A   1      40.210  26.876  28.026  1.00  0.00     0.057 A 
ATOM     66  C   UNL A   1      39.442  25.825  28.543  1.00  0.00     0.134 A 
ATOM     67  C   UNL A   1      40.687  26.742  26.717  1.00  0.00     0.134 A 
ATOM     68  F   UNL A   1      38.974  25.886  29.798  1.00  0.00    -0.206 F 
ATOM     69  C   UNL A   1      39.189  24.670  27.802  1.00  0.00     0.040 A 
ATOM     70  C   UNL A   1      40.418  25.604  25.954  1.00  0.00     0.040 A 
ATOM     71  F   UNL A   1      41.423  27.715  26.161  1.00  0.00    -0.206 F 
ATOM     72  C   UNL A   1      39.677  24.558  26.502  1.00  0.00     0.006 A 
ENDBRANCH  44  65
BRANCH  56  73
ATOM     73  C   UNL A   1      45.838  28.594  31.728  1.00  0.00     0.057 A 
ATOM     74  C   UNL A   1      45.983  27.705  32.800  1.00  0.00     0.134 A 
ATOM     75  C   UNL A   1      46.940  28.771  30.881  1.00  0.00     0.134 A 
ATOM     76  F   UNL A   1      44.970  27.502  33.656  1.00  0.00    -0.206 F 
ATOM     77  C   UNL A   1      47.186  27.037  33.035  1.00  0.00     0.040 A 
ATOM     78  C   UNL A   1      48.138  28.089  31.088  1.00  0.00     0.040 A 
ATOM     79  F   UNL A   1      46.864  29.602  29.830  1.00  0.00    -0.206 F 
ATOM     80  C   UNL A   1      48.265  27.223  32.172  1.00  0.00     0.006 A 
ENDBRANCH  56  73
ENDBRANCH  30  31
ENDBRANCH  22  25
ENDBRANCH  20  21
ENDBRANCH  19  20
ENDBRANCH  18  19
ENDBRANCH   1  18
TORSDOF 17
ENDMDL
