MODEL 1
REMARK VINA RESULT:     -11.7      0.000      0.000
REMARK SMILES CCC[C@@H]1C[N@@H+](Cc2cc(OC)c3c(c2)OCO3)C[C@H]1C(=O)NCCCCNC(=O)c1ccc(-c2c3nc(c(-c4c(F)cccc4F)c4ccc([nH]4)c(-c4c(F)cccc4F)c4nc(c(-c5c(F)cccc5F)c5ccc2[nH]5)C=C4)C=C3)cc1
REMARK SMILES IDX 25 1 24 2 23 3 21 4 22 5 20 7 4 8 5 9 6 10 19 11 3 13 2 14
REMARK SMILES IDX 1 15 7 16 8 17 9 18 15 19 10 20 14 21 13 22 16 23 18 24
REMARK SMILES IDX 17 25 11 26 12 27 26 28 27 29 28 30 29 31 30 33 31 34 32 35
REMARK SMILES IDX 84 36 33 37 83 38 34 39 35 40 36 41 77 42 37 43 82 44 76 45
REMARK SMILES IDX 78 46 38 47 81 48 75 49 74 50 39 52 65 53 48 54 64 55 49 56
REMARK SMILES IDX 52 57 63 58 79 59 50 60 51 61 62 63 80 64 53 65 40 66 41 67
REMARK SMILES IDX 46 68 42 69 43 70 45 71 47 72 44 73 66 74 67 75 72 76 68 77
REMARK SMILES IDX 69 78 71 79 73 80 70 81 54 82 55 83 60 84 56 85 57 86 59 87
REMARK SMILES IDX 61 88 58 89
REMARK H PARENT 23 6 6 12 28 32 78 51 52 62
REMARK Flexibility Score: inf
ROOT
ATOM      1  C   UNL A   1      31.767  30.659  26.149  1.00  0.00     0.023 C 
ENDROOT
BRANCH   1   2
ATOM      2  C   UNL A   1      31.870  29.618  27.288  1.00  0.00     0.116 C 
BRANCH   2   3
ATOM      3  N   UNL A   1      31.442  28.224  27.044  1.00  0.00    -0.356 N 
ATOM      4  C   UNL A   1      31.923  27.045  26.531  1.00  0.00     0.229 C 
ATOM      5  O   UNL A   1      31.208  26.061  26.779  1.00  0.00    -0.275 OA
ATOM      6  H   UNL A   1      30.513  28.102  27.347  1.00  0.00     0.163 HD
BRANCH   4   7
ATOM      7  C   UNL A   1      33.188  26.808  25.653  1.00  0.00     0.142 C 
ATOM      8  C   UNL A   1      33.361  25.387  25.000  1.00  0.00     0.062 C 
ATOM      9  C   UNL A   1      34.029  25.691  23.658  1.00  0.00     0.267 C 
ATOM     10  N   UNL A   1      33.438  26.941  23.230  1.00  0.00    -0.330 N 
ATOM     11  C   UNL A   1      33.362  27.745  24.453  1.00  0.00     0.276 C 
ATOM     12  H   UNL A   1      33.995  27.467  22.556  1.00  0.00     0.348 HD
BRANCH   8  13
ATOM     13  C   UNL A   1      34.006  24.177  25.688  1.00  0.00     0.010 C 
BRANCH  13  14
ATOM     14  C   UNL A   1      35.421  23.904  25.087  1.00  0.00    -0.003 C 
ATOM     15  C   UNL A   1      36.523  23.690  26.123  1.00  0.00     0.004 C 
ENDBRANCH  13  14
ENDBRANCH   8  13
BRANCH  10  16
ATOM     16  C   UNL A   1      32.262  26.794  22.340  1.00  0.00     0.299 C 
BRANCH  16  17
ATOM     17  C   UNL A   1      30.894  27.399  22.682  1.00  0.00     0.014 A 
ATOM     18  C   UNL A   1      30.559  28.693  22.276  1.00  0.00     0.060 A 
ATOM     19  C   UNL A   1      29.863  26.698  23.304  1.00  0.00     0.060 A 
ATOM     20  C   UNL A   1      29.374  29.387  22.523  1.00  0.00     0.165 A 
ATOM     21  C   UNL A   1      28.636  27.346  23.488  1.00  0.00     0.170 A 
ATOM     22  C   UNL A   1      28.395  28.661  23.123  1.00  0.00     0.207 A 
ATOM     23  O   UNL A   1      27.525  26.765  24.026  1.00  0.00    -0.453 OA
ATOM     24  O   UNL A   1      27.129  29.061  23.405  1.00  0.00    -0.450 OA
ATOM     25  C   UNL A   1      26.560  27.826  23.876  1.00  0.00     0.468 C 
BRANCH  20  26
ATOM     26  O   UNL A   1      29.394  30.674  22.094  1.00  0.00    -0.493 OA
ATOM     27  C   UNL A   1      28.406  31.089  21.166  1.00  0.00     0.278 C 
ENDBRANCH  20  26
ENDBRANCH  16  17
ENDBRANCH  10  16
ENDBRANCH   4   7
ENDBRANCH   2   3
ENDBRANCH   1   2
BRANCH   1  28
ATOM     28  C   UNL A   1      31.421  32.099  26.551  1.00  0.00     0.023 C 
BRANCH  28  29
ATOM     29  C   UNL A   1      32.559  32.816  27.250  1.00  0.00     0.116 C 
BRANCH  29  30
ATOM     30  N   UNL A   1      32.270  34.203  27.602  1.00  0.00    -0.352 N 
ATOM     31  C   UNL A   1      32.925  35.002  28.526  1.00  0.00     0.251 C 
ATOM     32  H   UNL A   1      31.518  34.622  27.124  1.00  0.00     0.163 HD
ATOM     33  O   UNL A   1      32.528  36.114  28.792  1.00  0.00    -0.269 OA
BRANCH  31  34
ATOM     34  C   UNL A   1      34.102  34.432  29.232  1.00  0.00     0.039 A 
ATOM     35  C   UNL A   1      33.911  33.641  30.367  1.00  0.00     0.014 A 
ATOM     36  C   UNL A   1      35.382  34.615  28.714  1.00  0.00     0.014 A 
ATOM     37  C   UNL A   1      35.003  32.974  30.926  1.00  0.00     0.010 A 
ATOM     38  C   UNL A   1      36.426  33.830  29.165  1.00  0.00     0.010 A 
ATOM     39  C   UNL A   1      36.261  33.031  30.302  1.00  0.00    -0.014 A 
BRANCH  39  40
ATOM     40  C   UNL A   1      37.447  32.332  30.849  1.00  0.00     0.031 A 
ATOM     41  C   UNL A   1      38.058  32.824  32.135  1.00  0.00     0.074 A 
ATOM     42  C   UNL A   1      38.012  31.324  30.159  1.00  0.00     0.049 A 
ATOM     43  N   UNL A   1      39.145  32.425  32.742  1.00  0.00    -0.248 NA
ATOM     44  C   UNL A   1      37.389  33.956  32.803  1.00  0.00     0.031 C 
ATOM     45  C   UNL A   1      37.552  30.820  28.862  1.00  0.00     0.029 A 
ATOM     46  N   UNL A   1      39.100  30.543  30.450  1.00  0.00    -0.354 N 
ATOM     47  C   UNL A   1      39.301  33.277  33.829  1.00  0.00     0.074 A 
ATOM     48  C   UNL A   1      38.253  34.265  33.754  1.00  0.00     0.031 C 
ATOM     49  C   UNL A   1      38.324  29.783  28.494  1.00  0.00     0.029 A 
ATOM     50  C   UNL A   1      39.352  29.576  29.508  1.00  0.00     0.049 A 
ATOM     51  H   UNL A   1      39.648  30.664  31.259  1.00  0.00     0.167 HD
ATOM     52  C   UNL A   1      40.212  33.214  34.828  1.00  0.00     0.037 A 
ATOM     53  C   UNL A   1      40.305  28.625  29.476  1.00  0.00     0.037 A 
ATOM     54  C   UNL A   1      41.207  32.183  34.925  1.00  0.00     0.049 A 
ATOM     55  C   UNL A   1      41.274  28.540  30.624  1.00  0.00     0.074 A 
ATOM     56  C   UNL A   1      42.126  31.963  35.933  1.00  0.00     0.029 A 
ATOM     57  N   UNL A   1      41.401  31.190  33.976  1.00  0.00    -0.354 N 
ATOM     58  N   UNL A   1      41.363  29.303  31.687  1.00  0.00    -0.248 NA
ATOM     59  C   UNL A   1      42.265  27.458  30.575  1.00  0.00     0.031 C 
ATOM     60  C   UNL A   1      42.906  30.860  35.573  1.00  0.00     0.029 A 
ATOM     61  C   UNL A   1      42.438  30.363  34.365  1.00  0.00     0.049 A 
ATOM     62  H   UNL A   1      40.878  31.091  33.147  1.00  0.00     0.167 HD
ATOM     63  C   UNL A   1      42.402  28.781  32.446  1.00  0.00     0.074 A 
ATOM     64  C   UNL A   1      42.898  27.625  31.727  1.00  0.00     0.031 C 
ATOM     65  C   UNL A   1      42.904  29.216  33.628  1.00  0.00     0.037 A 
BRANCH  52  66
ATOM     66  C   UNL A   1      40.154  34.275  35.890  1.00  0.00     0.057 A 
ATOM     67  C   UNL A   1      40.872  35.475  35.784  1.00  0.00     0.134 A 
ATOM     68  C   UNL A   1      39.361  34.100  37.031  1.00  0.00     0.134 A 
ATOM     69  F   UNL A   1      41.666  35.702  34.726  1.00  0.00    -0.206 F 
ATOM     70  C   UNL A   1      40.830  36.445  36.787  1.00  0.00     0.040 A 
ATOM     71  C   UNL A   1      39.285  35.077  38.026  1.00  0.00     0.040 A 
ATOM     72  F   UNL A   1      38.647  32.978  37.200  1.00  0.00    -0.206 F 
ATOM     73  C   UNL A   1      40.029  36.250  37.909  1.00  0.00     0.006 A 
ENDBRANCH  52  66
BRANCH  53  74
ATOM     74  C   UNL A   1      40.355  27.658  28.351  1.00  0.00     0.057 A 
ATOM     75  C   UNL A   1      41.096  27.930  27.194  1.00  0.00     0.134 A 
ATOM     76  C   UNL A   1      39.680  26.432  28.406  1.00  0.00     0.134 A 
ATOM     77  F   UNL A   1      41.754  29.093  27.074  1.00  0.00    -0.206 F 
ATOM     78  C   UNL A   1      41.149  27.031  26.128  1.00  0.00     0.040 A 
ATOM     79  C   UNL A   1      39.746  25.512  27.358  1.00  0.00     0.040 A 
ATOM     80  F   UNL A   1      38.964  26.102  29.490  1.00  0.00    -0.206 F 
ATOM     81  C   UNL A   1      40.478  25.814  26.211  1.00  0.00     0.006 A 
ENDBRANCH  53  74
BRANCH  65  82
ATOM     82  C   UNL A   1      44.024  28.421  34.228  1.00  0.00     0.057 A 
ATOM     83  C   UNL A   1      45.366  28.751  34.004  1.00  0.00     0.134 A 
ATOM     84  C   UNL A   1      43.752  27.346  35.085  1.00  0.00     0.134 A 
ATOM     85  F   UNL A   1      45.689  29.764  33.186  1.00  0.00    -0.206 F 
ATOM     86  C   UNL A   1      46.401  28.023  34.591  1.00  0.00     0.040 A 
ATOM     87  C   UNL A   1      44.777  26.630  35.700  1.00  0.00     0.040 A 
ATOM     88  F   UNL A   1      42.487  26.989  35.351  1.00  0.00    -0.206 F 
ATOM     89  C   UNL A   1      46.107  26.964  35.448  1.00  0.00     0.006 A 
ENDBRANCH  65  82
ENDBRANCH  39  40
ENDBRANCH  31  34
ENDBRANCH  29  30
ENDBRANCH  28  29
ENDBRANCH   1  28
TORSDOF 16
ENDMDL
MODEL 2
REMARK VINA RESULT:     -11.6      4.832      9.576
REMARK SMILES CCC[C@@H]1C[N@@H+](Cc2cc(OC)c3c(c2)OCO3)C[C@H]1C(=O)NCCCCNC(=O)c1ccc(-c2c3nc(c(-c4c(F)cccc4F)c4ccc([nH]4)c(-c4c(F)cccc4F)c4nc(c(-c5c(F)cccc5F)c5ccc2[nH]5)C=C4)C=C3)cc1
REMARK SMILES IDX 25 1 24 2 23 3 21 4 22 5 20 7 4 8 5 9 6 10 19 11 3 13 2 14
REMARK SMILES IDX 1 15 7 16 8 17 9 18 15 19 10 20 14 21 13 22 16 23 18 24
REMARK SMILES IDX 17 25 11 26 12 27 26 28 27 29 28 30 29 31 30 33 31 34 32 35
REMARK SMILES IDX 84 36 33 37 83 38 34 39 35 40 36 41 77 42 37 43 82 44 76 45
REMARK SMILES IDX 78 46 38 47 81 48 75 49 74 50 39 52 65 53 48 54 64 55 49 56
REMARK SMILES IDX 52 57 63 58 79 59 50 60 51 61 62 63 80 64 53 65 40 66 41 67
REMARK SMILES IDX 46 68 42 69 43 70 45 71 47 72 44 73 66 74 67 75 72 76 68 77
REMARK SMILES IDX 69 78 71 79 73 80 70 81 54 82 55 83 60 84 56 85 57 86 59 87
REMARK SMILES IDX 61 88 58 89
REMARK H PARENT 23 6 6 12 28 32 78 51 52 62
REMARK Flexibility Score: inf
ROOT
ATOM      1  C   UNL A   1      37.317  21.258  24.498  1.00  0.00     0.023 C 
ENDROOT
BRANCH   1   2
ATOM      2  C   UNL A   1      37.083  22.362  25.555  1.00  0.00     0.116 C 
BRANCH   2   3
ATOM      3  N   UNL A   1      36.176  23.488  25.247  1.00  0.00    -0.356 N 
ATOM      4  C   UNL A   1      35.001  23.749  24.588  1.00  0.00     0.229 C 
ATOM      5  O   UNL A   1      34.526  24.869  24.833  1.00  0.00    -0.275 OA
ATOM      6  H   UNL A   1      36.530  24.319  25.642  1.00  0.00     0.163 HD
BRANCH   4   7
ATOM      7  C   UNL A   1      34.243  22.860  23.557  1.00  0.00     0.142 C 
ATOM      8  C   UNL A   1      33.331  21.711  24.125  1.00  0.00     0.062 C 
ATOM      9  C   UNL A   1      32.168  21.657  23.135  1.00  0.00     0.267 C 
ATOM     10  N   UNL A   1      31.946  23.036  22.756  1.00  0.00    -0.330 N 
ATOM     11  C   UNL A   1      33.293  23.593  22.604  1.00  0.00     0.276 C 
ATOM     12  H   UNL A   1      31.465  23.161  21.865  1.00  0.00     0.348 HD
BRANCH   8  13
ATOM     13  C   UNL A   1      33.820  20.304  24.495  1.00  0.00     0.010 C 
BRANCH  13  14
ATOM     14  C   UNL A   1      32.641  19.455  25.069  1.00  0.00    -0.003 C 
ATOM     15  C   UNL A   1      32.444  18.100  24.392  1.00  0.00     0.004 C 
ENDBRANCH  13  14
ENDBRANCH   8  13
BRANCH  10  16
ATOM     16  C   UNL A   1      30.917  23.739  23.559  1.00  0.00     0.299 C 
BRANCH  16  17
ATOM     17  C   UNL A   1      31.170  25.112  24.194  1.00  0.00     0.014 A 
ATOM     18  C   UNL A   1      31.179  26.273  23.415  1.00  0.00     0.060 A 
ATOM     19  C   UNL A   1      31.294  25.329  25.565  1.00  0.00     0.060 A 
ATOM     20  C   UNL A   1      31.411  27.583  23.837  1.00  0.00     0.165 A 
ATOM     21  C   UNL A   1      31.444  26.644  26.019  1.00  0.00     0.170 A 
ATOM     22  C   UNL A   1      31.517  27.747  25.181  1.00  0.00     0.207 A 
ATOM     23  O   UNL A   1      31.517  27.008  27.331  1.00  0.00    -0.453 OA
ATOM     24  O   UNL A   1      31.663  28.913  25.860  1.00  0.00    -0.450 OA
ATOM     25  C   UNL A   1      31.556  28.446  27.216  1.00  0.00     0.468 C 
BRANCH  20  26
ATOM     26  O   UNL A   1      31.467  28.482  22.822  1.00  0.00    -0.493 OA
ATOM     27  C   UNL A   1      30.350  29.328  22.611  1.00  0.00     0.278 C 
ENDBRANCH  20  26
ENDBRANCH  16  17
ENDBRANCH  10  16
ENDBRANCH   4   7
ENDBRANCH   2   3
ENDBRANCH   1   2
BRANCH   1  28
ATOM     28  C   UNL A   1      37.987  19.963  24.979  1.00  0.00     0.023 C 
BRANCH  28  29
ATOM     29  C   UNL A   1      39.166  20.207  25.900  1.00  0.00     0.116 C 
BRANCH  29  30
ATOM     30  N   UNL A   1      40.176  19.153  25.874  1.00  0.00    -0.352 N 
ATOM     31  C   UNL A   1      41.541  19.275  26.089  1.00  0.00     0.251 C 
ATOM     32  H   UNL A   1      39.849  18.246  25.679  1.00  0.00     0.163 HD
ATOM     33  O   UNL A   1      42.288  18.334  25.949  1.00  0.00    -0.269 OA
BRANCH  31  34
ATOM     34  C   UNL A   1      42.075  20.617  26.443  1.00  0.00     0.039 A 
ATOM     35  C   UNL A   1      42.367  21.533  25.431  1.00  0.00     0.014 A 
ATOM     36  C   UNL A   1      42.200  20.987  27.780  1.00  0.00     0.014 A 
ATOM     37  C   UNL A   1      42.708  22.843  25.773  1.00  0.00     0.010 A 
ATOM     38  C   UNL A   1      42.376  22.317  28.112  1.00  0.00     0.010 A 
ATOM     39  C   UNL A   1      42.673  23.254  27.116  1.00  0.00    -0.014 A 
BRANCH  39  40
ATOM     40  C   UNL A   1      43.015  24.635  27.529  1.00  0.00     0.031 A 
ATOM     41  C   UNL A   1      44.460  25.062  27.531  1.00  0.00     0.074 A 
ATOM     42  C   UNL A   1      42.051  25.464  27.972  1.00  0.00     0.049 A 
ATOM     43  N   UNL A   1      44.992  26.184  27.940  1.00  0.00    -0.248 NA
ATOM     44  C   UNL A   1      45.449  24.074  27.060  1.00  0.00     0.031 C 
ATOM     45  C   UNL A   1      40.630  25.126  28.092  1.00  0.00     0.029 A 
ATOM     46  N   UNL A   1      42.120  26.760  28.409  1.00  0.00    -0.354 N 
ATOM     47  C   UNL A   1      46.366  26.016  27.810  1.00  0.00     0.074 A 
ATOM     48  C   UNL A   1      46.593  24.663  27.367  1.00  0.00     0.031 C 
ATOM     49  C   UNL A   1      39.956  26.206  28.524  1.00  0.00     0.029 A 
ATOM     50  C   UNL A   1      40.901  27.294  28.747  1.00  0.00     0.049 A 
ATOM     51  H   UNL A   1      42.965  27.262  28.473  1.00  0.00     0.167 HD
ATOM     52  C   UNL A   1      47.350  26.926  27.999  1.00  0.00     0.037 A 
ATOM     53  C   UNL A   1      40.586  28.529  29.183  1.00  0.00     0.037 A 
ATOM     54  C   UNL A   1      47.102  28.290  28.374  1.00  0.00     0.049 A 
ATOM     55  C   UNL A   1      41.690  29.540  29.334  1.00  0.00     0.074 A 
ATOM     56  C   UNL A   1      48.007  29.325  28.509  1.00  0.00     0.029 A 
ATOM     57  N   UNL A   1      45.847  28.808  28.661  1.00  0.00    -0.354 N 
ATOM     58  N   UNL A   1      42.978  29.393  29.132  1.00  0.00    -0.248 NA
ATOM     59  C   UNL A   1      41.298  30.889  29.762  1.00  0.00     0.031 C 
ATOM     60  C   UNL A   1      47.304  30.462  28.921  1.00  0.00     0.029 A 
ATOM     61  C   UNL A   1      45.955  30.146  28.991  1.00  0.00     0.049 A 
ATOM     62  H   UNL A   1      45.006  28.297  28.634  1.00  0.00     0.167 HD
ATOM     63  C   UNL A   1      43.548  30.634  29.383  1.00  0.00     0.074 A 
ATOM     64  C   UNL A   1      42.460  31.525  29.735  1.00  0.00     0.031 C 
ATOM     65  C   UNL A   1      44.851  31.007  29.331  1.00  0.00     0.037 A 
BRANCH  52  66
ATOM     66  C   UNL A   1      48.766  26.473  27.785  1.00  0.00     0.057 A 
ATOM     67  C   UNL A   1      49.561  25.994  28.837  1.00  0.00     0.134 A 
ATOM     68  C   UNL A   1      49.341  26.507  26.509  1.00  0.00     0.134 A 
ATOM     69  F   UNL A   1      49.080  25.951  30.089  1.00  0.00    -0.206 F 
ATOM     70  C   UNL A   1      50.884  25.597  28.633  1.00  0.00     0.040 A 
ATOM     71  C   UNL A   1      50.653  26.082  26.286  1.00  0.00     0.040 A 
ATOM     72  F   UNL A   1      48.640  26.952  25.456  1.00  0.00    -0.206 F 
ATOM     73  C   UNL A   1      51.431  25.634  27.352  1.00  0.00     0.006 A 
ENDBRANCH  52  66
BRANCH  53  74
ATOM     74  C   UNL A   1      39.171  28.885  29.454  1.00  0.00     0.057 A 
ATOM     75  C   UNL A   1      38.358  29.433  28.454  1.00  0.00     0.134 A 
ATOM     76  C   UNL A   1      38.588  28.674  30.709  1.00  0.00     0.134 A 
ATOM     77  F   UNL A   1      38.861  29.672  27.233  1.00  0.00    -0.206 F 
ATOM     78  C   UNL A   1      37.027  29.775  28.695  1.00  0.00     0.040 A 
ATOM     79  C   UNL A   1      37.250  28.987  30.958  1.00  0.00     0.040 A 
ATOM     80  F   UNL A   1      39.306  28.139  31.708  1.00  0.00    -0.206 F 
ATOM     81  C   UNL A   1      36.466  29.545  29.949  1.00  0.00     0.006 A 
ENDBRANCH  53  74
BRANCH  65  82
ATOM     82  C   UNL A   1      45.163  32.441  29.631  1.00  0.00     0.057 A 
ATOM     83  C   UNL A   1      45.514  32.866  30.919  1.00  0.00     0.134 A 
ATOM     84  C   UNL A   1      45.166  33.397  28.607  1.00  0.00     0.134 A 
ATOM     85  F   UNL A   1      45.520  32.000  31.943  1.00  0.00    -0.206 F 
ATOM     86  C   UNL A   1      45.832  34.198  31.182  1.00  0.00     0.040 A 
ATOM     87  C   UNL A   1      45.511  34.725  28.853  1.00  0.00     0.040 A 
ATOM     88  F   UNL A   1      44.853  33.050  27.350  1.00  0.00    -0.206 F 
ATOM     89  C   UNL A   1      45.839  35.130  30.145  1.00  0.00     0.006 A 
ENDBRANCH  65  82
ENDBRANCH  39  40
ENDBRANCH  31  34
ENDBRANCH  29  30
ENDBRANCH  28  29
ENDBRANCH   1  28
TORSDOF 16
ENDMDL
MODEL 3
REMARK VINA RESULT:     -11.6      1.592      4.124
REMARK SMILES CCC[C@@H]1C[N@@H+](Cc2cc(OC)c3c(c2)OCO3)C[C@H]1C(=O)NCCCCNC(=O)c1ccc(-c2c3nc(c(-c4c(F)cccc4F)c4ccc([nH]4)c(-c4c(F)cccc4F)c4nc(c(-c5c(F)cccc5F)c5ccc2[nH]5)C=C4)C=C3)cc1
REMARK SMILES IDX 25 1 24 2 23 3 21 4 22 5 20 7 4 8 5 9 6 10 19 11 3 13 2 14
REMARK SMILES IDX 1 15 7 16 8 17 9 18 15 19 10 20 14 21 13 22 16 23 18 24
REMARK SMILES IDX 17 25 11 26 12 27 26 28 27 29 28 30 29 31 30 33 31 34 32 35
REMARK SMILES IDX 84 36 33 37 83 38 34 39 35 40 36 41 77 42 37 43 82 44 76 45
REMARK SMILES IDX 78 46 38 47 81 48 75 49 74 50 39 52 65 53 48 54 64 55 49 56
REMARK SMILES IDX 52 57 63 58 79 59 50 60 51 61 62 63 80 64 53 65 40 66 41 67
REMARK SMILES IDX 46 68 42 69 43 70 45 71 47 72 44 73 66 74 67 75 72 76 68 77
REMARK SMILES IDX 69 78 71 79 73 80 70 81 54 82 55 83 60 84 56 85 57 86 59 87
REMARK SMILES IDX 61 88 58 89
REMARK H PARENT 23 6 6 12 28 32 78 51 52 62
REMARK Flexibility Score: inf
ROOT
ATOM      1  C   UNL A   1      31.798  30.439  26.707  1.00  0.00     0.023 C 
ENDROOT
BRANCH   1   2
ATOM      2  C   UNL A   1      33.182  30.043  26.140  1.00  0.00     0.116 C 
BRANCH   2   3
ATOM      3  N   UNL A   1      33.270  29.013  25.082  1.00  0.00    -0.356 N 
ATOM      4  C   UNL A   1      32.469  28.150  24.378  1.00  0.00     0.229 C 
ATOM      5  O   UNL A   1      33.026  27.639  23.394  1.00  0.00    -0.275 OA
ATOM      6  H   UNL A   1      34.206  28.916  24.790  1.00  0.00     0.163 HD
BRANCH   4   7
ATOM      7  C   UNL A   1      31.008  27.704  24.687  1.00  0.00     0.142 C 
ATOM      8  C   UNL A   1      30.021  27.569  23.470  1.00  0.00     0.062 C 
ATOM      9  C   UNL A   1      29.128  26.392  23.865  1.00  0.00     0.267 C 
ATOM     10  N   UNL A   1      30.010  25.482  24.563  1.00  0.00    -0.330 N 
ATOM     11  C   UNL A   1      30.850  26.352  25.390  1.00  0.00     0.276 C 
ATOM     12  H   UNL A   1      29.540  24.830  25.191  1.00  0.00     0.348 HD
BRANCH   8  13
ATOM     13  C   UNL A   1      29.201  28.720  22.872  1.00  0.00     0.010 C 
BRANCH  13  14
ATOM     14  C   UNL A   1      29.621  30.077  23.520  1.00  0.00    -0.003 C 
ATOM     15  C   UNL A   1      28.529  31.146  23.525  1.00  0.00     0.004 C 
ENDBRANCH  13  14
ENDBRANCH   8  13
BRANCH  10  16
ATOM     16  C   UNL A   1      30.611  24.429  23.709  1.00  0.00     0.299 C 
BRANCH  16  17
ATOM     17  C   UNL A   1      32.022  23.880  23.957  1.00  0.00     0.014 A 
ATOM     18  C   UNL A   1      32.277  23.007  25.019  1.00  0.00     0.060 A 
ATOM     19  C   UNL A   1      33.107  24.102  23.112  1.00  0.00     0.060 A 
ATOM     20  C   UNL A   1      33.498  22.441  25.385  1.00  0.00     0.165 A 
ATOM     21  C   UNL A   1      34.323  23.476  23.413  1.00  0.00     0.170 A 
ATOM     22  C   UNL A   1      34.525  22.677  24.528  1.00  0.00     0.207 A 
ATOM     23  O   UNL A   1      35.447  23.556  22.645  1.00  0.00    -0.453 OA
ATOM     24  O   UNL A   1      35.788  22.186  24.600  1.00  0.00    -0.450 OA
ATOM     25  C   UNL A   1      36.328  22.660  23.354  1.00  0.00     0.468 C 
BRANCH  20  26
ATOM     26  O   UNL A   1      33.444  21.722  26.535  1.00  0.00    -0.493 OA
ATOM     27  C   UNL A   1      33.059  22.386  27.727  1.00  0.00     0.278 C 
ENDBRANCH  20  26
ENDBRANCH  16  17
ENDBRANCH  10  16
ENDBRANCH   4   7
ENDBRANCH   2   3
ENDBRANCH   1   2
BRANCH   1  28
ATOM     28  C   UNL A   1      31.490  31.939  26.806  1.00  0.00     0.023 C 
BRANCH  28  29
ATOM     29  C   UNL A   1      32.678  32.766  27.257  1.00  0.00     0.116 C 
BRANCH  29  30
ATOM     30  N   UNL A   1      32.345  34.134  27.641  1.00  0.00    -0.352 N 
ATOM     31  C   UNL A   1      32.976  34.932  28.584  1.00  0.00     0.251 C 
ATOM     32  H   UNL A   1      31.580  34.540  27.174  1.00  0.00     0.163 HD
ATOM     33  O   UNL A   1      32.545  36.024  28.877  1.00  0.00    -0.269 OA
BRANCH  31  34
ATOM     34  C   UNL A   1      34.171  34.382  29.276  1.00  0.00     0.039 A 
ATOM     35  C   UNL A   1      34.008  33.558  30.390  1.00  0.00     0.014 A 
ATOM     36  C   UNL A   1      35.444  34.620  28.762  1.00  0.00     0.014 A 
ATOM     37  C   UNL A   1      35.121  32.912  30.932  1.00  0.00     0.010 A 
ATOM     38  C   UNL A   1      36.514  33.858  29.193  1.00  0.00     0.010 A 
ATOM     39  C   UNL A   1      36.376  33.026  30.309  1.00  0.00    -0.014 A 
BRANCH  39  40
ATOM     40  C   UNL A   1      37.584  32.352  30.839  1.00  0.00     0.031 A 
ATOM     41  C   UNL A   1      38.205  32.859  32.115  1.00  0.00     0.074 A 
ATOM     42  C   UNL A   1      38.159  31.355  30.141  1.00  0.00     0.049 A 
ATOM     43  N   UNL A   1      39.310  32.483  32.706  1.00  0.00    -0.248 NA
ATOM     44  C   UNL A   1      37.523  33.978  32.791  1.00  0.00     0.031 C 
ATOM     45  C   UNL A   1      37.690  30.839  28.852  1.00  0.00     0.029 A 
ATOM     46  N   UNL A   1      39.267  30.596  30.416  1.00  0.00    -0.354 N 
ATOM     47  C   UNL A   1      39.465  33.340  33.789  1.00  0.00     0.074 A 
ATOM     48  C   UNL A   1      38.396  34.306  33.729  1.00  0.00     0.031 C 
ATOM     49  C   UNL A   1      38.476  29.818  28.474  1.00  0.00     0.029 A 
ATOM     50  C   UNL A   1      39.524  29.633  29.472  1.00  0.00     0.049 A 
ATOM     51  H   UNL A   1      39.825  30.730  31.217  1.00  0.00     0.167 HD
ATOM     52  C   UNL A   1      40.392  33.297  34.773  1.00  0.00     0.037 A 
ATOM     53  C   UNL A   1      40.496  28.702  29.426  1.00  0.00     0.037 A 
ATOM     54  C   UNL A   1      41.410  32.287  34.856  1.00  0.00     0.049 A 
ATOM     55  C   UNL A   1      41.484  28.639  30.559  1.00  0.00     0.074 A 
ATOM     56  C   UNL A   1      42.348  32.087  35.850  1.00  0.00     0.029 A 
ATOM     57  N   UNL A   1      41.609  31.296  33.905  1.00  0.00    -0.354 N 
ATOM     58  N   UNL A   1      41.574  29.405  31.620  1.00  0.00    -0.248 NA
ATOM     59  C   UNL A   1      42.496  27.577  30.496  1.00  0.00     0.031 C 
ATOM     60  C   UNL A   1      43.145  30.999  35.479  1.00  0.00     0.029 A 
ATOM     61  C   UNL A   1      42.669  30.491  34.279  1.00  0.00     0.049 A 
ATOM     62  H   UNL A   1      41.075  31.184  33.085  1.00  0.00     0.167 HD
ATOM     63  C   UNL A   1      42.635  28.906  32.363  1.00  0.00     0.074 A 
ATOM     64  C   UNL A   1      43.144  27.758  31.638  1.00  0.00     0.031 C 
ATOM     65  C   UNL A   1      43.146  29.352  33.537  1.00  0.00     0.037 A 
BRANCH  52  66
ATOM     66  C   UNL A   1      40.329  34.358  35.835  1.00  0.00     0.057 A 
ATOM     67  C   UNL A   1      39.545  34.210  36.989  1.00  0.00     0.134 A 
ATOM     68  C   UNL A   1      41.070  35.539  35.709  1.00  0.00     0.134 A 
ATOM     69  F   UNL A   1      38.796  33.111  37.167  1.00  0.00    -0.206 F 
ATOM     70  C   UNL A   1      39.474  35.211  37.959  1.00  0.00     0.040 A 
ATOM     71  C   UNL A   1      41.032  36.534  36.689  1.00  0.00     0.040 A 
ATOM     72  F   UNL A   1      41.842  35.749  34.633  1.00  0.00    -0.206 F 
ATOM     73  C   UNL A   1      40.225  36.374  37.814  1.00  0.00     0.006 A 
ENDBRANCH  52  66
BRANCH  53  74
ATOM     74  C   UNL A   1      40.548  27.734  28.302  1.00  0.00     0.057 A 
ATOM     75  C   UNL A   1      39.874  26.508  28.371  1.00  0.00     0.134 A 
ATOM     76  C   UNL A   1      41.255  28.011  27.125  1.00  0.00     0.134 A 
ATOM     77  F   UNL A   1      39.189  26.178  29.476  1.00  0.00    -0.206 F 
ATOM     78  C   UNL A   1      39.916  25.587  27.323  1.00  0.00     0.040 A 
ATOM     79  C   UNL A   1      41.284  27.111  26.058  1.00  0.00     0.040 A 
ATOM     80  F   UNL A   1      41.911  29.173  26.988  1.00  0.00    -0.206 F 
ATOM     81  C   UNL A   1      40.617  25.891  26.158  1.00  0.00     0.006 A 
ENDBRANCH  53  74
BRANCH  65  82
ATOM     82  C   UNL A   1      44.291  28.581  34.120  1.00  0.00     0.057 A 
ATOM     83  C   UNL A   1      44.087  27.475  34.954  1.00  0.00     0.134 A 
ATOM     84  C   UNL A   1      45.612  28.917  33.797  1.00  0.00     0.134 A 
ATOM     85  F   UNL A   1      42.846  27.109  35.307  1.00  0.00    -0.206 F 
ATOM     86  C   UNL A   1      45.159  26.745  35.468  1.00  0.00     0.040 A 
ATOM     87  C   UNL A   1      46.690  28.178  34.280  1.00  0.00     0.040 A 
ATOM     88  F   UNL A   1      45.873  29.958  32.991  1.00  0.00    -0.206 F 
ATOM     89  C   UNL A   1      46.465  27.092  35.125  1.00  0.00     0.006 A 
ENDBRANCH  65  82
ENDBRANCH  39  40
ENDBRANCH  31  34
ENDBRANCH  29  30
ENDBRANCH  28  29
ENDBRANCH   1  28
TORSDOF 16
ENDMDL
