MODEL 1
REMARK VINA RESULT:     -10.8      0.000      0.000
REMARK SMILES C[NH2+][C@@](C)(CC[N@@H+](C)C1CCC(C)(C)CC1)C(=O)NCCCCNC(=O)c1ccc(-c2c3nc(c(-c4c(F)cccc4F)c4ccc([nH]4)c(-c4c(F)cccc4F)c4nc(c(-c5c(F)cccc5F)c5ccc2[nH]5)C=C4)C=C3)cc1
REMARK SMILES IDX 20 1 19 2 17 3 18 4 3 6 4 7 2 8 1 9 5 12 6 13 7 14 8 15 9 17
REMARK SMILES IDX 10 18 16 19 11 20 15 21 12 22 13 23 14 24 21 25 22 26 23 27
REMARK SMILES IDX 24 28 25 29 26 31 27 32 28 33 80 34 29 35 79 36 30 37 31 38
REMARK SMILES IDX 32 39 73 40 33 41 78 42 72 43 74 44 34 45 77 46 71 47 70 48
REMARK SMILES IDX 35 50 61 51 44 52 60 53 45 54 48 55 59 56 75 57 46 58 47 59
REMARK SMILES IDX 58 61 76 62 49 63 36 64 37 65 42 66 38 67 39 68 41 69 43 70
REMARK SMILES IDX 40 71 62 72 63 73 68 74 64 75 65 76 67 77 69 78 66 79 50 80
REMARK SMILES IDX 51 81 56 82 52 83 53 84 55 85 57 86 54 87
REMARK H PARENT 19 5 2 10 2 11 7 16 24 30 74 49 48 60
REMARK Flexibility Score: inf
ROOT
ATOM      1  C   UNL A   1      36.569  21.888  25.394  1.00  0.00     0.116 C 
ENDROOT
BRANCH   1   2
ATOM      2  N   UNL A   1      35.373  22.659  25.136  1.00  0.00    -0.351 N 
ATOM      3  C   UNL A   1      34.276  22.569  25.990  1.00  0.00     0.281 C 
ATOM      4  O   UNL A   1      34.441  22.204  27.141  1.00  0.00    -0.268 OA
ATOM      5  H   UNL A   1      35.333  23.251  24.351  1.00  0.00     0.163 HD
BRANCH   3   6
ATOM      6  C   UNL A   1      32.874  22.584  25.295  1.00  0.00     0.177 C 
ATOM      7  C   UNL A   1      33.177  21.908  23.943  1.00  0.00     0.090 C 
BRANCH   6   8
ATOM      8  N   UNL A   1      31.762  21.839  25.952  1.00  0.00    -0.336 N 
ATOM      9  C   UNL A   1      30.527  22.527  26.279  1.00  0.00     0.331 C 
ATOM     10  H   UNL A   1      31.515  21.068  25.331  1.00  0.00     0.346 HD
ATOM     11  H   UNL A   1      32.146  21.596  26.865  1.00  0.00     0.346 HD
ENDBRANCH   6   8
BRANCH   6  12
ATOM     12  C   UNL A   1      32.328  24.029  25.182  1.00  0.00     0.140 C 
BRANCH  12  13
ATOM     13  C   UNL A   1      32.907  24.839  23.974  1.00  0.00     0.269 C 
BRANCH  13  14
ATOM     14  N   UNL A   1      31.896  25.417  23.054  1.00  0.00    -0.335 N 
ATOM     15  C   UNL A   1      30.652  24.619  23.219  1.00  0.00     0.332 C 
ATOM     16  H   UNL A   1      32.331  25.374  22.133  1.00  0.00     0.348 HD
BRANCH  14  17
ATOM     17  C   UNL A   1      31.531  26.877  23.218  1.00  0.00     0.183 C 
ATOM     18  C   UNL A   1      30.706  27.409  24.401  1.00  0.00     0.065 C 
ATOM     19  C   UNL A   1      32.777  27.799  23.059  1.00  0.00     0.065 C 
ATOM     20  C   UNL A   1      31.495  27.598  25.686  1.00  0.00     0.012 C 
ATOM     21  C   UNL A   1      33.435  28.469  24.296  1.00  0.00     0.012 C 
ATOM     22  C   UNL A   1      32.642  28.614  25.621  1.00  0.00    -0.035 C 
ATOM     23  C   UNL A   1      33.588  28.440  26.844  1.00  0.00     0.011 C 
ATOM     24  C   UNL A   1      32.087  30.038  25.813  1.00  0.00     0.011 C 
ENDBRANCH  14  17
ENDBRANCH  13  14
ENDBRANCH  12  13
ENDBRANCH   6  12
ENDBRANCH   3   6
ENDBRANCH   1   2
BRANCH   1  25
ATOM     25  C   UNL A   1      36.436  20.423  25.000  1.00  0.00     0.023 C 
BRANCH  25  26
ATOM     26  C   UNL A   1      37.775  19.715  24.782  1.00  0.00     0.023 C 
BRANCH  26  27
ATOM     27  C   UNL A   1      38.903  20.155  25.724  1.00  0.00     0.116 C 
BRANCH  27  28
ATOM     28  N   UNL A   1      39.955  19.153  25.840  1.00  0.00    -0.352 N 
ATOM     29  C   UNL A   1      41.305  19.285  26.039  1.00  0.00     0.251 C 
ATOM     30  H   UNL A   1      39.643  18.222  25.765  1.00  0.00     0.163 HD
ATOM     31  O   UNL A   1      42.050  18.329  25.835  1.00  0.00    -0.269 OA
BRANCH  29  32
ATOM     32  C   UNL A   1      41.876  20.567  26.497  1.00  0.00     0.039 A 
ATOM     33  C   UNL A   1      42.319  21.490  25.544  1.00  0.00     0.014 A 
ATOM     34  C   UNL A   1      42.034  20.834  27.858  1.00  0.00     0.014 A 
ATOM     35  C   UNL A   1      42.847  22.715  25.957  1.00  0.00     0.010 A 
ATOM     36  C   UNL A   1      42.514  22.076  28.269  1.00  0.00     0.010 A 
ATOM     37  C   UNL A   1      42.909  23.034  27.323  1.00  0.00    -0.014 A 
BRANCH  37  38
ATOM     38  C   UNL A   1      43.318  24.384  27.784  1.00  0.00     0.031 A 
ATOM     39  C   UNL A   1      42.289  25.414  28.150  1.00  0.00     0.074 A 
ATOM     40  C   UNL A   1      44.626  24.709  27.767  1.00  0.00     0.049 A 
ATOM     41  N   UNL A   1      42.456  26.680  28.439  1.00  0.00    -0.248 NA
ATOM     42  C   UNL A   1      40.885  24.972  28.173  1.00  0.00     0.031 C 
ATOM     43  C   UNL A   1      45.716  23.807  27.388  1.00  0.00     0.029 A 
ATOM     44  N   UNL A   1      45.259  25.896  28.041  1.00  0.00    -0.354 N 
ATOM     45  C   UNL A   1      41.183  27.191  28.656  1.00  0.00     0.074 A 
ATOM     46  C   UNL A   1      40.251  26.105  28.445  1.00  0.00     0.031 C 
ATOM     47  C   UNL A   1      46.879  24.474  27.444  1.00  0.00     0.029 A 
ATOM     48  C   UNL A   1      46.615  25.859  27.820  1.00  0.00     0.049 A 
ATOM     49  H   UNL A   1      44.786  26.697  28.365  1.00  0.00     0.167 HD
ATOM     50  C   UNL A   1      40.831  28.451  29.007  1.00  0.00     0.037 A 
ATOM     51  C   UNL A   1      47.539  26.837  27.880  1.00  0.00     0.037 A 
ATOM     52  C   UNL A   1      41.766  29.519  29.248  1.00  0.00     0.049 A 
ATOM     53  C   UNL A   1      47.113  28.228  28.259  1.00  0.00     0.074 A 
ATOM     54  C   UNL A   1      41.509  30.799  29.710  1.00  0.00     0.029 A 
ATOM     55  N   UNL A   1      43.133  29.437  29.037  1.00  0.00    -0.354 N 
ATOM     56  N   UNL A   1      45.916  28.673  28.553  1.00  0.00    -0.248 NA
ATOM     57  C   UNL A   1      48.165  29.254  28.309  1.00  0.00     0.031 C 
ATOM     58  C   UNL A   1      42.714  31.508  29.727  1.00  0.00     0.029 A 
ATOM     59  C   UNL A   1      43.728  30.655  29.319  1.00  0.00     0.049 A 
ATOM     60  H   UNL A   1      43.611  28.632  28.731  1.00  0.00     0.167 HD
ATOM     61  C   UNL A   1      46.073  30.023  28.841  1.00  0.00     0.074 A 
ATOM     62  C   UNL A   1      47.484  30.320  28.705  1.00  0.00     0.031 C 
ATOM     63  C   UNL A   1      45.133  30.936  29.180  1.00  0.00     0.037 A 
BRANCH  50  64
ATOM     64  C   UNL A   1      39.371  28.761  29.156  1.00  0.00     0.057 A 
ATOM     65  C   UNL A   1      38.709  28.631  30.383  1.00  0.00     0.134 A 
ATOM     66  C   UNL A   1      38.643  29.282  28.079  1.00  0.00     0.134 A 
ATOM     67  F   UNL A   1      39.350  28.134  31.452  1.00  0.00    -0.206 F 
ATOM     68  C   UNL A   1      37.371  29.001  30.531  1.00  0.00     0.040 A 
ATOM     69  C   UNL A   1      37.311  29.675  28.221  1.00  0.00     0.040 A 
ATOM     70  F   UNL A   1      39.221  29.441  26.879  1.00  0.00    -0.206 F 
ATOM     71  C   UNL A   1      36.671  29.534  29.451  1.00  0.00     0.006 A 
ENDBRANCH  50  64
BRANCH  51  72
ATOM     72  C   UNL A   1      48.956  26.547  27.548  1.00  0.00     0.057 A 
ATOM     73  C   UNL A   1      49.417  26.611  26.228  1.00  0.00     0.134 A 
ATOM     74  C   UNL A   1      49.873  26.167  28.535  1.00  0.00     0.134 A 
ATOM     75  F   UNL A   1      48.581  26.948  25.236  1.00  0.00    -0.206 F 
ATOM     76  C   UNL A   1      50.734  26.285  25.898  1.00  0.00     0.040 A 
ATOM     77  C   UNL A   1      51.200  25.864  28.223  1.00  0.00     0.040 A 
ATOM     78  F   UNL A   1      49.495  26.093  29.819  1.00  0.00    -0.206 F 
ATOM     79  C   UNL A   1      51.630  25.912  26.899  1.00  0.00     0.006 A 
ENDBRANCH  51  72
BRANCH  63  80
ATOM     80  C   UNL A   1      45.598  32.336  29.445  1.00  0.00     0.057 A 
ATOM     81  C   UNL A   1      46.047  32.734  30.710  1.00  0.00     0.134 A 
ATOM     82  C   UNL A   1      45.641  33.284  28.413  1.00  0.00     0.134 A 
ATOM     83  F   UNL A   1      46.016  31.878  31.742  1.00  0.00    -0.206 F 
ATOM     84  C   UNL A   1      46.509  34.030  30.944  1.00  0.00     0.040 A 
ATOM     85  C   UNL A   1      46.125  34.575  28.630  1.00  0.00     0.040 A 
ATOM     86  F   UNL A   1      45.231  32.965  27.176  1.00  0.00    -0.206 F 
ATOM     87  C   UNL A   1      46.557  34.952  29.900  1.00  0.00     0.006 A 
ENDBRANCH  63  80
ENDBRANCH  37  38
ENDBRANCH  29  32
ENDBRANCH  27  28
ENDBRANCH  26  27
ENDBRANCH  25  26
ENDBRANCH   1  25
TORSDOF 16
ENDMDL
MODEL 2
REMARK VINA RESULT:     -10.7      4.217      7.930
REMARK SMILES C[NH2+][C@@](C)(CC[N@@H+](C)C1CCC(C)(C)CC1)C(=O)NCCCCNC(=O)c1ccc(-c2c3nc(c(-c4c(F)cccc4F)c4ccc([nH]4)c(-c4c(F)cccc4F)c4nc(c(-c5c(F)cccc5F)c5ccc2[nH]5)C=C4)C=C3)cc1
REMARK SMILES IDX 20 1 19 2 17 3 18 4 3 6 4 7 2 8 1 9 5 12 6 13 7 14 8 15 9 17
REMARK SMILES IDX 10 18 16 19 11 20 15 21 12 22 13 23 14 24 21 25 22 26 23 27
REMARK SMILES IDX 24 28 25 29 26 31 27 32 28 33 80 34 29 35 79 36 30 37 31 38
REMARK SMILES IDX 32 39 73 40 33 41 78 42 72 43 74 44 34 45 77 46 71 47 70 48
REMARK SMILES IDX 35 50 61 51 44 52 60 53 45 54 48 55 59 56 75 57 46 58 47 59
REMARK SMILES IDX 58 61 76 62 49 63 36 64 37 65 42 66 38 67 39 68 41 69 43 70
REMARK SMILES IDX 40 71 62 72 63 73 68 74 64 75 65 76 67 77 69 78 66 79 50 80
REMARK SMILES IDX 51 81 56 82 52 83 53 84 55 85 57 86 54 87
REMARK H PARENT 19 5 2 10 2 11 7 16 24 30 74 49 48 60
REMARK Flexibility Score: inf
ROOT
ATOM      1  C   UNL A   1      38.549  21.620  25.504  1.00  0.00     0.116 C 
ENDROOT
BRANCH   1   2
ATOM      2  N   UNL A   1      37.239  21.992  25.988  1.00  0.00    -0.351 N 
ATOM      3  C   UNL A   1      36.096  21.379  25.479  1.00  0.00     0.281 C 
ATOM      4  O   UNL A   1      36.186  20.276  24.967  1.00  0.00    -0.268 OA
ATOM      5  H   UNL A   1      37.153  22.684  26.683  1.00  0.00     0.163 HD
BRANCH   3   6
ATOM      6  C   UNL A   1      34.861  22.316  25.271  1.00  0.00     0.177 C 
ATOM      7  C   UNL A   1      33.925  21.431  24.423  1.00  0.00     0.090 C 
BRANCH   6   8
ATOM      8  N   UNL A   1      34.112  22.762  26.482  1.00  0.00    -0.336 N 
ATOM      9  C   UNL A   1      33.730  21.791  27.492  1.00  0.00     0.331 C 
ATOM     10  H   UNL A   1      34.692  23.460  26.948  1.00  0.00     0.346 HD
ATOM     11  H   UNL A   1      33.218  23.075  26.105  1.00  0.00     0.346 HD
ENDBRANCH   6   8
BRANCH   6  12
ATOM     12  C   UNL A   1      35.280  23.642  24.591  1.00  0.00     0.140 C 
BRANCH  12  13
ATOM     13  C   UNL A   1      34.298  24.127  23.474  1.00  0.00     0.269 C 
BRANCH  13  14
ATOM     14  N   UNL A   1      33.618  25.419  23.742  1.00  0.00    -0.335 N 
ATOM     15  C   UNL A   1      32.401  25.453  22.888  1.00  0.00     0.332 C 
ATOM     16  H   UNL A   1      34.321  26.128  23.539  1.00  0.00     0.348 HD
BRANCH  14  17
ATOM     17  C   UNL A   1      33.191  25.722  25.162  1.00  0.00     0.183 C 
ATOM     18  C   UNL A   1      33.860  26.800  26.029  1.00  0.00     0.065 C 
ATOM     19  C   UNL A   1      31.649  25.923  25.265  1.00  0.00     0.065 C 
ATOM     20  C   UNL A   1      33.408  28.220  25.731  1.00  0.00     0.012 C 
ATOM     21  C   UNL A   1      31.042  27.342  25.442  1.00  0.00     0.012 C 
ATOM     22  C   UNL A   1      31.921  28.509  25.964  1.00  0.00    -0.035 C 
ATOM     23  C   UNL A   1      31.516  29.845  25.277  1.00  0.00     0.011 C 
ATOM     24  C   UNL A   1      31.674  28.799  27.457  1.00  0.00     0.011 C 
ENDBRANCH  14  17
ENDBRANCH  13  14
ENDBRANCH  12  13
ENDBRANCH   6  12
ENDBRANCH   3   6
ENDBRANCH   1   2
BRANCH   1  25
ATOM     25  C   UNL A   1      39.640  21.750  26.560  1.00  0.00     0.023 C 
BRANCH  25  26
ATOM     26  C   UNL A   1      40.933  21.011  26.211  1.00  0.00     0.023 C 
BRANCH  26  27
ATOM     27  C   UNL A   1      42.207  21.608  26.820  1.00  0.00     0.116 C 
BRANCH  27  28
ATOM     28  N   UNL A   1      43.058  22.244  25.822  1.00  0.00    -0.352 N 
ATOM     29  C   UNL A   1      43.269  23.567  25.532  1.00  0.00     0.251 C 
ATOM     30  H   UNL A   1      43.569  21.617  25.262  1.00  0.00     0.163 HD
ATOM     31  O   UNL A   1      43.813  23.883  24.476  1.00  0.00    -0.269 OA
BRANCH  29  32
ATOM     32  C   UNL A   1      42.846  24.621  26.475  1.00  0.00     0.039 A 
ATOM     33  C   UNL A   1      41.688  24.427  27.234  1.00  0.00     0.014 A 
ATOM     34  C   UNL A   1      43.550  25.824  26.566  1.00  0.00     0.014 A 
ATOM     35  C   UNL A   1      41.282  25.405  28.145  1.00  0.00     0.010 A 
ATOM     36  C   UNL A   1      43.173  26.778  27.509  1.00  0.00     0.010 A 
ATOM     37  C   UNL A   1      42.046  26.570  28.319  1.00  0.00    -0.014 A 
BRANCH  37  38
ATOM     38  C   UNL A   1      41.727  27.552  29.384  1.00  0.00     0.031 A 
ATOM     39  C   UNL A   1      42.451  27.520  30.700  1.00  0.00     0.074 A 
ATOM     40  C   UNL A   1      40.702  28.406  29.196  1.00  0.00     0.049 A 
ATOM     41  N   UNL A   1      42.213  28.205  31.789  1.00  0.00    -0.248 NA
ATOM     42  C   UNL A   1      43.577  26.579  30.815  1.00  0.00     0.031 C 
ATOM     43  C   UNL A   1      39.894  28.503  27.978  1.00  0.00     0.029 A 
ATOM     44  N   UNL A   1      40.140  29.333  30.040  1.00  0.00    -0.354 N 
ATOM     45  C   UNL A   1      43.140  27.765  32.724  1.00  0.00     0.074 A 
ATOM     46  C   UNL A   1      43.933  26.738  32.083  1.00  0.00     0.031 C 
ATOM     47  C   UNL A   1      38.937  29.426  28.156  1.00  0.00     0.029 A 
ATOM     48  C   UNL A   1      39.034  29.957  29.512  1.00  0.00     0.049 A 
ATOM     49  H   UNL A   1      40.495  29.531  30.937  1.00  0.00     0.167 HD
ATOM     50  C   UNL A   1      43.315  28.188  33.999  1.00  0.00     0.037 A 
ATOM     51  C   UNL A   1      38.176  30.833  30.067  1.00  0.00     0.037 A 
ATOM     52  C   UNL A   1      42.545  29.233  34.621  1.00  0.00     0.049 A 
ATOM     53  C   UNL A   1      38.389  31.272  31.489  1.00  0.00     0.074 A 
ATOM     54  C   UNL A   1      42.719  29.802  35.872  1.00  0.00     0.029 A 
ATOM     55  N   UNL A   1      41.449  29.858  34.047  1.00  0.00    -0.354 N 
ATOM     56  N   UNL A   1      39.329  30.916  32.330  1.00  0.00    -0.248 NA
ATOM     57  C   UNL A   1      37.420  32.230  32.041  1.00  0.00     0.031 C 
ATOM     58  C   UNL A   1      41.696  30.733  36.075  1.00  0.00     0.029 A 
ATOM     59  C   UNL A   1      40.912  30.776  34.933  1.00  0.00     0.049 A 
ATOM     60  H   UNL A   1      41.104  29.675  33.143  1.00  0.00     0.167 HD
ATOM     61  C   UNL A   1      39.076  31.618  33.501  1.00  0.00     0.074 A 
ATOM     62  C   UNL A   1      37.907  32.437  33.257  1.00  0.00     0.031 C 
ATOM     63  C   UNL A   1      39.748  31.584  34.676  1.00  0.00     0.037 A 
BRANCH  50  64
ATOM     64  C   UNL A   1      44.380  27.528  34.823  1.00  0.00     0.057 A 
ATOM     65  C   UNL A   1      44.141  26.343  35.529  1.00  0.00     0.134 A 
ATOM     66  C   UNL A   1      45.686  28.036  34.835  1.00  0.00     0.134 A 
ATOM     67  F   UNL A   1      42.911  25.807  35.561  1.00  0.00    -0.206 F 
ATOM     68  C   UNL A   1      45.161  25.691  36.225  1.00  0.00     0.040 A 
ATOM     69  C   UNL A   1      46.717  27.382  35.509  1.00  0.00     0.040 A 
ATOM     70  F   UNL A   1      45.984  29.163  34.170  1.00  0.00    -0.206 F 
ATOM     71  C   UNL A   1      46.456  26.205  36.208  1.00  0.00     0.006 A 
ENDBRANCH  50  64
BRANCH  51  72
ATOM     72  C   UNL A   1      37.016  31.336  29.289  1.00  0.00     0.057 A 
ATOM     73  C   UNL A   1      35.900  30.526  29.049  1.00  0.00     0.134 A 
ATOM     74  C   UNL A   1      37.009  32.624  28.741  1.00  0.00     0.134 A 
ATOM     75  F   UNL A   1      35.857  29.275  29.530  1.00  0.00    -0.206 F 
ATOM     76  C   UNL A   1      34.829  30.970  28.271  1.00  0.00     0.040 A 
ATOM     77  C   UNL A   1      35.933  33.090  27.983  1.00  0.00     0.040 A 
ATOM     78  F   UNL A   1      38.045  33.451  28.940  1.00  0.00    -0.206 F 
ATOM     79  C   UNL A   1      34.843  32.257  27.738  1.00  0.00     0.006 A 
ENDBRANCH  51  72
BRANCH  63  80
ATOM     80  C   UNL A   1      39.248  32.466  35.780  1.00  0.00     0.057 A 
ATOM     81  C   UNL A   1      38.337  32.000  36.735  1.00  0.00     0.134 A 
ATOM     82  C   UNL A   1      39.717  33.779  35.917  1.00  0.00     0.134 A 
ATOM     83  F   UNL A   1      37.839  30.757  36.650  1.00  0.00    -0.206 F 
ATOM     84  C   UNL A   1      37.898  32.813  37.781  1.00  0.00     0.040 A 
ATOM     85  C   UNL A   1      39.304  34.594  36.972  1.00  0.00     0.040 A 
ATOM     86  F   UNL A   1      40.596  34.284  35.039  1.00  0.00    -0.206 F 
ATOM     87  C   UNL A   1      38.389  34.112  37.906  1.00  0.00     0.006 A 
ENDBRANCH  63  80
ENDBRANCH  37  38
ENDBRANCH  29  32
ENDBRANCH  27  28
ENDBRANCH  26  27
ENDBRANCH  25  26
ENDBRANCH   1  25
TORSDOF 16
ENDMDL
MODEL 3
REMARK VINA RESULT:     -10.6      4.893     10.012
REMARK SMILES C[NH2+][C@@](C)(CC[N@@H+](C)C1CCC(C)(C)CC1)C(=O)NCCCCNC(=O)c1ccc(-c2c3nc(c(-c4c(F)cccc4F)c4ccc([nH]4)c(-c4c(F)cccc4F)c4nc(c(-c5c(F)cccc5F)c5ccc2[nH]5)C=C4)C=C3)cc1
REMARK SMILES IDX 20 1 19 2 17 3 18 4 3 6 4 7 2 8 1 9 5 12 6 13 7 14 8 15 9 17
REMARK SMILES IDX 10 18 16 19 11 20 15 21 12 22 13 23 14 24 21 25 22 26 23 27
REMARK SMILES IDX 24 28 25 29 26 31 27 32 28 33 80 34 29 35 79 36 30 37 31 38
REMARK SMILES IDX 32 39 73 40 33 41 78 42 72 43 74 44 34 45 77 46 71 47 70 48
REMARK SMILES IDX 35 50 61 51 44 52 60 53 45 54 48 55 59 56 75 57 46 58 47 59
REMARK SMILES IDX 58 61 76 62 49 63 36 64 37 65 42 66 38 67 39 68 41 69 43 70
REMARK SMILES IDX 40 71 62 72 63 73 68 74 64 75 65 76 67 77 69 78 66 79 50 80
REMARK SMILES IDX 51 81 56 82 52 83 53 84 55 85 57 86 54 87
REMARK H PARENT 19 5 2 10 2 11 7 16 24 30 74 49 48 60
REMARK Flexibility Score: inf
ROOT
ATOM      1  C   UNL A   1      31.928  29.152  27.152  1.00  0.00     0.116 C 
ENDROOT
BRANCH   1   2
ATOM      2  N   UNL A   1      31.560  27.794  26.819  1.00  0.00    -0.351 N 
ATOM      3  C   UNL A   1      32.445  26.970  26.127  1.00  0.00     0.281 C 
ATOM      4  O   UNL A   1      33.640  27.207  26.169  1.00  0.00    -0.268 OA
ATOM      5  H   UNL A   1      30.676  27.449  27.082  1.00  0.00     0.163 HD
BRANCH   3   6
ATOM      6  C   UNL A   1      31.800  26.034  25.053  1.00  0.00     0.177 C 
ATOM      7  C   UNL A   1      30.293  26.261  25.290  1.00  0.00     0.090 C 
BRANCH   6   8
ATOM      8  N   UNL A   1      32.095  26.312  23.618  1.00  0.00    -0.336 N 
ATOM      9  C   UNL A   1      31.998  25.243  22.641  1.00  0.00     0.331 C 
ATOM     10  H   UNL A   1      31.449  27.044  23.319  1.00  0.00     0.346 HD
ATOM     11  H   UNL A   1      33.089  26.540  23.620  1.00  0.00     0.346 HD
ENDBRANCH   6   8
BRANCH   6  12
ATOM     12  C   UNL A   1      32.265  24.569  25.244  1.00  0.00     0.140 C 
BRANCH  12  13
ATOM     13  C   UNL A   1      32.144  24.045  26.713  1.00  0.00     0.269 C 
BRANCH  13  14
ATOM     14  N   UNL A   1      31.988  22.576  26.853  1.00  0.00    -0.335 N 
ATOM     15  C   UNL A   1      31.219  22.106  25.670  1.00  0.00     0.332 C 
ATOM     16  H   UNL A   1      31.533  22.449  27.757  1.00  0.00     0.348 HD
BRANCH  14  17
ATOM     17  C   UNL A   1      33.239  21.730  26.953  1.00  0.00     0.183 C 
ATOM     18  C   UNL A   1      33.652  20.710  25.879  1.00  0.00     0.065 C 
ATOM     19  C   UNL A   1      34.490  22.597  27.286  1.00  0.00     0.065 C 
ATOM     20  C   UNL A   1      34.319  21.317  24.656  1.00  0.00     0.012 C 
ATOM     21  C   UNL A   1      35.547  22.921  26.195  1.00  0.00     0.012 C 
ATOM     22  C   UNL A   1      35.638  22.054  24.912  1.00  0.00    -0.035 C 
ATOM     23  C   UNL A   1      36.012  22.934  23.685  1.00  0.00     0.011 C 
ATOM     24  C   UNL A   1      36.797  21.041  24.976  1.00  0.00     0.011 C 
ENDBRANCH  14  17
ENDBRANCH  13  14
ENDBRANCH  12  13
ENDBRANCH   6  12
ENDBRANCH   3   6
ENDBRANCH   1   2
BRANCH   1  25
ATOM     25  C   UNL A   1      31.592  30.153  26.054  1.00  0.00     0.023 C 
BRANCH  25  26
ATOM     26  C   UNL A   1      31.428  31.590  26.553  1.00  0.00     0.023 C 
BRANCH  26  27
ATOM     27  C   UNL A   1      32.737  32.317  26.881  1.00  0.00     0.116 C 
BRANCH  27  28
ATOM     28  N   UNL A   1      32.518  33.687  27.329  1.00  0.00    -0.352 N 
ATOM     29  C   UNL A   1      33.051  34.385  28.381  1.00  0.00     0.251 C 
ATOM     30  H   UNL A   1      31.879  34.198  26.782  1.00  0.00     0.163 HD
ATOM     31  O   UNL A   1      32.530  35.437  28.745  1.00  0.00    -0.269 OA
BRANCH  29  32
ATOM     32  C   UNL A   1      34.248  33.887  29.086  1.00  0.00     0.039 A 
ATOM     33  C   UNL A   1      34.087  32.972  30.133  1.00  0.00     0.014 A 
ATOM     34  C   UNL A   1      35.520  34.364  28.763  1.00  0.00     0.014 A 
ATOM     35  C   UNL A   1      35.208  32.475  30.800  1.00  0.00     0.010 A 
ATOM     36  C   UNL A   1      36.642  33.832  29.395  1.00  0.00     0.010 A 
ATOM     37  C   UNL A   1      36.498  32.870  30.408  1.00  0.00    -0.014 A 
BRANCH  37  38
ATOM     38  C   UNL A   1      37.710  32.245  30.992  1.00  0.00     0.031 A 
ATOM     39  C   UNL A   1      38.433  31.148  30.265  1.00  0.00     0.074 A 
ATOM     40  C   UNL A   1      38.090  32.600  32.235  1.00  0.00     0.049 A 
ATOM     41  N   UNL A   1      39.421  30.396  30.680  1.00  0.00    -0.248 NA
ATOM     42  C   UNL A   1      37.974  30.840  28.901  1.00  0.00     0.031 C 
ATOM     43  C   UNL A   1      37.440  33.622  33.059  1.00  0.00     0.029 A 
ATOM     44  N   UNL A   1      39.095  32.117  33.038  1.00  0.00    -0.354 N 
ATOM     45  C   UNL A   1      39.687  29.513  29.642  1.00  0.00     0.074 A 
ATOM     46  C   UNL A   1      38.744  29.807  28.585  1.00  0.00     0.031 C 
ATOM     47  C   UNL A   1      38.054  33.683  34.251  1.00  0.00     0.029 A 
ATOM     48  C   UNL A   1      39.111  32.678  34.293  1.00  0.00     0.049 A 
ATOM     49  H   UNL A   1      39.741  31.436  32.742  1.00  0.00     0.167 HD
ATOM     50  C   UNL A   1      40.638  28.550  29.579  1.00  0.00     0.037 A 
ATOM     51  C   UNL A   1      39.869  32.392  35.369  1.00  0.00     0.037 A 
ATOM     52  C   UNL A   1      41.595  28.284  30.622  1.00  0.00     0.049 A 
ATOM     53  C   UNL A   1      40.906  31.309  35.271  1.00  0.00     0.074 A 
ATOM     54  C   UNL A   1      42.662  27.401  30.605  1.00  0.00     0.029 A 
ATOM     55  N   UNL A   1      41.595  28.888  31.870  1.00  0.00    -0.354 N 
ATOM     56  N   UNL A   1      41.209  30.546  34.249  1.00  0.00    -0.248 NA
ATOM     57  C   UNL A   1      41.704  31.042  36.477  1.00  0.00     0.031 C 
ATOM     58  C   UNL A   1      43.275  27.432  31.861  1.00  0.00     0.029 A 
ATOM     59  C   UNL A   1      42.617  28.367  32.645  1.00  0.00     0.049 A 
ATOM     60  H   UNL A   1      40.962  29.584  32.161  1.00  0.00     0.167 HD
ATOM     61  C   UNL A   1      42.242  29.724  34.682  1.00  0.00     0.074 A 
ATOM     62  C   UNL A   1      42.528  30.095  36.052  1.00  0.00     0.031 C 
ATOM     63  C   UNL A   1      42.891  28.746  34.007  1.00  0.00     0.037 A 
BRANCH  50  64
ATOM     64  C   UNL A   1      40.705  27.702  28.345  1.00  0.00     0.057 A 
ATOM     65  C   UNL A   1      41.482  28.065  27.239  1.00  0.00     0.134 A 
ATOM     66  C   UNL A   1      40.054  26.462  28.299  1.00  0.00     0.134 A 
ATOM     67  F   UNL A   1      42.127  29.242  27.218  1.00  0.00    -0.206 F 
ATOM     68  C   UNL A   1      41.604  27.229  26.127  1.00  0.00     0.040 A 
ATOM     69  C   UNL A   1      40.185  25.609  27.203  1.00  0.00     0.040 A 
ATOM     70  F   UNL A   1      39.300  26.050  29.330  1.00  0.00    -0.206 F 
ATOM     71  C   UNL A   1      40.962  25.992  26.112  1.00  0.00     0.006 A 
ENDBRANCH  50  64
BRANCH  51  72
ATOM     72  C   UNL A   1      39.661  33.123  36.644  1.00  0.00     0.057 A 
ATOM     73  C   UNL A   1      40.407  34.266  36.953  1.00  0.00     0.134 A 
ATOM     74  C   UNL A   1      38.735  32.679  37.596  1.00  0.00     0.134 A 
ATOM     75  F   UNL A   1      41.324  34.727  36.090  1.00  0.00    -0.206 F 
ATOM     76  C   UNL A   1      40.259  34.927  38.173  1.00  0.00     0.040 A 
ATOM     77  C   UNL A   1      38.557  33.346  38.809  1.00  0.00     0.040 A 
ATOM     78  F   UNL A   1      37.985  31.594  37.357  1.00  0.00    -0.206 F 
ATOM     79  C   UNL A   1      39.329  34.468  39.105  1.00  0.00     0.006 A 
ENDBRANCH  51  72
BRANCH  63  80
ATOM     80  C   UNL A   1      43.983  28.019  34.731  1.00  0.00     0.057 A 
ATOM     81  C   UNL A   1      43.739  26.821  35.414  1.00  0.00     0.134 A 
ATOM     82  C   UNL A   1      45.300  28.496  34.708  1.00  0.00     0.134 A 
ATOM     83  F   UNL A   1      42.497  26.320  35.485  1.00  0.00    -0.206 F 
ATOM     84  C   UNL A   1      44.765  26.130  36.060  1.00  0.00     0.040 A 
ATOM     85  C   UNL A   1      46.338  27.802  35.330  1.00  0.00     0.040 A 
ATOM     86  F   UNL A   1      45.601  29.636  34.067  1.00  0.00    -0.206 F 
ATOM     87  C   UNL A   1      46.070  26.616  36.012  1.00  0.00     0.006 A 
ENDBRANCH  63  80
ENDBRANCH  37  38
ENDBRANCH  29  32
ENDBRANCH  27  28
ENDBRANCH  26  27
ENDBRANCH  25  26
ENDBRANCH   1  25
TORSDOF 16
ENDMDL
