MODEL 1
REMARK VINA RESULT:     -10.6      0.000      0.000
REMARK SMILES CC(C)C[C@@H](C(=O)NCCCCNC(=O)c1ccc(-c2c3nc(c(-c4c(F)cccc4F)c4ccc([nH]4)c(-c4c(F)cccc4F)c4nc(c(-c5c(F)cccc5F)c5ccc2[nH]5)C=C4)C=C3)cc1)[C@@H]1CCC[C@@H](C)C1
REMARK SMILES IDX 10 1 9 2 8 3 6 4 7 5 5 7 4 8 2 9 1 10 3 11 70 12 71 13 76 14
REMARK SMILES IDX 72 15 74 16 73 17 75 18 11 19 12 20 13 21 14 22 15 24 16 25
REMARK SMILES IDX 17 26 69 27 18 28 68 29 19 30 20 31 21 32 62 33 22 34 67 35
REMARK SMILES IDX 61 36 63 37 23 38 66 39 60 40 59 41 24 43 50 44 33 45 49 46
REMARK SMILES IDX 34 47 37 48 48 49 64 50 35 51 36 52 47 54 65 55 38 56 25 57
REMARK SMILES IDX 26 58 31 59 27 60 28 61 30 62 32 63 29 64 51 65 52 66 57 67
REMARK SMILES IDX 53 68 54 69 56 70 58 71 55 72 39 73 40 74 45 75 41 76 42 77
REMARK SMILES IDX 44 78 46 79 43 80
REMARK H PARENT 8 6 13 23 63 42 37 53
REMARK Flexibility Score: inf
ROOT
ATOM      1  C   UNL A   1      33.963  27.406  26.114  1.00  0.00     0.023 C 
ENDROOT
BRANCH   1   2
ATOM      2  C   UNL A   1      32.883  26.867  25.176  1.00  0.00     0.116 C 
BRANCH   2   3
ATOM      3  N   UNL A   1      33.316  26.837  23.798  1.00  0.00    -0.356 N 
ATOM      4  C   UNL A   1      33.613  25.819  22.954  1.00  0.00     0.223 C 
ATOM      5  O   UNL A   1      33.776  26.139  21.770  1.00  0.00    -0.275 OA
ATOM      6  H   UNL A   1      33.413  27.730  23.393  1.00  0.00     0.163 HD
BRANCH   4   7
ATOM      7  C   UNL A   1      33.777  24.347  23.369  1.00  0.00     0.082 C 
BRANCH   7   8
ATOM      8  C   UNL A   1      35.207  23.749  23.340  1.00  0.00     0.016 C 
BRANCH   8   9
ATOM      9  C   UNL A   1      36.002  23.442  24.622  1.00  0.00    -0.017 C 
ATOM     10  C   UNL A   1      35.196  23.740  25.889  1.00  0.00     0.007 C 
ATOM     11  C   UNL A   1      36.410  21.962  24.642  1.00  0.00     0.007 C 
ENDBRANCH   8   9
ENDBRANCH   7   8
BRANCH   7  12
ATOM     12  C   UNL A   1      32.505  23.449  23.147  1.00  0.00     0.002 C 
ATOM     13  C   UNL A   1      31.308  23.800  24.066  1.00  0.00     0.004 C 
ATOM     14  C   UNL A   1      32.652  21.928  23.096  1.00  0.00     0.007 C 
ATOM     15  C   UNL A   1      31.229  23.036  25.393  1.00  0.00     0.001 C 
ATOM     16  C   UNL A   1      32.806  21.293  24.476  1.00  0.00    -0.014 C 
ATOM     17  C   UNL A   1      31.525  21.543  25.272  1.00  0.00     0.003 C 
ATOM     18  C   UNL A   1      33.108  19.801  24.362  1.00  0.00     0.007 C 
ENDBRANCH   7  12
ENDBRANCH   4   7
ENDBRANCH   2   3
ENDBRANCH   1   2
BRANCH   1  19
ATOM     19  C   UNL A   1      33.502  28.525  27.037  1.00  0.00     0.023 C 
BRANCH  19  20
ATOM     20  C   UNL A   1      33.990  29.923  26.676  1.00  0.00     0.116 C 
BRANCH  20  21
ATOM     21  N   UNL A   1      33.984  30.878  27.779  1.00  0.00    -0.352 N 
ATOM     22  C   UNL A   1      34.954  31.074  28.739  1.00  0.00     0.251 C 
ATOM     23  H   UNL A   1      33.188  31.455  27.845  1.00  0.00     0.163 HD
ATOM     24  O   UNL A   1      34.808  31.901  29.630  1.00  0.00    -0.269 OA
BRANCH  22  25
ATOM     25  C   UNL A   1      36.151  30.209  28.708  1.00  0.00     0.039 A 
ATOM     26  C   UNL A   1      37.012  30.297  27.612  1.00  0.00     0.014 A 
ATOM     27  C   UNL A   1      36.497  29.453  29.830  1.00  0.00     0.014 A 
ATOM     28  C   UNL A   1      38.285  29.732  27.698  1.00  0.00     0.010 A 
ATOM     29  C   UNL A   1      37.792  28.964  29.945  1.00  0.00     0.010 A 
ATOM     30  C   UNL A   1      38.709  29.130  28.894  1.00  0.00    -0.014 A 
BRANCH  30  31
ATOM     31  C   UNL A   1      40.127  28.736  29.099  1.00  0.00     0.031 A 
ATOM     32  C   UNL A   1      41.118  29.724  29.642  1.00  0.00     0.074 A 
ATOM     33  C   UNL A   1      40.544  27.522  28.682  1.00  0.00     0.049 A 
ATOM     34  N   UNL A   1      42.414  29.604  29.775  1.00  0.00    -0.248 NA
ATOM     35  C   UNL A   1      40.589  31.035  30.051  1.00  0.00     0.031 C 
ATOM     36  C   UNL A   1      39.701  26.501  28.053  1.00  0.00     0.029 A 
ATOM     37  N   UNL A   1      41.793  26.950  28.701  1.00  0.00    -0.354 N 
ATOM     38  C   UNL A   1      42.858  30.833  30.244  1.00  0.00     0.074 A 
ATOM     39  C   UNL A   1      41.700  31.694  30.343  1.00  0.00     0.031 C 
ATOM     40  C   UNL A   1      40.451  25.424  27.766  1.00  0.00     0.029 A 
ATOM     41  C   UNL A   1      41.832  25.688  28.159  1.00  0.00     0.049 A 
ATOM     42  H   UNL A   1      42.586  27.401  29.072  1.00  0.00     0.167 HD
ATOM     43  C   UNL A   1      44.116  31.203  30.581  1.00  0.00     0.037 A 
ATOM     44  C   UNL A   1      42.864  24.841  27.988  1.00  0.00     0.037 A 
ATOM     45  C   UNL A   1      45.256  30.327  30.548  1.00  0.00     0.049 A 
ATOM     46  C   UNL A   1      44.237  25.252  28.438  1.00  0.00     0.074 A 
ATOM     47  C   UNL A   1      46.545  30.574  30.987  1.00  0.00     0.029 A 
ATOM     48  N   UNL A   1      45.242  29.032  30.053  1.00  0.00    -0.354 N 
ATOM     49  N   UNL A   1      44.623  26.385  28.969  1.00  0.00    -0.248 NA
ATOM     50  C   UNL A   1      45.314  24.266  28.269  1.00  0.00     0.031 C 
ATOM     51  C   UNL A   1      47.318  29.436  30.734  1.00  0.00     0.029 A 
ATOM     52  C   UNL A   1      46.504  28.474  30.160  1.00  0.00     0.049 A 
ATOM     53  H   UNL A   1      44.451  28.579  29.680  1.00  0.00     0.167 HD
ATOM     54  C   UNL A   1      45.984  26.245  29.209  1.00  0.00     0.074 A 
ATOM     55  C   UNL A   1      46.352  24.912  28.783  1.00  0.00     0.031 C 
ATOM     56  C   UNL A   1      46.851  27.145  29.732  1.00  0.00     0.037 A 
BRANCH  43  57
ATOM     57  C   UNL A   1      44.323  32.616  31.033  1.00  0.00     0.057 A 
ATOM     58  C   UNL A   1      44.631  33.640  30.131  1.00  0.00     0.134 A 
ATOM     59  C   UNL A   1      44.175  32.959  32.382  1.00  0.00     0.134 A 
ATOM     60  F   UNL A   1      44.800  33.369  28.828  1.00  0.00    -0.206 F 
ATOM     61  C   UNL A   1      44.804  34.957  30.557  1.00  0.00     0.040 A 
ATOM     62  C   UNL A   1      44.325  34.277  32.818  1.00  0.00     0.040 A 
ATOM     63  F   UNL A   1      43.877  32.024  33.296  1.00  0.00    -0.206 F 
ATOM     64  C   UNL A   1      44.644  35.279  31.903  1.00  0.00     0.006 A 
ENDBRANCH  43  57
BRANCH  44  65
ATOM     65  C   UNL A   1      42.641  23.508  27.377  1.00  0.00     0.057 A 
ATOM     66  C   UNL A   1      42.771  23.318  25.996  1.00  0.00     0.134 A 
ATOM     67  C   UNL A   1      42.278  22.400  28.150  1.00  0.00     0.134 A 
ATOM     68  F   UNL A   1      43.098  24.349  25.202  1.00  0.00    -0.206 F 
ATOM     69  C   UNL A   1      42.529  22.079  25.402  1.00  0.00     0.040 A 
ATOM     70  C   UNL A   1      42.051  21.150  27.572  1.00  0.00     0.040 A 
ATOM     71  F   UNL A   1      42.144  22.518  29.480  1.00  0.00    -0.206 F 
ATOM     72  C   UNL A   1      42.170  20.989  26.193  1.00  0.00     0.006 A 
ENDBRANCH  44  65
BRANCH  56  73
ATOM     73  C   UNL A   1      48.275  26.711  29.883  1.00  0.00     0.057 A 
ATOM     74  C   UNL A   1      49.238  27.013  28.912  1.00  0.00     0.134 A 
ATOM     75  C   UNL A   1      48.697  26.021  31.026  1.00  0.00     0.134 A 
ATOM     76  F   UNL A   1      48.890  27.658  27.789  1.00  0.00    -0.206 F 
ATOM     77  C   UNL A   1      50.571  26.633  29.068  1.00  0.00     0.040 A 
ATOM     78  C   UNL A   1      50.031  25.652  31.202  1.00  0.00     0.040 A 
ATOM     79  F   UNL A   1      47.821  25.707  31.993  1.00  0.00    -0.206 F 
ATOM     80  C   UNL A   1      50.971  25.956  30.219  1.00  0.00     0.006 A 
ENDBRANCH  56  73
ENDBRANCH  30  31
ENDBRANCH  22  25
ENDBRANCH  20  21
ENDBRANCH  19  20
ENDBRANCH   1  19
TORSDOF 14
ENDMDL
MODEL 2
REMARK VINA RESULT:     -10.6      1.195      2.364
REMARK SMILES CC(C)C[C@@H](C(=O)NCCCCNC(=O)c1ccc(-c2c3nc(c(-c4c(F)cccc4F)c4ccc([nH]4)c(-c4c(F)cccc4F)c4nc(c(-c5c(F)cccc5F)c5ccc2[nH]5)C=C4)C=C3)cc1)[C@@H]1CCC[C@@H](C)C1
REMARK SMILES IDX 10 1 9 2 8 3 6 4 7 5 5 7 4 8 2 9 1 10 3 11 70 12 71 13 76 14
REMARK SMILES IDX 72 15 74 16 73 17 75 18 11 19 12 20 13 21 14 22 15 24 16 25
REMARK SMILES IDX 17 26 69 27 18 28 68 29 19 30 20 31 21 32 62 33 22 34 67 35
REMARK SMILES IDX 61 36 63 37 23 38 66 39 60 40 59 41 24 43 50 44 33 45 49 46
REMARK SMILES IDX 34 47 37 48 48 49 64 50 35 51 36 52 47 54 65 55 38 56 25 57
REMARK SMILES IDX 26 58 31 59 27 60 28 61 30 62 32 63 29 64 51 65 52 66 57 67
REMARK SMILES IDX 53 68 54 69 56 70 58 71 55 72 39 73 40 74 45 75 41 76 42 77
REMARK SMILES IDX 44 78 46 79 43 80
REMARK H PARENT 8 6 13 23 63 42 37 53
REMARK Flexibility Score: inf
ROOT
ATOM      1  C   UNL A   1      31.488  27.770  27.134  1.00  0.00     0.023 C 
ENDROOT
BRANCH   1   2
ATOM      2  C   UNL A   1      31.306  26.682  26.076  1.00  0.00     0.116 C 
BRANCH   2   3
ATOM      3  N   UNL A   1      30.608  25.525  26.589  1.00  0.00    -0.356 N 
ATOM      4  C   UNL A   1      30.890  24.200  26.562  1.00  0.00     0.223 C 
ATOM      5  O   UNL A   1      30.162  23.487  27.264  1.00  0.00    -0.275 OA
ATOM      6  H   UNL A   1      29.763  25.743  27.048  1.00  0.00     0.163 HD
BRANCH   4   7
ATOM      7  C   UNL A   1      32.003  23.550  25.724  1.00  0.00     0.082 C 
BRANCH   7   8
ATOM      8  C   UNL A   1      31.591  22.450  24.712  1.00  0.00     0.016 C 
BRANCH   8   9
ATOM      9  C   UNL A   1      31.575  22.688  23.191  1.00  0.00    -0.017 C 
ATOM     10  C   UNL A   1      32.445  23.880  22.783  1.00  0.00     0.007 C 
ATOM     11  C   UNL A   1      32.088  21.438  22.462  1.00  0.00     0.007 C 
ENDBRANCH   8   9
ENDBRANCH   7   8
BRANCH   7  12
ATOM     12  C   UNL A   1      33.429  23.564  26.389  1.00  0.00     0.002 C 
ATOM     13  C   UNL A   1      34.329  24.744  25.944  1.00  0.00     0.004 C 
ATOM     14  C   UNL A   1      34.269  22.287  26.403  1.00  0.00     0.007 C 
ATOM     15  C   UNL A   1      35.240  24.482  24.739  1.00  0.00     0.001 C 
ATOM     16  C   UNL A   1      34.945  21.997  25.065  1.00  0.00    -0.014 C 
ATOM     17  C   UNL A   1      35.935  23.123  24.766  1.00  0.00     0.003 C 
ATOM     18  C   UNL A   1      35.638  20.637  25.083  1.00  0.00     0.007 C 
ENDBRANCH   7  12
ENDBRANCH   4   7
ENDBRANCH   2   3
ENDBRANCH   1   2
BRANCH   1  19
ATOM     19  C   UNL A   1      32.180  29.031  26.636  1.00  0.00     0.023 C 
BRANCH  19  20
ATOM     20  C   UNL A   1      33.578  29.280  27.190  1.00  0.00     0.116 C 
BRANCH  20  21
ATOM     21  N   UNL A   1      33.743  30.548  27.891  1.00  0.00    -0.352 N 
ATOM     22  C   UNL A   1      34.866  31.024  28.533  1.00  0.00     0.251 C 
ATOM     23  H   UNL A   1      32.954  31.138  27.906  1.00  0.00     0.163 HD
ATOM     24  O   UNL A   1      34.859  32.106  29.107  1.00  0.00    -0.269 OA
BRANCH  22  25
ATOM     25  C   UNL A   1      36.065  30.163  28.573  1.00  0.00     0.039 A 
ATOM     26  C   UNL A   1      36.934  30.175  27.480  1.00  0.00     0.014 A 
ATOM     27  C   UNL A   1      36.404  29.491  29.749  1.00  0.00     0.014 A 
ATOM     28  C   UNL A   1      38.208  29.621  27.615  1.00  0.00     0.010 A 
ATOM     29  C   UNL A   1      37.700  29.015  29.908  1.00  0.00     0.010 A 
ATOM     30  C   UNL A   1      38.624  29.107  28.854  1.00  0.00    -0.014 A 
BRANCH  30  31
ATOM     31  C   UNL A   1      40.042  28.733  29.098  1.00  0.00     0.031 A 
ATOM     32  C   UNL A   1      40.999  29.729  29.684  1.00  0.00     0.074 A 
ATOM     33  C   UNL A   1      40.491  27.532  28.677  1.00  0.00     0.049 A 
ATOM     34  N   UNL A   1      42.292  29.628  29.855  1.00  0.00    -0.248 NA
ATOM     35  C   UNL A   1      40.437  31.026  30.093  1.00  0.00     0.031 C 
ATOM     36  C   UNL A   1      39.684  26.506  28.010  1.00  0.00     0.029 A 
ATOM     37  N   UNL A   1      41.747  26.980  28.728  1.00  0.00    -0.354 N 
ATOM     38  C   UNL A   1      42.702  30.857  30.354  1.00  0.00     0.074 A 
ATOM     39  C   UNL A   1      41.528  31.699  30.429  1.00  0.00     0.031 C 
ATOM     40  C   UNL A   1      40.460  25.446  27.732  1.00  0.00     0.029 A 
ATOM     41  C   UNL A   1      41.823  25.726  28.170  1.00  0.00     0.049 A 
ATOM     42  H   UNL A   1      42.522  27.438  29.128  1.00  0.00     0.167 HD
ATOM     43  C   UNL A   1      43.943  31.243  30.733  1.00  0.00     0.037 A 
ATOM     44  C   UNL A   1      42.874  24.899  28.019  1.00  0.00     0.037 A 
ATOM     45  C   UNL A   1      45.098  30.386  30.724  1.00  0.00     0.049 A 
ATOM     46  C   UNL A   1      44.226  25.325  28.517  1.00  0.00     0.074 A 
ATOM     47  C   UNL A   1      46.368  30.648  31.205  1.00  0.00     0.029 A 
ATOM     48  N   UNL A   1      45.119  29.098  30.211  1.00  0.00    -0.354 N 
ATOM     49  N   UNL A   1      44.578  26.457  29.074  1.00  0.00    -0.248 NA
ATOM     50  C   UNL A   1      45.323  24.359  28.368  1.00  0.00     0.031 C 
ATOM     51  C   UNL A   1      47.167  29.525  30.961  1.00  0.00     0.029 A 
ATOM     52  C   UNL A   1      46.387  28.559  30.349  1.00  0.00     0.049 A 
ATOM     53  H   UNL A   1      44.348  28.637  29.809  1.00  0.00     0.167 HD
ATOM     54  C   UNL A   1      45.932  26.335  29.354  1.00  0.00     0.074 A 
ATOM     55  C   UNL A   1      46.335  25.014  28.921  1.00  0.00     0.031 C 
ATOM     56  C   UNL A   1      46.768  27.241  29.915  1.00  0.00     0.037 A 
BRANCH  43  57
ATOM     57  C   UNL A   1      44.113  32.652  31.211  1.00  0.00     0.057 A 
ATOM     58  C   UNL A   1      43.969  32.994  32.560  1.00  0.00     0.134 A 
ATOM     59  C   UNL A   1      44.459  33.670  30.315  1.00  0.00     0.134 A 
ATOM     60  F   UNL A   1      43.625  32.065  33.464  1.00  0.00    -0.206 F 
ATOM     61  C   UNL A   1      44.147  34.306  33.001  1.00  0.00     0.040 A 
ATOM     62  C   UNL A   1      44.660  34.982  30.747  1.00  0.00     0.040 A 
ATOM     63  F   UNL A   1      44.613  33.406  29.008  1.00  0.00    -0.206 F 
ATOM     64  C   UNL A   1      44.500  35.303  32.094  1.00  0.00     0.006 A 
ENDBRANCH  43  57
BRANCH  44  65
ATOM     65  C   UNL A   1      42.692  23.570  27.384  1.00  0.00     0.057 A 
ATOM     66  C   UNL A   1      42.901  23.395  26.011  1.00  0.00     0.134 A 
ATOM     67  C   UNL A   1      42.290  22.454  28.125  1.00  0.00     0.134 A 
ATOM     68  F   UNL A   1      43.268  24.434  25.247  1.00  0.00    -0.206 F 
ATOM     69  C   UNL A   1      42.698  22.161  25.393  1.00  0.00     0.040 A 
ATOM     70  C   UNL A   1      42.101  21.208  27.523  1.00  0.00     0.040 A 
ATOM     71  F   UNL A   1      42.080  22.559  29.446  1.00  0.00    -0.206 F 
ATOM     72  C   UNL A   1      42.299  21.061  26.151  1.00  0.00     0.006 A 
ENDBRANCH  44  65
BRANCH  56  73
ATOM     73  C   UNL A   1      48.194  26.828  30.103  1.00  0.00     0.057 A 
ATOM     74  C   UNL A   1      48.618  26.176  31.268  1.00  0.00     0.134 A 
ATOM     75  C   UNL A   1      49.142  27.045  29.096  1.00  0.00     0.134 A 
ATOM     76  F   UNL A   1      47.758  25.953  32.273  1.00  0.00    -0.206 F 
ATOM     77  C   UNL A   1      49.941  25.764  31.430  1.00  0.00     0.040 A 
ATOM     78  C   UNL A   1      50.464  26.622  29.238  1.00  0.00     0.040 A 
ATOM     79  F   UNL A   1      48.795  27.661  27.956  1.00  0.00    -0.206 F 
ATOM     80  C   UNL A   1      50.867  25.982  30.410  1.00  0.00     0.006 A 
ENDBRANCH  56  73
ENDBRANCH  30  31
ENDBRANCH  22  25
ENDBRANCH  20  21
ENDBRANCH  19  20
ENDBRANCH   1  19
TORSDOF 14
ENDMDL
MODEL 3
REMARK VINA RESULT:     -10.6      3.431      6.425
REMARK SMILES CC(C)C[C@@H](C(=O)NCCCCNC(=O)c1ccc(-c2c3nc(c(-c4c(F)cccc4F)c4ccc([nH]4)c(-c4c(F)cccc4F)c4nc(c(-c5c(F)cccc5F)c5ccc2[nH]5)C=C4)C=C3)cc1)[C@@H]1CCC[C@@H](C)C1
REMARK SMILES IDX 10 1 9 2 8 3 6 4 7 5 5 7 4 8 2 9 1 10 3 11 70 12 71 13 76 14
REMARK SMILES IDX 72 15 74 16 73 17 75 18 11 19 12 20 13 21 14 22 15 24 16 25
REMARK SMILES IDX 17 26 69 27 18 28 68 29 19 30 20 31 21 32 62 33 22 34 67 35
REMARK SMILES IDX 61 36 63 37 23 38 66 39 60 40 59 41 24 43 50 44 33 45 49 46
REMARK SMILES IDX 34 47 37 48 48 49 64 50 35 51 36 52 47 54 65 55 38 56 25 57
REMARK SMILES IDX 26 58 31 59 27 60 28 61 30 62 32 63 29 64 51 65 52 66 57 67
REMARK SMILES IDX 53 68 54 69 56 70 58 71 55 72 39 73 40 74 45 75 41 76 42 77
REMARK SMILES IDX 44 78 46 79 43 80
REMARK H PARENT 8 6 13 23 63 42 37 53
REMARK Flexibility Score: inf
ROOT
ATOM      1  C   UNL A   1      33.532  34.578  28.633  1.00  0.00     0.023 C 
ENDROOT
BRANCH   1   2
ATOM      2  C   UNL A   1      34.519  34.542  29.800  1.00  0.00     0.116 C 
BRANCH   2   3
ATOM      3  N   UNL A   1      33.947  33.945  30.986  1.00  0.00    -0.356 N 
ATOM      4  C   UNL A   1      34.502  33.330  32.059  1.00  0.00     0.223 C 
ATOM      5  O   UNL A   1      33.729  33.095  32.996  1.00  0.00    -0.275 OA
ATOM      6  H   UNL A   1      32.964  33.995  31.021  1.00  0.00     0.163 HD
BRANCH   4   7
ATOM      7  C   UNL A   1      35.975  32.902  32.168  1.00  0.00     0.082 C 
BRANCH   7   8
ATOM      8  C   UNL A   1      36.685  32.438  30.870  1.00  0.00     0.016 C 
BRANCH   8   9
ATOM      9  C   UNL A   1      37.921  33.158  30.300  1.00  0.00    -0.017 C 
ATOM     10  C   UNL A   1      37.787  33.438  28.801  1.00  0.00     0.007 C 
ATOM     11  C   UNL A   1      38.128  34.494  31.028  1.00  0.00     0.007 C 
ENDBRANCH   8   9
ENDBRANCH   7   8
BRANCH   7  12
ATOM     12  C   UNL A   1      36.406  32.360  33.580  1.00  0.00     0.002 C 
ATOM     13  C   UNL A   1      36.844  33.461  34.579  1.00  0.00     0.004 C 
ATOM     14  C   UNL A   1      37.389  31.194  33.676  1.00  0.00     0.007 C 
ATOM     15  C   UNL A   1      38.340  33.797  34.600  1.00  0.00     0.001 C 
ATOM     16  C   UNL A   1      38.840  31.611  33.442  1.00  0.00    -0.014 C 
ATOM     17  C   UNL A   1      39.254  32.575  34.554  1.00  0.00     0.003 C 
ATOM     18  C   UNL A   1      39.758  30.393  33.390  1.00  0.00     0.007 C 
ENDBRANCH   7  12
ENDBRANCH   4   7
ENDBRANCH   2   3
ENDBRANCH   1   2
BRANCH   1  19
ATOM     19  C   UNL A   1      33.263  33.226  27.986  1.00  0.00     0.023 C 
BRANCH  19  20
ATOM     20  C   UNL A   1      34.315  32.152  28.239  1.00  0.00     0.116 C 
BRANCH  20  21
ATOM     21  N   UNL A   1      33.910  30.800  27.873  1.00  0.00    -0.352 N 
ATOM     22  C   UNL A   1      34.668  29.649  27.901  1.00  0.00     0.251 C 
ATOM     23  H   UNL A   1      32.979  30.696  27.568  1.00  0.00     0.163 HD
ATOM     24  O   UNL A   1      34.205  28.574  27.540  1.00  0.00    -0.269 OA
BRANCH  22  25
ATOM     25  C   UNL A   1      36.082  29.755  28.313  1.00  0.00     0.039 A 
ATOM     26  C   UNL A   1      36.438  29.341  29.599  1.00  0.00     0.014 A 
ATOM     27  C   UNL A   1      37.060  30.097  27.376  1.00  0.00     0.014 A 
ATOM     28  C   UNL A   1      37.785  29.141  29.903  1.00  0.00     0.010 A 
ATOM     29  C   UNL A   1      38.392  29.819  27.655  1.00  0.00     0.010 A 
ATOM     30  C   UNL A   1      38.763  29.305  28.909  1.00  0.00    -0.014 A 
BRANCH  30  31
ATOM     31  C   UNL A   1      40.168  28.873  29.129  1.00  0.00     0.031 A 
ATOM     32  C   UNL A   1      41.178  29.834  29.684  1.00  0.00     0.074 A 
ATOM     33  C   UNL A   1      40.557  27.650  28.714  1.00  0.00     0.049 A 
ATOM     34  N   UNL A   1      42.469  29.680  29.831  1.00  0.00    -0.248 NA
ATOM     35  C   UNL A   1      40.680  31.158  30.089  1.00  0.00     0.031 C 
ATOM     36  C   UNL A   1      39.694  26.652  28.074  1.00  0.00     0.029 A 
ATOM     37  N   UNL A   1      41.790  27.045  28.745  1.00  0.00    -0.354 N 
ATOM     38  C   UNL A   1      42.941  30.896  30.307  1.00  0.00     0.074 A 
ATOM     39  C   UNL A   1      41.805  31.788  30.395  1.00  0.00     0.031 C 
ATOM     40  C   UNL A   1      40.419  25.557  27.793  1.00  0.00     0.029 A 
ATOM     41  C   UNL A   1      41.801  25.783  28.201  1.00  0.00     0.049 A 
ATOM     42  H   UNL A   1      42.591  27.474  29.125  1.00  0.00     0.167 HD
ATOM     43  C   UNL A   1      44.204  31.232  30.658  1.00  0.00     0.037 A 
ATOM     44  C   UNL A   1      42.812  24.910  28.039  1.00  0.00     0.037 A 
ATOM     45  C   UNL A   1      45.321  30.326  30.636  1.00  0.00     0.049 A 
ATOM     46  C   UNL A   1      44.191  25.283  28.505  1.00  0.00     0.074 A 
ATOM     47  C   UNL A   1      46.611  30.539  31.089  1.00  0.00     0.029 A 
ATOM     48  N   UNL A   1      45.278  29.033  30.138  1.00  0.00    -0.354 N 
ATOM     49  N   UNL A   1      44.602  26.405  29.043  1.00  0.00    -0.248 NA
ATOM     50  C   UNL A   1      45.243  24.270  28.346  1.00  0.00     0.031 C 
ATOM     51  C   UNL A   1      47.357  29.380  30.842  1.00  0.00     0.029 A 
ATOM     52  C   UNL A   1      46.524  28.442  30.257  1.00  0.00     0.049 A 
ATOM     53  H   UNL A   1      44.479  28.601  29.756  1.00  0.00     0.167 HD
ATOM     54  C   UNL A   1      45.955  26.229  29.296  1.00  0.00     0.074 A 
ATOM     55  C   UNL A   1      46.293  24.887  28.872  1.00  0.00     0.031 C 
ATOM     56  C   UNL A   1      46.840  27.104  29.830  1.00  0.00     0.037 A 
BRANCH  43  57
ATOM     57  C   UNL A   1      44.444  32.638  31.115  1.00  0.00     0.057 A 
ATOM     58  C   UNL A   1      44.287  33.012  32.454  1.00  0.00     0.134 A 
ATOM     59  C   UNL A   1      44.870  33.618  30.211  1.00  0.00     0.134 A 
ATOM     60  F   UNL A   1      43.867  32.121  33.365  1.00  0.00    -0.206 F 
ATOM     61  C   UNL A   1      44.530  34.320  32.878  1.00  0.00     0.040 A 
ATOM     62  C   UNL A   1      45.136  34.924  30.625  1.00  0.00     0.040 A 
ATOM     63  F   UNL A   1      45.041  33.321  28.914  1.00  0.00    -0.206 F 
ATOM     64  C   UNL A   1      44.962  35.278  31.962  1.00  0.00     0.006 A 
ENDBRANCH  43  57
BRANCH  44  65
ATOM     65  C   UNL A   1      42.561  23.584  27.423  1.00  0.00     0.057 A 
ATOM     66  C   UNL A   1      42.218  22.478  28.209  1.00  0.00     0.134 A 
ATOM     67  C   UNL A   1      42.675  23.385  26.043  1.00  0.00     0.134 A 
ATOM     68  F   UNL A   1      42.113  22.604  29.541  1.00  0.00    -0.206 F 
ATOM     69  C   UNL A   1      42.015  21.217  27.649  1.00  0.00     0.040 A 
ATOM     70  C   UNL A   1      42.457  22.133  25.465  1.00  0.00     0.040 A 
ATOM     71  F   UNL A   1      42.996  24.409  25.237  1.00  0.00    -0.206 F 
ATOM     72  C   UNL A   1      42.132  21.043  26.270  1.00  0.00     0.006 A 
ENDBRANCH  44  65
BRANCH  56  73
ATOM     73  C   UNL A   1      48.251  26.632  29.996  1.00  0.00     0.057 A 
ATOM     74  C   UNL A   1      49.218  26.857  29.008  1.00  0.00     0.134 A 
ATOM     75  C   UNL A   1      48.656  25.984  31.169  1.00  0.00     0.134 A 
ATOM     76  F   UNL A   1      48.884  27.460  27.857  1.00  0.00    -0.206 F 
ATOM     77  C   UNL A   1      50.539  26.443  29.176  1.00  0.00     0.040 A 
ATOM     78  C   UNL A   1      49.979  25.581  31.356  1.00  0.00     0.040 A 
ATOM     79  F   UNL A   1      47.777  25.744  32.153  1.00  0.00    -0.206 F 
ATOM     80  C   UNL A   1      50.923  25.808  30.356  1.00  0.00     0.006 A 
ENDBRANCH  56  73
ENDBRANCH  30  31
ENDBRANCH  22  25
ENDBRANCH  20  21
ENDBRANCH  19  20
ENDBRANCH   1  19
TORSDOF 14
ENDMDL
