MODEL 1
REMARK VINA RESULT:      -8.7      0.000      0.000
REMARK SMILES O=C(CCCC[C@@H]1CCSS1)NCCCCNC(=O)c1ccc(-c2c3nc(c(-c4c(F)cccc4F)c4ccc([nH]4)c(-c4c(F)cccc4F)c4nc(c(-c5c(F)cccc5F)c5ccc2[nH]5)C=C4)C=C3)cc1
REMARK SMILES IDX 13 1 12 2 1 3 2 4 3 6 4 7 5 8 6 9 7 10 8 11 11 12 9 13 10 14
REMARK SMILES IDX 14 15 15 16 16 17 17 18 18 19 19 21 20 22 21 23 73 24 22 25
REMARK SMILES IDX 72 26 23 27 24 28 25 29 66 30 26 31 71 32 65 33 67 34 27 35
REMARK SMILES IDX 70 36 64 37 63 38 28 40 54 41 37 42 53 43 38 44 41 45 52 46
REMARK SMILES IDX 68 47 39 48 40 49 51 51 69 52 42 53 29 54 30 55 35 56 31 57
REMARK SMILES IDX 32 58 34 59 36 60 33 61 55 62 56 63 61 64 57 65 58 66 60 67
REMARK SMILES IDX 62 68 59 69 43 70 44 71 49 72 45 73 46 74 48 75 50 76 47 77
REMARK H PARENT 12 5 17 20 67 39 41 50
REMARK Flexibility Score: inf
ROOT
ATOM      1  C   UNL A   1      45.572  21.284  24.262  1.00  0.00     0.116 C 
ENDROOT
BRANCH   1   2
ATOM      2  N   UNL A   1      46.443  22.312  24.790  1.00  0.00    -0.356 N 
ATOM      3  O   UNL A   1      45.044  24.070  24.324  1.00  0.00    -0.275 OA
ATOM      4  C   UNL A   1      46.075  23.637  24.825  1.00  0.00     0.219 C 
ATOM      5  H   UNL A   1      47.329  22.055  25.135  1.00  0.00     0.163 HD
BRANCH   4   6
ATOM      6  C   UNL A   1      47.053  24.537  25.550  1.00  0.00     0.100 C 
BRANCH   6   7
ATOM      7  C   UNL A   1      47.858  25.424  24.594  1.00  0.00     0.010 C 
BRANCH   7   8
ATOM      8  C   UNL A   1      47.562  26.935  24.609  1.00  0.00     0.002 C 
BRANCH   8   9
ATOM      9  C   UNL A   1      46.092  27.377  24.642  1.00  0.00     0.015 C 
BRANCH   9  10
ATOM     10  C   UNL A   1      45.577  28.009  25.946  1.00  0.00     0.059 C 
ATOM     11  C   UNL A   1      44.078  28.302  26.027  1.00  0.00     0.027 C 
ATOM     12  S   UNL A   1      46.439  29.601  26.222  1.00  0.00    -0.091 SA
ATOM     13  C   UNL A   1      43.774  29.203  27.219  1.00  0.00     0.083 C 
ATOM     14  S   UNL A   1      44.867  30.627  27.042  1.00  0.00    -0.094 SA
ENDBRANCH   9  10
ENDBRANCH   8   9
ENDBRANCH   7   8
ENDBRANCH   6   7
ENDBRANCH   4   6
ENDBRANCH   1   2
BRANCH   1  15
ATOM     15  C   UNL A   1      45.679  19.973  25.036  1.00  0.00     0.023 C 
BRANCH  15  16
ATOM     16  C   UNL A   1      44.522  18.991  24.829  1.00  0.00     0.023 C 
BRANCH  16  17
ATOM     17  C   UNL A   1      43.640  18.743  26.050  1.00  0.00     0.116 C 
BRANCH  17  18
ATOM     18  N   UNL A   1      42.231  18.634  25.712  1.00  0.00    -0.352 N 
ATOM     19  C   UNL A   1      41.192  19.500  25.962  1.00  0.00     0.251 C 
ATOM     20  H   UNL A   1      41.980  17.813  25.230  1.00  0.00     0.163 HD
ATOM     21  O   UNL A   1      40.039  19.150  25.735  1.00  0.00    -0.269 OA
BRANCH  19  22
ATOM     22  C   UNL A   1      41.450  20.844  26.529  1.00  0.00     0.039 A 
ATOM     23  C   UNL A   1      41.209  21.056  27.889  1.00  0.00     0.014 A 
ATOM     24  C   UNL A   1      41.903  21.898  25.730  1.00  0.00     0.014 A 
ATOM     25  C   UNL A   1      41.487  22.300  28.462  1.00  0.00     0.010 A 
ATOM     26  C   UNL A   1      42.248  23.116  26.316  1.00  0.00     0.010 A 
ATOM     27  C   UNL A   1      42.046  23.331  27.688  1.00  0.00    -0.014 A 
BRANCH  27  28
ATOM     28  C   UNL A   1      42.440  24.628  28.300  1.00  0.00     0.031 A 
ATOM     29  C   UNL A   1      41.424  25.721  28.492  1.00  0.00     0.074 A 
ATOM     30  C   UNL A   1      43.729  24.848  28.626  1.00  0.00     0.049 A 
ATOM     31  N   UNL A   1      41.594  26.939  28.942  1.00  0.00    -0.248 NA
ATOM     32  C   UNL A   1      40.039  25.414  28.103  1.00  0.00     0.031 C 
ATOM     33  C   UNL A   1      44.821  23.887  28.453  1.00  0.00     0.029 A 
ATOM     34  N   UNL A   1      44.342  25.954  29.160  1.00  0.00    -0.354 N 
ATOM     35  C   UNL A   1      40.346  27.545  28.878  1.00  0.00     0.074 A 
ATOM     36  C   UNL A   1      39.438  26.579  28.299  1.00  0.00     0.031 C 
ATOM     37  C   UNL A   1      45.963  24.436  28.896  1.00  0.00     0.029 A 
ATOM     38  C   UNL A   1      45.695  25.799  29.343  1.00  0.00     0.049 A 
ATOM     39  H   UNL A   1      43.858  26.779  29.391  1.00  0.00     0.167 HD
ATOM     40  C   UNL A   1      39.983  28.786  29.283  1.00  0.00     0.037 A 
ATOM     41  C   UNL A   1      46.619  26.661  29.809  1.00  0.00     0.037 A 
ATOM     42  C   UNL A   1      40.882  29.740  29.881  1.00  0.00     0.049 A 
ATOM     43  C   UNL A   1      46.195  28.040  30.235  1.00  0.00     0.074 A 
ATOM     44  C   UNL A   1      40.594  30.998  30.381  1.00  0.00     0.029 A 
ATOM     45  N   UNL A   1      42.244  29.543  30.055  1.00  0.00    -0.354 N 
ATOM     46  N   UNL A   1      44.998  28.574  30.231  1.00  0.00    -0.248 NA
ATOM     47  C   UNL A   1      47.250  28.933  30.733  1.00  0.00     0.031 C 
ATOM     48  C   UNL A   1      41.790  31.584  30.810  1.00  0.00     0.029 A 
ATOM     49  C   UNL A   1      42.815  30.668  30.629  1.00  0.00     0.049 A 
ATOM     50  H   UNL A   1      42.733  28.725  29.807  1.00  0.00     0.167 HD
ATOM     51  C   UNL A   1      45.151  29.852  30.755  1.00  0.00     0.074 A 
ATOM     52  C   UNL A   1      46.554  30.006  31.078  1.00  0.00     0.031 C 
ATOM     53  C   UNL A   1      44.211  30.809  30.953  1.00  0.00     0.037 A 
BRANCH  40  54
ATOM     54  C   UNL A   1      38.549  29.189  29.090  1.00  0.00     0.057 A 
ATOM     55  C   UNL A   1      37.627  29.167  30.145  1.00  0.00     0.134 A 
ATOM     56  C   UNL A   1      38.095  29.643  27.846  1.00  0.00     0.134 A 
ATOM     57  F   UNL A   1      37.992  28.734  31.360  1.00  0.00    -0.206 F 
ATOM     58  C   UNL A   1      36.298  29.556  29.960  1.00  0.00     0.040 A 
ATOM     59  C   UNL A   1      36.778  30.063  27.657  1.00  0.00     0.040 A 
ATOM     60  F   UNL A   1      38.927  29.699  26.795  1.00  0.00    -0.206 F 
ATOM     61  C   UNL A   1      35.872  30.013  28.715  1.00  0.00     0.006 A 
ENDBRANCH  40  54
BRANCH  41  62
ATOM     62  C   UNL A   1      48.041  26.243  29.917  1.00  0.00     0.057 A 
ATOM     63  C   UNL A   1      48.549  25.720  31.111  1.00  0.00     0.134 A 
ATOM     64  C   UNL A   1      48.927  26.368  28.840  1.00  0.00     0.134 A 
ATOM     65  F   UNL A   1      47.755  25.595  32.185  1.00  0.00    -0.206 F 
ATOM     66  C   UNL A   1      49.891  25.357  31.239  1.00  0.00     0.040 A 
ATOM     67  C   UNL A   1      50.264  25.983  28.944  1.00  0.00     0.040 A 
ATOM     68  F   UNL A   1      48.500  26.856  27.665  1.00  0.00    -0.206 F 
ATOM     69  C   UNL A   1      50.751  25.484  30.151  1.00  0.00     0.006 A 
ENDBRANCH  41  62
BRANCH  53  70
ATOM     70  C   UNL A   1      44.661  32.095  31.583  1.00  0.00     0.057 A 
ATOM     71  C   UNL A   1      45.074  33.193  30.818  1.00  0.00     0.134 A 
ATOM     72  C   UNL A   1      44.645  32.249  32.976  1.00  0.00     0.134 A 
ATOM     73  F   UNL A   1      45.125  33.108  29.479  1.00  0.00    -0.206 F 
ATOM     74  C   UNL A   1      45.477  34.389  31.415  1.00  0.00     0.040 A 
ATOM     75  C   UNL A   1      45.019  33.449  33.583  1.00  0.00     0.040 A 
ATOM     76  F   UNL A   1      44.252  31.240  33.769  1.00  0.00    -0.206 F 
ATOM     77  C   UNL A   1      45.444  34.521  32.801  1.00  0.00     0.006 A 
ENDBRANCH  53  70
ENDBRANCH  27  28
ENDBRANCH  19  22
ENDBRANCH  17  18
ENDBRANCH  16  17
ENDBRANCH  15  16
ENDBRANCH   1  15
TORSDOF 15
ENDMDL
MODEL 2
REMARK VINA RESULT:      -8.7      0.648      6.602
REMARK SMILES O=C(CCCC[C@@H]1CCSS1)NCCCCNC(=O)c1ccc(-c2c3nc(c(-c4c(F)cccc4F)c4ccc([nH]4)c(-c4c(F)cccc4F)c4nc(c(-c5c(F)cccc5F)c5ccc2[nH]5)C=C4)C=C3)cc1
REMARK SMILES IDX 13 1 12 2 1 3 2 4 3 6 4 7 5 8 6 9 7 10 8 11 11 12 9 13 10 14
REMARK SMILES IDX 14 15 15 16 16 17 17 18 18 19 19 21 20 22 21 23 73 24 22 25
REMARK SMILES IDX 72 26 23 27 24 28 25 29 66 30 26 31 71 32 65 33 67 34 27 35
REMARK SMILES IDX 70 36 64 37 63 38 28 40 54 41 37 42 53 43 38 44 41 45 52 46
REMARK SMILES IDX 68 47 39 48 40 49 51 51 69 52 42 53 29 54 30 55 35 56 31 57
REMARK SMILES IDX 32 58 34 59 36 60 33 61 55 62 56 63 61 64 57 65 58 66 60 67
REMARK SMILES IDX 62 68 59 69 43 70 44 71 49 72 45 73 46 74 48 75 50 76 47 77
REMARK H PARENT 12 5 17 20 67 39 41 50
REMARK Flexibility Score: inf
ROOT
ATOM      1  C   UNL A   1      45.405  22.279  24.209  1.00  0.00     0.116 C 
ENDROOT
BRANCH   1   2
ATOM      2  N   UNL A   1      46.428  23.296  24.332  1.00  0.00    -0.356 N 
ATOM      3  O   UNL A   1      45.036  24.939  25.125  1.00  0.00    -0.275 OA
ATOM      4  C   UNL A   1      46.161  24.546  24.839  1.00  0.00     0.219 C 
ATOM      5  H   UNL A   1      47.345  23.086  24.042  1.00  0.00     0.163 HD
BRANCH   4   6
ATOM      6  C   UNL A   1      47.386  25.416  25.030  1.00  0.00     0.100 C 
BRANCH   6   7
ATOM      7  C   UNL A   1      47.143  26.873  24.624  1.00  0.00     0.010 C 
BRANCH   7   8
ATOM      8  C   UNL A   1      47.041  27.917  25.752  1.00  0.00     0.002 C 
BRANCH   8   9
ATOM      9  C   UNL A   1      45.739  27.970  26.564  1.00  0.00     0.015 C 
BRANCH   9  10
ATOM     10  C   UNL A   1      45.355  29.322  27.189  1.00  0.00     0.059 C 
ATOM     11  C   UNL A   1      43.915  29.793  26.986  1.00  0.00     0.027 C 
ATOM     12  S   UNL A   1      46.436  30.629  26.499  1.00  0.00    -0.091 SA
ATOM     13  C   UNL A   1      43.772  31.261  27.372  1.00  0.00     0.083 C 
ATOM     14  S   UNL A   1      45.045  32.133  26.437  1.00  0.00    -0.094 SA
ENDBRANCH   9  10
ENDBRANCH   8   9
ENDBRANCH   7   8
ENDBRANCH   6   7
ENDBRANCH   4   6
ENDBRANCH   1   2
BRANCH   1  15
ATOM     15  C   UNL A   1      45.883  20.909  24.680  1.00  0.00     0.023 C 
BRANCH  15  16
ATOM     16  C   UNL A   1      44.930  19.745  24.390  1.00  0.00     0.023 C 
BRANCH  16  17
ATOM     17  C   UNL A   1      44.320  19.071  25.615  1.00  0.00     0.116 C 
BRANCH  17  18
ATOM     18  N   UNL A   1      42.908  18.771  25.447  1.00  0.00    -0.352 N 
ATOM     19  C   UNL A   1      41.799  19.480  25.846  1.00  0.00     0.251 C 
ATOM     20  H   UNL A   1      42.714  17.930  24.973  1.00  0.00     0.163 HD
ATOM     21  O   UNL A   1      40.685  18.975  25.749  1.00  0.00    -0.269 OA
BRANCH  19  22
ATOM     22  C   UNL A   1      41.939  20.840  26.418  1.00  0.00     0.039 A 
ATOM     23  C   UNL A   1      41.859  20.995  27.805  1.00  0.00     0.014 A 
ATOM     24  C   UNL A   1      42.123  21.959  25.603  1.00  0.00     0.014 A 
ATOM     25  C   UNL A   1      42.033  22.258  28.377  1.00  0.00     0.010 A 
ATOM     26  C   UNL A   1      42.368  23.205  26.177  1.00  0.00     0.010 A 
ATOM     27  C   UNL A   1      42.328  23.370  27.571  1.00  0.00    -0.014 A 
BRANCH  27  28
ATOM     28  C   UNL A   1      42.613  24.701  28.168  1.00  0.00     0.031 A 
ATOM     29  C   UNL A   1      43.990  25.031  28.676  1.00  0.00     0.074 A 
ATOM     30  C   UNL A   1      41.614  25.594  28.313  1.00  0.00     0.049 A 
ATOM     31  N   UNL A   1      44.409  26.111  29.288  1.00  0.00    -0.248 NA
ATOM     32  C   UNL A   1      45.027  24.005  28.494  1.00  0.00     0.031 C 
ATOM     33  C   UNL A   1      40.225  25.384  27.902  1.00  0.00     0.029 A 
ATOM     34  N   UNL A   1      41.611  26.855  28.858  1.00  0.00    -0.354 N 
ATOM     35  C   UNL A   1      45.750  25.887  29.576  1.00  0.00     0.074 A 
ATOM     36  C   UNL A   1      46.062  24.551  29.116  1.00  0.00     0.031 C 
ATOM     37  C   UNL A   1      39.511  26.485  28.186  1.00  0.00     0.029 A 
ATOM     38  C   UNL A   1      40.379  27.461  28.837  1.00  0.00     0.049 A 
ATOM     39  H   UNL A   1      42.416  27.284  29.228  1.00  0.00     0.167 HD
ATOM     40  C   UNL A   1      46.646  26.725  30.151  1.00  0.00     0.037 A 
ATOM     41  C   UNL A   1      39.987  28.665  29.298  1.00  0.00     0.037 A 
ATOM     42  C   UNL A   1      46.341  28.064  30.587  1.00  0.00     0.049 A 
ATOM     43  C   UNL A   1      40.997  29.569  29.950  1.00  0.00     0.074 A 
ATOM     44  C   UNL A   1      47.197  29.010  31.123  1.00  0.00     0.029 A 
ATOM     45  N   UNL A   1      45.082  28.644  30.542  1.00  0.00    -0.354 N 
ATOM     46  N   UNL A   1      42.276  29.369  30.153  1.00  0.00    -0.248 NA
ATOM     47  C   UNL A   1      40.507  30.868  30.433  1.00  0.00     0.031 C 
ATOM     48  C   UNL A   1      46.447  30.145  31.451  1.00  0.00     0.029 A 
ATOM     49  C   UNL A   1      45.133  29.926  31.066  1.00  0.00     0.049 A 
ATOM     50  H   UNL A   1      44.272  28.210  30.189  1.00  0.00     0.167 HD
ATOM     51  C   UNL A   1      42.750  30.528  30.757  1.00  0.00     0.074 A 
ATOM     52  C   UNL A   1      41.623  31.429  30.875  1.00  0.00     0.031 C 
ATOM     53  C   UNL A   1      44.007  30.818  31.173  1.00  0.00     0.037 A 
BRANCH  40  54
ATOM     54  C   UNL A   1      48.046  26.218  30.347  1.00  0.00     0.057 A 
ATOM     55  C   UNL A   1      49.024  26.343  29.351  1.00  0.00     0.134 A 
ATOM     56  C   UNL A   1      48.432  25.635  31.560  1.00  0.00     0.134 A 
ATOM     57  F   UNL A   1      48.720  26.883  28.162  1.00  0.00    -0.206 F 
ATOM     58  C   UNL A   1      50.327  25.880  29.547  1.00  0.00     0.040 A 
ATOM     59  C   UNL A   1      49.739  25.196  31.778  1.00  0.00     0.040 A 
ATOM     60  F   UNL A   1      47.549  25.492  32.560  1.00  0.00    -0.206 F 
ATOM     61  C   UNL A   1      50.690  25.312  30.766  1.00  0.00     0.006 A 
ENDBRANCH  40  54
BRANCH  41  62
ATOM     62  C   UNL A   1      38.574  29.098  29.145  1.00  0.00     0.057 A 
ATOM     63  C   UNL A   1      38.102  29.600  27.927  1.00  0.00     0.134 A 
ATOM     64  C   UNL A   1      37.668  29.036  30.211  1.00  0.00     0.134 A 
ATOM     65  F   UNL A   1      38.928  29.703  26.875  1.00  0.00    -0.206 F 
ATOM     66  C   UNL A   1      36.787  30.044  27.779  1.00  0.00     0.040 A 
ATOM     67  C   UNL A   1      36.344  29.450  30.070  1.00  0.00     0.040 A 
ATOM     68  F   UNL A   1      38.057  28.559  31.404  1.00  0.00    -0.206 F 
ATOM     69  C   UNL A   1      35.902  29.965  28.852  1.00  0.00     0.006 A 
ENDBRANCH  41  62
BRANCH  53  70
ATOM     70  C   UNL A   1      44.241  32.180  31.759  1.00  0.00     0.057 A 
ATOM     71  C   UNL A   1      44.629  33.271  30.971  1.00  0.00     0.134 A 
ATOM     72  C   UNL A   1      44.039  32.411  33.127  1.00  0.00     0.134 A 
ATOM     73  F   UNL A   1      44.852  33.115  29.657  1.00  0.00    -0.206 F 
ATOM     74  C   UNL A   1      44.830  34.537  31.525  1.00  0.00     0.040 A 
ATOM     75  C   UNL A   1      44.209  33.678  33.687  1.00  0.00     0.040 A 
ATOM     76  F   UNL A   1      43.658  31.412  33.937  1.00  0.00    -0.206 F 
ATOM     77  C   UNL A   1      44.613  34.743  32.886  1.00  0.00     0.006 A 
ENDBRANCH  53  70
ENDBRANCH  27  28
ENDBRANCH  19  22
ENDBRANCH  17  18
ENDBRANCH  16  17
ENDBRANCH  15  16
ENDBRANCH   1  15
TORSDOF 15
ENDMDL
MODEL 3
REMARK VINA RESULT:      -8.5      4.456     10.323
REMARK SMILES O=C(CCCC[C@@H]1CCSS1)NCCCCNC(=O)c1ccc(-c2c3nc(c(-c4c(F)cccc4F)c4ccc([nH]4)c(-c4c(F)cccc4F)c4nc(c(-c5c(F)cccc5F)c5ccc2[nH]5)C=C4)C=C3)cc1
REMARK SMILES IDX 13 1 12 2 1 3 2 4 3 6 4 7 5 8 6 9 7 10 8 11 11 12 9 13 10 14
REMARK SMILES IDX 14 15 15 16 16 17 17 18 18 19 19 21 20 22 21 23 73 24 22 25
REMARK SMILES IDX 72 26 23 27 24 28 25 29 66 30 26 31 71 32 65 33 67 34 27 35
REMARK SMILES IDX 70 36 64 37 63 38 28 40 54 41 37 42 53 43 38 44 41 45 52 46
REMARK SMILES IDX 68 47 39 48 40 49 51 51 69 52 42 53 29 54 30 55 35 56 31 57
REMARK SMILES IDX 32 58 34 59 36 60 33 61 55 62 56 63 61 64 57 65 58 66 60 67
REMARK SMILES IDX 62 68 59 69 43 70 44 71 49 72 45 73 46 74 48 75 50 76 47 77
REMARK H PARENT 12 5 17 20 67 39 41 50
REMARK Flexibility Score: inf
ROOT
ATOM      1  C   UNL A   1      33.454  35.527  29.078  1.00  0.00     0.116 C 
ENDROOT
BRANCH   1   2
ATOM      2  N   UNL A   1      34.013  36.035  30.312  1.00  0.00    -0.356 N 
ATOM      3  O   UNL A   1      32.030  36.803  31.173  1.00  0.00    -0.275 OA
ATOM      4  C   UNL A   1      33.231  36.592  31.296  1.00  0.00     0.219 C 
ATOM      5  H   UNL A   1      34.987  35.980  30.452  1.00  0.00     0.163 HD
BRANCH   4   6
ATOM      6  C   UNL A   1      33.976  36.925  32.572  1.00  0.00     0.100 C 
BRANCH   6   7
ATOM      7  C   UNL A   1      34.209  35.696  33.456  1.00  0.00     0.010 C 
BRANCH   7   8
ATOM      8  C   UNL A   1      35.548  34.952  33.300  1.00  0.00     0.002 C 
BRANCH   8   9
ATOM      9  C   UNL A   1      35.859  33.819  34.289  1.00  0.00     0.015 C 
BRANCH   9  10
ATOM     10  C   UNL A   1      37.110  32.968  34.013  1.00  0.00     0.059 C 
ATOM     11  C   UNL A   1      36.895  31.636  33.294  1.00  0.00     0.027 C 
ATOM     12  S   UNL A   1      37.932  32.580  35.603  1.00  0.00    -0.091 SA
ATOM     13  C   UNL A   1      38.151  30.775  33.377  1.00  0.00     0.083 C 
ATOM     14  S   UNL A   1      38.563  30.688  35.132  1.00  0.00    -0.094 SA
ENDBRANCH   9  10
ENDBRANCH   8   9
ENDBRANCH   7   8
ENDBRANCH   6   7
ENDBRANCH   4   6
ENDBRANCH   1   2
BRANCH   1  15
ATOM     15  C   UNL A   1      34.385  34.542  28.375  1.00  0.00     0.023 C 
BRANCH  15  16
ATOM     16  C   UNL A   1      35.506  33.964  29.244  1.00  0.00     0.023 C 
BRANCH  16  17
ATOM     17  C   UNL A   1      35.193  32.636  29.928  1.00  0.00     0.116 C 
BRANCH  17  18
ATOM     18  N   UNL A   1      34.428  31.735  29.083  1.00  0.00    -0.352 N 
ATOM     19  C   UNL A   1      34.831  30.621  28.385  1.00  0.00     0.251 C 
ATOM     20  H   UNL A   1      33.472  31.955  28.997  1.00  0.00     0.163 HD
ATOM     21  O   UNL A   1      34.060  30.084  27.596  1.00  0.00    -0.269 OA
BRANCH  19  22
ATOM     22  C   UNL A   1      36.199  30.078  28.556  1.00  0.00     0.039 A 
ATOM     23  C   UNL A   1      37.099  30.182  27.491  1.00  0.00     0.014 A 
ATOM     24  C   UNL A   1      36.591  29.449  29.740  1.00  0.00     0.014 A 
ATOM     25  C   UNL A   1      38.410  29.721  27.639  1.00  0.00     0.010 A 
ATOM     26  C   UNL A   1      37.918  29.055  29.912  1.00  0.00     0.010 A 
ATOM     27  C   UNL A   1      38.843  29.188  28.865  1.00  0.00    -0.014 A 
BRANCH  27  28
ATOM     28  C   UNL A   1      40.259  28.782  29.072  1.00  0.00     0.031 A 
ATOM     29  C   UNL A   1      41.244  29.737  29.687  1.00  0.00     0.074 A 
ATOM     30  C   UNL A   1      40.675  27.573  28.647  1.00  0.00     0.049 A 
ATOM     31  N   UNL A   1      42.531  29.587  29.883  1.00  0.00    -0.248 NA
ATOM     32  C   UNL A   1      40.721  31.043  30.118  1.00  0.00     0.031 C 
ATOM     33  C   UNL A   1      39.831  26.568  27.996  1.00  0.00     0.029 A 
ATOM     34  N   UNL A   1      41.916  26.987  28.687  1.00  0.00    -0.354 N 
ATOM     35  C   UNL A   1      42.971  30.779  30.443  1.00  0.00     0.074 A 
ATOM     36  C   UNL A   1      41.826  31.661  30.511  1.00  0.00     0.031 C 
ATOM     37  C   UNL A   1      40.572  25.483  27.722  1.00  0.00     0.029 A 
ATOM     38  C   UNL A   1      41.950  25.729  28.136  1.00  0.00     0.049 A 
ATOM     39  H   UNL A   1      42.707  27.426  29.074  1.00  0.00     0.167 HD
ATOM     40  C   UNL A   1      44.211  31.104  30.881  1.00  0.00     0.037 A 
ATOM     41  C   UNL A   1      42.976  24.872  27.972  1.00  0.00     0.037 A 
ATOM     42  C   UNL A   1      45.347  30.218  30.835  1.00  0.00     0.049 A 
ATOM     43  C   UNL A   1      44.347  25.263  28.450  1.00  0.00     0.074 A 
ATOM     44  C   UNL A   1      46.627  30.435  31.313  1.00  0.00     0.029 A 
ATOM     45  N   UNL A   1      45.338  28.949  30.276  1.00  0.00    -0.354 N 
ATOM     46  N   UNL A   1      44.733  26.369  29.040  1.00  0.00    -0.248 NA
ATOM     47  C   UNL A   1      45.425  24.286  28.242  1.00  0.00     0.031 C 
ATOM     48  C   UNL A   1      47.408  29.318  30.996  1.00  0.00     0.029 A 
ATOM     49  C   UNL A   1      46.599  28.382  30.371  1.00  0.00     0.049 A 
ATOM     50  H   UNL A   1      44.552  28.515  29.871  1.00  0.00     0.167 HD
ATOM     51  C   UNL A   1      46.088  26.206  29.302  1.00  0.00     0.074 A 
ATOM     52  C   UNL A   1      46.453  24.891  28.819  1.00  0.00     0.031 C 
ATOM     53  C   UNL A   1      46.951  27.069  29.893  1.00  0.00     0.037 A 
BRANCH  40  54
ATOM     54  C   UNL A   1      44.410  32.481  31.448  1.00  0.00     0.057 A 
ATOM     55  C   UNL A   1      44.788  33.565  30.643  1.00  0.00     0.134 A 
ATOM     56  C   UNL A   1      44.182  32.735  32.806  1.00  0.00     0.134 A 
ATOM     57  F   UNL A   1      45.031  33.390  29.336  1.00  0.00    -0.206 F 
ATOM     58  C   UNL A   1      44.958  34.844  31.176  1.00  0.00     0.040 A 
ATOM     59  C   UNL A   1      44.320  34.016  33.343  1.00  0.00     0.040 A 
ATOM     60  F   UNL A   1      43.810  31.746  33.632  1.00  0.00    -0.206 F 
ATOM     61  C   UNL A   1      44.716  35.074  32.528  1.00  0.00     0.006 A 
ENDBRANCH  40  54
BRANCH  41  62
ATOM     62  C   UNL A   1      42.747  23.546  27.342  1.00  0.00     0.057 A 
ATOM     63  C   UNL A   1      42.901  23.368  25.963  1.00  0.00     0.134 A 
ATOM     64  C   UNL A   1      42.355  22.433  28.096  1.00  0.00     0.134 A 
ATOM     65  F   UNL A   1      43.255  24.401  25.184  1.00  0.00    -0.206 F 
ATOM     66  C   UNL A   1      42.654  22.137  25.352  1.00  0.00     0.040 A 
ATOM     67  C   UNL A   1      42.132  21.190  27.503  1.00  0.00     0.040 A 
ATOM     68  F   UNL A   1      42.195  22.537  29.425  1.00  0.00    -0.206 F 
ATOM     69  C   UNL A   1      42.273  21.042  26.125  1.00  0.00     0.006 A 
ENDBRANCH  41  62
BRANCH  53  70
ATOM     70  C   UNL A   1      48.365  26.605  30.087  1.00  0.00     0.057 A 
ATOM     71  C   UNL A   1      49.380  26.913  29.172  1.00  0.00     0.134 A 
ATOM     72  C   UNL A   1      48.723  25.870  31.225  1.00  0.00     0.134 A 
ATOM     73  F   UNL A   1      49.102  27.603  28.055  1.00  0.00    -0.206 F 
ATOM     74  C   UNL A   1      50.694  26.487  29.370  1.00  0.00     0.040 A 
ATOM     75  C   UNL A   1      50.039  25.462  31.448  1.00  0.00     0.040 A 
ATOM     76  F   UNL A   1      47.802  25.547  32.146  1.00  0.00    -0.206 F 
ATOM     77  C   UNL A   1      51.028  25.765  30.515  1.00  0.00     0.006 A 
ENDBRANCH  53  70
ENDBRANCH  27  28
ENDBRANCH  19  22
ENDBRANCH  17  18
ENDBRANCH  16  17
ENDBRANCH  15  16
ENDBRANCH   1  15
TORSDOF 15
ENDMDL
