MODEL 1
REMARK VINA RESULT:     -13.0      0.000      0.000
REMARK SMILES C[C@@H]1CN(S(=O)(=O)c2cccc(C(=O)N3CCC[C@@H]3C(=O)NCCCCNC(=O)c3ccc(-c4c5nc(c(-c6c(F)cccc6F)c6ccc([nH]6)c(-c6c(F)cccc6F)c6nc(c(-c7c(F)cccc7F)c7ccc4[nH]7)C=C6)C=C5)cc3)c2)C[C@H](C)O1
REMARK SMILES IDX 23 1 22 2 20 3 21 4 19 6 15 7 16 8 17 9 18 10 13 11 14 12
REMARK SMILES IDX 12 13 8 14 9 15 84 16 10 17 11 18 5 19 6 20 7 21 4 22 1 23
REMARK SMILES IDX 2 24 3 25 88 26 86 27 85 28 87 29 24 30 25 31 26 32 27 33
REMARK SMILES IDX 28 34 29 36 30 37 31 38 83 39 32 40 82 41 33 42 34 43 35 44
REMARK SMILES IDX 76 45 36 46 81 47 75 48 77 49 37 50 80 51 74 52 73 53 38 55
REMARK SMILES IDX 64 56 47 57 63 58 48 59 51 60 62 61 78 62 49 63 50 64 61 66
REMARK SMILES IDX 79 67 52 68 39 69 40 70 45 71 41 72 42 73 44 74 46 75 43 76
REMARK SMILES IDX 65 77 66 78 71 79 67 80 68 81 70 82 72 83 69 84 53 85 54 86
REMARK SMILES IDX 59 87 55 88 56 89 58 90 60 91 57 92
REMARK H PARENT 22 5 27 35 77 54 51 65
REMARK Flexibility Score: inf
ROOT
ATOM      1  C   UNL A   1      34.289  25.332  25.243  1.00  0.00     0.116 C 
ENDROOT
BRANCH   1   2
ATOM      2  N   UNL A   1      33.562  24.719  24.166  1.00  0.00    -0.354 N 
ATOM      3  C   UNL A   1      33.366  23.394  23.908  1.00  0.00     0.242 C 
ATOM      4  O   UNL A   1      32.829  23.116  22.828  1.00  0.00    -0.273 OA
ATOM      5  H   UNL A   1      33.150  25.343  23.526  1.00  0.00     0.163 HD
BRANCH   3   6
ATOM      6  C   UNL A   1      33.972  22.271  24.786  1.00  0.00     0.174 C 
ATOM      7  N   UNL A   1      35.194  21.594  24.346  1.00  0.00    -0.327 N 
ATOM      8  C   UNL A   1      35.198  20.251  24.898  1.00  0.00     0.121 C 
ATOM      9  C   UNL A   1      33.761  19.824  24.690  1.00  0.00     0.024 C 
ATOM     10  C   UNL A   1      32.962  21.110  24.933  1.00  0.00     0.037 C 
BRANCH   7  11
ATOM     11  C   UNL A   1      36.324  22.323  24.036  1.00  0.00     0.254 C 
ATOM     12  O   UNL A   1      36.527  22.745  22.901  1.00  0.00    -0.269 OA
BRANCH  11  13
ATOM     13  C   UNL A   1      37.440  22.358  25.047  1.00  0.00     0.041 A 
ATOM     14  C   UNL A   1      39.542  21.557  25.989  1.00  0.00     0.083 A 
ATOM     15  C   UNL A   1      39.630  22.705  26.783  1.00  0.00     0.022 A 
ATOM     16  C   UNL A   1      38.457  21.392  25.122  1.00  0.00     0.035 A 
ATOM     17  C   UNL A   1      38.627  23.673  26.718  1.00  0.00     0.002 A 
ATOM     18  C   UNL A   1      37.536  23.497  25.862  1.00  0.00     0.014 A 
BRANCH  14  19
ATOM     19  S   UNL A   1      40.597  20.162  26.348  1.00  0.00     0.243 S 
ATOM     20  O   UNL A   1      39.932  19.002  25.789  1.00  0.00    -0.207 OA
ATOM     21  O   UNL A   1      40.888  20.216  27.767  1.00  0.00    -0.207 OA
BRANCH  19  22
ATOM     22  N   UNL A   1      42.103  20.356  25.486  1.00  0.00    -0.193 NA
ATOM     23  C   UNL A   1      44.767  19.436  23.629  1.00  0.00     0.040 C 
ATOM     24  C   UNL A   1      44.483  19.468  25.129  1.00  0.00     0.130 C 
ATOM     25  C   UNL A   1      43.027  19.177  25.561  1.00  0.00     0.134 C 
ATOM     26  O   UNL A   1      45.024  20.644  25.730  1.00  0.00    -0.373 OA
ATOM     27  C   UNL A   1      44.222  21.816  25.584  1.00  0.00     0.130 C 
ATOM     28  C   UNL A   1      42.774  21.602  26.031  1.00  0.00     0.134 C 
ATOM     29  C   UNL A   1      44.368  22.472  24.218  1.00  0.00     0.040 C 
ENDBRANCH  19  22
ENDBRANCH  14  19
ENDBRANCH  11  13
ENDBRANCH   7  11
ENDBRANCH   3   6
ENDBRANCH   1   2
BRANCH   1  30
ATOM     30  C   UNL A   1      33.668  26.637  25.702  1.00  0.00     0.023 C 
BRANCH  30  31
ATOM     31  C   UNL A   1      33.364  27.662  24.622  1.00  0.00     0.023 C 
BRANCH  31  32
ATOM     32  C   UNL A   1      33.822  29.090  24.901  1.00  0.00     0.116 C 
BRANCH  32  33
ATOM     33  N   UNL A   1      32.809  29.957  25.493  1.00  0.00    -0.352 N 
ATOM     34  C   UNL A   1      32.863  30.757  26.608  1.00  0.00     0.251 C 
ATOM     35  H   UNL A   1      31.949  29.972  25.015  1.00  0.00     0.163 HD
ATOM     36  O   UNL A   1      31.912  31.473  26.909  1.00  0.00    -0.269 OA
BRANCH  34  37
ATOM     37  C   UNL A   1      34.047  30.761  27.478  1.00  0.00     0.039 A 
ATOM     38  C   UNL A   1      34.731  31.966  27.692  1.00  0.00     0.014 A 
ATOM     39  C   UNL A   1      34.523  29.572  28.025  1.00  0.00     0.014 A 
ATOM     40  C   UNL A   1      35.868  31.988  28.496  1.00  0.00     0.010 A 
ATOM     41  C   UNL A   1      35.607  29.603  28.885  1.00  0.00     0.010 A 
ATOM     42  C   UNL A   1      36.302  30.804  29.098  1.00  0.00    -0.014 A 
BRANCH  42  43
ATOM     43  C   UNL A   1      37.588  30.716  29.815  1.00  0.00     0.031 A 
ATOM     44  C   UNL A   1      38.703  29.977  29.136  1.00  0.00     0.074 A 
ATOM     45  C   UNL A   1      37.705  31.168  31.072  1.00  0.00     0.049 A 
ATOM     46  N   UNL A   1      39.794  29.473  29.640  1.00  0.00    -0.248 NA
ATOM     47  C   UNL A   1      38.522  29.719  27.696  1.00  0.00     0.031 C 
ATOM     48  C   UNL A   1      36.683  31.909  31.810  1.00  0.00     0.029 A 
ATOM     49  N   UNL A   1      38.736  31.033  31.962  1.00  0.00    -0.354 N 
ATOM     50  C   UNL A   1      40.392  28.774  28.599  1.00  0.00     0.074 A 
ATOM     51  C   UNL A   1      39.537  28.908  27.442  1.00  0.00     0.031 C 
ATOM     52  C   UNL A   1      37.141  32.164  33.049  1.00  0.00     0.029 A 
ATOM     53  C   UNL A   1      38.461  31.560  33.199  1.00  0.00     0.049 A 
ATOM     54  H   UNL A   1      39.591  30.601  31.737  1.00  0.00     0.167 HD
ATOM     55  C   UNL A   1      41.552  28.079  28.618  1.00  0.00     0.037 A 
ATOM     56  C   UNL A   1      39.194  31.527  34.326  1.00  0.00     0.037 A 
ATOM     57  C   UNL A   1      42.414  28.017  29.766  1.00  0.00     0.049 A 
ATOM     58  C   UNL A   1      40.513  30.803  34.307  1.00  0.00     0.074 A 
ATOM     59  C   UNL A   1      43.638  27.390  29.901  1.00  0.00     0.029 A 
ATOM     60  N   UNL A   1      42.139  28.634  30.979  1.00  0.00    -0.354 N 
ATOM     61  N   UNL A   1      41.071  30.128  33.329  1.00  0.00    -0.248 NA
ATOM     62  C   UNL A   1      41.301  30.834  35.544  1.00  0.00     0.031 C 
ATOM     63  C   UNL A   1      44.100  27.621  31.203  1.00  0.00     0.029 A 
ATOM     64  C   UNL A   1      43.176  28.414  31.867  1.00  0.00     0.049 A 
ATOM     65  H   UNL A   1      41.326  29.153  31.177  1.00  0.00     0.167 HD
ATOM     66  C   UNL A   1      42.287  29.679  33.821  1.00  0.00     0.074 A 
ATOM     67  C   UNL A   1      42.387  30.162  35.185  1.00  0.00     0.031 C 
ATOM     68  C   UNL A   1      43.241  28.935  33.208  1.00  0.00     0.037 A 
BRANCH  55  69
ATOM     69  C   UNL A   1      41.917  27.327  27.373  1.00  0.00     0.057 A 
ATOM     70  C   UNL A   1      41.704  25.948  27.246  1.00  0.00     0.134 A 
ATOM     71  C   UNL A   1      42.531  27.986  26.301  1.00  0.00     0.134 A 
ATOM     72  F   UNL A   1      41.144  25.252  28.247  1.00  0.00    -0.206 F 
ATOM     73  C   UNL A   1      42.127  25.245  26.116  1.00  0.00     0.040 A 
ATOM     74  C   UNL A   1      42.933  27.299  25.154  1.00  0.00     0.040 A 
ATOM     75  F   UNL A   1      42.768  29.306  26.358  1.00  0.00    -0.206 F 
ATOM     76  C   UNL A   1      42.741  25.922  25.064  1.00  0.00     0.006 A 
ENDBRANCH  55  69
BRANCH  56  77
ATOM     77  C   UNL A   1      38.715  32.221  35.544  1.00  0.00     0.057 A 
ATOM     78  C   UNL A   1      38.164  31.494  36.606  1.00  0.00     0.134 A 
ATOM     79  C   UNL A   1      38.811  33.609  35.693  1.00  0.00     0.134 A 
ATOM     80  F   UNL A   1      38.033  30.163  36.514  1.00  0.00    -0.206 F 
ATOM     81  C   UNL A   1      37.714  32.122  37.768  1.00  0.00     0.040 A 
ATOM     82  C   UNL A   1      38.382  34.249  36.858  1.00  0.00     0.040 A 
ATOM     83  F   UNL A   1      39.338  34.361  34.716  1.00  0.00    -0.206 F 
ATOM     84  C   UNL A   1      37.827  33.505  37.898  1.00  0.00     0.006 A 
ENDBRANCH  56  77
BRANCH  68  85
ATOM     85  C   UNL A   1      44.486  28.657  33.991  1.00  0.00     0.057 A 
ATOM     86  C   UNL A   1      45.582  29.526  33.966  1.00  0.00     0.134 A 
ATOM     87  C   UNL A   1      44.566  27.525  34.810  1.00  0.00     0.134 A 
ATOM     88  F   UNL A   1      45.566  30.620  33.190  1.00  0.00    -0.206 F 
ATOM     89  C   UNL A   1      46.728  29.267  34.718  1.00  0.00     0.040 A 
ATOM     90  C   UNL A   1      45.698  27.265  35.581  1.00  0.00     0.040 A 
ATOM     91  F   UNL A   1      43.543  26.661  34.879  1.00  0.00    -0.206 F 
ATOM     92  C   UNL A   1      46.785  28.137  35.532  1.00  0.00     0.006 A 
ENDBRANCH  68  85
ENDBRANCH  42  43
ENDBRANCH  34  37
ENDBRANCH  32  33
ENDBRANCH  31  32
ENDBRANCH  30  31
ENDBRANCH   1  30
TORSDOF 15
ENDMDL
MODEL 2
REMARK VINA RESULT:     -12.3      2.908      8.325
REMARK SMILES C[C@@H]1CN(S(=O)(=O)c2cccc(C(=O)N3CCC[C@@H]3C(=O)NCCCCNC(=O)c3ccc(-c4c5nc(c(-c6c(F)cccc6F)c6ccc([nH]6)c(-c6c(F)cccc6F)c6nc(c(-c7c(F)cccc7F)c7ccc4[nH]7)C=C6)C=C5)cc3)c2)C[C@H](C)O1
REMARK SMILES IDX 23 1 22 2 20 3 21 4 19 6 15 7 16 8 17 9 18 10 13 11 14 12
REMARK SMILES IDX 12 13 8 14 9 15 84 16 10 17 11 18 5 19 6 20 7 21 4 22 1 23
REMARK SMILES IDX 2 24 3 25 88 26 86 27 85 28 87 29 24 30 25 31 26 32 27 33
REMARK SMILES IDX 28 34 29 36 30 37 31 38 83 39 32 40 82 41 33 42 34 43 35 44
REMARK SMILES IDX 76 45 36 46 81 47 75 48 77 49 37 50 80 51 74 52 73 53 38 55
REMARK SMILES IDX 64 56 47 57 63 58 48 59 51 60 62 61 78 62 49 63 50 64 61 66
REMARK SMILES IDX 79 67 52 68 39 69 40 70 45 71 41 72 42 73 44 74 46 75 43 76
REMARK SMILES IDX 65 77 66 78 71 79 67 80 68 81 70 82 72 83 69 84 53 85 54 86
REMARK SMILES IDX 59 87 55 88 56 89 58 90 60 91 57 92
REMARK H PARENT 22 5 27 35 77 54 51 65
REMARK Flexibility Score: inf
ROOT
ATOM      1  C   UNL A   1      37.131  22.657  25.661  1.00  0.00     0.116 C 
ENDROOT
BRANCH   1   2
ATOM      2  N   UNL A   1      35.941  22.976  26.401  1.00  0.00    -0.354 N 
ATOM      3  C   UNL A   1      34.665  22.535  26.208  1.00  0.00     0.242 C 
ATOM      4  O   UNL A   1      33.785  23.077  26.888  1.00  0.00    -0.273 OA
ATOM      5  H   UNL A   1      36.065  23.603  27.151  1.00  0.00     0.163 HD
BRANCH   3   6
ATOM      6  C   UNL A   1      34.277  21.577  25.055  1.00  0.00     0.174 C 
ATOM      7  N   UNL A   1      33.403  22.058  23.983  1.00  0.00    -0.327 N 
ATOM      8  C   UNL A   1      32.677  20.925  23.439  1.00  0.00     0.121 C 
ATOM      9  C   UNL A   1      32.294  20.169  24.693  1.00  0.00     0.024 C 
ATOM     10  C   UNL A   1      33.506  20.359  25.614  1.00  0.00     0.037 C 
BRANCH   7  11
ATOM     11  C   UNL A   1      33.726  23.200  23.278  1.00  0.00     0.254 C 
ATOM     12  O   UNL A   1      34.826  23.343  22.750  1.00  0.00    -0.269 OA
BRANCH  11  13
ATOM     13  C   UNL A   1      32.808  24.388  23.400  1.00  0.00     0.041 A 
ATOM     14  C   UNL A   1      32.221  26.726  23.031  1.00  0.00     0.083 A 
ATOM     15  C   UNL A   1      30.898  26.457  23.397  1.00  0.00     0.022 A 
ATOM     16  C   UNL A   1      33.165  25.694  23.027  1.00  0.00     0.035 A 
ATOM     17  C   UNL A   1      30.529  25.164  23.770  1.00  0.00     0.002 A 
ATOM     18  C   UNL A   1      31.479  24.139  23.779  1.00  0.00     0.014 A 
BRANCH  14  19
ATOM     19  S   UNL A   1      32.774  28.421  22.934  1.00  0.00     0.243 S 
ATOM     20  O   UNL A   1      31.643  29.183  22.442  1.00  0.00    -0.207 OA
ATOM     21  O   UNL A   1      34.018  28.409  22.191  1.00  0.00    -0.207 OA
BRANCH  19  22
ATOM     22  N   UNL A   1      33.119  28.996  24.546  1.00  0.00    -0.193 NA
ATOM     23  C   UNL A   1      34.823  29.299  27.443  1.00  0.00     0.040 C 
ATOM     24  C   UNL A   1      33.731  28.352  26.952  1.00  0.00     0.130 C 
ATOM     25  C   UNL A   1      33.761  27.986  25.450  1.00  0.00     0.134 C 
ATOM     26  O   UNL A   1      32.444  28.772  27.404  1.00  0.00    -0.373 OA
ATOM     27  C   UNL A   1      31.847  29.813  26.630  1.00  0.00     0.130 C 
ATOM     28  C   UNL A   1      31.813  29.494  25.133  1.00  0.00     0.134 C 
ATOM     29  C   UNL A   1      32.394  31.194  26.966  1.00  0.00     0.040 C 
ENDBRANCH  19  22
ENDBRANCH  14  19
ENDBRANCH  11  13
ENDBRANCH   7  11
ENDBRANCH   3   6
ENDBRANCH   1   2
BRANCH   1  30
ATOM     30  C   UNL A   1      38.348  23.415  26.153  1.00  0.00     0.023 C 
BRANCH  30  31
ATOM     31  C   UNL A   1      39.512  22.578  26.658  1.00  0.00     0.023 C 
BRANCH  31  32
ATOM     32  C   UNL A   1      40.794  23.336  26.988  1.00  0.00     0.116 C 
BRANCH  32  33
ATOM     33  N   UNL A   1      41.309  24.175  25.911  1.00  0.00    -0.352 N 
ATOM     34  C   UNL A   1      41.558  25.525  25.874  1.00  0.00     0.251 C 
ATOM     35  H   UNL A   1      41.511  23.695  25.076  1.00  0.00     0.163 HD
ATOM     36  O   UNL A   1      42.060  26.040  24.880  1.00  0.00    -0.269 OA
BRANCH  34  37
ATOM     37  C   UNL A   1      41.210  26.387  27.013  1.00  0.00     0.039 A 
ATOM     38  C   UNL A   1      41.829  27.640  27.131  1.00  0.00     0.014 A 
ATOM     39  C   UNL A   1      40.332  25.937  27.995  1.00  0.00     0.014 A 
ATOM     40  C   UNL A   1      41.530  28.464  28.213  1.00  0.00     0.010 A 
ATOM     41  C   UNL A   1      39.976  26.784  29.030  1.00  0.00     0.010 A 
ATOM     42  C   UNL A   1      40.597  28.036  29.161  1.00  0.00    -0.014 A 
BRANCH  42  43
ATOM     43  C   UNL A   1      40.362  28.773  30.416  1.00  0.00     0.031 A 
ATOM     44  C   UNL A   1      39.246  29.774  30.426  1.00  0.00     0.074 A 
ATOM     45  C   UNL A   1      41.197  28.639  31.457  1.00  0.00     0.049 A 
ATOM     46  N   UNL A   1      39.024  30.765  31.244  1.00  0.00    -0.248 NA
ATOM     47  C   UNL A   1      38.282  29.677  29.314  1.00  0.00     0.031 C 
ATOM     48  C   UNL A   1      42.301  27.685  31.548  1.00  0.00     0.029 A 
ATOM     49  N   UNL A   1      41.261  29.344  32.629  1.00  0.00    -0.354 N 
ATOM     50  C   UNL A   1      37.945  31.454  30.704  1.00  0.00     0.074 A 
ATOM     51  C   UNL A   1      37.566  30.776  29.485  1.00  0.00     0.031 C 
ATOM     52  C   UNL A   1      42.937  27.865  32.719  1.00  0.00     0.029 A 
ATOM     53  C   UNL A   1      42.314  28.977  33.429  1.00  0.00     0.049 A 
ATOM     54  H   UNL A   1      40.614  30.044  32.875  1.00  0.00     0.167 HD
ATOM     55  C   UNL A   1      37.332  32.558  31.188  1.00  0.00     0.037 A 
ATOM     56  C   UNL A   1      42.731  29.509  34.591  1.00  0.00     0.037 A 
ATOM     57  C   UNL A   1      37.690  33.173  32.438  1.00  0.00     0.049 A 
ATOM     58  C   UNL A   1      41.994  30.697  35.147  1.00  0.00     0.074 A 
ATOM     59  C   UNL A   1      37.117  34.262  33.065  1.00  0.00     0.029 A 
ATOM     60  N   UNL A   1      38.712  32.721  33.262  1.00  0.00    -0.354 N 
ATOM     61  N   UNL A   1      40.985  31.359  34.630  1.00  0.00    -0.248 NA
ATOM     62  C   UNL A   1      42.454  31.214  36.441  1.00  0.00     0.031 C 
ATOM     63  C   UNL A   1      37.802  34.477  34.268  1.00  0.00     0.029 A 
ATOM     64  C   UNL A   1      38.781  33.503  34.399  1.00  0.00     0.049 A 
ATOM     65  H   UNL A   1      39.300  31.957  33.065  1.00  0.00     0.167 HD
ATOM     66  C   UNL A   1      40.669  32.350  35.547  1.00  0.00     0.074 A 
ATOM     67  C   UNL A   1      41.593  32.200  36.655  1.00  0.00     0.031 C 
ATOM     68  C   UNL A   1      39.704  33.301  35.487  1.00  0.00     0.037 A 
BRANCH  55  69
ATOM     69  C   UNL A   1      36.247  33.161  30.347  1.00  0.00     0.057 A 
ATOM     70  C   UNL A   1      36.527  33.924  29.206  1.00  0.00     0.134 A 
ATOM     71  C   UNL A   1      34.903  33.012  30.710  1.00  0.00     0.134 A 
ATOM     72  F   UNL A   1      37.795  34.126  28.818  1.00  0.00    -0.206 F 
ATOM     73  C   UNL A   1      35.512  34.551  28.480  1.00  0.00     0.040 A 
ATOM     74  C   UNL A   1      33.878  33.612  29.977  1.00  0.00     0.040 A 
ATOM     75  F   UNL A   1      34.564  32.299  31.795  1.00  0.00    -0.206 F 
ATOM     76  C   UNL A   1      34.182  34.394  28.864  1.00  0.00     0.006 A 
ENDBRANCH  55  69
BRANCH  56  77
ATOM     77  C   UNL A   1      43.874  28.905  35.316  1.00  0.00     0.057 A 
ATOM     78  C   UNL A   1      43.661  27.905  36.273  1.00  0.00     0.134 A 
ATOM     79  C   UNL A   1      45.197  29.286  35.065  1.00  0.00     0.134 A 
ATOM     80  F   UNL A   1      42.414  27.509  36.566  1.00  0.00    -0.206 F 
ATOM     81  C   UNL A   1      44.721  27.314  36.962  1.00  0.00     0.040 A 
ATOM     82  C   UNL A   1      46.268  28.691  35.733  1.00  0.00     0.040 A 
ATOM     83  F   UNL A   1      45.467  30.232  34.153  1.00  0.00    -0.206 F 
ATOM     84  C   UNL A   1      46.030  27.704  36.689  1.00  0.00     0.006 A 
ENDBRANCH  56  77
BRANCH  68  85
ATOM     85  C   UNL A   1      39.571  34.203  36.674  1.00  0.00     0.057 A 
ATOM     86  C   UNL A   1      40.134  35.483  36.694  1.00  0.00     0.134 A 
ATOM     87  C   UNL A   1      38.834  33.794  37.792  1.00  0.00     0.134 A 
ATOM     88  F   UNL A   1      40.861  35.922  35.656  1.00  0.00    -0.206 F 
ATOM     89  C   UNL A   1      39.985  36.322  37.798  1.00  0.00     0.040 A 
ATOM     90  C   UNL A   1      38.661  34.631  38.893  1.00  0.00     0.040 A 
ATOM     91  F   UNL A   1      38.265  32.579  37.825  1.00  0.00    -0.206 F 
ATOM     92  C   UNL A   1      39.241  35.898  38.898  1.00  0.00     0.006 A 
ENDBRANCH  68  85
ENDBRANCH  42  43
ENDBRANCH  34  37
ENDBRANCH  32  33
ENDBRANCH  31  32
ENDBRANCH  30  31
ENDBRANCH   1  30
TORSDOF 15
ENDMDL
MODEL 3
REMARK VINA RESULT:     -12.0      4.114      8.830
REMARK SMILES C[C@@H]1CN(S(=O)(=O)c2cccc(C(=O)N3CCC[C@@H]3C(=O)NCCCCNC(=O)c3ccc(-c4c5nc(c(-c6c(F)cccc6F)c6ccc([nH]6)c(-c6c(F)cccc6F)c6nc(c(-c7c(F)cccc7F)c7ccc4[nH]7)C=C6)C=C5)cc3)c2)C[C@H](C)O1
REMARK SMILES IDX 23 1 22 2 20 3 21 4 19 6 15 7 16 8 17 9 18 10 13 11 14 12
REMARK SMILES IDX 12 13 8 14 9 15 84 16 10 17 11 18 5 19 6 20 7 21 4 22 1 23
REMARK SMILES IDX 2 24 3 25 88 26 86 27 85 28 87 29 24 30 25 31 26 32 27 33
REMARK SMILES IDX 28 34 29 36 30 37 31 38 83 39 32 40 82 41 33 42 34 43 35 44
REMARK SMILES IDX 76 45 36 46 81 47 75 48 77 49 37 50 80 51 74 52 73 53 38 55
REMARK SMILES IDX 64 56 47 57 63 58 48 59 51 60 62 61 78 62 49 63 50 64 61 66
REMARK SMILES IDX 79 67 52 68 39 69 40 70 45 71 41 72 42 73 44 74 46 75 43 76
REMARK SMILES IDX 65 77 66 78 71 79 67 80 68 81 70 82 72 83 69 84 53 85 54 86
REMARK SMILES IDX 59 87 55 88 56 89 58 90 60 91 57 92
REMARK H PARENT 22 5 27 35 77 54 51 65
REMARK Flexibility Score: inf
ROOT
ATOM      1  C   UNL A   1      43.456  23.931  27.206  1.00  0.00     0.116 C 
ENDROOT
BRANCH   1   2
ATOM      2  N   UNL A   1      44.676  23.422  26.642  1.00  0.00    -0.354 N 
ATOM      3  C   UNL A   1      45.941  23.925  26.736  1.00  0.00     0.242 C 
ATOM      4  O   UNL A   1      46.802  23.385  26.031  1.00  0.00    -0.273 OA
ATOM      5  H   UNL A   1      44.585  22.596  26.114  1.00  0.00     0.163 HD
BRANCH   3   6
ATOM      6  C   UNL A   1      46.266  25.236  27.494  1.00  0.00     0.174 C 
ATOM      7  N   UNL A   1      46.627  26.436  26.736  1.00  0.00    -0.327 N 
ATOM      8  C   UNL A   1      47.480  27.265  27.567  1.00  0.00     0.121 C 
ATOM      9  C   UNL A   1      48.400  26.238  28.191  1.00  0.00     0.024 C 
ATOM     10  C   UNL A   1      47.488  25.025  28.417  1.00  0.00     0.037 C 
BRANCH   7  11
ATOM     11  C   UNL A   1      45.796  26.908  25.739  1.00  0.00     0.254 C 
ATOM     12  O   UNL A   1      46.093  26.809  24.552  1.00  0.00    -0.269 OA
BRANCH  11  13
ATOM     13  C   UNL A   1      44.647  27.795  26.141  1.00  0.00     0.041 A 
ATOM     14  C   UNL A   1      43.702  29.772  27.213  1.00  0.00     0.083 A 
ATOM     15  C   UNL A   1      42.482  29.545  26.567  1.00  0.00     0.022 A 
ATOM     16  C   UNL A   1      44.777  28.905  26.992  1.00  0.00     0.035 A 
ATOM     17  C   UNL A   1      42.338  28.446  25.719  1.00  0.00     0.002 A 
ATOM     18  C   UNL A   1      43.411  27.574  25.513  1.00  0.00     0.014 A 
BRANCH  14  19
ATOM     19  S   UNL A   1      43.770  30.925  28.573  1.00  0.00     0.243 S 
ATOM     20  O   UNL A   1      44.939  30.561  29.349  1.00  0.00    -0.207 OA
ATOM     21  O   UNL A   1      42.459  30.918  29.190  1.00  0.00    -0.207 OA
BRANCH  19  22
ATOM     22  N   UNL A   1      44.054  32.528  27.941  1.00  0.00    -0.193 NA
ATOM     23  C   UNL A   1      43.814  35.109  25.779  1.00  0.00     0.040 C 
ATOM     24  C   UNL A   1      44.765  33.922  25.908  1.00  0.00     0.130 C 
ATOM     25  C   UNL A   1      44.156  32.606  26.447  1.00  0.00     0.134 C 
ATOM     26  O   UNL A   1      45.971  34.298  26.573  1.00  0.00    -0.373 OA
ATOM     27  C   UNL A   1      45.881  34.342  27.998  1.00  0.00     0.130 C 
ATOM     28  C   UNL A   1      45.318  33.051  28.595  1.00  0.00     0.134 C 
ATOM     29  C   UNL A   1      45.223  35.614  28.514  1.00  0.00     0.040 C 
ENDBRANCH  19  22
ENDBRANCH  14  19
ENDBRANCH  11  13
ENDBRANCH   7  11
ENDBRANCH   3   6
ENDBRANCH   1   2
BRANCH   1  30
ATOM     30  C   UNL A   1      42.847  22.992  28.229  1.00  0.00     0.023 C 
BRANCH  30  31
ATOM     31  C   UNL A   1      42.050  21.818  27.685  1.00  0.00     0.023 C 
BRANCH  31  32
ATOM     32  C   UNL A   1      41.640  21.904  26.218  1.00  0.00     0.116 C 
BRANCH  32  33
ATOM     33  N   UNL A   1      40.208  21.779  25.970  1.00  0.00    -0.352 N 
ATOM     34  C   UNL A   1      39.186  22.673  26.179  1.00  0.00     0.251 C 
ATOM     35  H   UNL A   1      39.929  20.915  25.592  1.00  0.00     0.163 HD
ATOM     36  O   UNL A   1      38.039  22.400  25.839  1.00  0.00    -0.269 OA
BRANCH  34  37
ATOM     37  C   UNL A   1      39.437  23.966  26.831  1.00  0.00     0.039 A 
ATOM     38  C   UNL A   1      40.083  24.979  26.107  1.00  0.00     0.014 A 
ATOM     39  C   UNL A   1      39.100  24.158  28.168  1.00  0.00     0.014 A 
ATOM     40  C   UNL A   1      40.348  26.205  26.712  1.00  0.00     0.010 A 
ATOM     41  C   UNL A   1      39.294  25.399  28.748  1.00  0.00     0.010 A 
ATOM     42  C   UNL A   1      39.947  26.417  28.034  1.00  0.00    -0.014 A 
BRANCH  42  43
ATOM     43  C   UNL A   1      40.347  27.617  28.792  1.00  0.00     0.031 A 
ATOM     44  C   UNL A   1      41.661  27.567  29.513  1.00  0.00     0.074 A 
ATOM     45  C   UNL A   1      39.506  28.653  28.929  1.00  0.00     0.049 A 
ATOM     46  N   UNL A   1      42.103  28.312  30.487  1.00  0.00    -0.248 NA
ATOM     47  C   UNL A   1      42.573  26.479  29.116  1.00  0.00     0.031 C 
ATOM     48  C   UNL A   1      38.215  28.799  28.259  1.00  0.00     0.029 A 
ATOM     49  N   UNL A   1      39.607  29.769  29.716  1.00  0.00    -0.354 N 
ATOM     50  C   UNL A   1      43.309  27.738  30.871  1.00  0.00     0.074 A 
ATOM     51  C   UNL A   1      43.520  26.579  30.035  1.00  0.00     0.031 C 
ATOM     52  C   UNL A   1      37.640  29.944  28.665  1.00  0.00     0.029 A 
ATOM     53  C   UNL A   1      38.501  30.579  29.658  1.00  0.00     0.049 A 
ATOM     54  H   UNL A   1      40.397  29.970  30.268  1.00  0.00     0.167 HD
ATOM     55  C   UNL A   1      44.157  28.148  31.841  1.00  0.00     0.037 A 
ATOM     56  C   UNL A   1      38.219  31.692  30.357  1.00  0.00     0.037 A 
ATOM     57  C   UNL A   1      43.952  29.343  32.613  1.00  0.00     0.049 A 
ATOM     58  C   UNL A   1      39.208  32.168  31.386  1.00  0.00     0.074 A 
ATOM     59  C   UNL A   1      44.758  29.895  33.590  1.00  0.00     0.029 A 
ATOM     60  N   UNL A   1      42.857  30.184  32.468  1.00  0.00    -0.354 N 
ATOM     61  N   UNL A   1      40.338  31.617  31.762  1.00  0.00    -0.248 NA
ATOM     62  C   UNL A   1      38.880  33.413  32.090  1.00  0.00     0.031 C 
ATOM     63  C   UNL A   1      44.143  31.070  34.044  1.00  0.00     0.029 A 
ATOM     64  C   UNL A   1      42.970  31.259  33.329  1.00  0.00     0.049 A 
ATOM     65  H   UNL A   1      42.110  30.036  31.843  1.00  0.00     0.167 HD
ATOM     66  C   UNL A   1      40.873  32.463  32.722  1.00  0.00     0.074 A 
ATOM     67  C   UNL A   1      39.943  33.566  32.869  1.00  0.00     0.031 C 
ATOM     68  C   UNL A   1      42.029  32.346  33.423  1.00  0.00     0.037 A 
BRANCH  55  69
ATOM     69  C   UNL A   1      45.347  27.279  32.118  1.00  0.00     0.057 A 
ATOM     70  C   UNL A   1      46.585  27.490  31.495  1.00  0.00     0.134 A 
ATOM     71  C   UNL A   1      45.241  26.188  32.988  1.00  0.00     0.134 A 
ATOM     72  F   UNL A   1      46.746  28.503  30.630  1.00  0.00    -0.206 F 
ATOM     73  C   UNL A   1      47.661  26.623  31.697  1.00  0.00     0.040 A 
ATOM     74  C   UNL A   1      46.318  25.330  33.219  1.00  0.00     0.040 A 
ATOM     75  F   UNL A   1      44.084  25.925  33.615  1.00  0.00    -0.206 F 
ATOM     76  C   UNL A   1      47.529  25.540  32.563  1.00  0.00     0.006 A 
ENDBRANCH  55  69
BRANCH  56  77
ATOM     77  C   UNL A   1      36.971  32.444  30.084  1.00  0.00     0.057 A 
ATOM     78  C   UNL A   1      35.802  32.165  30.801  1.00  0.00     0.134 A 
ATOM     79  C   UNL A   1      36.913  33.463  29.127  1.00  0.00     0.134 A 
ATOM     80  F   UNL A   1      35.794  31.189  31.720  1.00  0.00    -0.206 F 
ATOM     81  C   UNL A   1      34.617  32.864  30.570  1.00  0.00     0.040 A 
ATOM     82  C   UNL A   1      35.739  34.184  28.898  1.00  0.00     0.040 A 
ATOM     83  F   UNL A   1      38.002  33.785  28.413  1.00  0.00    -0.206 F 
ATOM     84  C   UNL A   1      34.585  33.881  29.619  1.00  0.00     0.006 A 
ENDBRANCH  56  77
BRANCH  68  85
ATOM     85  C   UNL A   1      42.366  33.465  34.359  1.00  0.00     0.057 A 
ATOM     86  C   UNL A   1      41.993  33.437  35.706  1.00  0.00     0.134 A 
ATOM     87  C   UNL A   1      43.110  34.561  33.908  1.00  0.00     0.134 A 
ATOM     88  F   UNL A   1      41.268  32.416  36.191  1.00  0.00    -0.206 F 
ATOM     89  C   UNL A   1      42.332  34.475  36.573  1.00  0.00     0.040 A 
ATOM     90  C   UNL A   1      43.472  35.596  34.769  1.00  0.00     0.040 A 
ATOM     91  F   UNL A   1      43.502  34.638  32.627  1.00  0.00    -0.206 F 
ATOM     92  C   UNL A   1      43.079  35.555  36.105  1.00  0.00     0.006 A 
ENDBRANCH  68  85
ENDBRANCH  42  43
ENDBRANCH  34  37
ENDBRANCH  32  33
ENDBRANCH  31  32
ENDBRANCH  30  31
ENDBRANCH   1  30
TORSDOF 15
ENDMDL
