MODEL 1
REMARK VINA RESULT:     -12.1      0.000      0.000
REMARK SMILES Cc1cc(C)c2c(=O)n(CCCC(=O)NCCCCNC(=O)c3ccc(-c4c5nc(c(-c6c(F)cccc6F)c6ccc([nH]6)c(-c6c(F)cccc6F)c6nc(c(-c7c(F)cccc7F)c7ccc4[nH]7)C=C6)C=C5)cc3)sc2n1
REMARK SMILES IDX 17 1 16 2 15 3 13 4 14 5 12 7 11 8 10 9 9 10 1 11 2 12 3 13
REMARK SMILES IDX 79 14 4 15 78 16 5 17 6 18 77 19 7 20 8 21 18 22 19 23 20 24
REMARK SMILES IDX 21 25 22 27 23 28 24 29 76 30 25 31 75 32 26 33 27 34 28 35
REMARK SMILES IDX 69 36 29 37 74 38 68 39 70 40 30 41 73 42 67 43 66 44 31 46
REMARK SMILES IDX 57 47 40 48 56 49 41 50 44 51 55 52 71 53 42 54 43 55 54 57
REMARK SMILES IDX 72 58 45 59 32 60 33 61 38 62 34 63 35 64 37 65 39 66 36 67
REMARK SMILES IDX 58 68 59 69 64 70 60 71 61 72 63 73 65 74 62 75 46 76 47 77
REMARK SMILES IDX 52 78 48 79 49 80 51 81 53 82 50 83
REMARK H PARENT 15 6 20 26 70 45 44 56
REMARK Flexibility Score: inf
ROOT
ATOM      1  C   UNL A   1      33.088  27.764  26.362  1.00  0.00     0.023 C 
ENDROOT
BRANCH   1   2
ATOM      2  C   UNL A   1      33.686  26.546  25.644  1.00  0.00     0.116 C 
BRANCH   2   3
ATOM      3  N   UNL A   1      33.709  26.750  24.211  1.00  0.00    -0.356 N 
ATOM      4  C   UNL A   1      33.707  25.864  23.182  1.00  0.00     0.220 C 
ATOM      5  O   UNL A   1      33.839  26.320  22.043  1.00  0.00    -0.275 OA
ATOM      6  H   UNL A   1      33.730  27.694  23.934  1.00  0.00     0.163 HD
BRANCH   4   7
ATOM      7  C   UNL A   1      33.435  24.385  23.387  1.00  0.00     0.102 C 
BRANCH   7   8
ATOM      8  C   UNL A   1      34.546  23.361  23.139  1.00  0.00     0.033 C 
BRANCH   8   9
ATOM      9  C   UNL A   1      34.982  22.372  24.232  1.00  0.00     0.139 C 
BRANCH   9  10
ATOM     10  N   UNL A   1      36.348  22.323  24.722  1.00  0.00    -0.262 N 
ATOM     11  C   UNL A   1      41.508  20.900  27.685  1.00  0.00     0.067 C 
ATOM     12  C   UNL A   1      40.337  21.654  27.125  1.00  0.00     0.039 A 
ATOM     13  C   UNL A   1      40.146  23.011  27.422  1.00  0.00     0.027 A 
ATOM     14  N   UNL A   1      39.534  20.970  26.279  1.00  0.00    -0.241 NA
ATOM     15  C   UNL A   1      39.044  23.700  26.889  1.00  0.00    -0.033 A 
ATOM     16  C   UNL A   1      38.491  21.657  25.782  1.00  0.00     0.146 A 
ATOM     17  C   UNL A   1      38.851  25.161  27.155  1.00  0.00     0.045 C 
ATOM     18  C   UNL A   1      38.174  22.966  26.092  1.00  0.00     0.081 A 
ATOM     19  S   UNL A   1      37.381  20.974  24.586  1.00  0.00    -0.035 S 
ATOM     20  C   UNL A   1      36.871  23.355  25.508  1.00  0.00     0.270 A 
ATOM     21  O   UNL A   1      36.316  24.413  25.765  1.00  0.00    -0.268 OA
ENDBRANCH   9  10
ENDBRANCH   8   9
ENDBRANCH   7   8
ENDBRANCH   4   7
ENDBRANCH   2   3
ENDBRANCH   1   2
BRANCH   1  22
ATOM     22  C   UNL A   1      33.969  29.019  26.395  1.00  0.00     0.023 C 
BRANCH  22  23
ATOM     23  C   UNL A   1      35.293  28.838  27.121  1.00  0.00     0.116 C 
BRANCH  23  24
ATOM     24  N   UNL A   1      35.385  29.589  28.375  1.00  0.00    -0.352 N 
ATOM     25  C   UNL A   1      36.414  29.538  29.309  1.00  0.00     0.251 C 
ATOM     26  H   UNL A   1      34.636  30.195  28.579  1.00  0.00     0.163 HD
ATOM     27  O   UNL A   1      36.272  29.893  30.457  1.00  0.00    -0.269 OA
BRANCH  25  28
ATOM     28  C   UNL A   1      37.715  29.043  28.824  1.00  0.00     0.039 A 
ATOM     29  C   UNL A   1      38.352  29.605  27.716  1.00  0.00     0.014 A 
ATOM     30  C   UNL A   1      38.346  28.100  29.625  1.00  0.00     0.014 A 
ATOM     31  C   UNL A   1      39.687  29.275  27.483  1.00  0.00     0.010 A 
ATOM     32  C   UNL A   1      39.700  27.931  29.500  1.00  0.00     0.010 A 
ATOM     33  C   UNL A   1      40.371  28.461  28.402  1.00  0.00    -0.014 A 
BRANCH  33  34
ATOM     34  C   UNL A   1      41.799  28.187  28.256  1.00  0.00     0.031 A 
ATOM     35  C   UNL A   1      42.177  26.951  27.508  1.00  0.00     0.074 A 
ATOM     36  C   UNL A   1      42.757  29.064  28.629  1.00  0.00     0.049 A 
ATOM     37  N   UNL A   1      42.736  25.884  27.980  1.00  0.00    -0.248 NA
ATOM     38  C   UNL A   1      41.833  26.854  26.082  1.00  0.00     0.031 C 
ATOM     39  C   UNL A   1      42.629  30.444  29.120  1.00  0.00     0.029 A 
ATOM     40  N   UNL A   1      44.104  28.901  28.568  1.00  0.00    -0.354 N 
ATOM     41  C   UNL A   1      42.968  25.041  26.896  1.00  0.00     0.074 A 
ATOM     42  C   UNL A   1      42.286  25.635  25.774  1.00  0.00     0.031 C 
ATOM     43  C   UNL A   1      43.834  31.055  29.093  1.00  0.00     0.029 A 
ATOM     44  C   UNL A   1      44.837  30.055  28.795  1.00  0.00     0.049 A 
ATOM     45  H   UNL A   1      44.526  28.031  28.378  1.00  0.00     0.167 HD
ATOM     46  C   UNL A   1      43.850  24.002  26.969  1.00  0.00     0.037 A 
ATOM     47  C   UNL A   1      46.184  30.175  28.764  1.00  0.00     0.037 A 
ATOM     48  C   UNL A   1      44.198  23.703  28.335  1.00  0.00     0.049 A 
ATOM     49  C   UNL A   1      46.746  28.821  28.963  1.00  0.00     0.074 A 
ATOM     50  C   UNL A   1      43.493  23.282  29.447  1.00  0.00     0.029 A 
ATOM     51  N   UNL A   1      45.389  24.182  28.818  1.00  0.00    -0.354 N 
ATOM     52  N   UNL A   1      46.660  28.158  30.081  1.00  0.00    -0.248 NA
ATOM     53  C   UNL A   1      47.020  28.023  27.778  1.00  0.00     0.031 C 
ATOM     54  C   UNL A   1      44.067  24.006  30.536  1.00  0.00     0.029 A 
ATOM     55  C   UNL A   1      45.117  24.771  30.027  1.00  0.00     0.049 A 
ATOM     56  H   UNL A   1      46.270  24.116  28.383  1.00  0.00     0.167 HD
ATOM     57  C   UNL A   1      46.442  26.844  29.696  1.00  0.00     0.074 A 
ATOM     58  C   UNL A   1      46.768  26.809  28.271  1.00  0.00     0.031 C 
ATOM     59  C   UNL A   1      45.761  25.974  30.498  1.00  0.00     0.037 A 
BRANCH  46  60
ATOM     60  C   UNL A   1      44.642  23.449  25.812  1.00  0.00     0.057 A 
ATOM     61  C   UNL A   1      44.641  22.064  25.561  1.00  0.00     0.134 A 
ATOM     62  C   UNL A   1      45.620  24.182  25.112  1.00  0.00     0.134 A 
ATOM     63  F   UNL A   1      43.770  21.252  26.180  1.00  0.00    -0.206 F 
ATOM     64  C   UNL A   1      45.582  21.449  24.724  1.00  0.00     0.040 A 
ATOM     65  C   UNL A   1      46.533  23.586  24.236  1.00  0.00     0.040 A 
ATOM     66  F   UNL A   1      45.806  25.492  25.317  1.00  0.00    -0.206 F 
ATOM     67  C   UNL A   1      46.536  22.211  24.061  1.00  0.00     0.006 A 
ENDBRANCH  46  60
BRANCH  47  68
ATOM     68  C   UNL A   1      47.001  31.302  28.276  1.00  0.00     0.057 A 
ATOM     69  C   UNL A   1      46.797  31.824  26.992  1.00  0.00     0.134 A 
ATOM     70  C   UNL A   1      47.754  32.092  29.161  1.00  0.00     0.134 A 
ATOM     71  F   UNL A   1      46.073  31.145  26.091  1.00  0.00    -0.206 F 
ATOM     72  C   UNL A   1      47.261  33.092  26.626  1.00  0.00     0.040 A 
ATOM     73  C   UNL A   1      48.227  33.359  28.807  1.00  0.00     0.040 A 
ATOM     74  F   UNL A   1      47.967  31.702  30.427  1.00  0.00    -0.206 F 
ATOM     75  C   UNL A   1      47.960  33.872  27.542  1.00  0.00     0.006 A 
ENDBRANCH  47  68
BRANCH  59  76
ATOM     76  C   UNL A   1      45.452  26.414  31.903  1.00  0.00     0.057 A 
ATOM     77  C   UNL A   1      44.282  27.095  32.277  1.00  0.00     0.134 A 
ATOM     78  C   UNL A   1      46.305  26.020  32.939  1.00  0.00     0.134 A 
ATOM     79  F   UNL A   1      43.353  27.427  31.374  1.00  0.00    -0.206 F 
ATOM     80  C   UNL A   1      44.000  27.410  33.612  1.00  0.00     0.040 A 
ATOM     81  C   UNL A   1      46.020  26.300  34.278  1.00  0.00     0.040 A 
ATOM     82  F   UNL A   1      47.414  25.315  32.667  1.00  0.00    -0.206 F 
ATOM     83  C   UNL A   1      44.870  27.008  34.618  1.00  0.00     0.006 A 
ENDBRANCH  59  76
ENDBRANCH  33  34
ENDBRANCH  25  28
ENDBRANCH  23  24
ENDBRANCH  22  23
ENDBRANCH   1  22
TORSDOF 14
ENDMDL
MODEL 2
REMARK VINA RESULT:     -12.1      9.476     15.093
REMARK SMILES Cc1cc(C)c2c(=O)n(CCCC(=O)NCCCCNC(=O)c3ccc(-c4c5nc(c(-c6c(F)cccc6F)c6ccc([nH]6)c(-c6c(F)cccc6F)c6nc(c(-c7c(F)cccc7F)c7ccc4[nH]7)C=C6)C=C5)cc3)sc2n1
REMARK SMILES IDX 17 1 16 2 15 3 13 4 14 5 12 7 11 8 10 9 9 10 1 11 2 12 3 13
REMARK SMILES IDX 79 14 4 15 78 16 5 17 6 18 77 19 7 20 8 21 18 22 19 23 20 24
REMARK SMILES IDX 21 25 22 27 23 28 24 29 76 30 25 31 75 32 26 33 27 34 28 35
REMARK SMILES IDX 69 36 29 37 74 38 68 39 70 40 30 41 73 42 67 43 66 44 31 46
REMARK SMILES IDX 57 47 40 48 56 49 41 50 44 51 55 52 71 53 42 54 43 55 54 57
REMARK SMILES IDX 72 58 45 59 32 60 33 61 38 62 34 63 35 64 37 65 39 66 36 67
REMARK SMILES IDX 58 68 59 69 64 70 60 71 61 72 63 73 65 74 62 75 46 76 47 77
REMARK SMILES IDX 52 78 48 79 49 80 51 81 53 82 50 83
REMARK H PARENT 15 6 20 26 70 45 44 56
REMARK Flexibility Score: inf
ROOT
ATOM      1  C   UNL A   1      41.537  39.592  27.066  1.00  0.00     0.023 C 
ENDROOT
BRANCH   1   2
ATOM      2  C   UNL A   1      41.105  40.738  26.141  1.00  0.00     0.116 C 
BRANCH   2   3
ATOM      3  N   UNL A   1      42.239  41.559  25.770  1.00  0.00    -0.356 N 
ATOM      4  C   UNL A   1      42.617  42.073  24.572  1.00  0.00     0.220 C 
ATOM      5  O   UNL A   1      43.702  42.659  24.525  1.00  0.00    -0.275 OA
ATOM      6  H   UNL A   1      42.841  41.782  26.517  1.00  0.00     0.163 HD
BRANCH   4   7
ATOM      7  C   UNL A   1      41.707  42.049  23.357  1.00  0.00     0.102 C 
BRANCH   7   8
ATOM      8  C   UNL A   1      41.967  43.004  22.188  1.00  0.00     0.033 C 
BRANCH   8   9
ATOM      9  C   UNL A   1      42.704  42.538  20.923  1.00  0.00     0.139 C 
BRANCH   9  10
ATOM     10  N   UNL A   1      43.245  43.480  19.959  1.00  0.00    -0.262 N 
ATOM     11  C   UNL A   1      45.488  48.447  17.179  1.00  0.00     0.067 C 
ATOM     12  C   UNL A   1      44.646  47.253  17.522  1.00  0.00     0.039 A 
ATOM     13  C   UNL A   1      43.517  46.924  16.757  1.00  0.00     0.027 A 
ATOM     14  N   UNL A   1      45.076  46.493  18.555  1.00  0.00    -0.241 NA
ATOM     15  C   UNL A   1      42.741  45.803  17.094  1.00  0.00    -0.033 A 
ATOM     16  C   UNL A   1      44.314  45.426  18.850  1.00  0.00     0.146 A 
ATOM     17  C   UNL A   1      41.562  45.408  16.260  1.00  0.00     0.045 C 
ATOM     18  C   UNL A   1      43.139  45.079  18.211  1.00  0.00     0.081 A 
ATOM     19  S   UNL A   1      44.756  44.256  20.101  1.00  0.00    -0.035 S 
ATOM     20  C   UNL A   1      42.467  43.953  18.897  1.00  0.00     0.270 A 
ATOM     21  O   UNL A   1      41.347  43.568  18.601  1.00  0.00    -0.268 OA
ENDBRANCH   9  10
ENDBRANCH   8   9
ENDBRANCH   7   8
ENDBRANCH   4   7
ENDBRANCH   2   3
ENDBRANCH   1   2
BRANCH   1  22
ATOM     22  C   UNL A   1      42.908  38.973  26.769  1.00  0.00     0.023 C 
BRANCH  22  23
ATOM     23  C   UNL A   1      42.945  37.455  26.862  1.00  0.00     0.116 C 
BRANCH  23  24
ATOM     24  N   UNL A   1      44.294  36.892  26.772  1.00  0.00    -0.352 N 
ATOM     25  C   UNL A   1      44.998  36.240  27.778  1.00  0.00     0.251 C 
ATOM     26  H   UNL A   1      44.752  36.987  25.905  1.00  0.00     0.163 HD
ATOM     27  O   UNL A   1      46.202  36.120  27.760  1.00  0.00    -0.269 OA
BRANCH  25  28
ATOM     28  C   UNL A   1      44.196  35.670  28.876  1.00  0.00     0.039 A 
ATOM     29  C   UNL A   1      43.782  36.440  29.964  1.00  0.00     0.014 A 
ATOM     30  C   UNL A   1      43.738  34.372  28.687  1.00  0.00     0.014 A 
ATOM     31  C   UNL A   1      42.810  35.915  30.814  1.00  0.00     0.010 A 
ATOM     32  C   UNL A   1      42.655  33.945  29.411  1.00  0.00     0.010 A 
ATOM     33  C   UNL A   1      42.221  34.675  30.513  1.00  0.00    -0.014 A 
BRANCH  33  34
ATOM     34  C   UNL A   1      41.119  34.144  31.313  1.00  0.00     0.031 A 
ATOM     35  C   UNL A   1      41.385  33.920  32.765  1.00  0.00     0.074 A 
ATOM     36  C   UNL A   1      39.865  33.999  30.830  1.00  0.00     0.049 A 
ATOM     37  N   UNL A   1      41.454  32.788  33.388  1.00  0.00    -0.248 NA
ATOM     38  C   UNL A   1      41.677  35.081  33.617  1.00  0.00     0.031 C 
ATOM     39  C   UNL A   1      39.301  34.411  29.536  1.00  0.00     0.029 A 
ATOM     40  N   UNL A   1      38.780  33.491  31.471  1.00  0.00    -0.354 N 
ATOM     41  C   UNL A   1      41.637  33.085  34.737  1.00  0.00     0.074 A 
ATOM     42  C   UNL A   1      41.886  34.503  34.804  1.00  0.00     0.031 C 
ATOM     43  C   UNL A   1      37.952  34.344  29.580  1.00  0.00     0.029 A 
ATOM     44  C   UNL A   1      37.577  33.685  30.813  1.00  0.00     0.049 A 
ATOM     45  H   UNL A   1      38.845  33.021  32.335  1.00  0.00     0.167 HD
ATOM     46  C   UNL A   1      41.398  32.163  35.714  1.00  0.00     0.037 A 
ATOM     47  C   UNL A   1      36.351  33.307  31.243  1.00  0.00     0.037 A 
ATOM     48  C   UNL A   1      41.300  30.833  35.169  1.00  0.00     0.049 A 
ATOM     49  C   UNL A   1      36.553  32.229  32.236  1.00  0.00     0.074 A 
ATOM     50  C   UNL A   1      42.161  29.997  34.484  1.00  0.00     0.029 A 
ATOM     51  N   UNL A   1      40.047  30.308  34.970  1.00  0.00    -0.354 N 
ATOM     52  N   UNL A   1      37.001  31.043  31.937  1.00  0.00    -0.248 NA
ATOM     53  C   UNL A   1      36.671  32.612  33.634  1.00  0.00     0.031 C 
ATOM     54  C   UNL A   1      41.343  29.353  33.507  1.00  0.00     0.029 A 
ATOM     55  C   UNL A   1      40.033  29.792  33.699  1.00  0.00     0.049 A 
ATOM     56  H   UNL A   1      39.304  30.301  35.615  1.00  0.00     0.167 HD
ATOM     57  C   UNL A   1      37.834  30.705  32.992  1.00  0.00     0.074 A 
ATOM     58  C   UNL A   1      37.517  31.667  34.048  1.00  0.00     0.031 C 
ATOM     59  C   UNL A   1      38.890  29.856  32.819  1.00  0.00     0.037 A 
BRANCH  46  60
ATOM     60  C   UNL A   1      40.948  32.478  37.118  1.00  0.00     0.057 A 
ATOM     61  C   UNL A   1      39.701  33.097  37.331  1.00  0.00     0.134 A 
ATOM     62  C   UNL A   1      41.803  32.455  38.237  1.00  0.00     0.134 A 
ATOM     63  F   UNL A   1      38.805  33.200  36.339  1.00  0.00    -0.206 F 
ATOM     64  C   UNL A   1      39.358  33.699  38.549  1.00  0.00     0.040 A 
ATOM     65  C   UNL A   1      41.451  33.010  39.472  1.00  0.00     0.040 A 
ATOM     66  F   UNL A   1      43.055  31.986  38.163  1.00  0.00    -0.206 F 
ATOM     67  C   UNL A   1      40.238  33.661  39.624  1.00  0.00     0.006 A 
ENDBRANCH  46  60
BRANCH  47  68
ATOM     68  C   UNL A   1      35.061  34.006  31.091  1.00  0.00     0.057 A 
ATOM     69  C   UNL A   1      34.730  35.075  31.934  1.00  0.00     0.134 A 
ATOM     70  C   UNL A   1      34.288  33.862  29.928  1.00  0.00     0.134 A 
ATOM     71  F   UNL A   1      35.429  35.297  33.056  1.00  0.00    -0.206 F 
ATOM     72  C   UNL A   1      33.724  35.991  31.606  1.00  0.00     0.040 A 
ATOM     73  C   UNL A   1      33.278  34.768  29.591  1.00  0.00     0.040 A 
ATOM     74  F   UNL A   1      34.555  32.898  29.034  1.00  0.00    -0.206 F 
ATOM     75  C   UNL A   1      33.010  35.851  30.421  1.00  0.00     0.006 A 
ENDBRANCH  47  68
BRANCH  59  76
ATOM     76  C   UNL A   1      38.989  29.123  31.509  1.00  0.00     0.057 A 
ATOM     77  C   UNL A   1      39.548  29.666  30.341  1.00  0.00     0.134 A 
ATOM     78  C   UNL A   1      38.626  27.773  31.460  1.00  0.00     0.134 A 
ATOM     79  F   UNL A   1      40.020  30.917  30.314  1.00  0.00    -0.206 F 
ATOM     80  C   UNL A   1      39.694  28.915  29.169  1.00  0.00     0.040 A 
ATOM     81  C   UNL A   1      38.795  27.003  30.307  1.00  0.00     0.040 A 
ATOM     82  F   UNL A   1      38.137  27.167  32.553  1.00  0.00    -0.206 F 
ATOM     83  C   UNL A   1      39.320  27.577  29.151  1.00  0.00     0.006 A 
ENDBRANCH  59  76
ENDBRANCH  33  34
ENDBRANCH  25  28
ENDBRANCH  23  24
ENDBRANCH  22  23
ENDBRANCH   1  22
TORSDOF 14
ENDMDL
MODEL 3
REMARK VINA RESULT:     -12.0      3.259      7.953
REMARK SMILES Cc1cc(C)c2c(=O)n(CCCC(=O)NCCCCNC(=O)c3ccc(-c4c5nc(c(-c6c(F)cccc6F)c6ccc([nH]6)c(-c6c(F)cccc6F)c6nc(c(-c7c(F)cccc7F)c7ccc4[nH]7)C=C6)C=C5)cc3)sc2n1
REMARK SMILES IDX 17 1 16 2 15 3 13 4 14 5 12 7 11 8 10 9 9 10 1 11 2 12 3 13
REMARK SMILES IDX 79 14 4 15 78 16 5 17 6 18 77 19 7 20 8 21 18 22 19 23 20 24
REMARK SMILES IDX 21 25 22 27 23 28 24 29 76 30 25 31 75 32 26 33 27 34 28 35
REMARK SMILES IDX 69 36 29 37 74 38 68 39 70 40 30 41 73 42 67 43 66 44 31 46
REMARK SMILES IDX 57 47 40 48 56 49 41 50 44 51 55 52 71 53 42 54 43 55 54 57
REMARK SMILES IDX 72 58 45 59 32 60 33 61 38 62 34 63 35 64 37 65 39 66 36 67
REMARK SMILES IDX 58 68 59 69 64 70 60 71 61 72 63 73 65 74 62 75 46 76 47 77
REMARK SMILES IDX 52 78 48 79 49 80 51 81 53 82 50 83
REMARK H PARENT 15 6 20 26 70 45 44 56
REMARK Flexibility Score: inf
ROOT
ATOM      1  C   UNL A   1      34.616  30.368  27.039  1.00  0.00     0.023 C 
ENDROOT
BRANCH   1   2
ATOM      2  C   UNL A   1      34.426  28.951  27.594  1.00  0.00     0.116 C 
BRANCH   2   3
ATOM      3  N   UNL A   1      33.021  28.613  27.683  1.00  0.00    -0.356 N 
ATOM      4  C   UNL A   1      32.240  27.822  26.902  1.00  0.00     0.220 C 
ATOM      5  O   UNL A   1      31.032  27.796  27.153  1.00  0.00    -0.275 OA
ATOM      6  H   UNL A   1      32.549  29.030  28.440  1.00  0.00     0.163 HD
BRANCH   4   7
ATOM      7  C   UNL A   1      32.821  26.907  25.840  1.00  0.00     0.102 C 
BRANCH   7   8
ATOM      8  C   UNL A   1      32.177  25.543  25.570  1.00  0.00     0.033 C 
BRANCH   8   9
ATOM      9  C   UNL A   1      31.435  25.255  24.257  1.00  0.00     0.139 C 
BRANCH   9  10
ATOM     10  N   UNL A   1      30.727  26.295  23.531  1.00  0.00    -0.262 N 
ATOM     11  C   UNL A   1      28.837  31.630  21.208  1.00  0.00     0.067 C 
ATOM     12  C   UNL A   1      28.871  30.301  21.902  1.00  0.00     0.039 A 
ATOM     13  C   UNL A   1      27.729  29.790  22.537  1.00  0.00     0.027 A 
ATOM     14  N   UNL A   1      30.032  29.610  21.819  1.00  0.00    -0.241 NA
ATOM     15  C   UNL A   1      27.780  28.543  23.182  1.00  0.00    -0.033 A 
ATOM     16  C   UNL A   1      30.047  28.420  22.443  1.00  0.00     0.146 A 
ATOM     17  C   UNL A   1      26.559  27.960  23.822  1.00  0.00     0.045 C 
ATOM     18  C   UNL A   1      29.002  27.882  23.168  1.00  0.00     0.081 A 
ATOM     19  S   UNL A   1      31.434  27.324  22.370  1.00  0.00    -0.035 S 
ATOM     20  C   UNL A   1      29.414  26.642  23.865  1.00  0.00     0.270 A 
ATOM     21  O   UNL A   1      28.705  26.070  24.678  1.00  0.00    -0.268 OA
ENDBRANCH   9  10
ENDBRANCH   8   9
ENDBRANCH   7   8
ENDBRANCH   4   7
ENDBRANCH   2   3
ENDBRANCH   1   2
BRANCH   1  22
ATOM     22  C   UNL A   1      33.834  31.476  27.756  1.00  0.00     0.023 C 
BRANCH  22  23
ATOM     23  C   UNL A   1      34.674  32.678  28.160  1.00  0.00     0.116 C 
BRANCH  23  24
ATOM     24  N   UNL A   1      34.643  32.963  29.596  1.00  0.00    -0.352 N 
ATOM     25  C   UNL A   1      35.320  32.281  30.601  1.00  0.00     0.251 C 
ATOM     26  H   UNL A   1      34.081  33.720  29.880  1.00  0.00     0.163 HD
ATOM     27  O   UNL A   1      34.985  32.330  31.763  1.00  0.00    -0.269 OA
BRANCH  25  28
ATOM     28  C   UNL A   1      36.497  31.499  30.183  1.00  0.00     0.039 A 
ATOM     29  C   UNL A   1      37.708  32.108  29.850  1.00  0.00     0.014 A 
ATOM     30  C   UNL A   1      36.384  30.119  30.297  1.00  0.00     0.014 A 
ATOM     31  C   UNL A   1      38.842  31.304  29.732  1.00  0.00     0.010 A 
ATOM     32  C   UNL A   1      37.528  29.368  30.365  1.00  0.00     0.010 A 
ATOM     33  C   UNL A   1      38.754  29.932  30.025  1.00  0.00    -0.014 A 
BRANCH  33  34
ATOM     34  C   UNL A   1      39.940  29.079  30.026  1.00  0.00     0.031 A 
ATOM     35  C   UNL A   1      40.582  28.815  31.348  1.00  0.00     0.074 A 
ATOM     36  C   UNL A   1      40.370  28.419  28.928  1.00  0.00     0.049 A 
ATOM     37  N   UNL A   1      41.738  29.225  31.758  1.00  0.00    -0.248 NA
ATOM     38  C   UNL A   1      39.827  28.068  32.364  1.00  0.00     0.031 C 
ATOM     39  C   UNL A   1      39.751  28.297  27.600  1.00  0.00     0.029 A 
ATOM     40  N   UNL A   1      41.470  27.629  28.809  1.00  0.00    -0.354 N 
ATOM     41  C   UNL A   1      41.939  28.661  33.017  1.00  0.00     0.074 A 
ATOM     42  C   UNL A   1      40.684  28.058  33.389  1.00  0.00     0.031 C 
ATOM     43  C   UNL A   1      40.356  27.313  26.899  1.00  0.00     0.029 A 
ATOM     44  C   UNL A   1      41.529  26.894  27.636  1.00  0.00     0.049 A 
ATOM     45  H   UNL A   1      42.169  27.584  29.502  1.00  0.00     0.167 HD
ATOM     46  C   UNL A   1      43.179  28.587  33.582  1.00  0.00     0.037 A 
ATOM     47  C   UNL A   1      42.494  26.015  27.283  1.00  0.00     0.037 A 
ATOM     48  C   UNL A   1      44.117  29.446  32.905  1.00  0.00     0.049 A 
ATOM     49  C   UNL A   1      43.697  26.345  28.079  1.00  0.00     0.074 A 
ATOM     50  C   UNL A   1      44.210  30.809  32.694  1.00  0.00     0.029 A 
ATOM     51  N   UNL A   1      44.973  28.878  31.995  1.00  0.00    -0.354 N 
ATOM     52  N   UNL A   1      44.393  27.435  27.921  1.00  0.00    -0.248 NA
ATOM     53  C   UNL A   1      43.869  25.668  29.354  1.00  0.00     0.031 C 
ATOM     54  C   UNL A   1      44.693  30.938  31.357  1.00  0.00     0.029 A 
ATOM     55  C   UNL A   1      44.919  29.653  30.864  1.00  0.00     0.049 A 
ATOM     56  H   UNL A   1      45.521  28.071  32.128  1.00  0.00     0.167 HD
ATOM     57  C   UNL A   1      44.753  27.813  29.205  1.00  0.00     0.074 A 
ATOM     58  C   UNL A   1      44.483  26.638  30.034  1.00  0.00     0.031 C 
ATOM     59  C   UNL A   1      44.977  29.121  29.523  1.00  0.00     0.037 A 
BRANCH  46  60
ATOM     60  C   UNL A   1      43.635  27.522  34.546  1.00  0.00     0.057 A 
ATOM     61  C   UNL A   1      43.837  26.205  34.090  1.00  0.00     0.134 A 
ATOM     62  C   UNL A   1      43.612  27.673  35.946  1.00  0.00     0.134 A 
ATOM     63  F   UNL A   1      43.860  25.926  32.778  1.00  0.00    -0.206 F 
ATOM     64  C   UNL A   1      43.947  25.115  34.963  1.00  0.00     0.040 A 
ATOM     65  C   UNL A   1      43.771  26.598  36.827  1.00  0.00     0.040 A 
ATOM     66  F   UNL A   1      43.337  28.847  36.528  1.00  0.00    -0.206 F 
ATOM     67  C   UNL A   1      43.909  25.309  36.338  1.00  0.00     0.006 A 
ENDBRANCH  46  60
BRANCH  47  68
ATOM     68  C   UNL A   1      42.362  24.742  26.548  1.00  0.00     0.057 A 
ATOM     69  C   UNL A   1      43.142  24.495  25.411  1.00  0.00     0.134 A 
ATOM     70  C   UNL A   1      41.726  23.631  27.126  1.00  0.00     0.134 A 
ATOM     71  F   UNL A   1      43.799  25.495  24.808  1.00  0.00    -0.206 F 
ATOM     72  C   UNL A   1      43.332  23.202  24.911  1.00  0.00     0.040 A 
ATOM     73  C   UNL A   1      41.905  22.335  26.634  1.00  0.00     0.040 A 
ATOM     74  F   UNL A   1      40.994  23.755  28.244  1.00  0.00    -0.206 F 
ATOM     75  C   UNL A   1      42.730  22.115  25.536  1.00  0.00     0.006 A 
ENDBRANCH  47  68
BRANCH  59  76
ATOM     76  C   UNL A   1      45.045  30.114  28.393  1.00  0.00     0.057 A 
ATOM     77  C   UNL A   1      43.935  30.808  27.886  1.00  0.00     0.134 A 
ATOM     78  C   UNL A   1      46.296  30.478  27.888  1.00  0.00     0.134 A 
ATOM     79  F   UNL A   1      42.706  30.605  28.374  1.00  0.00    -0.206 F 
ATOM     80  C   UNL A   1      44.061  31.783  26.890  1.00  0.00     0.040 A 
ATOM     81  C   UNL A   1      46.440  31.472  26.916  1.00  0.00     0.040 A 
ATOM     82  F   UNL A   1      47.410  29.901  28.363  1.00  0.00    -0.206 F 
ATOM     83  C   UNL A   1      45.318  32.120  26.404  1.00  0.00     0.006 A 
ENDBRANCH  59  76
ENDBRANCH  33  34
ENDBRANCH  25  28
ENDBRANCH  23  24
ENDBRANCH  22  23
ENDBRANCH   1  22
TORSDOF 14
ENDMDL
