MODEL 1
REMARK VINA RESULT:     -11.3      0.000      0.000
REMARK SMILES CCN(Cc1cn(CC)nc1C)C(=O)c1ccn([C@@H](C)C(=O)NCCCCNC(=O)c2ccc(-c3c4nc(c(-c5c(F)cccc5F)c5ccc([nH]5)c(-c5c(F)cccc5F)c5nc(c(-c6c(F)cccc6F)c6ccc3[nH]6)C=C5)C=C4)cc2)n1
REMARK SMILES IDX 21 1 22 2 23 3 19 5 20 6 18 7 15 8 16 9 85 10 17 11 13 12
REMARK SMILES IDX 14 13 3 14 2 15 1 16 4 17 5 18 6 19 11 20 7 21 10 22 12 23
REMARK SMILES IDX 8 24 9 25 24 26 25 27 26 28 27 29 28 30 29 31 30 33 31 34
REMARK SMILES IDX 32 35 84 36 33 37 83 38 34 39 35 40 36 41 77 42 37 43 82 44
REMARK SMILES IDX 76 45 78 46 38 47 81 48 75 49 74 50 39 52 65 53 48 54 64 55
REMARK SMILES IDX 49 56 52 57 63 58 79 59 50 60 51 61 62 63 80 64 53 65 40 66
REMARK SMILES IDX 41 67 46 68 42 69 43 70 45 71 47 72 44 73 66 74 67 75 72 76
REMARK SMILES IDX 68 77 69 78 71 79 73 80 70 81 54 82 55 83 60 84 56 85 57 86
REMARK SMILES IDX 59 87 61 88 58 89
REMARK H PARENT 23 4 28 32 78 51 52 62
REMARK Flexibility Score: inf
ROOT
ATOM      1  C   UNL A   1      38.062  21.863  25.627  1.00  0.00     0.244 C 
ATOM      2  O   UNL A   1      37.213  21.005  25.342  1.00  0.00    -0.273 OA
ATOM      3  N   UNL A   1      39.242  21.349  26.084  1.00  0.00    -0.354 N 
ATOM      4  H   UNL A   1      39.221  20.367  26.153  1.00  0.00     0.163 HD
ENDROOT
BRANCH   1   5
ATOM      5  C   UNL A   1      37.737  23.346  25.365  1.00  0.00     0.193 C 
ATOM      6  C   UNL A   1      38.238  24.277  26.463  1.00  0.00     0.044 C 
BRANCH   5   7
ATOM      7  N   UNL A   1      36.336  23.568  25.037  1.00  0.00    -0.260 N 
ATOM      8  C   UNL A   1      34.506  23.419  23.950  1.00  0.00     0.150 A 
ATOM      9  C   UNL A   1      34.260  23.313  25.332  1.00  0.00     0.056 A 
ATOM     10  N   UNL A   1      35.849  23.512  23.769  1.00  0.00    -0.167 NA
ATOM     11  C   UNL A   1      35.358  23.859  25.928  1.00  0.00     0.110 A 
BRANCH   8  12
ATOM     12  C   UNL A   1      33.505  23.427  22.852  1.00  0.00     0.274 C 
ATOM     13  O   UNL A   1      33.739  23.987  21.780  1.00  0.00    -0.267 OA
BRANCH  12  14
ATOM     14  N   UNL A   1      32.257  22.780  23.069  1.00  0.00    -0.333 N 
BRANCH  14  15
ATOM     15  C   UNL A   1      32.186  21.321  22.930  1.00  0.00     0.117 C 
ATOM     16  C   UNL A   1      32.199  20.574  24.256  1.00  0.00     0.027 C 
ENDBRANCH  14  15
BRANCH  14  17
ATOM     17  C   UNL A   1      30.988  23.458  23.337  1.00  0.00     0.159 C 
BRANCH  17  18
ATOM     18  C   UNL A   1      31.004  24.325  24.572  1.00  0.00     0.012 A 
ATOM     19  C   UNL A   1      31.528  25.614  24.604  1.00  0.00     0.114 A 
ATOM     20  C   UNL A   1      30.744  24.043  25.958  1.00  0.00     0.064 A 
ATOM     21  N   UNL A   1      31.641  25.969  25.916  1.00  0.00    -0.272 N 
ATOM     22  N   UNL A   1      31.149  25.046  26.750  1.00  0.00    -0.178 NA
ATOM     23  C   UNL A   1      30.321  22.789  26.636  1.00  0.00     0.069 C 
BRANCH  21  24
ATOM     24  C   UNL A   1      32.403  27.084  26.453  1.00  0.00     0.141 C 
ATOM     25  C   UNL A   1      31.590  27.999  27.352  1.00  0.00     0.029 C 
ENDBRANCH  21  24
ENDBRANCH  17  18
ENDBRANCH  14  17
ENDBRANCH  12  14
ENDBRANCH   8  12
ENDBRANCH   5   7
ENDBRANCH   1   5
BRANCH   3  26
ATOM     26  C   UNL A   1      40.525  21.904  26.492  1.00  0.00     0.116 C 
BRANCH  26  27
ATOM     27  C   UNL A   1      41.228  21.071  27.580  1.00  0.00     0.023 C 
BRANCH  27  28
ATOM     28  C   UNL A   1      42.260  20.037  27.110  1.00  0.00     0.023 C 
BRANCH  28  29
ATOM     29  C   UNL A   1      42.351  19.838  25.604  1.00  0.00     0.116 C 
BRANCH  29  30
ATOM     30  N   UNL A   1      43.699  19.510  25.130  1.00  0.00    -0.352 N 
ATOM     31  C   UNL A   1      44.666  20.388  24.661  1.00  0.00     0.251 C 
ATOM     32  H   UNL A   1      43.947  18.558  25.148  1.00  0.00     0.163 HD
ATOM     33  O   UNL A   1      45.581  20.015  23.946  1.00  0.00    -0.269 OA
BRANCH  31  34
ATOM     34  C   UNL A   1      44.573  21.794  25.090  1.00  0.00     0.039 A 
ATOM     35  C   UNL A   1      43.632  22.683  24.563  1.00  0.00     0.014 A 
ATOM     36  C   UNL A   1      45.424  22.173  26.122  1.00  0.00     0.014 A 
ATOM     37  C   UNL A   1      43.502  23.939  25.154  1.00  0.00     0.010 A 
ATOM     38  C   UNL A   1      45.163  23.319  26.816  1.00  0.00     0.010 A 
ATOM     39  C   UNL A   1      44.261  24.240  26.297  1.00  0.00    -0.014 A 
BRANCH  39  40
ATOM     40  C   UNL A   1      44.064  25.473  27.048  1.00  0.00     0.031 A 
ATOM     41  C   UNL A   1      45.035  26.555  26.732  1.00  0.00     0.074 A 
ATOM     42  C   UNL A   1      42.942  25.698  27.771  1.00  0.00     0.049 A 
ATOM     43  N   UNL A   1      45.942  27.052  27.506  1.00  0.00    -0.248 NA
ATOM     44  C   UNL A   1      45.107  27.046  25.345  1.00  0.00     0.031 C 
ATOM     45  C   UNL A   1      41.748  24.852  27.898  1.00  0.00     0.029 A 
ATOM     46  N   UNL A   1      42.586  26.808  28.470  1.00  0.00    -0.354 N 
ATOM     47  C   UNL A   1      46.545  28.077  26.780  1.00  0.00     0.074 A 
ATOM     48  C   UNL A   1      46.138  27.891  25.412  1.00  0.00     0.031 C 
ATOM     49  C   UNL A   1      40.727  25.574  28.410  1.00  0.00     0.029 A 
ATOM     50  C   UNL A   1      41.239  26.866  28.818  1.00  0.00     0.049 A 
ATOM     51  H   UNL A   1      43.228  27.514  28.710  1.00  0.00     0.167 HD
ATOM     52  C   UNL A   1      47.109  29.143  27.413  1.00  0.00     0.037 A 
ATOM     53  C   UNL A   1      40.597  27.920  29.379  1.00  0.00     0.037 A 
ATOM     54  C   UNL A   1      47.330  28.854  28.809  1.00  0.00     0.049 A 
ATOM     55  C   UNL A   1      41.638  28.794  29.978  1.00  0.00     0.074 A 
ATOM     56  C   UNL A   1      48.036  27.888  29.502  1.00  0.00     0.029 A 
ATOM     57  N   UNL A   1      46.447  29.384  29.720  1.00  0.00    -0.354 N 
ATOM     58  N   UNL A   1      42.375  28.444  30.996  1.00  0.00    -0.248 NA
ATOM     59  C   UNL A   1      42.194  29.840  29.131  1.00  0.00     0.031 C 
ATOM     60  C   UNL A   1      47.196  27.539  30.601  1.00  0.00     0.029 A 
ATOM     61  C   UNL A   1      46.076  28.371  30.565  1.00  0.00     0.049 A 
ATOM     62  H   UNL A   1      46.138  30.319  29.758  1.00  0.00     0.167 HD
ATOM     63  C   UNL A   1      43.649  28.893  30.681  1.00  0.00     0.074 A 
ATOM     64  C   UNL A   1      43.462  29.802  29.550  1.00  0.00     0.031 C 
ATOM     65  C   UNL A   1      44.763  28.264  31.159  1.00  0.00     0.037 A 
BRANCH  52  66
ATOM     66  C   UNL A   1      47.086  30.563  26.889  1.00  0.00     0.057 A 
ATOM     67  C   UNL A   1      48.265  31.331  26.959  1.00  0.00     0.134 A 
ATOM     68  C   UNL A   1      45.915  31.297  26.613  1.00  0.00     0.134 A 
ATOM     69  F   UNL A   1      49.449  30.755  27.218  1.00  0.00    -0.206 F 
ATOM     70  C   UNL A   1      48.260  32.728  26.860  1.00  0.00     0.040 A 
ATOM     71  C   UNL A   1      45.908  32.686  26.460  1.00  0.00     0.040 A 
ATOM     72  F   UNL A   1      44.702  30.736  26.573  1.00  0.00    -0.206 F 
ATOM     73  C   UNL A   1      47.076  33.413  26.622  1.00  0.00     0.006 A 
ENDBRANCH  52  66
BRANCH  53  74
ATOM     74  C   UNL A   1      39.210  28.385  29.137  1.00  0.00     0.057 A 
ATOM     75  C   UNL A   1      38.268  28.432  30.176  1.00  0.00     0.134 A 
ATOM     76  C   UNL A   1      38.856  29.060  27.955  1.00  0.00     0.134 A 
ATOM     77  F   UNL A   1      38.531  27.854  31.357  1.00  0.00    -0.206 F 
ATOM     78  C   UNL A   1      37.057  29.129  30.054  1.00  0.00     0.040 A 
ATOM     79  C   UNL A   1      37.649  29.756  27.820  1.00  0.00     0.040 A 
ATOM     80  F   UNL A   1      39.707  29.143  26.922  1.00  0.00    -0.206 F 
ATOM     81  C   UNL A   1      36.750  29.805  28.878  1.00  0.00     0.006 A 
ENDBRANCH  53  74
BRANCH  65  82
ATOM     82  C   UNL A   1      44.589  27.210  32.221  1.00  0.00     0.057 A 
ATOM     83  C   UNL A   1      44.442  25.838  31.961  1.00  0.00     0.134 A 
ATOM     84  C   UNL A   1      44.750  27.580  33.561  1.00  0.00     0.134 A 
ATOM     85  F   UNL A   1      44.378  25.371  30.709  1.00  0.00    -0.206 F 
ATOM     86  C   UNL A   1      44.422  24.887  32.988  1.00  0.00     0.040 A 
ATOM     87  C   UNL A   1      44.764  26.639  34.593  1.00  0.00     0.040 A 
ATOM     88  F   UNL A   1      44.950  28.867  33.885  1.00  0.00    -0.206 F 
ATOM     89  C   UNL A   1      44.592  25.287  34.309  1.00  0.00     0.006 A 
ENDBRANCH  65  82
ENDBRANCH  39  40
ENDBRANCH  31  34
ENDBRANCH  29  30
ENDBRANCH  28  29
ENDBRANCH  27  28
ENDBRANCH  26  27
ENDBRANCH   3  26
TORSDOF 18
ENDMDL
MODEL 2
REMARK VINA RESULT:     -10.8      2.508      7.417
REMARK SMILES CCN(Cc1cn(CC)nc1C)C(=O)c1ccn([C@@H](C)C(=O)NCCCCNC(=O)c2ccc(-c3c4nc(c(-c5c(F)cccc5F)c5ccc([nH]5)c(-c5c(F)cccc5F)c5nc(c(-c6c(F)cccc6F)c6ccc3[nH]6)C=C5)C=C4)cc2)n1
REMARK SMILES IDX 21 1 22 2 23 3 19 5 20 6 18 7 15 8 16 9 85 10 17 11 13 12
REMARK SMILES IDX 14 13 3 14 2 15 1 16 4 17 5 18 6 19 11 20 7 21 10 22 12 23
REMARK SMILES IDX 8 24 9 25 24 26 25 27 26 28 27 29 28 30 29 31 30 33 31 34
REMARK SMILES IDX 32 35 84 36 33 37 83 38 34 39 35 40 36 41 77 42 37 43 82 44
REMARK SMILES IDX 76 45 78 46 38 47 81 48 75 49 74 50 39 52 65 53 48 54 64 55
REMARK SMILES IDX 49 56 52 57 63 58 79 59 50 60 51 61 62 63 80 64 53 65 40 66
REMARK SMILES IDX 41 67 46 68 42 69 43 70 45 71 47 72 44 73 66 74 67 75 72 76
REMARK SMILES IDX 68 77 69 78 71 79 73 80 70 81 54 82 55 83 60 84 56 85 57 86
REMARK SMILES IDX 59 87 61 88 58 89
REMARK H PARENT 23 4 28 32 78 51 52 62
REMARK Flexibility Score: inf
ROOT
ATOM      1  C   UNL A   1      31.086  26.820  26.400  1.00  0.00     0.244 C 
ATOM      2  O   UNL A   1      30.910  25.688  26.874  1.00  0.00    -0.273 OA
ATOM      3  N   UNL A   1      31.340  27.783  27.335  1.00  0.00    -0.354 N 
ATOM      4  H   UNL A   1      31.305  27.430  28.254  1.00  0.00     0.163 HD
ENDROOT
BRANCH   1   5
ATOM      5  C   UNL A   1      31.084  26.994  24.869  1.00  0.00     0.193 C 
ATOM      6  C   UNL A   1      29.790  26.531  24.210  1.00  0.00     0.044 C 
BRANCH   5   7
ATOM      7  N   UNL A   1      32.268  26.432  24.235  1.00  0.00    -0.260 N 
ATOM      8  C   UNL A   1      33.561  24.947  23.412  1.00  0.00     0.150 A 
ATOM      9  C   UNL A   1      33.561  26.097  22.598  1.00  0.00     0.056 A 
ATOM     10  N   UNL A   1      32.674  25.147  24.420  1.00  0.00    -0.167 NA
ATOM     11  C   UNL A   1      33.106  27.098  23.405  1.00  0.00     0.110 A 
BRANCH   8  12
ATOM     12  C   UNL A   1      34.367  23.712  23.230  1.00  0.00     0.274 C 
ATOM     13  O   UNL A   1      34.311  23.063  22.184  1.00  0.00    -0.267 OA
BRANCH  12  14
ATOM     14  N   UNL A   1      35.202  23.285  24.299  1.00  0.00    -0.333 N 
BRANCH  14  15
ATOM     15  C   UNL A   1      36.657  23.359  24.130  1.00  0.00     0.117 C 
ATOM     16  C   UNL A   1      37.416  22.225  24.805  1.00  0.00     0.027 C 
ENDBRANCH  14  15
BRANCH  14  17
ATOM     17  C   UNL A   1      34.734  22.682  25.548  1.00  0.00     0.159 C 
BRANCH  17  18
ATOM     18  C   UNL A   1      33.869  21.461  25.356  1.00  0.00     0.012 A 
ATOM     19  C   UNL A   1      34.334  20.260  24.829  1.00  0.00     0.114 A 
ATOM     20  C   UNL A   1      32.446  21.262  25.417  1.00  0.00     0.064 A 
ATOM     21  N   UNL A   1      33.240  19.501  24.531  1.00  0.00    -0.272 N 
ATOM     22  N   UNL A   1      32.091  20.077  24.902  1.00  0.00    -0.178 NA
ATOM     23  C   UNL A   1      31.342  22.204  25.743  1.00  0.00     0.069 C 
BRANCH  21  24
ATOM     24  C   UNL A   1      33.208  18.312  23.698  1.00  0.00     0.141 C 
ATOM     25  C   UNL A   1      34.330  17.332  23.991  1.00  0.00     0.029 C 
ENDBRANCH  21  24
ENDBRANCH  17  18
ENDBRANCH  14  17
ENDBRANCH  12  14
ENDBRANCH   8  12
ENDBRANCH   5   7
ENDBRANCH   1   5
BRANCH   3  26
ATOM     26  C   UNL A   1      31.651  29.205  27.300  1.00  0.00     0.116 C 
BRANCH  26  27
ATOM     27  C   UNL A   1      33.018  29.511  26.662  1.00  0.00     0.023 C 
BRANCH  27  28
ATOM     28  C   UNL A   1      34.204  28.640  27.098  1.00  0.00     0.023 C 
BRANCH  28  29
ATOM     29  C   UNL A   1      35.485  29.393  27.427  1.00  0.00     0.116 C 
BRANCH  29  30
ATOM     30  N   UNL A   1      35.547  29.878  28.809  1.00  0.00    -0.352 N 
ATOM     31  C   UNL A   1      36.477  29.540  29.783  1.00  0.00     0.251 C 
ATOM     32  H   UNL A   1      34.848  30.518  29.077  1.00  0.00     0.163 HD
ATOM     33  O   UNL A   1      36.241  29.675  30.971  1.00  0.00    -0.269 OA
BRANCH  31  34
ATOM     34  C   UNL A   1      37.786  29.043  29.328  1.00  0.00     0.039 A 
ATOM     35  C   UNL A   1      38.487  29.624  28.267  1.00  0.00     0.014 A 
ATOM     36  C   UNL A   1      38.337  28.007  30.074  1.00  0.00     0.014 A 
ATOM     37  C   UNL A   1      39.793  29.201  28.023  1.00  0.00     0.010 A 
ATOM     38  C   UNL A   1      39.670  27.736  29.958  1.00  0.00     0.010 A 
ATOM     39  C   UNL A   1      40.384  28.267  28.890  1.00  0.00    -0.014 A 
BRANCH  39  40
ATOM     40  C   UNL A   1      41.788  27.898  28.781  1.00  0.00     0.031 A 
ATOM     41  C   UNL A   1      42.046  26.662  27.994  1.00  0.00     0.074 A 
ATOM     42  C   UNL A   1      42.781  28.746  29.139  1.00  0.00     0.049 A 
ATOM     43  N   UNL A   1      42.506  25.534  28.424  1.00  0.00    -0.248 NA
ATOM     44  C   UNL A   1      41.606  26.624  26.589  1.00  0.00     0.031 C 
ATOM     45  C   UNL A   1      42.675  30.131  29.617  1.00  0.00     0.029 A 
ATOM     46  N   UNL A   1      44.125  28.575  29.043  1.00  0.00    -0.354 N 
ATOM     47  C   UNL A   1      42.630  24.718  27.300  1.00  0.00     0.074 A 
ATOM     48  C   UNL A   1      41.881  25.361  26.254  1.00  0.00     0.031 C 
ATOM     49  C   UNL A   1      43.878  30.739  29.530  1.00  0.00     0.029 A 
ATOM     50  C   UNL A   1      44.869  29.745  29.171  1.00  0.00     0.049 A 
ATOM     51  H   UNL A   1      44.540  27.695  28.894  1.00  0.00     0.167 HD
ATOM     52  C   UNL A   1      43.561  23.724  27.260  1.00  0.00     0.037 A 
ATOM     53  C   UNL A   1      46.203  29.878  28.967  1.00  0.00     0.037 A 
ATOM     54  C   UNL A   1      44.045  23.418  28.584  1.00  0.00     0.049 A 
ATOM     55  C   UNL A   1      46.793  28.517  29.051  1.00  0.00     0.074 A 
ATOM     56  C   UNL A   1      43.454  23.010  29.765  1.00  0.00     0.029 A 
ATOM     57  N   UNL A   1      45.279  23.909  28.943  1.00  0.00    -0.354 N 
ATOM     58  N   UNL A   1      46.827  27.812  30.150  1.00  0.00    -0.248 NA
ATOM     59  C   UNL A   1      46.883  27.755  27.815  1.00  0.00     0.031 C 
ATOM     60  C   UNL A   1      44.126  23.748  30.784  1.00  0.00     0.029 A 
ATOM     61  C   UNL A   1      45.142  24.489  30.178  1.00  0.00     0.049 A 
ATOM     62  H   UNL A   1      46.106  23.854  28.412  1.00  0.00     0.167 HD
ATOM     63  C   UNL A   1      46.504  26.523  29.752  1.00  0.00     0.074 A 
ATOM     64  C   UNL A   1      46.613  26.537  28.293  1.00  0.00     0.031 C 
ATOM     65  C   UNL A   1      45.888  25.651  30.603  1.00  0.00     0.037 A 
BRANCH  52  66
ATOM     66  C   UNL A   1      44.325  23.315  26.020  1.00  0.00     0.057 A 
ATOM     67  C   UNL A   1      44.382  21.949  25.677  1.00  0.00     0.134 A 
ATOM     68  C   UNL A   1      45.244  24.136  25.335  1.00  0.00     0.134 A 
ATOM     69  F   UNL A   1      43.562  21.059  26.255  1.00  0.00    -0.206 F 
ATOM     70  C   UNL A   1      45.343  21.433  24.799  1.00  0.00     0.040 A 
ATOM     71  C   UNL A   1      46.172  23.638  24.418  1.00  0.00     0.040 A 
ATOM     72  F   UNL A   1      45.368  25.444  25.584  1.00  0.00    -0.206 F 
ATOM     73  C   UNL A   1      46.251  22.277  24.174  1.00  0.00     0.006 A 
ENDBRANCH  52  66
BRANCH  53  74
ATOM     74  C   UNL A   1      46.933  31.026  28.378  1.00  0.00     0.057 A 
ATOM     75  C   UNL A   1      46.654  31.475  27.079  1.00  0.00     0.134 A 
ATOM     76  C   UNL A   1      47.715  31.885  29.171  1.00  0.00     0.134 A 
ATOM     77  F   UNL A   1      45.882  30.747  26.260  1.00  0.00    -0.206 F 
ATOM     78  C   UNL A   1      47.105  32.716  26.605  1.00  0.00     0.040 A 
ATOM     79  C   UNL A   1      48.175  33.124  28.709  1.00  0.00     0.040 A 
ATOM     80  F   UNL A   1      47.985  31.592  30.452  1.00  0.00    -0.206 F 
ATOM     81  C   UNL A   1      47.858  33.550  27.426  1.00  0.00     0.006 A 
ENDBRANCH  53  74
BRANCH  65  82
ATOM     82  C   UNL A   1      45.769  26.032  32.056  1.00  0.00     0.057 A 
ATOM     83  C   UNL A   1      44.620  26.590  32.638  1.00  0.00     0.134 A 
ATOM     84  C   UNL A   1      46.796  25.659  32.929  1.00  0.00     0.134 A 
ATOM     85  F   UNL A   1      43.544  26.890  31.902  1.00  0.00    -0.206 F 
ATOM     86  C   UNL A   1      44.514  26.796  34.018  1.00  0.00     0.040 A 
ATOM     87  C   UNL A   1      46.692  25.830  34.312  1.00  0.00     0.040 A 
ATOM     88  F   UNL A   1      47.905  25.069  32.454  1.00  0.00    -0.206 F 
ATOM     89  C   UNL A   1      45.551  26.409  34.861  1.00  0.00     0.006 A 
ENDBRANCH  65  82
ENDBRANCH  39  40
ENDBRANCH  31  34
ENDBRANCH  29  30
ENDBRANCH  28  29
ENDBRANCH  27  28
ENDBRANCH  26  27
ENDBRANCH   3  26
TORSDOF 18
ENDMDL
MODEL 3
REMARK VINA RESULT:     -10.4      2.832      4.457
REMARK SMILES CCN(Cc1cn(CC)nc1C)C(=O)c1ccn([C@@H](C)C(=O)NCCCCNC(=O)c2ccc(-c3c4nc(c(-c5c(F)cccc5F)c5ccc([nH]5)c(-c5c(F)cccc5F)c5nc(c(-c6c(F)cccc6F)c6ccc3[nH]6)C=C5)C=C4)cc2)n1
REMARK SMILES IDX 21 1 22 2 23 3 19 5 20 6 18 7 15 8 16 9 85 10 17 11 13 12
REMARK SMILES IDX 14 13 3 14 2 15 1 16 4 17 5 18 6 19 11 20 7 21 10 22 12 23
REMARK SMILES IDX 8 24 9 25 24 26 25 27 26 28 27 29 28 30 29 31 30 33 31 34
REMARK SMILES IDX 32 35 84 36 33 37 83 38 34 39 35 40 36 41 77 42 37 43 82 44
REMARK SMILES IDX 76 45 78 46 38 47 81 48 75 49 74 50 39 52 65 53 48 54 64 55
REMARK SMILES IDX 49 56 52 57 63 58 79 59 50 60 51 61 62 63 80 64 53 65 40 66
REMARK SMILES IDX 41 67 46 68 42 69 43 70 45 71 47 72 44 73 66 74 67 75 72 76
REMARK SMILES IDX 68 77 69 78 71 79 73 80 70 81 54 82 55 83 60 84 56 85 57 86
REMARK SMILES IDX 59 87 61 88 58 89
REMARK H PARENT 23 4 28 32 78 51 52 62
REMARK Flexibility Score: inf
ROOT
ATOM      1  C   UNL A   1      34.126  23.049  23.420  1.00  0.00     0.244 C 
ATOM      2  O   UNL A   1      34.247  23.658  22.347  1.00  0.00    -0.273 OA
ATOM      3  N   UNL A   1      35.300  22.870  24.094  1.00  0.00    -0.354 N 
ATOM      4  H   UNL A   1      36.074  23.223  23.599  1.00  0.00     0.163 HD
ENDROOT
BRANCH   1   5
ATOM      5  C   UNL A   1      32.714  22.653  23.895  1.00  0.00     0.193 C 
ATOM      6  C   UNL A   1      31.787  22.245  22.757  1.00  0.00     0.044 C 
BRANCH   5   7
ATOM      7  N   UNL A   1      32.117  23.646  24.777  1.00  0.00    -0.260 N 
ATOM      8  C   UNL A   1      31.794  25.545  25.694  1.00  0.00     0.150 A 
ATOM      9  C   UNL A   1      30.560  24.930  25.403  1.00  0.00     0.056 A 
ATOM     10  N   UNL A   1      32.783  24.744  25.224  1.00  0.00    -0.167 NA
ATOM     11  C   UNL A   1      30.853  23.606  25.263  1.00  0.00     0.110 A 
BRANCH   8  12
ATOM     12  C   UNL A   1      32.015  26.842  26.385  1.00  0.00     0.274 C 
ATOM     13  O   UNL A   1      31.354  27.158  27.375  1.00  0.00    -0.267 OA
BRANCH  12  14
ATOM     14  N   UNL A   1      33.004  27.724  25.869  1.00  0.00    -0.333 N 
BRANCH  14  15
ATOM     15  C   UNL A   1      33.710  28.613  26.798  1.00  0.00     0.117 C 
ATOM     16  C   UNL A   1      33.077  29.990  26.935  1.00  0.00     0.027 C 
ENDBRANCH  14  15
BRANCH  14  17
ATOM     17  C   UNL A   1      33.330  27.893  24.452  1.00  0.00     0.159 C 
BRANCH  17  18
ATOM     18  C   UNL A   1      32.140  28.214  23.581  1.00  0.00     0.012 A 
ATOM     19  C   UNL A   1      31.291  29.294  23.802  1.00  0.00     0.114 A 
ATOM     20  C   UNL A   1      31.466  27.474  22.549  1.00  0.00     0.064 A 
ATOM     21  N   UNL A   1      30.187  29.104  23.023  1.00  0.00    -0.272 N 
ATOM     22  N   UNL A   1      30.284  28.024  22.238  1.00  0.00    -0.178 NA
ATOM     23  C   UNL A   1      31.755  26.140  21.957  1.00  0.00     0.069 C 
BRANCH  21  24
ATOM     24  C   UNL A   1      28.915  29.796  23.132  1.00  0.00     0.141 C 
ATOM     25  C   UNL A   1      27.712  28.873  23.056  1.00  0.00     0.029 C 
ENDBRANCH  21  24
ENDBRANCH  17  18
ENDBRANCH  14  17
ENDBRANCH  12  14
ENDBRANCH   8  12
ENDBRANCH   5   7
ENDBRANCH   1   5
BRANCH   3  26
ATOM     26  C   UNL A   1      35.682  22.283  25.372  1.00  0.00     0.116 C 
BRANCH  26  27
ATOM     27  C   UNL A   1      36.897  22.975  26.017  1.00  0.00     0.023 C 
BRANCH  27  28
ATOM     28  C   UNL A   1      38.274  22.347  25.764  1.00  0.00     0.023 C 
BRANCH  28  29
ATOM     29  C   UNL A   1      39.423  22.939  26.568  1.00  0.00     0.116 C 
BRANCH  29  30
ATOM     30  N   UNL A   1      40.743  22.441  26.169  1.00  0.00    -0.352 N 
ATOM     31  C   UNL A   1      41.869  23.189  25.856  1.00  0.00     0.251 C 
ATOM     32  H   UNL A   1      40.841  21.463  26.118  1.00  0.00     0.163 HD
ATOM     33  O   UNL A   1      42.776  22.734  25.181  1.00  0.00    -0.269 OA
BRANCH  31  34
ATOM     34  C   UNL A   1      41.952  24.553  26.404  1.00  0.00     0.039 A 
ATOM     35  C   UNL A   1      41.424  25.666  25.744  1.00  0.00     0.014 A 
ATOM     36  C   UNL A   1      42.514  24.666  27.671  1.00  0.00     0.014 A 
ATOM     37  C   UNL A   1      41.392  26.886  26.419  1.00  0.00     0.010 A 
ATOM     38  C   UNL A   1      42.306  25.806  28.394  1.00  0.00     0.010 A 
ATOM     39  C   UNL A   1      41.819  26.940  27.756  1.00  0.00    -0.014 A 
BRANCH  39  40
ATOM     40  C   UNL A   1      41.672  28.144  28.561  1.00  0.00     0.031 A 
ATOM     41  C   UNL A   1      42.725  29.172  28.340  1.00  0.00     0.074 A 
ATOM     42  C   UNL A   1      40.538  28.410  29.250  1.00  0.00     0.049 A 
ATOM     43  N   UNL A   1      43.629  29.567  29.174  1.00  0.00    -0.248 NA
ATOM     44  C   UNL A   1      42.889  29.724  26.985  1.00  0.00     0.031 C 
ATOM     45  C   UNL A   1      39.285  27.642  29.286  1.00  0.00     0.029 A 
ATOM     46  N   UNL A   1      40.226  29.506  29.991  1.00  0.00    -0.354 N 
ATOM     47  C   UNL A   1      44.329  30.584  28.526  1.00  0.00     0.074 A 
ATOM     48  C   UNL A   1      43.970  30.493  27.136  1.00  0.00     0.031 C 
ATOM     49  C   UNL A   1      38.294  28.406  29.794  1.00  0.00     0.029 A 
ATOM     50  C   UNL A   1      38.872  29.638  30.288  1.00  0.00     0.049 A 
ATOM     51  H   UNL A   1      40.902  30.154  30.293  1.00  0.00     0.167 HD
ATOM     52  C   UNL A   1      44.935  31.577  29.236  1.00  0.00     0.037 A 
ATOM     53  C   UNL A   1      38.278  30.706  30.877  1.00  0.00     0.037 A 
ATOM     54  C   UNL A   1      45.076  31.205  30.623  1.00  0.00     0.049 A 
ATOM     55  C   UNL A   1      39.347  31.476  31.561  1.00  0.00     0.074 A 
ATOM     56  C   UNL A   1      45.687  30.160  31.292  1.00  0.00     0.029 A 
ATOM     57  N   UNL A   1      44.192  31.749  31.524  1.00  0.00    -0.354 N 
ATOM     58  N   UNL A   1      40.016  31.027  32.588  1.00  0.00    -0.248 NA
ATOM     59  C   UNL A   1      40.007  32.521  30.793  1.00  0.00     0.031 C 
ATOM     60  C   UNL A   1      44.779  29.816  32.337  1.00  0.00     0.029 A 
ATOM     61  C   UNL A   1      43.718  30.723  32.300  1.00  0.00     0.049 A 
ATOM     62  H   UNL A   1      43.944  32.699  31.598  1.00  0.00     0.167 HD
ATOM     63  C   UNL A   1      41.329  31.403  32.347  1.00  0.00     0.074 A 
ATOM     64  C   UNL A   1      41.251  32.377  31.258  1.00  0.00     0.031 C 
ATOM     65  C   UNL A   1      42.377  30.677  32.836  1.00  0.00     0.037 A 
BRANCH  52  66
ATOM     66  C   UNL A   1      45.028  33.018  28.786  1.00  0.00     0.057 A 
ATOM     67  C   UNL A   1      46.284  33.656  28.807  1.00  0.00     0.134 A 
ATOM     68  C   UNL A   1      43.926  33.884  28.632  1.00  0.00     0.134 A 
ATOM     69  F   UNL A   1      47.415  32.948  28.949  1.00  0.00    -0.206 F 
ATOM     70  C   UNL A   1      46.421  35.050  28.777  1.00  0.00     0.040 A 
ATOM     71  C   UNL A   1      44.057  35.273  28.550  1.00  0.00     0.040 A 
ATOM     72  F   UNL A   1      42.660  33.454  28.654  1.00  0.00    -0.206 F 
ATOM     73  C   UNL A   1      45.304  35.865  28.661  1.00  0.00     0.006 A 
ENDBRANCH  52  66
BRANCH  53  74
ATOM     74  C   UNL A   1      36.936  31.275  30.606  1.00  0.00     0.057 A 
ATOM     75  C   UNL A   1      36.031  31.531  31.646  1.00  0.00     0.134 A 
ATOM     76  C   UNL A   1      36.617  31.844  29.360  1.00  0.00     0.134 A 
ATOM     77  F   UNL A   1      36.268  31.068  32.882  1.00  0.00    -0.206 F 
ATOM     78  C   UNL A   1      34.890  32.327  31.465  1.00  0.00     0.040 A 
ATOM     79  C   UNL A   1      35.479  32.636  29.164  1.00  0.00     0.040 A 
ATOM     80  F   UNL A   1      37.445  31.725  28.311  1.00  0.00    -0.206 F 
ATOM     81  C   UNL A   1      34.618  32.893  30.223  1.00  0.00     0.006 A 
ENDBRANCH  53  74
BRANCH  65  82
ATOM     82  C   UNL A   1      42.088  29.586  33.834  1.00  0.00     0.057 A 
ATOM     83  C   UNL A   1      41.802  28.254  33.494  1.00  0.00     0.134 A 
ATOM     84  C   UNL A   1      42.279  29.859  35.193  1.00  0.00     0.134 A 
ATOM     85  F   UNL A   1      41.698  27.871  32.217  1.00  0.00    -0.206 F 
ATOM     86  C   UNL A   1      41.678  27.253  34.463  1.00  0.00     0.040 A 
ATOM     87  C   UNL A   1      42.190  28.862  36.168  1.00  0.00     0.040 A 
ATOM     88  F   UNL A   1      42.609  31.097  35.592  1.00  0.00    -0.206 F 
ATOM     89  C   UNL A   1      41.880  27.555  35.805  1.00  0.00     0.006 A 
ENDBRANCH  65  82
ENDBRANCH  39  40
ENDBRANCH  31  34
ENDBRANCH  29  30
ENDBRANCH  28  29
ENDBRANCH  27  28
ENDBRANCH  26  27
ENDBRANCH   3  26
TORSDOF 18
ENDMDL
