MODEL 1
REMARK VINA RESULT:     -14.5      0.000      0.000
REMARK SMILES Cc1ccc(-c2cc(C(=O)NCCCCNC(=O)c3ccc(-c4c5nc(c(-c6c(F)cccc6F)c6ccc([nH]6)c(-c6c(F)cccc6F)c6nc(c(-c7c(F)cccc7F)c7ccc4[nH]7)C=C6)C=C5)cc3)c3c(-c4cccc([N+](=O)[O-])c4)[nH]nc3n2)cc1
REMARK SMILES IDX 13 1 12 2 11 3 9 4 10 5 8 7 6 8 7 9 87 10 86 11 73 12 85 13
REMARK SMILES IDX 74 14 84 15 5 17 1 18 2 19 3 20 89 21 4 22 88 23 75 24 76 25
REMARK SMILES IDX 83 26 77 27 79 28 78 29 80 30 81 31 82 32 14 33 15 34 16 35
REMARK SMILES IDX 17 36 18 38 19 39 20 40 72 41 21 42 71 43 22 44 23 45 24 46
REMARK SMILES IDX 65 47 25 48 70 49 64 50 66 51 26 52 69 53 63 54 62 55 27 57
REMARK SMILES IDX 53 58 36 59 52 60 37 61 40 62 51 63 67 64 38 65 39 66 50 68
REMARK SMILES IDX 68 69 41 70 28 71 29 72 34 73 30 74 31 75 33 76 35 77 32 78
REMARK SMILES IDX 54 79 55 80 60 81 56 82 57 83 59 84 61 85 58 86 42 87 43 88
REMARK SMILES IDX 48 89 44 90 45 91 47 92 49 93 46 94
REMARK H PARENT 11 6 84 16 16 37 66 56 40 67
REMARK Flexibility Score: inf
ROOT
ATOM      1  C   UNL A   1      31.832  30.450  25.854  1.00  0.00     0.023 C 
ENDROOT
BRANCH   1   2
ATOM      2  C   UNL A   1      32.583  29.163  25.481  1.00  0.00     0.116 C 
BRANCH   2   3
ATOM      3  N   UNL A   1      31.914  27.957  25.944  1.00  0.00    -0.352 N 
ATOM      4  C   UNL A   1      32.021  26.607  25.714  1.00  0.00     0.252 C 
ATOM      5  O   UNL A   1      31.328  25.927  26.465  1.00  0.00    -0.269 OA
ATOM      6  H   UNL A   1      31.199  28.161  26.589  1.00  0.00     0.163 HD
BRANCH   4   7
ATOM      7  C   UNL A   1      32.907  25.968  24.704  1.00  0.00     0.055 A 
ATOM      8  C   UNL A   1      34.790  24.437  24.127  1.00  0.00     0.074 A 
ATOM      9  C   UNL A   1      34.026  25.202  25.044  1.00  0.00     0.043 A 
ATOM     10  N   UNL A   1      34.614  24.406  22.787  1.00  0.00    -0.226 NA
ATOM     11  C   UNL A   1      33.582  25.188  22.382  1.00  0.00     0.182 A 
ATOM     12  C   UNL A   1      32.755  25.949  23.298  1.00  0.00     0.059 A 
ATOM     13  N   UNL A   1      33.199  25.341  21.116  1.00  0.00    -0.154 NA
ATOM     14  C   UNL A   1      31.862  26.615  22.469  1.00  0.00     0.076 A 
ATOM     15  N   UNL A   1      32.165  26.184  21.197  1.00  0.00    -0.275 N 
ATOM     16  H   UNL A   1      31.658  26.477  20.406  1.00  0.00     0.190 HD
BRANCH   8  17
ATOM     17  C   UNL A   1      35.823  23.555  24.694  1.00  0.00     0.000 A 
ATOM     18  C   UNL A   1      39.305  21.332  25.964  1.00  0.00     0.044 C 
ATOM     19  C   UNL A   1      38.073  22.086  25.561  1.00  0.00    -0.051 A 
ATOM     20  C   UNL A   1      37.212  21.566  24.586  1.00  0.00     0.004 A 
ATOM     21  C   UNL A   1      37.778  23.322  26.140  1.00  0.00     0.004 A 
ATOM     22  C   UNL A   1      36.092  22.291  24.159  1.00  0.00     0.010 A 
ATOM     23  C   UNL A   1      36.663  24.042  25.715  1.00  0.00     0.010 A 
ENDBRANCH   8  17
BRANCH  14  24
ATOM     24  C   UNL A   1      30.819  27.610  22.668  1.00  0.00     0.007 A 
ATOM     25  C   UNL A   1      31.016  28.937  22.259  1.00  0.00     0.011 A 
ATOM     26  C   UNL A   1      29.587  27.230  23.213  1.00  0.00     0.096 A 
ATOM     27  C   UNL A   1      29.977  29.867  22.342  1.00  0.00     0.008 A 
ATOM     28  C   UNL A   1      28.537  28.156  23.255  1.00  0.00     0.270 A 
ATOM     29  C   UNL A   1      28.728  29.477  22.827  1.00  0.00     0.085 A 
BRANCH  28  30
ATOM     30  N   UNL A   1      27.209  27.719  23.700  1.00  0.00     0.062 N 
ATOM     31  O   UNL A   1      27.119  26.609  24.245  1.00  0.00    -0.258 OA
ATOM     32  O   UNL A   1      26.252  28.482  23.503  1.00  0.00    -0.258 OA
ENDBRANCH  28  30
ENDBRANCH  14  24
ENDBRANCH   4   7
ENDBRANCH   2   3
ENDBRANCH   1   2
BRANCH   1  33
ATOM     33  C   UNL A   1      32.386  31.181  27.083  1.00  0.00     0.023 C 
BRANCH  33  34
ATOM     34  C   UNL A   1      33.776  30.725  27.507  1.00  0.00     0.116 C 
BRANCH  34  35
ATOM     35  N   UNL A   1      34.502  31.663  28.353  1.00  0.00    -0.352 N 
ATOM     36  C   UNL A   1      35.673  31.482  29.081  1.00  0.00     0.251 C 
ATOM     37  H   UNL A   1      34.103  32.561  28.420  1.00  0.00     0.163 HD
ATOM     38  O   UNL A   1      36.088  32.369  29.799  1.00  0.00    -0.269 OA
BRANCH  36  39
ATOM     39  C   UNL A   1      36.495  30.261  28.854  1.00  0.00     0.039 A 
ATOM     40  C   UNL A   1      36.651  29.385  29.937  1.00  0.00     0.014 A 
ATOM     41  C   UNL A   1      37.282  30.114  27.718  1.00  0.00     0.014 A 
ATOM     42  C   UNL A   1      37.782  28.577  29.999  1.00  0.00     0.010 A 
ATOM     43  C   UNL A   1      38.456  29.393  27.820  1.00  0.00     0.010 A 
ATOM     44  C   UNL A   1      38.744  28.701  29.000  1.00  0.00    -0.014 A 
BRANCH  44  45
ATOM     45  C   UNL A   1      40.126  28.274  29.174  1.00  0.00     0.031 A 
ATOM     46  C   UNL A   1      40.565  26.949  28.698  1.00  0.00     0.074 A 
ATOM     47  C   UNL A   1      41.018  29.139  29.712  1.00  0.00     0.049 A 
ATOM     48  N   UNL A   1      41.670  26.389  29.053  1.00  0.00    -0.248 NA
ATOM     49  C   UNL A   1      39.739  26.096  27.847  1.00  0.00     0.031 C 
ATOM     50  C   UNL A   1      42.475  29.043  29.696  1.00  0.00     0.029 A 
ATOM     51  N   UNL A   1      40.749  30.189  30.604  1.00  0.00    -0.354 N 
ATOM     52  C   UNL A   1      41.840  25.267  28.279  1.00  0.00     0.074 A 
ATOM     53  C   UNL A   1      40.558  25.056  27.659  1.00  0.00     0.031 C 
ATOM     54  C   UNL A   1      42.969  29.765  30.715  1.00  0.00     0.029 A 
ATOM     55  C   UNL A   1      41.838  30.215  31.505  1.00  0.00     0.049 A 
ATOM     56  H   UNL A   1      39.966  30.784  30.602  1.00  0.00     0.167 HD
ATOM     57  C   UNL A   1      43.092  24.744  28.160  1.00  0.00     0.037 A 
ATOM     58  C   UNL A   1      41.672  29.964  32.836  1.00  0.00     0.037 A 
ATOM     59  C   UNL A   1      43.973  25.287  29.198  1.00  0.00     0.049 A 
ATOM     60  C   UNL A   1      42.487  28.799  33.348  1.00  0.00     0.074 A 
ATOM     61  C   UNL A   1      45.000  26.215  29.194  1.00  0.00     0.029 A 
ATOM     62  N   UNL A   1      43.663  25.050  30.535  1.00  0.00    -0.354 N 
ATOM     63  N   UNL A   1      42.994  27.870  32.583  1.00  0.00    -0.248 NA
ATOM     64  C   UNL A   1      42.778  28.576  34.761  1.00  0.00     0.031 C 
ATOM     65  C   UNL A   1      45.241  26.604  30.540  1.00  0.00     0.029 A 
ATOM     66  C   UNL A   1      44.394  25.878  31.361  1.00  0.00     0.049 A 
ATOM     67  H   UNL A   1      43.009  24.383  30.849  1.00  0.00     0.167 HD
ATOM     68  C   UNL A   1      43.638  26.938  33.357  1.00  0.00     0.074 A 
ATOM     69  C   UNL A   1      43.497  27.441  34.710  1.00  0.00     0.031 C 
ATOM     70  C   UNL A   1      44.219  25.828  32.809  1.00  0.00     0.037 A 
BRANCH  57  71
ATOM     71  C   UNL A   1      43.592  23.905  26.995  1.00  0.00     0.057 A 
ATOM     72  C   UNL A   1      44.241  24.525  25.904  1.00  0.00     0.134 A 
ATOM     73  C   UNL A   1      43.358  22.527  26.803  1.00  0.00     0.134 A 
ATOM     74  F   UNL A   1      44.543  25.830  25.917  1.00  0.00    -0.206 F 
ATOM     75  C   UNL A   1      44.591  23.842  24.728  1.00  0.00     0.040 A 
ATOM     76  C   UNL A   1      43.740  21.827  25.648  1.00  0.00     0.040 A 
ATOM     77  F   UNL A   1      42.705  21.772  27.688  1.00  0.00    -0.206 F 
ATOM     78  C   UNL A   1      44.344  22.485  24.596  1.00  0.00     0.006 A 
ENDBRANCH  57  71
BRANCH  58  79
ATOM     79  C   UNL A   1      40.343  30.377  33.355  1.00  0.00     0.057 A 
ATOM     80  C   UNL A   1      40.115  31.741  33.611  1.00  0.00     0.134 A 
ATOM     81  C   UNL A   1      39.220  29.555  33.240  1.00  0.00     0.134 A 
ATOM     82  F   UNL A   1      41.151  32.589  33.728  1.00  0.00    -0.206 F 
ATOM     83  C   UNL A   1      38.827  32.284  33.635  1.00  0.00     0.040 A 
ATOM     84  C   UNL A   1      37.924  30.086  33.275  1.00  0.00     0.040 A 
ATOM     85  F   UNL A   1      39.354  28.248  32.972  1.00  0.00    -0.206 F 
ATOM     86  C   UNL A   1      37.727  31.458  33.433  1.00  0.00     0.006 A 
ENDBRANCH  58  79
BRANCH  70  87
ATOM     87  C   UNL A   1      44.742  24.622  33.565  1.00  0.00     0.057 A 
ATOM     88  C   UNL A   1      46.099  24.300  33.717  1.00  0.00     0.134 A 
ATOM     89  C   UNL A   1      43.856  23.806  34.308  1.00  0.00     0.134 A 
ATOM     90  F   UNL A   1      47.068  25.051  33.177  1.00  0.00    -0.206 F 
ATOM     91  C   UNL A   1      46.537  23.215  34.492  1.00  0.00     0.040 A 
ATOM     92  C   UNL A   1      44.285  22.758  35.129  1.00  0.00     0.040 A 
ATOM     93  F   UNL A   1      42.530  24.005  34.291  1.00  0.00    -0.206 F 
ATOM     94  C   UNL A   1      45.632  22.447  35.211  1.00  0.00     0.006 A 
ENDBRANCH  70  87
ENDBRANCH  44  45
ENDBRANCH  36  39
ENDBRANCH  34  35
ENDBRANCH  33  34
ENDBRANCH   1  33
TORSDOF 14
ENDMDL
MODEL 2
REMARK VINA RESULT:     -14.2      3.865      9.139
REMARK SMILES Cc1ccc(-c2cc(C(=O)NCCCCNC(=O)c3ccc(-c4c5nc(c(-c6c(F)cccc6F)c6ccc([nH]6)c(-c6c(F)cccc6F)c6nc(c(-c7c(F)cccc7F)c7ccc4[nH]7)C=C6)C=C5)cc3)c3c(-c4cccc([N+](=O)[O-])c4)[nH]nc3n2)cc1
REMARK SMILES IDX 13 1 12 2 11 3 9 4 10 5 8 7 6 8 7 9 87 10 86 11 73 12 85 13
REMARK SMILES IDX 74 14 84 15 5 17 1 18 2 19 3 20 89 21 4 22 88 23 75 24 76 25
REMARK SMILES IDX 83 26 77 27 79 28 78 29 80 30 81 31 82 32 14 33 15 34 16 35
REMARK SMILES IDX 17 36 18 38 19 39 20 40 72 41 21 42 71 43 22 44 23 45 24 46
REMARK SMILES IDX 65 47 25 48 70 49 64 50 66 51 26 52 69 53 63 54 62 55 27 57
REMARK SMILES IDX 53 58 36 59 52 60 37 61 40 62 51 63 67 64 38 65 39 66 50 68
REMARK SMILES IDX 68 69 41 70 28 71 29 72 34 73 30 74 31 75 33 76 35 77 32 78
REMARK SMILES IDX 54 79 55 80 60 81 56 82 57 83 59 84 61 85 58 86 42 87 43 88
REMARK SMILES IDX 48 89 44 90 45 91 47 92 49 93 46 94
REMARK H PARENT 11 6 84 16 16 37 66 56 40 67
REMARK Flexibility Score: inf
ROOT
ATOM      1  C   UNL A   1      36.338  21.623  24.599  1.00  0.00     0.023 C 
ENDROOT
BRANCH   1   2
ATOM      2  C   UNL A   1      35.639  22.936  24.982  1.00  0.00     0.116 C 
BRANCH   2   3
ATOM      3  N   UNL A   1      35.063  23.631  23.842  1.00  0.00    -0.352 N 
ATOM      4  C   UNL A   1      34.134  24.624  23.645  1.00  0.00     0.252 C 
ATOM      5  O   UNL A   1      34.073  25.012  22.482  1.00  0.00    -0.269 OA
ATOM      6  H   UNL A   1      35.435  23.306  22.990  1.00  0.00     0.163 HD
BRANCH   4   7
ATOM      7  C   UNL A   1      33.290  25.242  24.702  1.00  0.00     0.055 A 
ATOM      8  C   UNL A   1      32.703  27.188  26.149  1.00  0.00     0.074 A 
ATOM      9  C   UNL A   1      33.569  26.489  25.271  1.00  0.00     0.043 A 
ATOM     10  N   UNL A   1      31.531  26.722  26.638  1.00  0.00    -0.226 NA
ATOM     11  C   UNL A   1      31.235  25.481  26.177  1.00  0.00     0.182 A 
ATOM     12  C   UNL A   1      32.079  24.756  25.246  1.00  0.00     0.059 A 
ATOM     13  N   UNL A   1      30.144  24.791  26.506  1.00  0.00    -0.154 NA
ATOM     14  C   UNL A   1      31.424  23.544  25.075  1.00  0.00     0.076 A 
ATOM     15  N   UNL A   1      30.275  23.648  25.826  1.00  0.00    -0.275 N 
ATOM     16  H   UNL A   1      29.600  22.932  25.860  1.00  0.00     0.190 HD
BRANCH   8  17
ATOM     17  C   UNL A   1      33.086  28.563  26.506  1.00  0.00     0.000 A 
ATOM     18  C   UNL A   1      34.180  32.378  28.219  1.00  0.00     0.044 C 
ATOM     19  C   UNL A   1      33.817  31.070  27.583  1.00  0.00    -0.051 A 
ATOM     20  C   UNL A   1      32.504  30.831  27.154  1.00  0.00     0.004 A 
ATOM     21  C   UNL A   1      34.777  30.068  27.424  1.00  0.00     0.004 A 
ATOM     22  C   UNL A   1      32.142  29.589  26.615  1.00  0.00     0.010 A 
ATOM     23  C   UNL A   1      34.414  28.834  26.886  1.00  0.00     0.010 A 
ENDBRANCH   8  17
BRANCH  14  24
ATOM     24  C   UNL A   1      31.720  22.305  24.370  1.00  0.00     0.007 A 
ATOM     25  C   UNL A   1      31.620  22.243  22.972  1.00  0.00     0.011 A 
ATOM     26  C   UNL A   1      32.169  21.188  25.082  1.00  0.00     0.096 A 
ATOM     27  C   UNL A   1      32.015  21.093  22.284  1.00  0.00     0.008 A 
ATOM     28  C   UNL A   1      32.603  20.054  24.383  1.00  0.00     0.270 A 
ATOM     29  C   UNL A   1      32.522  19.999  22.985  1.00  0.00     0.085 A 
BRANCH  28  30
ATOM     30  N   UNL A   1      33.200  18.937  25.123  1.00  0.00     0.062 N 
ATOM     31  O   UNL A   1      34.346  18.582  24.808  1.00  0.00    -0.258 OA
ATOM     32  O   UNL A   1      32.525  18.408  26.019  1.00  0.00    -0.258 OA
ENDBRANCH  28  30
ENDBRANCH  14  24
ENDBRANCH   4   7
ENDBRANCH   2   3
ENDBRANCH   1   2
BRANCH   1  33
ATOM     33  C   UNL A   1      37.816  21.544  25.000  1.00  0.00     0.023 C 
BRANCH  33  34
ATOM     34  C   UNL A   1      38.274  22.666  25.923  1.00  0.00     0.116 C 
BRANCH  34  35
ATOM     35  N   UNL A   1      39.670  22.595  26.336  1.00  0.00    -0.352 N 
ATOM     36  C   UNL A   1      40.517  23.602  26.784  1.00  0.00     0.251 C 
ATOM     37  H   UNL A   1      40.074  21.698  26.290  1.00  0.00     0.163 HD
ATOM     38  O   UNL A   1      41.686  23.360  27.010  1.00  0.00    -0.269 OA
BRANCH  36  39
ATOM     39  C   UNL A   1      39.951  24.933  27.134  1.00  0.00     0.039 A 
ATOM     40  C   UNL A   1      40.362  26.027  26.362  1.00  0.00     0.014 A 
ATOM     41  C   UNL A   1      39.253  25.139  28.320  1.00  0.00     0.014 A 
ATOM     42  C   UNL A   1      40.345  27.300  26.923  1.00  0.00     0.010 A 
ATOM     43  C   UNL A   1      39.329  26.381  28.920  1.00  0.00     0.010 A 
ATOM     44  C   UNL A   1      39.959  27.436  28.253  1.00  0.00    -0.014 A 
BRANCH  44  45
ATOM     45  C   UNL A   1      40.318  28.589  29.069  1.00  0.00     0.031 A 
ATOM     46  C   UNL A   1      39.327  29.645  29.349  1.00  0.00     0.074 A 
ATOM     47  C   UNL A   1      41.550  28.640  29.627  1.00  0.00     0.049 A 
ATOM     48  N   UNL A   1      39.630  30.808  29.813  1.00  0.00    -0.248 NA
ATOM     49  C   UNL A   1      37.907  29.506  29.036  1.00  0.00     0.031 C 
ATOM     50  C   UNL A   1      42.008  29.519  30.701  1.00  0.00     0.029 A 
ATOM     51  N   UNL A   1      42.724  28.037  29.149  1.00  0.00    -0.354 N 
ATOM     52  C   UNL A   1      38.459  31.453  30.127  1.00  0.00     0.074 A 
ATOM     53  C   UNL A   1      37.431  30.667  29.495  1.00  0.00     0.031 C 
ATOM     54  C   UNL A   1      43.344  29.632  30.629  1.00  0.00     0.029 A 
ATOM     55  C   UNL A   1      43.764  28.956  29.416  1.00  0.00     0.049 A 
ATOM     56  H   UNL A   1      42.806  27.156  28.717  1.00  0.00     0.167 HD
ATOM     57  C   UNL A   1      38.507  32.497  31.000  1.00  0.00     0.037 A 
ATOM     58  C   UNL A   1      44.479  29.539  28.411  1.00  0.00     0.037 A 
ATOM     59  C   UNL A   1      39.886  32.966  31.161  1.00  0.00     0.049 A 
ATOM     60  C   UNL A   1      44.414  31.049  28.405  1.00  0.00     0.074 A 
ATOM     61  C   UNL A   1      40.827  32.847  32.168  1.00  0.00     0.029 A 
ATOM     62  N   UNL A   1      40.562  33.461  30.047  1.00  0.00    -0.354 N 
ATOM     63  N   UNL A   1      43.490  31.742  29.015  1.00  0.00    -0.248 NA
ATOM     64  C   UNL A   1      45.370  31.897  27.699  1.00  0.00     0.031 C 
ATOM     65  C   UNL A   1      42.095  33.186  31.622  1.00  0.00     0.029 A 
ATOM     66  C   UNL A   1      41.915  33.556  30.299  1.00  0.00     0.049 A 
ATOM     67  H   UNL A   1      40.133  33.708  29.196  1.00  0.00     0.167 HD
ATOM     68  C   UNL A   1      43.689  33.079  28.782  1.00  0.00     0.074 A 
ATOM     69  C   UNL A   1      44.894  33.124  27.976  1.00  0.00     0.031 C 
ATOM     70  C   UNL A   1      42.833  34.029  29.267  1.00  0.00     0.037 A 
BRANCH  57  71
ATOM     71  C   UNL A   1      37.356  32.972  31.873  1.00  0.00     0.057 A 
ATOM     72  C   UNL A   1      36.384  33.850  31.345  1.00  0.00     0.134 A 
ATOM     73  C   UNL A   1      37.207  32.732  33.256  1.00  0.00     0.134 A 
ATOM     74  F   UNL A   1      36.373  34.187  30.049  1.00  0.00    -0.206 F 
ATOM     75  C   UNL A   1      35.384  34.452  32.127  1.00  0.00     0.040 A 
ATOM     76  C   UNL A   1      36.189  33.296  34.038  1.00  0.00     0.040 A 
ATOM     77  F   UNL A   1      38.057  31.980  33.956  1.00  0.00    -0.206 F 
ATOM     78  C   UNL A   1      35.280  34.174  33.481  1.00  0.00     0.006 A 
ENDBRANCH  57  71
BRANCH  58  79
ATOM     79  C   UNL A   1      44.615  28.681  27.206  1.00  0.00     0.057 A 
ATOM     80  C   UNL A   1      45.551  27.631  27.229  1.00  0.00     0.134 A 
ATOM     81  C   UNL A   1      43.622  28.626  26.225  1.00  0.00     0.134 A 
ATOM     82  F   UNL A   1      46.530  27.620  28.149  1.00  0.00    -0.206 F 
ATOM     83  C   UNL A   1      45.435  26.518  26.392  1.00  0.00     0.040 A 
ATOM     84  C   UNL A   1      43.504  27.521  25.371  1.00  0.00     0.040 A 
ATOM     85  F   UNL A   1      42.680  29.577  26.153  1.00  0.00    -0.206 F 
ATOM     86  C   UNL A   1      44.387  26.447  25.482  1.00  0.00     0.006 A 
ENDBRANCH  58  79
BRANCH  70  87
ATOM     87  C   UNL A   1      42.807  35.495  28.885  1.00  0.00     0.057 A 
ATOM     88  C   UNL A   1      41.942  36.059  27.934  1.00  0.00     0.134 A 
ATOM     89  C   UNL A   1      43.588  36.433  29.601  1.00  0.00     0.134 A 
ATOM     90  F   UNL A   1      41.054  35.317  27.261  1.00  0.00    -0.206 F 
ATOM     91  C   UNL A   1      41.904  37.438  27.671  1.00  0.00     0.040 A 
ATOM     92  C   UNL A   1      43.516  37.813  29.387  1.00  0.00     0.040 A 
ATOM     93  F   UNL A   1      44.442  36.053  30.563  1.00  0.00    -0.206 F 
ATOM     94  C   UNL A   1      42.682  38.321  28.405  1.00  0.00     0.006 A 
ENDBRANCH  70  87
ENDBRANCH  44  45
ENDBRANCH  36  39
ENDBRANCH  34  35
ENDBRANCH  33  34
ENDBRANCH   1  33
TORSDOF 14
ENDMDL
MODEL 3
REMARK VINA RESULT:     -13.7      3.638      8.825
REMARK SMILES Cc1ccc(-c2cc(C(=O)NCCCCNC(=O)c3ccc(-c4c5nc(c(-c6c(F)cccc6F)c6ccc([nH]6)c(-c6c(F)cccc6F)c6nc(c(-c7c(F)cccc7F)c7ccc4[nH]7)C=C6)C=C5)cc3)c3c(-c4cccc([N+](=O)[O-])c4)[nH]nc3n2)cc1
REMARK SMILES IDX 13 1 12 2 11 3 9 4 10 5 8 7 6 8 7 9 87 10 86 11 73 12 85 13
REMARK SMILES IDX 74 14 84 15 5 17 1 18 2 19 3 20 89 21 4 22 88 23 75 24 76 25
REMARK SMILES IDX 83 26 77 27 79 28 78 29 80 30 81 31 82 32 14 33 15 34 16 35
REMARK SMILES IDX 17 36 18 38 19 39 20 40 72 41 21 42 71 43 22 44 23 45 24 46
REMARK SMILES IDX 65 47 25 48 70 49 64 50 66 51 26 52 69 53 63 54 62 55 27 57
REMARK SMILES IDX 53 58 36 59 52 60 37 61 40 62 51 63 67 64 38 65 39 66 50 68
REMARK SMILES IDX 68 69 41 70 28 71 29 72 34 73 30 74 31 75 33 76 35 77 32 78
REMARK SMILES IDX 54 79 55 80 60 81 56 82 57 83 59 84 61 85 58 86 42 87 43 88
REMARK SMILES IDX 48 89 44 90 45 91 47 92 49 93 46 94
REMARK H PARENT 11 6 84 16 16 37 66 56 40 67
REMARK Flexibility Score: inf
ROOT
ATOM      1  C   UNL A   1      37.027  22.489  25.202  1.00  0.00     0.023 C 
ENDROOT
BRANCH   1   2
ATOM      2  C   UNL A   1      35.497  22.541  25.069  1.00  0.00     0.116 C 
BRANCH   2   3
ATOM      3  N   UNL A   1      35.050  23.331  23.933  1.00  0.00    -0.352 N 
ATOM      4  C   UNL A   1      34.225  24.412  23.734  1.00  0.00     0.252 C 
ATOM      5  O   UNL A   1      34.263  24.851  22.588  1.00  0.00    -0.269 OA
ATOM      6  H   UNL A   1      35.437  23.009  23.088  1.00  0.00     0.163 HD
BRANCH   4   7
ATOM      7  C   UNL A   1      33.382  25.061  24.773  1.00  0.00     0.055 A 
ATOM      8  C   UNL A   1      32.838  27.027  26.210  1.00  0.00     0.074 A 
ATOM      9  C   UNL A   1      33.696  26.296  25.351  1.00  0.00     0.043 A 
ATOM     10  N   UNL A   1      31.639  26.606  26.672  1.00  0.00    -0.226 NA
ATOM     11  C   UNL A   1      31.305  25.377  26.203  1.00  0.00     0.182 A 
ATOM     12  C   UNL A   1      32.141  24.622  25.289  1.00  0.00     0.059 A 
ATOM     13  N   UNL A   1      30.182  24.730  26.506  1.00  0.00    -0.154 NA
ATOM     14  C   UNL A   1      31.444  23.436  25.101  1.00  0.00     0.076 A 
ATOM     15  N   UNL A   1      30.284  23.583  25.827  1.00  0.00    -0.275 N 
ATOM     16  H   UNL A   1      29.581  22.894  25.845  1.00  0.00     0.190 HD
BRANCH   8  17
ATOM     17  C   UNL A   1      33.265  28.386  26.578  1.00  0.00     0.000 A 
ATOM     18  C   UNL A   1      34.491  32.147  28.321  1.00  0.00     0.044 C 
ATOM     19  C   UNL A   1      34.082  30.857  27.675  1.00  0.00    -0.051 A 
ATOM     20  C   UNL A   1      32.758  30.662  27.257  1.00  0.00     0.004 A 
ATOM     21  C   UNL A   1      35.010  29.830  27.495  1.00  0.00     0.004 A 
ATOM     22  C   UNL A   1      32.353  29.439  26.708  1.00  0.00     0.010 A 
ATOM     23  C   UNL A   1      34.605  28.613  26.947  1.00  0.00     0.010 A 
ENDBRANCH   8  17
BRANCH  14  24
ATOM     24  C   UNL A   1      31.708  22.188  24.401  1.00  0.00     0.007 A 
ATOM     25  C   UNL A   1      31.641  22.131  23.001  1.00  0.00     0.011 A 
ATOM     26  C   UNL A   1      32.094  21.052  25.121  1.00  0.00     0.096 A 
ATOM     27  C   UNL A   1      32.007  20.968  22.320  1.00  0.00     0.008 A 
ATOM     28  C   UNL A   1      32.499  19.903  24.431  1.00  0.00     0.270 A 
ATOM     29  C   UNL A   1      32.452  19.853  23.031  1.00  0.00     0.085 A 
BRANCH  28  30
ATOM     30  N   UNL A   1      33.031  18.761  25.183  1.00  0.00     0.062 N 
ATOM     31  O   UNL A   1      32.483  18.469  26.256  1.00  0.00    -0.258 OA
ATOM     32  O   UNL A   1      34.002  18.155  24.706  1.00  0.00    -0.258 OA
ENDBRANCH  28  30
ENDBRANCH  14  24
ENDBRANCH   4   7
ENDBRANCH   2   3
ENDBRANCH   1   2
BRANCH   1  33
ATOM     33  C   UNL A   1      37.650  23.707  25.894  1.00  0.00     0.023 C 
BRANCH  33  34
ATOM     34  C   UNL A   1      39.036  23.455  26.476  1.00  0.00     0.116 C 
BRANCH  34  35
ATOM     35  N   UNL A   1      39.627  22.170  26.128  1.00  0.00    -0.352 N 
ATOM     36  C   UNL A   1      40.959  21.773  26.135  1.00  0.00     0.251 C 
ATOM     37  H   UNL A   1      38.986  21.478  25.845  1.00  0.00     0.163 HD
ATOM     38  O   UNL A   1      41.270  20.670  25.732  1.00  0.00    -0.269 OA
BRANCH  36  39
ATOM     39  C   UNL A   1      41.979  22.643  26.783  1.00  0.00     0.039 A 
ATOM     40  C   UNL A   1      42.107  22.552  28.175  1.00  0.00     0.014 A 
ATOM     41  C   UNL A   1      42.598  23.679  26.092  1.00  0.00     0.014 A 
ATOM     42  C   UNL A   1      42.585  23.648  28.886  1.00  0.00     0.010 A 
ATOM     43  C   UNL A   1      42.975  24.806  26.795  1.00  0.00     0.010 A 
ATOM     44  C   UNL A   1      42.879  24.816  28.190  1.00  0.00    -0.014 A 
BRANCH  44  45
ATOM     45  C   UNL A   1      42.944  26.125  28.829  1.00  0.00     0.031 A 
ATOM     46  C   UNL A   1      41.748  26.984  28.898  1.00  0.00     0.074 A 
ATOM     47  C   UNL A   1      44.098  26.508  29.424  1.00  0.00     0.049 A 
ATOM     48  N   UNL A   1      41.781  28.240  29.186  1.00  0.00    -0.248 NA
ATOM     49  C   UNL A   1      40.409  26.513  28.551  1.00  0.00     0.031 C 
ATOM     50  C   UNL A   1      44.295  27.608  30.364  1.00  0.00     0.029 A 
ATOM     51  N   UNL A   1      45.399  26.096  29.095  1.00  0.00    -0.354 N 
ATOM     52  C   UNL A   1      40.487  28.669  29.345  1.00  0.00     0.074 A 
ATOM     53  C   UNL A   1      39.682  27.606  28.802  1.00  0.00     0.031 C 
ATOM     54  C   UNL A   1      45.585  27.981  30.332  1.00  0.00     0.029 A 
ATOM     55  C   UNL A   1      46.216  27.236  29.258  1.00  0.00     0.049 A 
ATOM     56  H   UNL A   1      45.684  25.197  28.812  1.00  0.00     0.167 HD
ATOM     57  C   UNL A   1      40.265  29.816  30.045  1.00  0.00     0.037 A 
ATOM     58  C   UNL A   1      46.875  27.802  28.206  1.00  0.00     0.037 A 
ATOM     59  C   UNL A   1      41.510  30.577  30.188  1.00  0.00     0.049 A 
ATOM     60  C   UNL A   1      46.515  29.249  27.960  1.00  0.00     0.074 A 
ATOM     61  C   UNL A   1      42.380  30.801  31.240  1.00  0.00     0.029 A 
ATOM     62  N   UNL A   1      42.155  31.032  29.040  1.00  0.00    -0.354 N 
ATOM     63  N   UNL A   1      45.431  29.819  28.414  1.00  0.00    -0.248 NA
ATOM     64  C   UNL A   1      47.335  30.163  27.170  1.00  0.00     0.031 C 
ATOM     65  C   UNL A   1      43.594  31.310  30.701  1.00  0.00     0.029 A 
ATOM     66  C   UNL A   1      43.441  31.438  29.330  1.00  0.00     0.049 A 
ATOM     67  H   UNL A   1      41.749  31.059  28.143  1.00  0.00     0.167 HD
ATOM     68  C   UNL A   1      45.380  31.120  27.983  1.00  0.00     0.074 A 
ATOM     69  C   UNL A   1      46.608  31.294  27.231  1.00  0.00     0.031 C 
ATOM     70  C   UNL A   1      44.321  31.934  28.276  1.00  0.00     0.037 A 
BRANCH  57  71
ATOM     71  C   UNL A   1      38.983  30.167  30.783  1.00  0.00     0.057 A 
ATOM     72  C   UNL A   1      38.804  29.757  32.123  1.00  0.00     0.134 A 
ATOM     73  C   UNL A   1      37.839  30.773  30.221  1.00  0.00     0.134 A 
ATOM     74  F   UNL A   1      39.788  29.165  32.813  1.00  0.00    -0.206 F 
ATOM     75  C   UNL A   1      37.592  29.907  32.818  1.00  0.00     0.040 A 
ATOM     76  C   UNL A   1      36.638  30.964  30.919  1.00  0.00     0.040 A 
ATOM     77  F   UNL A   1      37.783  31.176  28.951  1.00  0.00    -0.206 F 
ATOM     78  C   UNL A   1      36.502  30.516  32.218  1.00  0.00     0.006 A 
ENDBRANCH  57  71
BRANCH  58  79
ATOM     79  C   UNL A   1      47.264  26.824  27.157  1.00  0.00     0.057 A 
ATOM     80  C   UNL A   1      46.441  26.690  26.024  1.00  0.00     0.134 A 
ATOM     81  C   UNL A   1      48.566  26.326  27.062  1.00  0.00     0.134 A 
ATOM     82  F   UNL A   1      45.180  27.151  26.047  1.00  0.00    -0.206 F 
ATOM     83  C   UNL A   1      46.927  26.189  24.813  1.00  0.00     0.040 A 
ATOM     84  C   UNL A   1      49.059  25.810  25.856  1.00  0.00     0.040 A 
ATOM     85  F   UNL A   1      49.417  26.438  28.090  1.00  0.00    -0.206 F 
ATOM     86  C   UNL A   1      48.252  25.778  24.719  1.00  0.00     0.006 A 
ENDBRANCH  58  79
BRANCH  70  87
ATOM     87  C   UNL A   1      44.036  33.293  27.667  1.00  0.00     0.057 A 
ATOM     88  C   UNL A   1      43.785  33.523  26.306  1.00  0.00     0.134 A 
ATOM     89  C   UNL A   1      43.859  34.424  28.500  1.00  0.00     0.134 A 
ATOM     90  F   UNL A   1      43.793  32.529  25.409  1.00  0.00    -0.206 F 
ATOM     91  C   UNL A   1      43.450  34.790  25.803  1.00  0.00     0.040 A 
ATOM     92  C   UNL A   1      43.468  35.677  28.016  1.00  0.00     0.040 A 
ATOM     93  F   UNL A   1      44.032  34.359  29.828  1.00  0.00    -0.206 F 
ATOM     94  C   UNL A   1      43.278  35.869  26.658  1.00  0.00     0.006 A 
ENDBRANCH  70  87
ENDBRANCH  44  45
ENDBRANCH  36  39
ENDBRANCH  34  35
ENDBRANCH  33  34
ENDBRANCH   1  33
TORSDOF 14
ENDMDL
