MODEL 1
REMARK VINA RESULT:     -12.3      0.000      0.000
REMARK SMILES O=C(COc1ccc(Br)cc1/C=C1\NC(=O)N(Cc2ccc(F)cc2)C1=O)NCCCCNC(=O)c1ccc(-c2c3nc(c(-c4c(F)cccc4F)c4ccc([nH]4)c(-c4c(F)cccc4F)c4nc(c(-c5c(F)cccc5F)c5ccc2[nH]5)C=C4)C=C3)cc1
REMARK SMILES IDX 29 1 28 2 1 3 2 4 3 6 4 7 5 8 6 9 11 10 7 11 10 12 8 13 9 14
REMARK SMILES IDX 12 15 13 16 14 17 26 18 15 19 17 21 27 22 16 23 18 24 19 25
REMARK SMILES IDX 20 26 25 27 21 28 24 29 22 30 23 31 30 32 31 33 32 34 33 35
REMARK SMILES IDX 34 36 35 38 36 39 37 40 89 41 38 42 88 43 39 44 40 45 41 46
REMARK SMILES IDX 82 47 42 48 87 49 81 50 83 51 43 52 86 53 80 54 79 55 44 57
REMARK SMILES IDX 70 58 53 59 69 60 54 61 57 62 68 63 84 64 55 65 56 66 67 68
REMARK SMILES IDX 85 69 58 70 45 71 46 72 51 73 47 74 48 75 50 76 52 77 49 78
REMARK SMILES IDX 71 79 72 80 77 81 73 82 74 83 76 84 78 85 75 86 59 87 60 88
REMARK SMILES IDX 65 89 61 90 62 91 64 92 66 93 63 94
REMARK H PARENT 28 5 14 20 33 37 83 56 57 67
REMARK Flexibility Score: inf
ROOT
ATOM      1  C   UNL A   1      30.571  26.203  26.538  1.00  0.00     0.116 C 
ENDROOT
BRANCH   1   2
ATOM      2  N   UNL A   1      31.302  25.052  26.055  1.00  0.00    -0.353 N 
ATOM      3  O   UNL A   1      30.168  23.493  27.310  1.00  0.00    -0.271 OA
ATOM      4  C   UNL A   1      30.961  23.762  26.414  1.00  0.00     0.257 C 
ATOM      5  H   UNL A   1      32.066  25.192  25.450  1.00  0.00     0.163 HD
BRANCH   4   6
ATOM      6  C   UNL A   1      31.636  22.680  25.569  1.00  0.00     0.329 C 
BRANCH   6   7
ATOM      7  O   UNL A   1      32.661  23.144  24.691  1.00  0.00    -0.483 OA
BRANCH   7   8
ATOM      8  C   UNL A   1      33.939  22.793  25.055  1.00  0.00     0.127 A 
ATOM      9  C   UNL A   1      34.313  21.456  25.229  1.00  0.00     0.048 A 
ATOM     10  C   UNL A   1      34.923  23.796  25.084  1.00  0.00     0.020 A 
ATOM     11  C   UNL A   1      35.652  21.112  25.420  1.00  0.00     0.019 A 
ATOM     12  C   UNL A   1      36.269  23.444  25.272  1.00  0.00     0.027 A 
ATOM     13  C   UNL A   1      36.626  22.105  25.429  1.00  0.00     0.018 A 
ATOM     14  Br  UNL A   1      38.443  21.628  25.629  1.00  0.00    -0.051 Br
BRANCH  10  15
ATOM     15  C   UNL A   1      34.600  25.215  24.914  1.00  0.00     0.044 C 
ATOM     16  C   UNL A   1      34.000  25.729  23.838  1.00  0.00     0.109 C 
ATOM     17  N   UNL A   1      33.574  25.097  22.709  1.00  0.00    -0.303 N 
ATOM     18  C   UNL A   1      33.633  27.167  23.689  1.00  0.00     0.278 C 
ATOM     19  C   UNL A   1      32.929  26.002  21.878  1.00  0.00     0.329 C 
ATOM     20  H   UNL A   1      33.704  24.141  22.512  1.00  0.00     0.172 HD
ATOM     21  N   UNL A   1      32.939  27.228  22.508  1.00  0.00    -0.254 N 
ATOM     22  O   UNL A   1      33.916  28.061  24.469  1.00  0.00    -0.267 OA
ATOM     23  O   UNL A   1      32.458  25.729  20.786  1.00  0.00    -0.248 OA
BRANCH  21  24
ATOM     24  C   UNL A   1      32.310  28.422  21.990  1.00  0.00     0.166 C 
BRANCH  24  25
ATOM     25  C   UNL A   1      30.850  28.503  22.391  1.00  0.00    -0.028 A 
ATOM     26  C   UNL A   1      30.232  27.417  23.036  1.00  0.00     0.008 A 
ATOM     27  C   UNL A   1      30.083  29.640  22.097  1.00  0.00     0.008 A 
ATOM     28  C   UNL A   1      28.876  27.457  23.361  1.00  0.00     0.039 A 
ATOM     29  C   UNL A   1      28.728  29.685  22.441  1.00  0.00     0.039 A 
ATOM     30  C   UNL A   1      28.137  28.592  23.063  1.00  0.00     0.123 A 
ATOM     31  F   UNL A   1      26.836  28.632  23.375  1.00  0.00    -0.207 F 
ENDBRANCH  24  25
ENDBRANCH  21  24
ENDBRANCH  10  15
ENDBRANCH   7   8
ENDBRANCH   6   7
ENDBRANCH   4   6
ENDBRANCH   1   2
BRANCH   1  32
ATOM     32  C   UNL A   1      31.348  27.507  26.408  1.00  0.00     0.023 C 
BRANCH  32  33
ATOM     33  C   UNL A   1      31.994  28.001  27.704  1.00  0.00     0.023 C 
BRANCH  33  34
ATOM     34  C   UNL A   1      33.408  28.558  27.565  1.00  0.00     0.116 C 
BRANCH  34  35
ATOM     35  N   UNL A   1      33.471  30.003  27.714  1.00  0.00    -0.352 N 
ATOM     36  C   UNL A   1      34.515  30.797  28.127  1.00  0.00     0.251 C 
ATOM     37  H   UNL A   1      32.643  30.484  27.485  1.00  0.00     0.163 HD
ATOM     38  O   UNL A   1      34.333  31.995  28.323  1.00  0.00    -0.269 OA
BRANCH  36  39
ATOM     39  C   UNL A   1      35.852  30.210  28.367  1.00  0.00     0.039 A 
ATOM     40  C   UNL A   1      36.778  30.195  27.319  1.00  0.00     0.014 A 
ATOM     41  C   UNL A   1      36.198  29.675  29.610  1.00  0.00     0.014 A 
ATOM     42  C   UNL A   1      38.072  29.716  27.542  1.00  0.00     0.010 A 
ATOM     43  C   UNL A   1      37.509  29.271  29.853  1.00  0.00     0.010 A 
ATOM     44  C   UNL A   1      38.462  29.290  28.823  1.00  0.00    -0.014 A 
BRANCH  44  45
ATOM     45  C   UNL A   1      39.863  28.881  29.106  1.00  0.00     0.031 A 
ATOM     46  C   UNL A   1      40.807  29.821  29.802  1.00  0.00     0.074 A 
ATOM     47  C   UNL A   1      40.305  27.679  28.682  1.00  0.00     0.049 A 
ATOM     48  N   UNL A   1      42.079  29.664  30.072  1.00  0.00    -0.248 NA
ATOM     49  C   UNL A   1      40.259  31.117  30.232  1.00  0.00     0.031 C 
ATOM     50  C   UNL A   1      39.501  26.690  27.963  1.00  0.00     0.029 A 
ATOM     51  N   UNL A   1      41.540  27.088  28.790  1.00  0.00    -0.354 N 
ATOM     52  C   UNL A   1      42.481  30.838  30.695  1.00  0.00     0.074 A 
ATOM     53  C   UNL A   1      41.335  31.722  30.712  1.00  0.00     0.031 C 
ATOM     54  C   UNL A   1      40.253  25.605  27.720  1.00  0.00     0.029 A 
ATOM     55  C   UNL A   1      41.604  25.838  28.224  1.00  0.00     0.049 A 
ATOM     56  H   UNL A   1      42.307  27.520  29.230  1.00  0.00     0.167 HD
ATOM     57  C   UNL A   1      43.688  31.142  31.230  1.00  0.00     0.037 A 
ATOM     58  C   UNL A   1      42.633  24.974  28.114  1.00  0.00     0.037 A 
ATOM     59  C   UNL A   1      44.821  30.254  31.230  1.00  0.00     0.049 A 
ATOM     60  C   UNL A   1      43.972  25.346  28.689  1.00  0.00     0.074 A 
ATOM     61  C   UNL A   1      46.070  30.457  31.789  1.00  0.00     0.029 A 
ATOM     62  N   UNL A   1      44.845  28.998  30.640  1.00  0.00    -0.354 N 
ATOM     63  N   UNL A   1      44.323  26.439  29.320  1.00  0.00    -0.248 NA
ATOM     64  C   UNL A   1      45.056  24.365  28.538  1.00  0.00     0.031 C 
ATOM     65  C   UNL A   1      46.867  29.349  31.493  1.00  0.00     0.029 A 
ATOM     66  C   UNL A   1      46.097  28.427  30.802  1.00  0.00     0.049 A 
ATOM     67  H   UNL A   1      44.086  28.576  30.178  1.00  0.00     0.167 HD
ATOM     68  C   UNL A   1      45.657  26.270  29.663  1.00  0.00     0.074 A 
ATOM     69  C   UNL A   1      46.052  24.962  29.180  1.00  0.00     0.031 C 
ATOM     70  C   UNL A   1      46.480  27.123  30.321  1.00  0.00     0.037 A 
BRANCH  57  71
ATOM     71  C   UNL A   1      43.848  32.488  31.876  1.00  0.00     0.057 A 
ATOM     72  C   UNL A   1      44.319  33.585  31.141  1.00  0.00     0.134 A 
ATOM     73  C   UNL A   1      43.605  32.683  33.242  1.00  0.00     0.134 A 
ATOM     74  F   UNL A   1      44.580  33.466  29.830  1.00  0.00    -0.206 F 
ATOM     75  C   UNL A   1      44.555  34.821  31.745  1.00  0.00     0.040 A 
ATOM     76  C   UNL A   1      43.808  33.923  33.851  1.00  0.00     0.040 A 
ATOM     77  F   UNL A   1      43.143  31.678  34.001  1.00  0.00    -0.206 F 
ATOM     78  C   UNL A   1      44.295  34.993  33.103  1.00  0.00     0.006 A 
ENDBRANCH  57  71
BRANCH  58  79
ATOM     79  C   UNL A   1      42.420  23.661  27.454  1.00  0.00     0.057 A 
ATOM     80  C   UNL A   1      42.113  22.510  28.191  1.00  0.00     0.134 A 
ATOM     81  C   UNL A   1      42.555  23.521  26.068  1.00  0.00     0.134 A 
ATOM     82  F   UNL A   1      41.978  22.576  29.524  1.00  0.00    -0.206 F 
ATOM     83  C   UNL A   1      41.972  21.265  27.577  1.00  0.00     0.040 A 
ATOM     84  C   UNL A   1      42.392  22.286  25.438  1.00  0.00     0.040 A 
ATOM     85  F   UNL A   1      42.830  24.590  25.306  1.00  0.00    -0.206 F 
ATOM     86  C   UNL A   1      42.108  21.151  26.195  1.00  0.00     0.006 A 
ENDBRANCH  58  79
BRANCH  70  87
ATOM     87  C   UNL A   1      47.889  26.675  30.585  1.00  0.00     0.057 A 
ATOM     88  C   UNL A   1      48.902  26.920  29.648  1.00  0.00     0.134 A 
ATOM     89  C   UNL A   1      48.225  25.925  31.719  1.00  0.00     0.134 A 
ATOM     90  F   UNL A   1      48.645  27.621  28.534  1.00  0.00    -0.206 F 
ATOM     91  C   UNL A   1      50.192  26.417  29.819  1.00  0.00     0.040 A 
ATOM     92  C   UNL A   1      49.519  25.442  31.916  1.00  0.00     0.040 A 
ATOM     93  F   UNL A   1      47.304  25.665  32.660  1.00  0.00    -0.206 F 
ATOM     94  C   UNL A   1      50.504  25.677  30.957  1.00  0.00     0.006 A 
ENDBRANCH  70  87
ENDBRANCH  44  45
ENDBRANCH  36  39
ENDBRANCH  34  35
ENDBRANCH  33  34
ENDBRANCH  32  33
ENDBRANCH   1  32
TORSDOF 16
ENDMDL
MODEL 2
REMARK VINA RESULT:     -12.0      2.274      6.660
REMARK SMILES O=C(COc1ccc(Br)cc1/C=C1\NC(=O)N(Cc2ccc(F)cc2)C1=O)NCCCCNC(=O)c1ccc(-c2c3nc(c(-c4c(F)cccc4F)c4ccc([nH]4)c(-c4c(F)cccc4F)c4nc(c(-c5c(F)cccc5F)c5ccc2[nH]5)C=C4)C=C3)cc1
REMARK SMILES IDX 29 1 28 2 1 3 2 4 3 6 4 7 5 8 6 9 11 10 7 11 10 12 8 13 9 14
REMARK SMILES IDX 12 15 13 16 14 17 26 18 15 19 17 21 27 22 16 23 18 24 19 25
REMARK SMILES IDX 20 26 25 27 21 28 24 29 22 30 23 31 30 32 31 33 32 34 33 35
REMARK SMILES IDX 34 36 35 38 36 39 37 40 89 41 38 42 88 43 39 44 40 45 41 46
REMARK SMILES IDX 82 47 42 48 87 49 81 50 83 51 43 52 86 53 80 54 79 55 44 57
REMARK SMILES IDX 70 58 53 59 69 60 54 61 57 62 68 63 84 64 55 65 56 66 67 68
REMARK SMILES IDX 85 69 58 70 45 71 46 72 51 73 47 74 48 75 50 76 52 77 49 78
REMARK SMILES IDX 71 79 72 80 77 81 73 82 74 83 76 84 78 85 75 86 59 87 60 88
REMARK SMILES IDX 65 89 61 90 62 91 64 92 66 93 63 94
REMARK H PARENT 28 5 14 20 33 37 83 56 57 67
REMARK Flexibility Score: inf
ROOT
ATOM      1  C   UNL A   1      31.082  27.744  26.634  1.00  0.00     0.116 C 
ENDROOT
BRANCH   1   2
ATOM      2  N   UNL A   1      31.574  26.413  26.915  1.00  0.00    -0.353 N 
ATOM      3  O   UNL A   1      29.780  25.290  26.012  1.00  0.00    -0.271 OA
ATOM      4  C   UNL A   1      30.914  25.280  26.479  1.00  0.00     0.257 C 
ATOM      5  H   UNL A   1      32.405  26.311  27.433  1.00  0.00     0.163 HD
BRANCH   4   6
ATOM      6  C   UNL A   1      31.737  23.996  26.597  1.00  0.00     0.329 C 
BRANCH   6   7
ATOM      7  O   UNL A   1      32.412  23.592  25.406  1.00  0.00    -0.483 OA
BRANCH   7   8
ATOM      8  C   UNL A   1      33.703  23.158  25.590  1.00  0.00     0.127 A 
ATOM      9  C   UNL A   1      34.003  21.806  25.789  1.00  0.00     0.048 A 
ATOM     10  C   UNL A   1      34.749  24.079  25.402  1.00  0.00     0.020 A 
ATOM     11  C   UNL A   1      35.327  21.366  25.793  1.00  0.00     0.019 A 
ATOM     12  C   UNL A   1      36.078  23.629  25.402  1.00  0.00     0.027 A 
ATOM     13  C   UNL A   1      36.359  22.276  25.588  1.00  0.00     0.018 A 
ATOM     14  Br  UNL A   1      38.145  21.664  25.534  1.00  0.00    -0.051 Br
BRANCH  10  15
ATOM     15  C   UNL A   1      34.506  25.509  25.193  1.00  0.00     0.044 C 
ATOM     16  C   UNL A   1      33.894  26.022  24.124  1.00  0.00     0.109 C 
ATOM     17  N   UNL A   1      33.383  25.379  23.036  1.00  0.00    -0.303 N 
ATOM     18  C   UNL A   1      33.608  27.474  23.937  1.00  0.00     0.278 C 
ATOM     19  C   UNL A   1      32.760  26.294  22.199  1.00  0.00     0.329 C 
ATOM     20  H   UNL A   1      33.446  24.411  22.870  1.00  0.00     0.172 HD
ATOM     21  N   UNL A   1      32.872  27.538  22.782  1.00  0.00    -0.254 N 
ATOM     22  O   UNL A   1      33.978  28.375  24.672  1.00  0.00    -0.267 OA
ATOM     23  O   UNL A   1      32.229  26.014  21.137  1.00  0.00    -0.248 OA
BRANCH  21  24
ATOM     24  C   UNL A   1      32.295  28.750  22.247  1.00  0.00     0.166 C 
BRANCH  24  25
ATOM     25  C   UNL A   1      30.800  28.814  22.492  1.00  0.00    -0.028 A 
ATOM     26  C   UNL A   1      30.164  27.814  23.248  1.00  0.00     0.008 A 
ATOM     27  C   UNL A   1      30.022  29.846  21.945  1.00  0.00     0.008 A 
ATOM     28  C   UNL A   1      28.782  27.832  23.436  1.00  0.00     0.039 A 
ATOM     29  C   UNL A   1      28.639  29.872  22.151  1.00  0.00     0.039 A 
ATOM     30  C   UNL A   1      28.032  28.861  22.887  1.00  0.00     0.123 A 
ATOM     31  F   UNL A   1      26.705  28.880  23.067  1.00  0.00    -0.207 F 
ENDBRANCH  24  25
ENDBRANCH  21  24
ENDBRANCH  10  15
ENDBRANCH   7   8
ENDBRANCH   6   7
ENDBRANCH   4   6
ENDBRANCH   1   2
BRANCH   1  32
ATOM     32  C   UNL A   1      31.864  28.838  27.351  1.00  0.00     0.023 C 
BRANCH  32  33
ATOM     33  C   UNL A   1      31.566  30.260  26.872  1.00  0.00     0.023 C 
BRANCH  33  34
ATOM     34  C   UNL A   1      32.754  31.218  26.872  1.00  0.00     0.116 C 
BRANCH  34  35
ATOM     35  N   UNL A   1      32.386  32.584  27.206  1.00  0.00    -0.352 N 
ATOM     36  C   UNL A   1      33.030  33.493  28.013  1.00  0.00     0.251 C 
ATOM     37  H   UNL A   1      31.553  32.907  26.792  1.00  0.00     0.163 HD
ATOM     38  O   UNL A   1      32.488  34.561  28.286  1.00  0.00    -0.269 OA
BRANCH  36  39
ATOM     39  C   UNL A   1      34.359  33.179  28.581  1.00  0.00     0.039 A 
ATOM     40  C   UNL A   1      34.426  32.486  29.794  1.00  0.00     0.014 A 
ATOM     41  C   UNL A   1      35.535  33.561  27.931  1.00  0.00     0.014 A 
ATOM     42  C   UNL A   1      35.668  32.111  30.313  1.00  0.00     0.010 A 
ATOM     43  C   UNL A   1      36.768  33.118  28.408  1.00  0.00     0.010 A 
ATOM     44  C   UNL A   1      36.848  32.386  29.601  1.00  0.00    -0.014 A 
BRANCH  44  45
ATOM     45  C   UNL A   1      38.168  31.899  30.082  1.00  0.00     0.031 A 
ATOM     46  C   UNL A   1      38.739  30.607  29.567  1.00  0.00     0.074 A 
ATOM     47  C   UNL A   1      38.831  32.594  31.029  1.00  0.00     0.049 A 
ATOM     48  N   UNL A   1      39.841  29.992  29.919  1.00  0.00    -0.248 NA
ATOM     49  C   UNL A   1      37.960  29.898  28.539  1.00  0.00     0.031 C 
ATOM     50  C   UNL A   1      38.369  33.842  31.638  1.00  0.00     0.029 A 
ATOM     51  N   UNL A   1      40.031  32.345  31.650  1.00  0.00    -0.354 N 
ATOM     52  C   UNL A   1      39.883  28.829  29.163  1.00  0.00     0.074 A 
ATOM     53  C   UNL A   1      38.669  28.792  28.375  1.00  0.00     0.031 C 
ATOM     54  C   UNL A   1      39.287  34.266  32.522  1.00  0.00     0.029 A 
ATOM     55  C   UNL A   1      40.379  33.298  32.577  1.00  0.00     0.049 A 
ATOM     56  H   UNL A   1      40.588  31.559  31.450  1.00  0.00     0.167 HD
ATOM     57  C   UNL A   1      40.857  27.889  29.108  1.00  0.00     0.037 A 
ATOM     58  C   UNL A   1      41.452  33.383  33.389  1.00  0.00     0.037 A 
ATOM     59  C   UNL A   1      42.073  27.937  29.878  1.00  0.00     0.049 A 
ATOM     60  C   UNL A   1      42.506  32.313  33.332  1.00  0.00     0.074 A 
ATOM     61  C   UNL A   1      43.139  27.055  29.855  1.00  0.00     0.029 A 
ATOM     62  N   UNL A   1      42.383  28.916  30.811  1.00  0.00    -0.354 N 
ATOM     63  N   UNL A   1      42.556  31.245  32.575  1.00  0.00    -0.248 NA
ATOM     64  C   UNL A   1      43.653  32.460  34.240  1.00  0.00     0.031 C 
ATOM     65  C   UNL A   1      44.070  27.469  30.810  1.00  0.00     0.029 A 
ATOM     66  C   UNL A   1      43.614  28.644  31.386  1.00  0.00     0.049 A 
ATOM     67  H   UNL A   1      41.815  29.689  31.030  1.00  0.00     0.167 HD
ATOM     68  C   UNL A   1      43.747  30.606  32.895  1.00  0.00     0.074 A 
ATOM     69  C   UNL A   1      44.396  31.412  33.908  1.00  0.00     0.031 C 
ATOM     70  C   UNL A   1      44.255  29.455  32.392  1.00  0.00     0.037 A 
BRANCH  57  71
ATOM     71  C   UNL A   1      40.661  26.731  28.174  1.00  0.00     0.057 A 
ATOM     72  C   UNL A   1      41.328  26.681  26.942  1.00  0.00     0.134 A 
ATOM     73  C   UNL A   1      39.757  25.698  28.459  1.00  0.00     0.134 A 
ATOM     74  F   UNL A   1      42.201  27.641  26.601  1.00  0.00    -0.206 F 
ATOM     75  C   UNL A   1      41.093  25.655  26.025  1.00  0.00     0.040 A 
ATOM     76  C   UNL A   1      39.536  24.652  27.563  1.00  0.00     0.040 A 
ATOM     77  F   UNL A   1      39.093  25.680  29.624  1.00  0.00    -0.206 F 
ATOM     78  C   UNL A   1      40.197  24.635  26.337  1.00  0.00     0.006 A 
ENDBRANCH  57  71
BRANCH  58  79
ATOM     79  C   UNL A   1      41.588  34.547  34.301  1.00  0.00     0.057 A 
ATOM     80  C   UNL A   1      42.195  35.739  33.887  1.00  0.00     0.134 A 
ATOM     81  C   UNL A   1      41.145  34.477  35.627  1.00  0.00     0.134 A 
ATOM     82  F   UNL A   1      42.648  35.866  32.630  1.00  0.00    -0.206 F 
ATOM     83  C   UNL A   1      42.377  36.810  34.762  1.00  0.00     0.040 A 
ATOM     84  C   UNL A   1      41.298  35.551  36.507  1.00  0.00     0.040 A 
ATOM     85  F   UNL A   1      40.539  33.370  36.079  1.00  0.00    -0.206 F 
ATOM     86  C   UNL A   1      41.925  36.719  36.076  1.00  0.00     0.006 A 
ENDBRANCH  58  79
BRANCH  70  87
ATOM     87  C   UNL A   1      45.589  28.994  32.904  1.00  0.00     0.057 A 
ATOM     88  C   UNL A   1      45.672  28.170  34.036  1.00  0.00     0.134 A 
ATOM     89  C   UNL A   1      46.790  29.435  32.337  1.00  0.00     0.134 A 
ATOM     90  F   UNL A   1      44.560  27.722  34.636  1.00  0.00    -0.206 F 
ATOM     91  C   UNL A   1      46.902  27.821  34.595  1.00  0.00     0.040 A 
ATOM     92  C   UNL A   1      48.027  29.068  32.870  1.00  0.00     0.040 A 
ATOM     93  F   UNL A   1      46.780  30.217  31.246  1.00  0.00    -0.206 F 
ATOM     94  C   UNL A   1      48.084  28.268  34.011  1.00  0.00     0.006 A 
ENDBRANCH  70  87
ENDBRANCH  44  45
ENDBRANCH  36  39
ENDBRANCH  34  35
ENDBRANCH  33  34
ENDBRANCH  32  33
ENDBRANCH   1  32
TORSDOF 16
ENDMDL
MODEL 3
REMARK VINA RESULT:     -12.0      3.732      8.096
REMARK SMILES O=C(COc1ccc(Br)cc1/C=C1\NC(=O)N(Cc2ccc(F)cc2)C1=O)NCCCCNC(=O)c1ccc(-c2c3nc(c(-c4c(F)cccc4F)c4ccc([nH]4)c(-c4c(F)cccc4F)c4nc(c(-c5c(F)cccc5F)c5ccc2[nH]5)C=C4)C=C3)cc1
REMARK SMILES IDX 29 1 28 2 1 3 2 4 3 6 4 7 5 8 6 9 11 10 7 11 10 12 8 13 9 14
REMARK SMILES IDX 12 15 13 16 14 17 26 18 15 19 17 21 27 22 16 23 18 24 19 25
REMARK SMILES IDX 20 26 25 27 21 28 24 29 22 30 23 31 30 32 31 33 32 34 33 35
REMARK SMILES IDX 34 36 35 38 36 39 37 40 89 41 38 42 88 43 39 44 40 45 41 46
REMARK SMILES IDX 82 47 42 48 87 49 81 50 83 51 43 52 86 53 80 54 79 55 44 57
REMARK SMILES IDX 70 58 53 59 69 60 54 61 57 62 68 63 84 64 55 65 56 66 67 68
REMARK SMILES IDX 85 69 58 70 45 71 46 72 51 73 47 74 48 75 50 76 52 77 49 78
REMARK SMILES IDX 71 79 72 80 77 81 73 82 74 83 76 84 78 85 75 86 59 87 60 88
REMARK SMILES IDX 65 89 61 90 62 91 64 92 66 93 63 94
REMARK H PARENT 28 5 14 20 33 37 83 56 57 67
REMARK Flexibility Score: inf
ROOT
ATOM      1  C   UNL A   1      39.739  22.168  26.122  1.00  0.00     0.116 C 
ENDROOT
BRANCH   1   2
ATOM      2  N   UNL A   1      38.300  22.061  26.219  1.00  0.00    -0.353 N 
ATOM      3  O   UNL A   1      37.890  24.322  26.337  1.00  0.00    -0.271 OA
ATOM      4  C   UNL A   1      37.479  23.173  26.215  1.00  0.00     0.257 C 
ATOM      5  H   UNL A   1      37.892  21.168  26.289  1.00  0.00     0.163 HD
BRANCH   4   6
ATOM      6  C   UNL A   1      35.998  22.853  26.009  1.00  0.00     0.329 C 
BRANCH   6   7
ATOM      7  O   UNL A   1      35.624  22.529  24.671  1.00  0.00    -0.483 OA
BRANCH   7   8
ATOM      8  C   UNL A   1      35.061  21.285  24.510  1.00  0.00     0.127 A 
ATOM      9  C   UNL A   1      35.735  20.120  24.891  1.00  0.00     0.048 A 
ATOM     10  C   UNL A   1      33.716  21.209  24.111  1.00  0.00     0.020 A 
ATOM     11  C   UNL A   1      35.079  18.888  24.887  1.00  0.00     0.019 A 
ATOM     12  C   UNL A   1      33.060  19.968  24.115  1.00  0.00     0.027 A 
ATOM     13  C   UNL A   1      33.742  18.818  24.511  1.00  0.00     0.018 A 
ATOM     14  Br  UNL A   1      32.843  17.157  24.565  1.00  0.00    -0.051 Br
BRANCH  10  15
ATOM     15  C   UNL A   1      32.953  22.389  23.696  1.00  0.00     0.044 C 
ATOM     16  C   UNL A   1      32.072  23.028  24.468  1.00  0.00     0.109 C 
ATOM     17  N   UNL A   1      31.691  22.752  25.747  1.00  0.00    -0.303 N 
ATOM     18  C   UNL A   1      31.332  24.257  24.057  1.00  0.00     0.278 C 
ATOM     19  C   UNL A   1      30.808  23.724  26.196  1.00  0.00     0.329 C 
ATOM     20  H   UNL A   1      31.998  21.979  26.274  1.00  0.00     0.172 HD
ATOM     21  N   UNL A   1      30.642  24.639  25.179  1.00  0.00    -0.254 N 
ATOM     22  O   UNL A   1      31.358  24.768  22.950  1.00  0.00    -0.267 OA
ATOM     23  O   UNL A   1      30.284  23.729  27.297  1.00  0.00    -0.248 OA
BRANCH  21  24
ATOM     24  C   UNL A   1      29.842  25.838  25.277  1.00  0.00     0.166 C 
BRANCH  24  25
ATOM     25  C   UNL A   1      30.706  27.075  25.430  1.00  0.00    -0.028 A 
ATOM     26  C   UNL A   1      31.398  27.311  26.631  1.00  0.00     0.008 A 
ATOM     27  C   UNL A   1      30.804  28.019  24.396  1.00  0.00     0.008 A 
ATOM     28  C   UNL A   1      32.153  28.471  26.805  1.00  0.00     0.039 A 
ATOM     29  C   UNL A   1      31.577  29.172  24.566  1.00  0.00     0.039 A 
ATOM     30  C   UNL A   1      32.237  29.390  25.770  1.00  0.00     0.123 A 
ATOM     31  F   UNL A   1      32.962  30.504  25.935  1.00  0.00    -0.207 F 
ENDBRANCH  24  25
ENDBRANCH  21  24
ENDBRANCH  10  15
ENDBRANCH   7   8
ENDBRANCH   6   7
ENDBRANCH   4   6
ENDBRANCH   1   2
BRANCH   1  32
ATOM     32  C   UNL A   1      40.467  20.901  26.554  1.00  0.00     0.023 C 
BRANCH  32  33
ATOM     33  C   UNL A   1      41.936  20.828  26.130  1.00  0.00     0.023 C 
BRANCH  33  34
ATOM     34  C   UNL A   1      42.844  21.909  26.710  1.00  0.00     0.116 C 
BRANCH  34  35
ATOM     35  N   UNL A   1      43.624  22.602  25.698  1.00  0.00    -0.352 N 
ATOM     36  C   UNL A   1      43.801  23.952  25.501  1.00  0.00     0.251 C 
ATOM     37  H   UNL A   1      44.096  22.020  25.061  1.00  0.00     0.163 HD
ATOM     38  O   UNL A   1      44.390  24.353  24.501  1.00  0.00    -0.269 OA
BRANCH  36  39
ATOM     39  C   UNL A   1      43.258  24.928  26.472  1.00  0.00     0.039 A 
ATOM     40  C   UNL A   1      42.177  24.548  27.274  1.00  0.00     0.014 A 
ATOM     41  C   UNL A   1      43.803  26.208  26.596  1.00  0.00     0.014 A 
ATOM     42  C   UNL A   1      41.695  25.424  28.250  1.00  0.00     0.010 A 
ATOM     43  C   UNL A   1      43.374  27.049  27.622  1.00  0.00     0.010 A 
ATOM     44  C   UNL A   1      42.319  26.666  28.462  1.00  0.00    -0.014 A 
BRANCH  44  45
ATOM     45  C   UNL A   1      41.891  27.563  29.567  1.00  0.00     0.031 A 
ATOM     46  C   UNL A   1      42.605  27.539  30.890  1.00  0.00     0.074 A 
ATOM     47  C   UNL A   1      40.819  28.364  29.400  1.00  0.00     0.049 A 
ATOM     48  N   UNL A   1      42.333  28.198  31.989  1.00  0.00    -0.248 NA
ATOM     49  C   UNL A   1      43.763  26.638  31.005  1.00  0.00     0.031 C 
ATOM     50  C   UNL A   1      40.017  28.455  28.179  1.00  0.00     0.029 A 
ATOM     51  N   UNL A   1      40.215  29.248  30.260  1.00  0.00    -0.354 N 
ATOM     52  C   UNL A   1      43.278  27.790  32.919  1.00  0.00     0.074 A 
ATOM     53  C   UNL A   1      44.095  26.783  32.279  1.00  0.00     0.031 C 
ATOM     54  C   UNL A   1      39.046  29.365  28.358  1.00  0.00     0.029 A 
ATOM     55  C   UNL A   1      39.127  29.888  29.719  1.00  0.00     0.049 A 
ATOM     56  H   UNL A   1      40.532  29.407  31.179  1.00  0.00     0.167 HD
ATOM     57  C   UNL A   1      43.466  28.233  34.186  1.00  0.00     0.037 A 
ATOM     58  C   UNL A   1      38.282  30.791  30.255  1.00  0.00     0.037 A 
ATOM     59  C   UNL A   1      42.664  29.250  34.815  1.00  0.00     0.049 A 
ATOM     60  C   UNL A   1      38.492  31.247  31.673  1.00  0.00     0.074 A 
ATOM     61  C   UNL A   1      42.808  29.798  36.078  1.00  0.00     0.029 A 
ATOM     62  N   UNL A   1      41.567  29.869  34.234  1.00  0.00    -0.354 N 
ATOM     63  N   UNL A   1      39.421  30.888  32.524  1.00  0.00    -0.248 NA
ATOM     64  C   UNL A   1      37.539  32.232  32.203  1.00  0.00     0.031 C 
ATOM     65  C   UNL A   1      41.769  30.708  36.282  1.00  0.00     0.029 A 
ATOM     66  C   UNL A   1      41.011  30.774  35.123  1.00  0.00     0.049 A 
ATOM     67  H   UNL A   1      41.234  29.692  33.325  1.00  0.00     0.167 HD
ATOM     68  C   UNL A   1      39.182  31.619  33.680  1.00  0.00     0.074 A 
ATOM     69  C   UNL A   1      38.025  32.451  33.418  1.00  0.00     0.031 C 
ATOM     70  C   UNL A   1      39.861  31.601  34.852  1.00  0.00     0.037 A 
BRANCH  57  71
ATOM     71  C   UNL A   1      44.592  27.635  34.977  1.00  0.00     0.057 A 
ATOM     72  C   UNL A   1      45.885  28.171  34.903  1.00  0.00     0.134 A 
ATOM     73  C   UNL A   1      44.415  26.484  35.757  1.00  0.00     0.134 A 
ATOM     74  F   UNL A   1      46.128  29.267  34.168  1.00  0.00    -0.206 F 
ATOM     75  C   UNL A   1      46.961  27.576  35.565  1.00  0.00     0.040 A 
ATOM     76  C   UNL A   1      45.477  25.898  36.447  1.00  0.00     0.040 A 
ATOM     77  F   UNL A   1      43.202  25.926  35.879  1.00  0.00    -0.206 F 
ATOM     78  C   UNL A   1      46.757  26.439  36.343  1.00  0.00     0.006 A 
ENDBRANCH  57  71
BRANCH  58  79
ATOM     79  C   UNL A   1      37.178  31.341  29.429  1.00  0.00     0.057 A 
ATOM     80  C   UNL A   1      36.024  30.596  29.154  1.00  0.00     0.134 A 
ATOM     81  C   UNL A   1      37.270  32.617  28.862  1.00  0.00     0.134 A 
ATOM     82  F   UNL A   1      35.878  29.362  29.662  1.00  0.00    -0.206 F 
ATOM     83  C   UNL A   1      35.013  31.090  28.329  1.00  0.00     0.040 A 
ATOM     84  C   UNL A   1      36.255  33.134  28.054  1.00  0.00     0.040 A 
ATOM     85  F   UNL A   1      38.341  33.387  29.102  1.00  0.00    -0.206 F 
ATOM     86  C   UNL A   1      35.126  32.365  27.778  1.00  0.00     0.006 A 
ENDBRANCH  58  79
BRANCH  70  87
ATOM     87  C   UNL A   1      39.398  32.520  35.946  1.00  0.00     0.057 A 
ATOM     88  C   UNL A   1      39.935  33.810  36.067  1.00  0.00     0.134 A 
ATOM     89  C   UNL A   1      38.495  32.101  36.929  1.00  0.00     0.134 A 
ATOM     90  F   UNL A   1      40.816  34.270  35.167  1.00  0.00    -0.206 F 
ATOM     91  C   UNL A   1      39.604  34.640  37.139  1.00  0.00     0.040 A 
ATOM     92  C   UNL A   1      38.133  32.934  37.990  1.00  0.00     0.040 A 
ATOM     93  F   UNL A   1      37.936  30.883  36.865  1.00  0.00    -0.206 F 
ATOM     94  C   UNL A   1      38.698  34.204  38.103  1.00  0.00     0.006 A 
ENDBRANCH  70  87
ENDBRANCH  44  45
ENDBRANCH  36  39
ENDBRANCH  34  35
ENDBRANCH  33  34
ENDBRANCH  32  33
ENDBRANCH   1  32
TORSDOF 16
ENDMDL
