MODEL 1
REMARK VINA RESULT:     -11.9      0.000      0.000
REMARK SMILES O=C(CCN1C(=O)/C(=C/C=C/c2ccco2)SC1=S)Nc1ccc(C(=O)NCCCCNC(=O)c2ccc(-c3c4nc(c(-c5c(F)cccc5F)c5ccc([nH]5)c(-c5c(F)cccc5F)c5nc(c(-c6c(F)cccc6F)c6ccc3[nH]6)C=C5)C=C4)cc2)c(O)c1
REMARK SMILES IDX 25 1 26 2 27 3 24 5 21 6 22 7 91 8 23 9 89 10 20 11 1 12
REMARK SMILES IDX 2 13 3 15 4 16 5 17 6 18 18 19 7 20 8 21 17 22 19 23 9 24
REMARK SMILES IDX 10 25 11 26 12 27 13 28 16 29 14 30 15 31 90 32 28 34 29 35
REMARK SMILES IDX 30 36 31 37 32 38 33 39 34 41 35 42 36 43 88 44 37 45 87 46
REMARK SMILES IDX 38 47 39 48 40 49 81 50 41 51 86 52 80 53 82 54 42 55 85 56
REMARK SMILES IDX 79 57 78 58 43 60 69 61 52 62 68 63 53 64 56 65 67 66 83 67
REMARK SMILES IDX 54 68 55 69 66 71 84 72 57 73 44 74 45 75 50 76 46 77 47 78
REMARK SMILES IDX 49 79 51 80 48 81 70 82 71 83 76 84 72 85 73 86 75 87 77 88
REMARK SMILES IDX 74 89 58 90 59 91 64 92 60 93 61 94 63 95 65 96 62 97
REMARK H PARENT 27 4 20 14 90 33 32 40 82 59 56 70
REMARK Flexibility Score: inf
ROOT
ATOM      1  C   UNL A   1      30.179  28.857  22.589  1.00  0.00     0.255 C 
ATOM      2  O   UNL A   1      29.523  29.225  21.619  1.00  0.00    -0.269 OA
ATOM      3  N   UNL A   1      30.591  29.785  23.519  1.00  0.00    -0.352 N 
ATOM      4  H   UNL A   1      30.312  30.712  23.336  1.00  0.00     0.163 HD
ENDROOT
BRANCH   1   5
ATOM      5  C   UNL A   1      30.547  27.429  22.725  1.00  0.00     0.081 A 
ATOM      6  C   UNL A   1      31.495  24.811  23.111  1.00  0.00     0.044 A 
ATOM      7  C   UNL A   1      32.208  25.697  22.305  1.00  0.00     0.027 A 
ATOM      8  C   UNL A   1      30.274  25.222  23.660  1.00  0.00     0.073 A 
ATOM      9  C   UNL A   1      31.742  27.007  22.125  1.00  0.00     0.020 A 
ATOM     10  C   UNL A   1      29.777  26.498  23.417  1.00  0.00     0.130 A 
BRANCH   6  11
ATOM     11  N   UNL A   1      31.876  23.484  23.374  1.00  0.00    -0.326 N 
ATOM     12  O   UNL A   1      30.724  22.942  25.304  1.00  0.00    -0.275 OA
ATOM     13  C   UNL A   1      31.580  22.695  24.459  1.00  0.00     0.226 C 
ATOM     14  H   UNL A   1      32.433  23.060  22.682  1.00  0.00     0.169 HD
BRANCH  13  15
ATOM     15  C   UNL A   1      32.508  21.494  24.637  1.00  0.00     0.122 C 
BRANCH  15  16
ATOM     16  C   UNL A   1      33.449  21.478  25.846  1.00  0.00     0.137 C 
BRANCH  16  17
ATOM     17  N   UNL A   1      34.815  22.030  25.728  1.00  0.00    -0.292 N 
ATOM     18  C   UNL A   1      35.907  21.258  25.357  1.00  0.00     0.266 C 
ATOM     19  C   UNL A   1      35.071  23.391  25.835  1.00  0.00     0.148 C 
ATOM     20  O   UNL A   1      35.889  20.095  25.002  1.00  0.00    -0.268 OA
ATOM     21  C   UNL A   1      37.164  22.026  25.574  1.00  0.00     0.080 C 
ATOM     22  S   UNL A   1      36.802  23.691  25.745  1.00  0.00    -0.054 SA
ATOM     23  S   UNL A   1      33.977  24.633  26.039  1.00  0.00    -0.052 S 
ATOM     24  C   UNL A   1      38.336  21.406  25.761  1.00  0.00     0.021 C 
BRANCH  24  25
ATOM     25  C   UNL A   1      39.592  22.037  26.118  1.00  0.00     0.005 C 
ATOM     26  C   UNL A   1      40.432  21.517  27.025  1.00  0.00     0.047 C 
BRANCH  26  27
ATOM     27  C   UNL A   1      41.693  22.115  27.304  1.00  0.00     0.126 A 
ATOM     28  C   UNL A   1      42.796  22.351  26.490  1.00  0.00     0.050 A 
ATOM     29  O   UNL A   1      42.009  22.575  28.563  1.00  0.00    -0.465 OA
ATOM     30  C   UNL A   1      43.816  22.920  27.290  1.00  0.00     0.042 A 
ATOM     31  C   UNL A   1      43.286  23.026  28.548  1.00  0.00     0.195 A 
ENDBRANCH  26  27
ENDBRANCH  24  25
ENDBRANCH  16  17
ENDBRANCH  15  16
ENDBRANCH  13  15
ENDBRANCH   6  11
BRANCH  10  32
ATOM     32  O   UNL A   1      28.509  26.737  23.873  1.00  0.00    -0.507 OA
ATOM     33  H   UNL A   1      27.824  26.124  23.694  1.00  0.00     0.293 HD
ENDBRANCH  10  32
ENDBRANCH   1   5
BRANCH   3  34
ATOM     34  C   UNL A   1      31.374  29.601  24.732  1.00  0.00     0.116 C 
BRANCH  34  35
ATOM     35  C   UNL A   1      31.231  30.723  25.757  1.00  0.00     0.023 C 
BRANCH  35  36
ATOM     36  C   UNL A   1      32.113  30.628  27.000  1.00  0.00     0.023 C 
BRANCH  36  37
ATOM     37  C   UNL A   1      33.242  31.648  27.110  1.00  0.00     0.116 C 
BRANCH  37  38
ATOM     38  N   UNL A   1      32.793  32.986  27.466  1.00  0.00    -0.352 N 
ATOM     39  C   UNL A   1      33.295  33.887  28.377  1.00  0.00     0.251 C 
ATOM     40  H   UNL A   1      32.001  33.299  26.972  1.00  0.00     0.163 HD
ATOM     41  O   UNL A   1      32.701  34.943  28.582  1.00  0.00    -0.269 OA
BRANCH  39  42
ATOM     42  C   UNL A   1      34.513  33.573  29.156  1.00  0.00     0.039 A 
ATOM     43  C   UNL A   1      34.403  32.706  30.248  1.00  0.00     0.014 A 
ATOM     44  C   UNL A   1      35.758  34.100  28.809  1.00  0.00     0.014 A 
ATOM     45  C   UNL A   1      35.555  32.271  30.909  1.00  0.00     0.010 A 
ATOM     46  C   UNL A   1      36.911  33.605  29.414  1.00  0.00     0.010 A 
ATOM     47  C   UNL A   1      36.823  32.663  30.451  1.00  0.00    -0.014 A 
BRANCH  47  48
ATOM     48  C   UNL A   1      38.064  32.045  30.988  1.00  0.00     0.031 A 
ATOM     49  C   UNL A   1      38.724  30.899  30.275  1.00  0.00     0.074 A 
ATOM     50  C   UNL A   1      38.541  32.458  32.179  1.00  0.00     0.049 A 
ATOM     51  N   UNL A   1      39.745  30.170  30.652  1.00  0.00    -0.248 NA
ATOM     52  C   UNL A   1      38.147  30.504  28.981  1.00  0.00     0.031 C 
ATOM     53  C   UNL A   1      37.965  33.526  33.000  1.00  0.00     0.029 A 
ATOM     54  N   UNL A   1      39.612  32.017  32.919  1.00  0.00    -0.354 N 
ATOM     55  C   UNL A   1      39.922  29.223  29.651  1.00  0.00     0.074 A 
ATOM     56  C   UNL A   1      38.878  29.443  28.673  1.00  0.00     0.031 C 
ATOM     57  C   UNL A   1      38.697  33.670  34.115  1.00  0.00     0.029 A 
ATOM     58  C   UNL A   1      39.765  32.677  34.114  1.00  0.00     0.049 A 
ATOM     59  H   UNL A   1      40.212  31.297  32.619  1.00  0.00     0.167 HD
ATOM     60  C   UNL A   1      40.880  28.271  29.549  1.00  0.00     0.037 A 
ATOM     61  C   UNL A   1      40.655  32.495  35.108  1.00  0.00     0.037 A 
ATOM     62  C   UNL A   1      41.932  28.068  30.511  1.00  0.00     0.049 A 
ATOM     63  C   UNL A   1      41.694  31.417  34.978  1.00  0.00     0.074 A 
ATOM     64  C   UNL A   1      42.990  27.176  30.456  1.00  0.00     0.029 A 
ATOM     65  N   UNL A   1      42.056  28.760  31.706  1.00  0.00    -0.354 N 
ATOM     66  N   UNL A   1      41.892  30.576  33.994  1.00  0.00    -0.248 NA
ATOM     67  C   UNL A   1      42.631  31.262  36.101  1.00  0.00     0.031 C 
ATOM     68  C   UNL A   1      43.729  27.299  31.637  1.00  0.00     0.029 A 
ATOM     69  C   UNL A   1      43.156  28.296  32.410  1.00  0.00     0.049 A 
ATOM     70  H   UNL A   1      41.451  29.475  32.010  1.00  0.00     0.167 HD
ATOM     71  C   UNL A   1      42.984  29.804  34.368  1.00  0.00     0.074 A 
ATOM     72  C   UNL A   1      43.417  30.289  35.663  1.00  0.00     0.031 C 
ATOM     73  C   UNL A   1      43.573  28.784  33.699  1.00  0.00     0.037 A 
BRANCH  60  74
ATOM     74  C   UNL A   1      40.840  27.376  28.346  1.00  0.00     0.057 A 
ATOM     75  C   UNL A   1      41.633  27.622  27.217  1.00  0.00     0.134 A 
ATOM     76  C   UNL A   1      40.029  26.234  28.330  1.00  0.00     0.134 A 
ATOM     77  F   UNL A   1      42.422  28.705  27.165  1.00  0.00    -0.206 F 
ATOM     78  C   UNL A   1      41.604  26.776  26.107  1.00  0.00     0.040 A 
ATOM     79  C   UNL A   1      40.010  25.368  27.236  1.00  0.00     0.040 A 
ATOM     80  F   UNL A   1      39.250  25.936  29.381  1.00  0.00    -0.206 F 
ATOM     81  C   UNL A   1      40.795  25.641  26.117  1.00  0.00     0.006 A 
ENDBRANCH  60  74
BRANCH  61  82
ATOM     82  C   UNL A   1      40.609  33.359  36.313  1.00  0.00     0.057 A 
ATOM     83  C   UNL A   1      39.752  33.061  37.379  1.00  0.00     0.134 A 
ATOM     84  C   UNL A   1      41.411  34.501  36.429  1.00  0.00     0.134 A 
ATOM     85  F   UNL A   1      38.945  31.992  37.317  1.00  0.00    -0.206 F 
ATOM     86  C   UNL A   1      39.683  33.875  38.511  1.00  0.00     0.040 A 
ATOM     87  C   UNL A   1      41.369  35.311  37.565  1.00  0.00     0.040 A 
ATOM     88  F   UNL A   1      42.258  34.836  35.444  1.00  0.00    -0.206 F 
ATOM     89  C   UNL A   1      40.497  35.001  38.607  1.00  0.00     0.006 A 
ENDBRANCH  61  82
BRANCH  73  90
ATOM     90  C   UNL A   1      44.758  28.134  34.349  1.00  0.00     0.057 A 
ATOM     91  C   UNL A   1      44.622  27.003  35.164  1.00  0.00     0.134 A 
ATOM     92  C   UNL A   1      46.053  28.620  34.126  1.00  0.00     0.134 A 
ATOM     93  F   UNL A   1      43.407  26.499  35.429  1.00  0.00    -0.206 F 
ATOM     94  C   UNL A   1      45.729  26.389  35.750  1.00  0.00     0.040 A 
ATOM     95  C   UNL A   1      47.170  28.001  34.687  1.00  0.00     0.040 A 
ATOM     96  F   UNL A   1      46.252  29.695  33.349  1.00  0.00    -0.206 F 
ATOM     97  C   UNL A   1      47.010  26.885  35.505  1.00  0.00     0.006 A 
ENDBRANCH  73  90
ENDBRANCH  47  48
ENDBRANCH  39  42
ENDBRANCH  37  38
ENDBRANCH  36  37
ENDBRANCH  35  36
ENDBRANCH  34  35
ENDBRANCH   3  34
TORSDOF 18
ENDMDL
MODEL 2
REMARK VINA RESULT:     -11.8      4.418      8.057
REMARK SMILES O=C(CCN1C(=O)/C(=C/C=C/c2ccco2)SC1=S)Nc1ccc(C(=O)NCCCCNC(=O)c2ccc(-c3c4nc(c(-c5c(F)cccc5F)c5ccc([nH]5)c(-c5c(F)cccc5F)c5nc(c(-c6c(F)cccc6F)c6ccc3[nH]6)C=C5)C=C4)cc2)c(O)c1
REMARK SMILES IDX 25 1 26 2 27 3 24 5 21 6 22 7 91 8 23 9 89 10 20 11 1 12
REMARK SMILES IDX 2 13 3 15 4 16 5 17 6 18 18 19 7 20 8 21 17 22 19 23 9 24
REMARK SMILES IDX 10 25 11 26 12 27 13 28 16 29 14 30 15 31 90 32 28 34 29 35
REMARK SMILES IDX 30 36 31 37 32 38 33 39 34 41 35 42 36 43 88 44 37 45 87 46
REMARK SMILES IDX 38 47 39 48 40 49 81 50 41 51 86 52 80 53 82 54 42 55 85 56
REMARK SMILES IDX 79 57 78 58 43 60 69 61 52 62 68 63 53 64 56 65 67 66 83 67
REMARK SMILES IDX 54 68 55 69 66 71 84 72 57 73 44 74 45 75 50 76 46 77 47 78
REMARK SMILES IDX 49 79 51 80 48 81 70 82 71 83 76 84 72 85 73 86 75 87 77 88
REMARK SMILES IDX 74 89 58 90 59 91 64 92 60 93 61 94 63 95 65 96 62 97
REMARK H PARENT 27 4 20 14 90 33 32 40 82 59 56 70
REMARK Flexibility Score: inf
ROOT
ATOM      1  C   UNL A   1      34.587  34.768  28.702  1.00  0.00     0.255 C 
ATOM      2  O   UNL A   1      34.716  35.712  27.928  1.00  0.00    -0.269 OA
ATOM      3  N   UNL A   1      34.812  34.960  30.047  1.00  0.00    -0.352 N 
ATOM      4  H   UNL A   1      35.064  35.877  30.302  1.00  0.00     0.163 HD
ENDROOT
BRANCH   1   5
ATOM      5  C   UNL A   1      34.227  33.433  28.174  1.00  0.00     0.081 A 
ATOM      6  C   UNL A   1      33.604  30.791  27.440  1.00  0.00     0.044 A 
ATOM      7  C   UNL A   1      34.893  31.110  27.860  1.00  0.00     0.027 A 
ATOM      8  C   UNL A   1      32.654  31.814  27.323  1.00  0.00     0.073 A 
ATOM      9  C   UNL A   1      35.199  32.425  28.240  1.00  0.00     0.020 A 
ATOM     10  C   UNL A   1      32.982  33.131  27.628  1.00  0.00     0.130 A 
BRANCH   6  11
ATOM     11  N   UNL A   1      33.181  29.508  27.053  1.00  0.00    -0.326 N 
ATOM     12  O   UNL A   1      32.812  29.701  24.778  1.00  0.00    -0.275 OA
ATOM     13  C   UNL A   1      32.721  29.078  25.832  1.00  0.00     0.226 C 
ATOM     14  H   UNL A   1      33.221  28.821  27.757  1.00  0.00     0.169 HD
BRANCH  13  15
ATOM     15  C   UNL A   1      31.935  27.768  25.881  1.00  0.00     0.122 C 
BRANCH  15  16
ATOM     16  C   UNL A   1      32.659  26.505  26.360  1.00  0.00     0.137 C 
BRANCH  16  17
ATOM     17  N   UNL A   1      32.508  25.239  25.613  1.00  0.00    -0.292 N 
ATOM     18  C   UNL A   1      31.785  24.160  26.102  1.00  0.00     0.266 C 
ATOM     19  C   UNL A   1      32.956  25.098  24.305  1.00  0.00     0.148 C 
ATOM     20  O   UNL A   1      31.123  24.130  27.122  1.00  0.00    -0.268 OA
ATOM     21  C   UNL A   1      32.029  22.963  25.251  1.00  0.00     0.080 C 
ATOM     22  S   UNL A   1      32.711  23.444  23.756  1.00  0.00    -0.054 SA
ATOM     23  S   UNL A   1      33.654  26.251  23.323  1.00  0.00    -0.052 S 
ATOM     24  C   UNL A   1      31.867  21.722  25.731  1.00  0.00     0.021 C 
BRANCH  24  25
ATOM     25  C   UNL A   1      32.206  20.489  25.048  1.00  0.00     0.005 C 
ATOM     26  C   UNL A   1      32.903  19.503  25.635  1.00  0.00     0.047 C 
BRANCH  26  27
ATOM     27  C   UNL A   1      33.158  18.272  24.970  1.00  0.00     0.126 A 
ATOM     28  C   UNL A   1      33.441  17.990  23.637  1.00  0.00     0.050 A 
ATOM     29  O   UNL A   1      33.145  17.072  25.647  1.00  0.00    -0.465 OA
ATOM     30  C   UNL A   1      33.549  16.585  23.501  1.00  0.00     0.042 A 
ATOM     31  C   UNL A   1      33.351  16.073  24.756  1.00  0.00     0.195 A 
ENDBRANCH  26  27
ENDBRANCH  24  25
ENDBRANCH  16  17
ENDBRANCH  15  16
ENDBRANCH  13  15
ENDBRANCH   6  11
BRANCH  10  32
ATOM     32  O   UNL A   1      32.027  34.064  27.330  1.00  0.00    -0.507 OA
ATOM     33  H   UNL A   1      31.457  33.934  26.598  1.00  0.00     0.293 HD
ENDBRANCH  10  32
ENDBRANCH   1   5
BRANCH   3  34
ATOM     34  C   UNL A   1      34.735  34.010  31.148  1.00  0.00     0.116 C 
BRANCH  34  35
ATOM     35  C   UNL A   1      35.527  34.409  32.389  1.00  0.00     0.023 C 
BRANCH  35  36
ATOM     36  C   UNL A   1      36.255  33.286  33.124  1.00  0.00     0.023 C 
BRANCH  36  37
ATOM     37  C   UNL A   1      37.080  32.334  32.262  1.00  0.00     0.116 C 
BRANCH  37  38
ATOM     38  N   UNL A   1      36.341  31.169  31.800  1.00  0.00    -0.352 N 
ATOM     39  C   UNL A   1      36.724  30.133  30.979  1.00  0.00     0.251 C 
ATOM     40  H   UNL A   1      35.416  31.112  32.130  1.00  0.00     0.163 HD
ATOM     41  O   UNL A   1      35.902  29.284  30.644  1.00  0.00    -0.269 OA
BRANCH  39  42
ATOM     42  C   UNL A   1      38.103  30.061  30.448  1.00  0.00     0.039 A 
ATOM     43  C   UNL A   1      39.136  29.696  31.317  1.00  0.00     0.014 A 
ATOM     44  C   UNL A   1      38.383  30.325  29.106  1.00  0.00     0.014 A 
ATOM     45  C   UNL A   1      40.421  29.473  30.814  1.00  0.00     0.010 A 
ATOM     46  C   UNL A   1      39.643  30.026  28.591  1.00  0.00     0.010 A 
ATOM     47  C   UNL A   1      40.667  29.567  29.435  1.00  0.00    -0.014 A 
BRANCH  47  48
ATOM     48  C   UNL A   1      41.958  29.122  28.847  1.00  0.00     0.031 A 
ATOM     49  C   UNL A   1      42.157  27.697  28.417  1.00  0.00     0.074 A 
ATOM     50  C   UNL A   1      42.988  29.990  28.792  1.00  0.00     0.049 A 
ATOM     51  N   UNL A   1      43.245  27.108  27.987  1.00  0.00    -0.248 NA
ATOM     52  C   UNL A   1      40.987  26.810  28.506  1.00  0.00     0.031 C 
ATOM     53  C   UNL A   1      42.944  31.389  29.226  1.00  0.00     0.029 A 
ATOM     54  N   UNL A   1      44.284  29.818  28.367  1.00  0.00    -0.354 N 
ATOM     55  C   UNL A   1      42.896  25.782  27.768  1.00  0.00     0.074 A 
ATOM     56  C   UNL A   1      41.507  25.643  28.154  1.00  0.00     0.031 C 
ATOM     57  C   UNL A   1      44.146  31.951  29.025  1.00  0.00     0.029 A 
ATOM     58  C   UNL A   1      45.059  30.945  28.494  1.00  0.00     0.049 A 
ATOM     59  H   UNL A   1      44.623  28.969  28.004  1.00  0.00     0.167 HD
ATOM     60  C   UNL A   1      43.657  24.777  27.273  1.00  0.00     0.037 A 
ATOM     61  C   UNL A   1      46.364  31.145  28.230  1.00  0.00     0.037 A 
ATOM     62  C   UNL A   1      45.032  24.922  26.869  1.00  0.00     0.049 A 
ATOM     63  C   UNL A   1      47.192  30.008  27.702  1.00  0.00     0.074 A 
ATOM     64  C   UNL A   1      45.863  23.979  26.288  1.00  0.00     0.029 A 
ATOM     65  N   UNL A   1      45.780  26.081  27.009  1.00  0.00    -0.354 N 
ATOM     66  N   UNL A   1      46.830  28.779  27.434  1.00  0.00    -0.248 NA
ATOM     67  C   UNL A   1      48.612  30.288  27.443  1.00  0.00     0.031 C 
ATOM     68  C   UNL A   1      47.126  24.554  26.116  1.00  0.00     0.029 A 
ATOM     69  C   UNL A   1      47.072  25.868  26.553  1.00  0.00     0.049 A 
ATOM     70  H   UNL A   1      45.444  26.929  27.380  1.00  0.00     0.167 HD
ATOM     71  C   UNL A   1      47.968  28.142  26.959  1.00  0.00     0.074 A 
ATOM     72  C   UNL A   1      49.031  29.127  26.959  1.00  0.00     0.031 C 
ATOM     73  C   UNL A   1      48.120  26.855  26.561  1.00  0.00     0.037 A 
BRANCH  60  74
ATOM     74  C   UNL A   1      43.017  23.428  27.134  1.00  0.00     0.057 A 
ATOM     75  C   UNL A   1      42.843  22.578  28.234  1.00  0.00     0.134 A 
ATOM     76  C   UNL A   1      42.535  22.989  25.895  1.00  0.00     0.134 A 
ATOM     77  F   UNL A   1      43.292  22.935  29.447  1.00  0.00    -0.206 F 
ATOM     78  C   UNL A   1      42.231  21.330  28.102  1.00  0.00     0.040 A 
ATOM     79  C   UNL A   1      41.900  21.754  25.755  1.00  0.00     0.040 A 
ATOM     80  F   UNL A   1      42.665  23.756  24.802  1.00  0.00    -0.206 F 
ATOM     81  C   UNL A   1      41.752  20.918  26.861  1.00  0.00     0.006 A 
ENDBRANCH  60  74
BRANCH  61  82
ATOM     82  C   UNL A   1      46.971  32.481  28.455  1.00  0.00     0.057 A 
ATOM     83  C   UNL A   1      47.015  33.432  27.429  1.00  0.00     0.134 A 
ATOM     84  C   UNL A   1      47.523  32.838  29.691  1.00  0.00     0.134 A 
ATOM     85  F   UNL A   1      46.521  33.140  26.217  1.00  0.00    -0.206 F 
ATOM     86  C   UNL A   1      47.600  34.685  27.619  1.00  0.00     0.040 A 
ATOM     87  C   UNL A   1      48.090  34.095  29.902  1.00  0.00     0.040 A 
ATOM     88  F   UNL A   1      47.505  31.972  30.716  1.00  0.00    -0.206 F 
ATOM     89  C   UNL A   1      48.135  35.021  28.861  1.00  0.00     0.006 A 
ENDBRANCH  61  82
BRANCH  73  90
ATOM     90  C   UNL A   1      49.479  26.444  26.079  1.00  0.00     0.057 A 
ATOM     91  C   UNL A   1      49.921  26.746  24.784  1.00  0.00     0.134 A 
ATOM     92  C   UNL A   1      50.368  25.776  26.928  1.00  0.00     0.134 A 
ATOM     93  F   UNL A   1      49.111  27.370  23.917  1.00  0.00    -0.206 F 
ATOM     94  C   UNL A   1      51.195  26.380  24.346  1.00  0.00     0.040 A 
ATOM     95  C   UNL A   1      51.653  25.425  26.510  1.00  0.00     0.040 A 
ATOM     96  F   UNL A   1      50.007  25.464  28.182  1.00  0.00    -0.206 F 
ATOM     97  C   UNL A   1      52.067  25.724  25.214  1.00  0.00     0.006 A 
ENDBRANCH  73  90
ENDBRANCH  47  48
ENDBRANCH  39  42
ENDBRANCH  37  38
ENDBRANCH  36  37
ENDBRANCH  35  36
ENDBRANCH  34  35
ENDBRANCH   3  34
TORSDOF 18
ENDMDL
MODEL 3
REMARK VINA RESULT:     -11.4      6.649     11.452
REMARK SMILES O=C(CCN1C(=O)/C(=C/C=C/c2ccco2)SC1=S)Nc1ccc(C(=O)NCCCCNC(=O)c2ccc(-c3c4nc(c(-c5c(F)cccc5F)c5ccc([nH]5)c(-c5c(F)cccc5F)c5nc(c(-c6c(F)cccc6F)c6ccc3[nH]6)C=C5)C=C4)cc2)c(O)c1
REMARK SMILES IDX 25 1 26 2 27 3 24 5 21 6 22 7 91 8 23 9 89 10 20 11 1 12
REMARK SMILES IDX 2 13 3 15 4 16 5 17 6 18 18 19 7 20 8 21 17 22 19 23 9 24
REMARK SMILES IDX 10 25 11 26 12 27 13 28 16 29 14 30 15 31 90 32 28 34 29 35
REMARK SMILES IDX 30 36 31 37 32 38 33 39 34 41 35 42 36 43 88 44 37 45 87 46
REMARK SMILES IDX 38 47 39 48 40 49 81 50 41 51 86 52 80 53 82 54 42 55 85 56
REMARK SMILES IDX 79 57 78 58 43 60 69 61 52 62 68 63 53 64 56 65 67 66 83 67
REMARK SMILES IDX 54 68 55 69 66 71 84 72 57 73 44 74 45 75 50 76 46 77 47 78
REMARK SMILES IDX 49 79 51 80 48 81 70 82 71 83 76 84 72 85 73 86 75 87 77 88
REMARK SMILES IDX 74 89 58 90 59 91 64 92 60 93 61 94 63 95 65 96 62 97
REMARK H PARENT 27 4 20 14 90 33 32 40 82 59 56 70
REMARK Flexibility Score: inf
ROOT
ATOM      1  C   UNL A   1      39.402  29.077  29.979  1.00  0.00     0.255 C 
ATOM      2  O   UNL A   1      39.928  29.948  30.665  1.00  0.00    -0.269 OA
ATOM      3  N   UNL A   1      40.004  27.844  29.870  1.00  0.00    -0.352 N 
ATOM      4  H   UNL A   1      40.843  27.743  30.376  1.00  0.00     0.163 HD
ENDROOT
BRANCH   1   5
ATOM      5  C   UNL A   1      38.148  29.378  29.251  1.00  0.00     0.081 A 
ATOM      6  C   UNL A   1      35.833  29.720  27.693  1.00  0.00     0.044 A 
ATOM      7  C   UNL A   1      37.090  29.849  27.107  1.00  0.00     0.027 A 
ATOM      8  C   UNL A   1      35.745  29.491  29.071  1.00  0.00     0.073 A 
ATOM      9  C   UNL A   1      38.245  29.663  27.882  1.00  0.00     0.020 A 
ATOM     10  C   UNL A   1      36.891  29.383  29.851  1.00  0.00     0.130 A 
BRANCH   6  11
ATOM     11  N   UNL A   1      34.613  29.868  27.011  1.00  0.00    -0.326 N 
ATOM     12  O   UNL A   1      34.166  27.751  26.194  1.00  0.00    -0.275 OA
ATOM     13  C   UNL A   1      33.933  28.956  26.240  1.00  0.00     0.226 C 
ATOM     14  H   UNL A   1      34.184  30.750  27.100  1.00  0.00     0.169 HD
BRANCH  13  15
ATOM     15  C   UNL A   1      32.900  29.573  25.298  1.00  0.00     0.122 C 
BRANCH  15  16
ATOM     16  C   UNL A   1      31.444  29.113  25.417  1.00  0.00     0.137 C 
BRANCH  16  17
ATOM     17  N   UNL A   1      31.075  27.726  25.062  1.00  0.00    -0.292 N 
ATOM     18  C   UNL A   1      30.931  26.722  26.009  1.00  0.00     0.266 C 
ATOM     19  C   UNL A   1      30.701  27.372  23.772  1.00  0.00     0.148 C 
ATOM     20  O   UNL A   1      30.991  26.847  27.217  1.00  0.00    -0.268 OA
ATOM     21  C   UNL A   1      30.809  25.403  25.329  1.00  0.00     0.080 C 
ATOM     22  S   UNL A   1      30.426  25.637  23.677  1.00  0.00    -0.054 SA
ATOM     23  S   UNL A   1      30.530  28.359  22.439  1.00  0.00    -0.052 S 
ATOM     24  C   UNL A   1      31.134  24.264  25.955  1.00  0.00     0.021 C 
BRANCH  24  25
ATOM     25  C   UNL A   1      31.190  22.944  25.357  1.00  0.00     0.005 C 
ATOM     26  C   UNL A   1      32.347  22.304  25.123  1.00  0.00     0.047 C 
BRANCH  26  27
ATOM     27  C   UNL A   1      32.374  20.979  24.605  1.00  0.00     0.126 A 
ATOM     28  C   UNL A   1      32.343  20.504  23.298  1.00  0.00     0.050 A 
ATOM     29  O   UNL A   1      32.430  19.882  25.437  1.00  0.00    -0.465 OA
ATOM     30  C   UNL A   1      32.330  19.089  23.347  1.00  0.00     0.042 A 
ATOM     31  C   UNL A   1      32.376  18.763  24.677  1.00  0.00     0.195 A 
ENDBRANCH  26  27
ENDBRANCH  24  25
ENDBRANCH  16  17
ENDBRANCH  15  16
ENDBRANCH  13  15
ENDBRANCH   6  11
BRANCH  10  32
ATOM     32  O   UNL A   1      36.686  29.314  31.202  1.00  0.00    -0.507 OA
ATOM     33  H   UNL A   1      36.768  30.086  31.728  1.00  0.00     0.293 HD
ENDBRANCH  10  32
ENDBRANCH   1   5
BRANCH   3  34
ATOM     34  C   UNL A   1      39.587  26.667  29.120  1.00  0.00     0.116 C 
BRANCH  34  35
ATOM     35  C   UNL A   1      40.252  26.516  27.755  1.00  0.00     0.023 C 
BRANCH  35  36
ATOM     36  C   UNL A   1      39.866  25.282  26.942  1.00  0.00     0.023 C 
BRANCH  36  37
ATOM     37  C   UNL A   1      40.318  23.935  27.498  1.00  0.00     0.116 C 
BRANCH  37  38
ATOM     38  N   UNL A   1      41.048  23.118  26.539  1.00  0.00    -0.352 N 
ATOM     39  C   UNL A   1      42.217  23.367  25.855  1.00  0.00     0.251 C 
ATOM     40  H   UNL A   1      40.638  22.244  26.348  1.00  0.00     0.163 HD
ATOM     41  O   UNL A   1      42.616  22.563  25.017  1.00  0.00    -0.269 OA
BRANCH  39  42
ATOM     42  C   UNL A   1      42.968  24.621  26.079  1.00  0.00     0.039 A 
ATOM     43  C   UNL A   1      43.630  24.795  27.298  1.00  0.00     0.014 A 
ATOM     44  C   UNL A   1      43.047  25.610  25.097  1.00  0.00     0.014 A 
ATOM     45  C   UNL A   1      44.470  25.897  27.482  1.00  0.00     0.010 A 
ATOM     46  C   UNL A   1      43.946  26.664  25.249  1.00  0.00     0.010 A 
ATOM     47  C   UNL A   1      44.689  26.803  26.431  1.00  0.00    -0.014 A 
BRANCH  47  48
ATOM     48  C   UNL A   1      45.741  27.850  26.519  1.00  0.00     0.031 A 
ATOM     49  C   UNL A   1      45.373  29.298  26.674  1.00  0.00     0.074 A 
ATOM     50  C   UNL A   1      47.032  27.499  26.358  1.00  0.00     0.049 A 
ATOM     51  N   UNL A   1      46.150  30.352  26.659  1.00  0.00    -0.248 NA
ATOM     52  C   UNL A   1      43.945  29.604  26.844  1.00  0.00     0.031 C 
ATOM     53  C   UNL A   1      47.521  26.133  26.147  1.00  0.00     0.029 A 
ATOM     54  N   UNL A   1      48.173  28.264  26.328  1.00  0.00    -0.354 N 
ATOM     55  C   UNL A   1      45.304  31.446  26.803  1.00  0.00     0.074 A 
ATOM     56  C   UNL A   1      43.953  30.929  26.859  1.00  0.00     0.031 C 
ATOM     57  C   UNL A   1      48.857  26.156  26.029  1.00  0.00     0.029 A 
ATOM     58  C   UNL A   1      49.318  27.537  26.110  1.00  0.00     0.049 A 
ATOM     59  H   UNL A   1      48.169  29.240  26.452  1.00  0.00     0.167 HD
ATOM     60  C   UNL A   1      45.627  32.758  26.898  1.00  0.00     0.037 A 
ATOM     61  C   UNL A   1      50.597  27.937  25.973  1.00  0.00     0.037 A 
ATOM     62  C   UNL A   1      46.973  33.269  26.863  1.00  0.00     0.049 A 
ATOM     63  C   UNL A   1      50.925  29.400  26.061  1.00  0.00     0.074 A 
ATOM     64  C   UNL A   1      47.403  34.575  27.025  1.00  0.00     0.029 A 
ATOM     65  N   UNL A   1      48.106  32.500  26.646  1.00  0.00    -0.354 N 
ATOM     66  N   UNL A   1      50.123  30.415  26.267  1.00  0.00    -0.248 NA
ATOM     67  C   UNL A   1      52.338  29.774  25.894  1.00  0.00     0.031 C 
ATOM     68  C   UNL A   1      48.791  34.603  26.863  1.00  0.00     0.029 A 
ATOM     69  C   UNL A   1      49.233  33.309  26.641  1.00  0.00     0.049 A 
ATOM     70  H   UNL A   1      48.110  31.524  26.514  1.00  0.00     0.167 HD
ATOM     71  C   UNL A   1      50.931  31.544  26.272  1.00  0.00     0.074 A 
ATOM     72  C   UNL A   1      52.291  31.087  26.066  1.00  0.00     0.031 C 
ATOM     73  C   UNL A   1      50.578  32.842  26.431  1.00  0.00     0.037 A 
BRANCH  60  74
ATOM     74  C   UNL A   1      44.502  33.737  27.055  1.00  0.00     0.057 A 
ATOM     75  C   UNL A   1      44.008  34.096  28.316  1.00  0.00     0.134 A 
ATOM     76  C   UNL A   1      43.932  34.358  25.937  1.00  0.00     0.134 A 
ATOM     77  F   UNL A   1      44.504  33.530  29.426  1.00  0.00    -0.206 F 
ATOM     78  C   UNL A   1      42.973  35.021  28.458  1.00  0.00     0.040 A 
ATOM     79  C   UNL A   1      42.913  35.302  26.067  1.00  0.00     0.040 A 
ATOM     80  F   UNL A   1      44.362  34.064  24.700  1.00  0.00    -0.206 F 
ATOM     81  C   UNL A   1      42.426  35.632  27.331  1.00  0.00     0.006 A 
ENDBRANCH  60  74
BRANCH  61  82
ATOM     82  C   UNL A   1      51.668  26.935  25.745  1.00  0.00     0.057 A 
ATOM     83  C   UNL A   1      52.108  26.634  24.451  1.00  0.00     0.134 A 
ATOM     84  C   UNL A   1      52.272  26.251  26.807  1.00  0.00     0.134 A 
ATOM     85  F   UNL A   1      51.552  27.242  23.392  1.00  0.00    -0.206 F 
ATOM     86  C   UNL A   1      53.099  25.680  24.219  1.00  0.00     0.040 A 
ATOM     87  C   UNL A   1      53.281  25.312  26.591  1.00  0.00     0.040 A 
ATOM     88  F   UNL A   1      51.898  26.500  28.072  1.00  0.00    -0.206 F 
ATOM     89  C   UNL A   1      53.692  25.020  25.293  1.00  0.00     0.006 A 
ENDBRANCH  61  82
BRANCH  73  90
ATOM     90  C   UNL A   1      51.680  33.859  26.403  1.00  0.00     0.057 A 
ATOM     91  C   UNL A   1      52.329  34.272  27.574  1.00  0.00     0.134 A 
ATOM     92  C   UNL A   1      52.123  34.401  25.191  1.00  0.00     0.134 A 
ATOM     93  F   UNL A   1      51.940  33.802  28.768  1.00  0.00    -0.206 F 
ATOM     94  C   UNL A   1      53.368  35.203  27.541  1.00  0.00     0.040 A 
ATOM     95  C   UNL A   1      53.177  35.315  25.142  1.00  0.00     0.040 A 
ATOM     96  F   UNL A   1      51.547  34.042  24.033  1.00  0.00    -0.206 F 
ATOM     97  C   UNL A   1      53.799  35.722  26.320  1.00  0.00     0.006 A 
ENDBRANCH  73  90
ENDBRANCH  47  48
ENDBRANCH  39  42
ENDBRANCH  37  38
ENDBRANCH  36  37
ENDBRANCH  35  36
ENDBRANCH  34  35
ENDBRANCH   3  34
TORSDOF 18
ENDMDL
