MODEL 1
REMARK VINA RESULT:     -13.3      0.000      0.000
REMARK SMILES O=C(NCCCCNC(=O)[C@@H](Cc1ccccc1)/N=C1\C(=O)c2ccccc2C(=O)[C@H]1Cl)c1ccc(-c2c3nc(c(-c4c(F)cccc4F)c4ccc([nH]4)c(-c4c(F)cccc4F)c4nc(c(-c5c(F)cccc5F)c5ccc2[nH]5)C=C4)C=C3)cc1
REMARK SMILES IDX 5 1 4 2 3 3 1 4 2 5 33 7 34 8 86 9 35 10 85 11 36 12 37 13
REMARK SMILES IDX 38 14 79 15 39 16 84 17 78 18 80 19 40 20 83 21 77 22 76 23
REMARK SMILES IDX 41 25 67 26 50 27 66 28 51 29 54 30 65 31 81 32 52 33 53 34
REMARK SMILES IDX 64 36 82 37 55 38 42 39 43 40 48 41 44 42 45 43 47 44 49 45
REMARK SMILES IDX 46 46 68 47 69 48 74 49 70 50 71 51 73 52 75 53 72 54 56 55
REMARK SMILES IDX 57 56 62 57 58 58 59 59 61 60 63 61 60 62 6 63 7 64 8 65
REMARK SMILES IDX 9 66 10 68 11 69 12 70 13 71 14 72 18 73 15 74 17 75 16 76
REMARK SMILES IDX 19 77 20 78 21 79 31 80 22 81 23 82 29 83 32 84 24 85 28 86
REMARK SMILES IDX 30 87 25 88 27 89 26 90
REMARK H PARENT 3 6 80 24 54 35 8 67
REMARK Flexibility Score: inf
ROOT
ATOM      1  C   UNL A   1      38.131  19.941  24.652  1.00  0.00     0.023 C 
ENDROOT
BRANCH   1   2
ATOM      2  C   UNL A   1      39.153  20.025  25.790  1.00  0.00     0.116 C 
BRANCH   2   3
ATOM      3  N   UNL A   1      40.183  18.998  25.751  1.00  0.00    -0.352 N 
ATOM      4  O   UNL A   1      42.256  18.130  25.926  1.00  0.00    -0.269 OA
ATOM      5  C   UNL A   1      41.519  19.104  26.049  1.00  0.00     0.251 C 
ATOM      6  H   UNL A   1      39.880  18.104  25.472  1.00  0.00     0.163 HD
BRANCH   5   7
ATOM      7  C   UNL A   1      42.089  20.402  26.462  1.00  0.00     0.039 A 
ATOM      8  C   UNL A   1      42.179  20.778  27.804  1.00  0.00     0.014 A 
ATOM      9  C   UNL A   1      42.552  21.260  25.457  1.00  0.00     0.014 A 
ATOM     10  C   UNL A   1      42.619  22.059  28.135  1.00  0.00     0.010 A 
ATOM     11  C   UNL A   1      43.020  22.530  25.790  1.00  0.00     0.010 A 
ATOM     12  C   UNL A   1      43.013  22.952  27.126  1.00  0.00    -0.014 A 
BRANCH  12  13
ATOM     13  C   UNL A   1      43.351  24.350  27.470  1.00  0.00     0.031 A 
ATOM     14  C   UNL A   1      44.775  24.816  27.371  1.00  0.00     0.074 A 
ATOM     15  C   UNL A   1      42.385  25.204  27.851  1.00  0.00     0.049 A 
ATOM     16  N   UNL A   1      45.272  26.006  27.592  1.00  0.00    -0.248 NA
ATOM     17  C   UNL A   1      45.773  23.813  26.967  1.00  0.00     0.031 C 
ATOM     18  C   UNL A   1      40.966  24.874  27.985  1.00  0.00     0.029 A 
ATOM     19  N   UNL A   1      42.457  26.530  28.187  1.00  0.00    -0.354 N 
ATOM     20  C   UNL A   1      46.635  25.894  27.365  1.00  0.00     0.074 A 
ATOM     21  C   UNL A   1      46.895  24.518  26.998  1.00  0.00     0.031 C 
ATOM     22  C   UNL A   1      40.297  25.978  28.356  1.00  0.00     0.029 A 
ATOM     23  C   UNL A   1      41.242  27.082  28.498  1.00  0.00     0.049 A 
ATOM     24  H   UNL A   1      43.301  27.037  28.202  1.00  0.00     0.167 HD
ATOM     25  C   UNL A   1      47.587  26.853  27.442  1.00  0.00     0.037 A 
ATOM     26  C   UNL A   1      40.930  28.339  28.859  1.00  0.00     0.037 A 
ATOM     27  C   UNL A   1      47.336  28.229  27.763  1.00  0.00     0.049 A 
ATOM     28  C   UNL A   1      42.009  29.371  28.987  1.00  0.00     0.074 A 
ATOM     29  C   UNL A   1      48.219  29.296  27.761  1.00  0.00     0.029 A 
ATOM     30  N   UNL A   1      46.104  28.728  28.155  1.00  0.00    -0.354 N 
ATOM     31  N   UNL A   1      43.288  29.262  28.725  1.00  0.00    -0.248 NA
ATOM     32  C   UNL A   1      41.603  30.696  29.477  1.00  0.00     0.031 C 
ATOM     33  C   UNL A   1      47.523  30.440  28.173  1.00  0.00     0.029 A 
ATOM     34  C   UNL A   1      46.209  30.081  28.428  1.00  0.00     0.049 A 
ATOM     35  H   UNL A   1      45.278  28.200  28.228  1.00  0.00     0.167 HD
ATOM     36  C   UNL A   1      43.840  30.500  29.015  1.00  0.00     0.074 A 
ATOM     37  C   UNL A   1      42.758  31.347  29.476  1.00  0.00     0.031 C 
ATOM     38  C   UNL A   1      45.129  30.900  28.904  1.00  0.00     0.037 A 
BRANCH  25  39
ATOM     39  C   UNL A   1      48.992  26.432  27.163  1.00  0.00     0.057 A 
ATOM     40  C   UNL A   1      49.860  26.068  28.198  1.00  0.00     0.134 A 
ATOM     41  C   UNL A   1      49.479  26.386  25.853  1.00  0.00     0.134 A 
ATOM     42  F   UNL A   1      49.451  26.110  29.474  1.00  0.00    -0.206 F 
ATOM     43  C   UNL A   1      51.174  25.676  27.938  1.00  0.00     0.040 A 
ATOM     44  C   UNL A   1      50.790  25.993  25.579  1.00  0.00     0.040 A 
ATOM     45  F   UNL A   1      48.695  26.738  24.823  1.00  0.00    -0.206 F 
ATOM     46  C   UNL A   1      51.641  25.636  26.625  1.00  0.00     0.006 A 
ENDBRANCH  25  39
BRANCH  26  47
ATOM     47  C   UNL A   1      39.521  28.690  29.132  1.00  0.00     0.057 A 
ATOM     48  C   UNL A   1      38.981  28.543  30.413  1.00  0.00     0.134 A 
ATOM     49  C   UNL A   1      38.690  29.187  28.123  1.00  0.00     0.134 A 
ATOM     50  F   UNL A   1      39.735  28.062  31.412  1.00  0.00    -0.206 F 
ATOM     51  C   UNL A   1      37.654  28.879  30.684  1.00  0.00     0.040 A 
ATOM     52  C   UNL A   1      37.363  29.529  28.380  1.00  0.00     0.040 A 
ATOM     53  F   UNL A   1      39.159  29.338  26.876  1.00  0.00    -0.206 F 
ATOM     54  C   UNL A   1      36.842  29.375  29.665  1.00  0.00     0.006 A 
ENDBRANCH  26  47
BRANCH  38  55
ATOM     55  C   UNL A   1      45.437  32.305  29.306  1.00  0.00     0.057 A 
ATOM     56  C   UNL A   1      45.876  32.603  30.599  1.00  0.00     0.134 A 
ATOM     57  C   UNL A   1      45.321  33.360  28.392  1.00  0.00     0.134 A 
ATOM     58  F   UNL A   1      45.994  31.633  31.518  1.00  0.00    -0.206 F 
ATOM     59  C   UNL A   1      46.186  33.910  30.976  1.00  0.00     0.040 A 
ATOM     60  C   UNL A   1      45.632  34.669  28.756  1.00  0.00     0.040 A 
ATOM     61  F   UNL A   1      44.900  33.130  27.140  1.00  0.00    -0.206 F 
ATOM     62  C   UNL A   1      46.067  34.947  30.051  1.00  0.00     0.006 A 
ENDBRANCH  38  55
ENDBRANCH  12  13
ENDBRANCH   5   7
ENDBRANCH   2   3
ENDBRANCH   1   2
BRANCH   1  63
ATOM     63  C   UNL A   1      36.699  20.357  25.004  1.00  0.00     0.023 C 
BRANCH  63  64
ATOM     64  C   UNL A   1      36.421  21.857  24.969  1.00  0.00     0.116 C 
BRANCH  64  65
ATOM     65  N   UNL A   1      35.780  22.331  26.169  1.00  0.00    -0.354 N 
ATOM     66  C   UNL A   1      34.568  22.008  26.694  1.00  0.00     0.245 C 
ATOM     67  H   UNL A   1      36.297  22.988  26.688  1.00  0.00     0.163 HD
ATOM     68  O   UNL A   1      34.409  22.268  27.893  1.00  0.00    -0.273 OA
BRANCH  66  69
ATOM     69  C   UNL A   1      33.407  21.414  25.880  1.00  0.00     0.199 C 
BRANCH  69  70
ATOM     70  C   UNL A   1      33.127  19.896  25.933  1.00  0.00     0.073 C 
BRANCH  70  71
ATOM     71  C   UNL A   1      33.178  19.019  24.702  1.00  0.00    -0.045 A 
ATOM     72  C   UNL A   1      34.073  17.935  24.673  1.00  0.00     0.004 A 
ATOM     73  C   UNL A   1      32.436  19.287  23.546  1.00  0.00     0.004 A 
ATOM     74  C   UNL A   1      34.150  17.092  23.562  1.00  0.00     0.000 A 
ATOM     75  C   UNL A   1      32.497  18.435  22.440  1.00  0.00     0.000 A 
ATOM     76  C   UNL A   1      33.344  17.330  22.453  1.00  0.00     0.000 A 
ENDBRANCH  70  71
ENDBRANCH  69  70
BRANCH  69  77
ATOM     77  N   UNL A   1      32.225  22.245  25.628  1.00  0.00    -0.270 NA
ATOM     78  C   UNL A   1      32.060  23.440  25.206  1.00  0.00     0.109 C 
ATOM     79  C   UNL A   1      33.108  24.478  24.923  1.00  0.00     0.209 C 
ATOM     80  C   UNL A   1      30.661  23.987  25.114  1.00  0.00     0.205 C 
ATOM     81  O   UNL A   1      34.016  24.282  24.139  1.00  0.00    -0.287 OA
ATOM     82  C   UNL A   1      32.925  25.768  25.614  1.00  0.00     0.035 A 
ATOM     83  C   UNL A   1      30.485  25.243  25.931  1.00  0.00     0.187 C 
ATOM     84  Cl  UNL A   1      30.285  24.359  23.416  1.00  0.00    -0.107 Cl
ATOM     85  C   UNL A   1      34.013  26.636  25.754  1.00  0.00     0.013 A 
ATOM     86  C   UNL A   1      31.672  26.116  26.132  1.00  0.00     0.031 A 
ATOM     87  O   UNL A   1      29.399  25.579  26.399  1.00  0.00    -0.292 OA
ATOM     88  C   UNL A   1      33.856  27.836  26.445  1.00  0.00     0.001 A 
ATOM     89  C   UNL A   1      31.523  27.325  26.822  1.00  0.00     0.012 A 
ATOM     90  C   UNL A   1      32.615  28.178  26.983  1.00  0.00     0.001 A 
ENDBRANCH  69  77
ENDBRANCH  66  69
ENDBRANCH  64  65
ENDBRANCH  63  64
ENDBRANCH   1  63
TORSDOF 14
ENDMDL
MODEL 2
REMARK VINA RESULT:     -13.3      1.304      2.139
REMARK SMILES O=C(NCCCCNC(=O)[C@@H](Cc1ccccc1)/N=C1\C(=O)c2ccccc2C(=O)[C@H]1Cl)c1ccc(-c2c3nc(c(-c4c(F)cccc4F)c4ccc([nH]4)c(-c4c(F)cccc4F)c4nc(c(-c5c(F)cccc5F)c5ccc2[nH]5)C=C4)C=C3)cc1
REMARK SMILES IDX 5 1 4 2 3 3 1 4 2 5 33 7 34 8 86 9 35 10 85 11 36 12 37 13
REMARK SMILES IDX 38 14 79 15 39 16 84 17 78 18 80 19 40 20 83 21 77 22 76 23
REMARK SMILES IDX 41 25 67 26 50 27 66 28 51 29 54 30 65 31 81 32 52 33 53 34
REMARK SMILES IDX 64 36 82 37 55 38 42 39 43 40 48 41 44 42 45 43 47 44 49 45
REMARK SMILES IDX 46 46 68 47 69 48 74 49 70 50 71 51 73 52 75 53 72 54 56 55
REMARK SMILES IDX 57 56 62 57 58 58 59 59 61 60 63 61 60 62 6 63 7 64 8 65
REMARK SMILES IDX 9 66 10 68 11 69 12 70 13 71 14 72 18 73 15 74 17 75 16 76
REMARK SMILES IDX 19 77 20 78 21 79 31 80 22 81 23 82 29 83 32 84 24 85 28 86
REMARK SMILES IDX 30 87 25 88 27 89 26 90
REMARK H PARENT 3 6 80 24 54 35 8 67
REMARK Flexibility Score: inf
ROOT
ATOM      1  C   UNL A   1      37.725  20.066  24.960  1.00  0.00     0.023 C 
ENDROOT
BRANCH   1   2
ATOM      2  C   UNL A   1      38.969  20.435  25.774  1.00  0.00     0.116 C 
BRANCH   2   3
ATOM      3  N   UNL A   1      40.041  19.453  25.713  1.00  0.00    -0.352 N 
ATOM      4  O   UNL A   1      42.132  18.646  25.952  1.00  0.00    -0.269 OA
ATOM      5  C   UNL A   1      41.349  19.577  26.112  1.00  0.00     0.251 C 
ATOM      6  H   UNL A   1      39.795  18.580  25.331  1.00  0.00     0.163 HD
BRANCH   5   7
ATOM      7  C   UNL A   1      41.835  20.849  26.684  1.00  0.00     0.039 A 
ATOM      8  C   UNL A   1      41.846  21.087  28.060  1.00  0.00     0.014 A 
ATOM      9  C   UNL A   1      42.300  21.826  25.796  1.00  0.00     0.014 A 
ATOM     10  C   UNL A   1      42.207  22.344  28.541  1.00  0.00     0.010 A 
ATOM     11  C   UNL A   1      42.690  23.074  26.280  1.00  0.00     0.010 A 
ATOM     12  C   UNL A   1      42.602  23.353  27.650  1.00  0.00    -0.014 A 
BRANCH  12  13
ATOM     13  C   UNL A   1      42.856  24.722  28.151  1.00  0.00     0.031 A 
ATOM     14  C   UNL A   1      44.261  25.153  28.457  1.00  0.00     0.074 A 
ATOM     15  C   UNL A   1      41.835  25.581  28.313  1.00  0.00     0.049 A 
ATOM     16  N   UNL A   1      44.697  26.315  28.870  1.00  0.00    -0.248 NA
ATOM     17  C   UNL A   1      45.317  24.144  28.272  1.00  0.00     0.031 C 
ATOM     18  C   UNL A   1      40.427  25.284  28.050  1.00  0.00     0.029 A 
ATOM     19  N   UNL A   1      41.833  26.885  28.732  1.00  0.00    -0.354 N 
ATOM     20  C   UNL A   1      46.071  26.177  29.003  1.00  0.00     0.074 A 
ATOM     21  C   UNL A   1      46.400  24.815  28.638  1.00  0.00     0.031 C 
ATOM     22  C   UNL A   1      39.698  26.386  28.295  1.00  0.00     0.029 A 
ATOM     23  C   UNL A   1      40.586  27.454  28.745  1.00  0.00     0.049 A 
ATOM     24  H   UNL A   1      42.650  27.367  28.998  1.00  0.00     0.167 HD
ATOM     25  C   UNL A   1      46.980  27.104  29.383  1.00  0.00     0.037 A 
ATOM     26  C   UNL A   1      40.206  28.698  29.082  1.00  0.00     0.037 A 
ATOM     27  C   UNL A   1      46.672  28.468  29.706  1.00  0.00     0.049 A 
ATOM     28  C   UNL A   1      41.227  29.691  29.549  1.00  0.00     0.074 A 
ATOM     29  C   UNL A   1      47.538  29.508  29.999  1.00  0.00     0.029 A 
ATOM     30  N   UNL A   1      45.387  28.980  29.789  1.00  0.00    -0.354 N 
ATOM     31  N   UNL A   1      42.528  29.561  29.627  1.00  0.00    -0.248 NA
ATOM     32  C   UNL A   1      40.722  31.000  29.991  1.00  0.00     0.031 C 
ATOM     33  C   UNL A   1      46.773  30.648  30.278  1.00  0.00     0.029 A 
ATOM     34  C   UNL A   1      45.434  30.313  30.158  1.00  0.00     0.049 A 
ATOM     35  H   UNL A   1      44.564  28.472  29.611  1.00  0.00     0.167 HD
ATOM     36  C   UNL A   1      43.000  30.766  30.124  1.00  0.00     0.074 A 
ATOM     37  C   UNL A   1      41.846  31.618  30.332  1.00  0.00     0.031 C 
ATOM     38  C   UNL A   1      44.277  31.135  30.379  1.00  0.00     0.037 A 
BRANCH  25  39
ATOM     39  C   UNL A   1      48.404  26.658  29.460  1.00  0.00     0.057 A 
ATOM     40  C   UNL A   1      49.272  26.812  28.373  1.00  0.00     0.134 A 
ATOM     41  C   UNL A   1      48.910  26.076  30.626  1.00  0.00     0.134 A 
ATOM     42  F   UNL A   1      48.835  27.348  27.225  1.00  0.00    -0.206 F 
ATOM     43  C   UNL A   1      50.602  26.395  28.444  1.00  0.00     0.040 A 
ATOM     44  C   UNL A   1      50.239  25.657  30.710  1.00  0.00     0.040 A 
ATOM     45  F   UNL A   1      48.119  25.891  31.693  1.00  0.00    -0.206 F 
ATOM     46  C   UNL A   1      51.089  25.817  29.616  1.00  0.00     0.006 A 
ENDBRANCH  25  39
BRANCH  26  47
ATOM     47  C   UNL A   1      38.779  29.074  28.995  1.00  0.00     0.057 A 
ATOM     48  C   UNL A   1      38.226  29.510  27.788  1.00  0.00     0.134 A 
ATOM     49  C   UNL A   1      37.941  28.997  30.111  1.00  0.00     0.134 A 
ATOM     50  F   UNL A   1      38.992  29.609  26.691  1.00  0.00    -0.206 F 
ATOM     51  C   UNL A   1      36.879  29.860  27.692  1.00  0.00     0.040 A 
ATOM     52  C   UNL A   1      36.593  29.341  30.030  1.00  0.00     0.040 A 
ATOM     53  F   UNL A   1      38.426  28.593  31.294  1.00  0.00    -0.206 F 
ATOM     54  C   UNL A   1      36.058  29.774  28.816  1.00  0.00     0.006 A 
ENDBRANCH  26  47
BRANCH  38  55
ATOM     55  C   UNL A   1      44.486  32.508  30.928  1.00  0.00     0.057 A 
ATOM     56  C   UNL A   1      44.624  33.609  30.076  1.00  0.00     0.134 A 
ATOM     57  C   UNL A   1      44.524  32.738  32.308  1.00  0.00     0.134 A 
ATOM     58  F   UNL A   1      44.606  33.446  28.745  1.00  0.00    -0.206 F 
ATOM     59  C   UNL A   1      44.798  34.898  30.581  1.00  0.00     0.040 A 
ATOM     60  C   UNL A   1      44.694  34.021  32.825  1.00  0.00     0.040 A 
ATOM     61  F   UNL A   1      44.401  31.717  33.169  1.00  0.00    -0.206 F 
ATOM     62  C   UNL A   1      44.831  35.106  31.960  1.00  0.00     0.006 A 
ENDBRANCH  38  55
ENDBRANCH  12  13
ENDBRANCH   5   7
ENDBRANCH   2   3
ENDBRANCH   1   2
BRANCH   1  63
ATOM     63  C   UNL A   1      36.796  21.228  24.590  1.00  0.00     0.023 C 
BRANCH  63  64
ATOM     64  C   UNL A   1      36.662  22.326  25.640  1.00  0.00     0.116 C 
BRANCH  64  65
ATOM     65  N   UNL A   1      35.644  22.038  26.618  1.00  0.00    -0.354 N 
ATOM     66  C   UNL A   1      34.388  21.545  26.448  1.00  0.00     0.245 C 
ATOM     67  H   UNL A   1      35.894  22.228  27.550  1.00  0.00     0.163 HD
ATOM     68  O   UNL A   1      33.857  21.055  27.452  1.00  0.00    -0.273 OA
BRANCH  66  69
ATOM     69  C   UNL A   1      33.604  21.621  25.128  1.00  0.00     0.199 C 
BRANCH  69  70
ATOM     70  C   UNL A   1      33.626  20.426  24.149  1.00  0.00     0.073 C 
BRANCH  70  71
ATOM     71  C   UNL A   1      33.611  18.989  24.621  1.00  0.00    -0.045 A 
ATOM     72  C   UNL A   1      34.658  18.133  24.240  1.00  0.00     0.004 A 
ATOM     73  C   UNL A   1      32.550  18.442  25.352  1.00  0.00     0.004 A 
ATOM     74  C   UNL A   1      34.691  16.801  24.659  1.00  0.00     0.000 A 
ATOM     75  C   UNL A   1      32.588  17.115  25.789  1.00  0.00     0.000 A 
ATOM     76  C   UNL A   1      33.665  16.299  25.453  1.00  0.00     0.000 A 
ENDBRANCH  70  71
ENDBRANCH  69  70
BRANCH  69  77
ATOM     77  N   UNL A   1      32.380  22.425  25.081  1.00  0.00    -0.270 NA
ATOM     78  C   UNL A   1      32.140  23.655  24.824  1.00  0.00     0.109 C 
ATOM     79  C   UNL A   1      33.126  24.761  24.583  1.00  0.00     0.209 C 
ATOM     80  C   UNL A   1      30.723  24.150  24.919  1.00  0.00     0.205 C 
ATOM     81  O   UNL A   1      33.966  24.698  23.706  1.00  0.00    -0.287 OA
ATOM     82  C   UNL A   1      32.966  25.951  25.439  1.00  0.00     0.035 A 
ATOM     83  C   UNL A   1      30.582  25.292  25.896  1.00  0.00     0.187 C 
ATOM     84  Cl  UNL A   1      30.185  24.706  23.318  1.00  0.00    -0.107 Cl
ATOM     85  C   UNL A   1      34.035  26.840  25.591  1.00  0.00     0.013 A 
ATOM     86  C   UNL A   1      31.755  26.183  26.101  1.00  0.00     0.031 A 
ATOM     87  O   UNL A   1      29.532  25.524  26.492  1.00  0.00    -0.292 OA
ATOM     88  C   UNL A   1      33.904  27.942  26.435  1.00  0.00     0.001 A 
ATOM     89  C   UNL A   1      31.630  27.293  26.944  1.00  0.00     0.012 A 
ATOM     90  C   UNL A   1      32.706  28.165  27.115  1.00  0.00     0.001 A 
ENDBRANCH  69  77
ENDBRANCH  66  69
ENDBRANCH  64  65
ENDBRANCH  63  64
ENDBRANCH   1  63
TORSDOF 14
ENDMDL
MODEL 3
REMARK VINA RESULT:     -13.1      0.577      6.006
REMARK SMILES O=C(NCCCCNC(=O)[C@@H](Cc1ccccc1)/N=C1\C(=O)c2ccccc2C(=O)[C@H]1Cl)c1ccc(-c2c3nc(c(-c4c(F)cccc4F)c4ccc([nH]4)c(-c4c(F)cccc4F)c4nc(c(-c5c(F)cccc5F)c5ccc2[nH]5)C=C4)C=C3)cc1
REMARK SMILES IDX 5 1 4 2 3 3 1 4 2 5 33 7 34 8 86 9 35 10 85 11 36 12 37 13
REMARK SMILES IDX 38 14 79 15 39 16 84 17 78 18 80 19 40 20 83 21 77 22 76 23
REMARK SMILES IDX 41 25 67 26 50 27 66 28 51 29 54 30 65 31 81 32 52 33 53 34
REMARK SMILES IDX 64 36 82 37 55 38 42 39 43 40 48 41 44 42 45 43 47 44 49 45
REMARK SMILES IDX 46 46 68 47 69 48 74 49 70 50 71 51 73 52 75 53 72 54 56 55
REMARK SMILES IDX 57 56 62 57 58 58 59 59 61 60 63 61 60 62 6 63 7 64 8 65
REMARK SMILES IDX 9 66 10 68 11 69 12 70 13 71 14 72 18 73 15 74 17 75 16 76
REMARK SMILES IDX 19 77 20 78 21 79 31 80 22 81 23 82 29 83 32 84 24 85 28 86
REMARK SMILES IDX 30 87 25 88 27 89 26 90
REMARK H PARENT 3 6 80 24 54 35 8 67
REMARK Flexibility Score: inf
ROOT
ATOM      1  C   UNL A   1      38.205  20.092  24.719  1.00  0.00     0.023 C 
ENDROOT
BRANCH   1   2
ATOM      2  C   UNL A   1      39.263  20.225  25.817  1.00  0.00     0.116 C 
BRANCH   2   3
ATOM      3  N   UNL A   1      40.217  19.128  25.869  1.00  0.00    -0.352 N 
ATOM      4  O   UNL A   1      42.223  18.131  26.130  1.00  0.00    -0.269 OA
ATOM      5  C   UNL A   1      41.557  19.162  26.167  1.00  0.00     0.251 C 
ATOM      6  H   UNL A   1      39.852  18.238  25.662  1.00  0.00     0.163 HD
BRANCH   5   7
ATOM      7  C   UNL A   1      42.218  20.446  26.478  1.00  0.00     0.039 A 
ATOM      8  C   UNL A   1      42.254  20.966  27.774  1.00  0.00     0.014 A 
ATOM      9  C   UNL A   1      42.824  21.139  25.424  1.00  0.00     0.014 A 
ATOM     10  C   UNL A   1      42.789  22.234  27.995  1.00  0.00     0.010 A 
ATOM     11  C   UNL A   1      43.385  22.394  25.650  1.00  0.00     0.010 A 
ATOM     12  C   UNL A   1      43.330  22.966  26.928  1.00  0.00    -0.014 A 
BRANCH  12  13
ATOM     13  C   UNL A   1      43.775  24.361  27.142  1.00  0.00     0.031 A 
ATOM     14  C   UNL A   1      42.782  25.398  27.580  1.00  0.00     0.074 A 
ATOM     15  C   UNL A   1      45.065  24.693  26.963  1.00  0.00     0.049 A 
ATOM     16  N   UNL A   1      42.976  26.663  27.855  1.00  0.00    -0.248 NA
ATOM     17  C   UNL A   1      41.386  24.956  27.733  1.00  0.00     0.031 C 
ATOM     18  C   UNL A   1      46.125  23.778  26.541  1.00  0.00     0.029 A 
ATOM     19  N   UNL A   1      45.701  25.895  27.125  1.00  0.00    -0.354 N 
ATOM     20  C   UNL A   1      41.732  27.169  28.202  1.00  0.00     0.074 A 
ATOM     21  C   UNL A   1      40.784  26.080  28.094  1.00  0.00     0.031 C 
ATOM     22  C   UNL A   1      47.287  24.450  26.497  1.00  0.00     0.029 A 
ATOM     23  C   UNL A   1      47.047  25.841  26.873  1.00  0.00     0.049 A 
ATOM     24  H   UNL A   1      45.235  26.719  27.397  1.00  0.00     0.167 HD
ATOM     25  C   UNL A   1      41.407  28.424  28.589  1.00  0.00     0.037 A 
ATOM     26  C   UNL A   1      47.979  26.807  26.938  1.00  0.00     0.037 A 
ATOM     27  C   UNL A   1      42.345  29.500  28.741  1.00  0.00     0.049 A 
ATOM     28  C   UNL A   1      47.586  28.202  27.320  1.00  0.00     0.074 A 
ATOM     29  C   UNL A   1      42.128  30.778  29.230  1.00  0.00     0.029 A 
ATOM     30  N   UNL A   1      43.684  29.425  28.393  1.00  0.00    -0.354 N 
ATOM     31  N   UNL A   1      46.414  28.655  27.689  1.00  0.00    -0.248 NA
ATOM     32  C   UNL A   1      48.643  29.223  27.276  1.00  0.00     0.031 C 
ATOM     33  C   UNL A   1      43.336  31.483  29.159  1.00  0.00     0.029 A 
ATOM     34  C   UNL A   1      44.300  30.642  28.627  1.00  0.00     0.049 A 
ATOM     35  H   UNL A   1      44.130  28.626  28.035  1.00  0.00     0.167 HD
ATOM     36  C   UNL A   1      46.589  30.011  27.924  1.00  0.00     0.074 A 
ATOM     37  C   UNL A   1      47.982  30.309  27.654  1.00  0.00     0.031 C 
ATOM     38  C   UNL A   1      45.678  30.924  28.333  1.00  0.00     0.037 A 
BRANCH  25  39
ATOM     39  C   UNL A   1      39.966  28.688  28.881  1.00  0.00     0.057 A 
ATOM     40  C   UNL A   1      39.428  28.451  30.151  1.00  0.00     0.134 A 
ATOM     41  C   UNL A   1      39.114  29.184  27.890  1.00  0.00     0.134 A 
ATOM     42  F   UNL A   1      40.196  27.960  31.134  1.00  0.00    -0.206 F 
ATOM     43  C   UNL A   1      38.082  28.696  30.424  1.00  0.00     0.040 A 
ATOM     44  C   UNL A   1      37.767  29.435  28.151  1.00  0.00     0.040 A 
ATOM     45  F   UNL A   1      39.573  29.414  26.651  1.00  0.00    -0.206 F 
ATOM     46  C   UNL A   1      37.248  29.191  29.422  1.00  0.00     0.006 A 
ENDBRANCH  25  39
BRANCH  26  47
ATOM     47  C   UNL A   1      49.387  26.484  26.626  1.00  0.00     0.057 A 
ATOM     48  C   UNL A   1      50.250  26.012  27.619  1.00  0.00     0.134 A 
ATOM     49  C   UNL A   1      49.895  26.633  25.332  1.00  0.00     0.134 A 
ATOM     50  F   UNL A   1      49.813  25.861  28.878  1.00  0.00    -0.206 F 
ATOM     51  C   UNL A   1      51.579  25.696  27.335  1.00  0.00     0.040 A 
ATOM     52  C   UNL A   1      51.219  26.319  25.033  1.00  0.00     0.040 A 
ATOM     53  F   UNL A   1      49.108  27.091  24.347  1.00  0.00    -0.206 F 
ATOM     54  C   UNL A   1      52.066  25.849  26.037  1.00  0.00     0.006 A 
ENDBRANCH  26  47
BRANCH  38  55
ATOM     55  C   UNL A   1      46.156  32.330  28.492  1.00  0.00     0.057 A 
ATOM     56  C   UNL A   1      46.063  33.245  27.438  1.00  0.00     0.134 A 
ATOM     57  C   UNL A   1      46.686  32.780  29.707  1.00  0.00     0.134 A 
ATOM     58  F   UNL A   1      45.573  32.864  26.249  1.00  0.00    -0.206 F 
ATOM     59  C   UNL A   1      46.487  34.565  27.586  1.00  0.00     0.040 A 
ATOM     60  C   UNL A   1      47.110  34.099  29.868  1.00  0.00     0.040 A 
ATOM     61  F   UNL A   1      46.802  31.944  30.749  1.00  0.00    -0.206 F 
ATOM     62  C   UNL A   1      47.011  34.996  28.805  1.00  0.00     0.006 A 
ENDBRANCH  38  55
ENDBRANCH  12  13
ENDBRANCH   5   7
ENDBRANCH   2   3
ENDBRANCH   1   2
BRANCH   1  63
ATOM     63  C   UNL A   1      36.765  20.421  25.129  1.00  0.00     0.023 C 
BRANCH  63  64
ATOM     64  C   UNL A   1      36.387  21.898  25.082  1.00  0.00     0.116 C 
BRANCH  64  65
ATOM     65  N   UNL A   1      35.719  22.340  26.279  1.00  0.00    -0.354 N 
ATOM     66  C   UNL A   1      34.507  21.984  26.782  1.00  0.00     0.245 C 
ATOM     67  H   UNL A   1      36.216  22.999  26.816  1.00  0.00     0.163 HD
ATOM     68  O   UNL A   1      34.327  22.222  27.983  1.00  0.00    -0.273 OA
BRANCH  66  69
ATOM     69  C   UNL A   1      33.370  21.381  25.943  1.00  0.00     0.199 C 
BRANCH  69  70
ATOM     70  C   UNL A   1      33.086  19.864  26.008  1.00  0.00     0.073 C 
BRANCH  70  71
ATOM     71  C   UNL A   1      33.226  18.960  24.804  1.00  0.00    -0.045 A 
ATOM     72  C   UNL A   1      32.338  19.116  23.726  1.00  0.00     0.004 A 
ATOM     73  C   UNL A   1      34.148  17.908  24.746  1.00  0.00     0.004 A 
ATOM     74  C   UNL A   1      32.434  18.311  22.588  1.00  0.00     0.000 A 
ATOM     75  C   UNL A   1      34.259  17.112  23.603  1.00  0.00     0.000 A 
ATOM     76  C   UNL A   1      33.411  17.323  22.519  1.00  0.00     0.000 A 
ENDBRANCH  70  71
ENDBRANCH  69  70
BRANCH  69  77
ATOM     77  N   UNL A   1      32.197  22.209  25.646  1.00  0.00    -0.270 NA
ATOM     78  C   UNL A   1      32.046  23.399  25.204  1.00  0.00     0.109 C 
ATOM     79  C   UNL A   1      33.103  24.432  24.940  1.00  0.00     0.209 C 
ATOM     80  C   UNL A   1      30.651  23.946  25.063  1.00  0.00     0.205 C 
ATOM     81  O   UNL A   1      34.034  24.226  24.185  1.00  0.00    -0.287 OA
ATOM     82  C   UNL A   1      32.900  25.731  25.608  1.00  0.00     0.035 A 
ATOM     83  C   UNL A   1      30.452  25.212  25.859  1.00  0.00     0.187 C 
ATOM     84  Cl  UNL A   1      30.326  24.296  23.351  1.00  0.00    -0.107 Cl
ATOM     85  C   UNL A   1      33.985  26.600  25.770  1.00  0.00     0.013 A 
ATOM     86  C   UNL A   1      31.634  26.087  26.085  1.00  0.00     0.031 A 
ATOM     87  O   UNL A   1      29.353  25.555  26.291  1.00  0.00    -0.292 OA
ATOM     88  C   UNL A   1      33.809  27.809  26.441  1.00  0.00     0.001 A 
ATOM     89  C   UNL A   1      31.465  27.304  26.755  1.00  0.00     0.012 A 
ATOM     90  C   UNL A   1      32.553  28.158  26.938  1.00  0.00     0.001 A 
ENDBRANCH  69  77
ENDBRANCH  66  69
ENDBRANCH  64  65
ENDBRANCH  63  64
ENDBRANCH   1  63
TORSDOF 14
ENDMDL
