MODEL 1
REMARK VINA RESULT:     -12.0      0.000      0.000
REMARK SMILES O=C(CC[N@@H+]1C[C@@H](c2ccccc2)[C@@H]2[C@H]1[C@H]1CC[N@H+]2CC1)NCCCCNC(=O)c1ccc(-c2c3nc(c(-c4c(F)cccc4F)c4ccc([nH]4)c(-c4c(F)cccc4F)c4nc(c(-c5c(F)cccc5F)c5ccc2[nH]5)C=C4)C=C3)cc1
REMARK SMILES IDX 24 1 23 2 22 3 1 4 2 5 3 7 4 8 5 9 6 10 15 11 7 13 14 14
REMARK SMILES IDX 16 15 19 16 17 17 21 18 18 19 20 20 8 22 9 23 13 24 10 25
REMARK SMILES IDX 12 26 11 27 25 28 26 29 27 30 28 31 29 33 30 34 31 35 83 36
REMARK SMILES IDX 32 37 82 38 33 39 34 40 35 41 76 42 36 43 81 44 75 45 77 46
REMARK SMILES IDX 37 47 80 48 74 49 73 50 38 52 64 53 47 54 63 55 48 56 51 57
REMARK SMILES IDX 62 58 78 59 49 60 50 61 61 63 79 64 52 65 39 66 40 67 45 68
REMARK SMILES IDX 41 69 42 70 44 71 46 72 43 73 65 74 66 75 71 76 67 77 68 78
REMARK SMILES IDX 70 79 72 80 69 81 53 82 54 83 59 84 55 85 56 86 58 87 60 88
REMARK SMILES IDX 57 89
REMARK H PARENT 22 6 5 12 19 21 27 32 77 51 51 62
REMARK Flexibility Score: inf
ROOT
ATOM      1  C   UNL A   1      31.704  28.423  26.611  1.00  0.00     0.023 C 
ENDROOT
BRANCH   1   2
ATOM      2  C   UNL A   1      31.422  29.015  25.212  1.00  0.00     0.116 C 
BRANCH   2   3
ATOM      3  N   UNL A   1      30.955  28.086  24.178  1.00  0.00    -0.356 N 
ATOM      4  O   UNL A   1      32.935  28.134  23.016  1.00  0.00    -0.275 OA
ATOM      5  C   UNL A   1      31.819  27.641  23.180  1.00  0.00     0.225 C 
ATOM      6  H   UNL A   1      30.022  27.773  24.188  1.00  0.00     0.163 HD
BRANCH   5   7
ATOM      7  C   UNL A   1      31.344  26.446  22.335  1.00  0.00     0.161 C 
BRANCH   7   8
ATOM      8  C   UNL A   1      31.906  25.065  22.800  1.00  0.00     0.272 C 
BRANCH   8   9
ATOM      9  N   UNL A   1      32.903  24.975  23.911  1.00  0.00    -0.326 N 
ATOM     10  C   UNL A   1      34.326  24.829  23.425  1.00  0.00     0.277 C 
ATOM     11  C   UNL A   1      32.548  23.864  24.806  1.00  0.00     0.247 C 
ATOM     12  H   UNL A   1      32.865  25.859  24.419  1.00  0.00     0.348 HD
ATOM     13  C   UNL A   1      34.933  23.388  23.555  1.00  0.00     0.139 C 
ATOM     14  C   UNL A   1      33.778  22.587  24.200  1.00  0.00     0.256 C 
ATOM     15  C   UNL A   1      32.561  23.858  26.653  1.00  0.00     0.065 C 
ATOM     16  N   UNL A   1      34.010  21.385  25.226  1.00  0.00    -0.327 N 
ATOM     17  C   UNL A   1      33.838  23.469  26.276  1.00  0.00     0.071 C 
ATOM     18  C   UNL A   1      33.116  22.527  27.777  1.00  0.00     0.071 C 
ATOM     19  C   UNL A   1      32.841  21.892  25.724  1.00  0.00     0.263 C 
ATOM     20  C   UNL A   1      34.341  21.420  26.794  1.00  0.00     0.263 C 
ATOM     21  H   UNL A   1      34.529  20.636  24.768  1.00  0.00     0.348 HD
BRANCH  13  22
ATOM     22  C   UNL A   1      36.264  23.101  24.263  1.00  0.00    -0.033 A 
ATOM     23  C   UNL A   1      36.830  23.922  25.250  1.00  0.00     0.004 A 
ATOM     24  C   UNL A   1      36.833  21.822  24.080  1.00  0.00     0.004 A 
ATOM     25  C   UNL A   1      37.813  23.425  26.119  1.00  0.00     0.000 A 
ATOM     26  C   UNL A   1      37.830  21.336  24.932  1.00  0.00     0.000 A 
ATOM     27  C   UNL A   1      38.294  22.127  25.976  1.00  0.00     0.000 A 
ENDBRANCH  13  22
ENDBRANCH   8   9
ENDBRANCH   7   8
ENDBRANCH   5   7
ENDBRANCH   2   3
ENDBRANCH   1   2
BRANCH   1  28
ATOM     28  C   UNL A   1      33.165  28.214  27.081  1.00  0.00     0.023 C 
BRANCH  28  29
ATOM     29  C   UNL A   1      34.180  29.366  26.892  1.00  0.00     0.116 C 
BRANCH  29  30
ATOM     30  N   UNL A   1      34.260  30.350  27.964  1.00  0.00    -0.352 N 
ATOM     31  C   UNL A   1      35.311  30.742  28.779  1.00  0.00     0.251 C 
ATOM     32  H   UNL A   1      33.415  30.822  28.141  1.00  0.00     0.163 HD
ATOM     33  O   UNL A   1      35.107  31.647  29.589  1.00  0.00    -0.269 OA
BRANCH  31  34
ATOM     34  C   UNL A   1      36.667  30.112  28.778  1.00  0.00     0.039 A 
ATOM     35  C   UNL A   1      37.406  30.126  27.589  1.00  0.00     0.014 A 
ATOM     36  C   UNL A   1      37.192  29.390  29.846  1.00  0.00     0.014 A 
ATOM     37  C   UNL A   1      38.686  29.534  27.511  1.00  0.00     0.010 A 
ATOM     38  C   UNL A   1      38.511  28.858  29.788  1.00  0.00     0.010 A 
ATOM     39  C   UNL A   1      39.301  28.942  28.629  1.00  0.00    -0.014 A 
BRANCH  39  40
ATOM     40  C   UNL A   1      40.738  28.464  28.558  1.00  0.00     0.031 A 
ATOM     41  C   UNL A   1      41.119  27.037  28.203  1.00  0.00     0.074 A 
ATOM     42  C   UNL A   1      41.761  29.314  28.818  1.00  0.00     0.049 A 
ATOM     43  N   UNL A   1      42.316  26.515  28.029  1.00  0.00    -0.248 NA
ATOM     44  C   UNL A   1      40.030  26.064  28.050  1.00  0.00     0.031 C 
ATOM     45  C   UNL A   1      41.619  30.701  29.264  1.00  0.00     0.029 A 
ATOM     46  N   UNL A   1      43.130  29.143  28.731  1.00  0.00    -0.354 N 
ATOM     47  C   UNL A   1      42.121  25.165  27.755  1.00  0.00     0.074 A 
ATOM     48  C   UNL A   1      40.694  24.935  27.844  1.00  0.00     0.031 C 
ATOM     49  C   UNL A   1      42.833  31.269  29.345  1.00  0.00     0.029 A 
ATOM     50  C   UNL A   1      43.855  30.282  28.998  1.00  0.00     0.049 A 
ATOM     51  H   UNL A   1      43.548  28.282  28.500  1.00  0.00     0.167 HD
ATOM     52  C   UNL A   1      43.023  24.204  27.426  1.00  0.00     0.037 A 
ATOM     53  C   UNL A   1      45.181  30.534  28.962  1.00  0.00     0.037 A 
ATOM     54  C   UNL A   1      44.446  24.394  27.285  1.00  0.00     0.049 A 
ATOM     55  C   UNL A   1      46.164  29.462  28.571  1.00  0.00     0.074 A 
ATOM     56  C   UNL A   1      45.399  23.476  26.867  1.00  0.00     0.029 A 
ATOM     57  N   UNL A   1      45.126  25.568  27.557  1.00  0.00    -0.354 N 
ATOM     58  N   UNL A   1      45.939  28.223  28.217  1.00  0.00    -0.248 NA
ATOM     59  C   UNL A   1      47.591  29.831  28.570  1.00  0.00     0.031 C 
ATOM     60  C   UNL A   1      46.659  24.082  26.926  1.00  0.00     0.029 A 
ATOM     61  C   UNL A   1      46.485  25.391  27.339  1.00  0.00     0.049 A 
ATOM     62  H   UNL A   1      44.707  26.406  27.861  1.00  0.00     0.167 HD
ATOM     63  C   UNL A   1      47.184  27.676  27.929  1.00  0.00     0.074 A 
ATOM     64  C   UNL A   1      48.164  28.718  28.133  1.00  0.00     0.031 C 
ATOM     65  C   UNL A   1      47.479  26.415  27.531  1.00  0.00     0.037 A 
BRANCH  52  66
ATOM     66  C   UNL A   1      42.494  22.822  27.158  1.00  0.00     0.057 A 
ATOM     67  C   UNL A   1      42.071  21.984  28.198  1.00  0.00     0.134 A 
ATOM     68  C   UNL A   1      42.334  22.354  25.846  1.00  0.00     0.134 A 
ATOM     69  F   UNL A   1      42.194  22.373  29.475  1.00  0.00    -0.206 F 
ATOM     70  C   UNL A   1      41.536  20.720  27.947  1.00  0.00     0.040 A 
ATOM     71  C   UNL A   1      41.776  21.102  25.581  1.00  0.00     0.040 A 
ATOM     72  F   UNL A   1      42.697  23.114  24.803  1.00  0.00    -0.206 F 
ATOM     73  C   UNL A   1      41.381  20.278  26.634  1.00  0.00     0.006 A 
ENDBRANCH  52  66
BRANCH  53  74
ATOM     74  C   UNL A   1      45.685  31.894  29.287  1.00  0.00     0.057 A 
ATOM     75  C   UNL A   1      45.985  32.259  30.606  1.00  0.00     0.134 A 
ATOM     76  C   UNL A   1      45.843  32.870  28.297  1.00  0.00     0.134 A 
ATOM     77  F   UNL A   1      45.822  31.376  31.603  1.00  0.00    -0.206 F 
ATOM     78  C   UNL A   1      46.408  33.549  30.930  1.00  0.00     0.040 A 
ATOM     79  C   UNL A   1      46.289  34.157  28.603  1.00  0.00     0.040 A 
ATOM     80  F   UNL A   1      45.570  32.583  27.015  1.00  0.00    -0.206 F 
ATOM     81  C   UNL A   1      46.565  34.501  29.925  1.00  0.00     0.006 A 
ENDBRANCH  53  74
BRANCH  65  82
ATOM     82  C   UNL A   1      48.918  26.083  27.255  1.00  0.00     0.057 A 
ATOM     83  C   UNL A   1      49.486  26.247  25.985  1.00  0.00     0.134 A 
ATOM     84  C   UNL A   1      49.759  25.629  28.280  1.00  0.00     0.134 A 
ATOM     85  F   UNL A   1      48.737  26.666  24.954  1.00  0.00    -0.206 F 
ATOM     86  C   UNL A   1      50.830  25.952  25.740  1.00  0.00     0.040 A 
ATOM     87  C   UNL A   1      51.108  25.351  28.053  1.00  0.00     0.040 A 
ATOM     88  F   UNL A   1      49.284  25.455  29.523  1.00  0.00    -0.206 F 
ATOM     89  C   UNL A   1      51.647  25.508  26.778  1.00  0.00     0.006 A 
ENDBRANCH  65  82
ENDBRANCH  39  40
ENDBRANCH  31  34
ENDBRANCH  29  30
ENDBRANCH  28  29
ENDBRANCH   1  28
TORSDOF 14
ENDMDL
MODEL 2
REMARK VINA RESULT:     -11.9      4.689      9.634
REMARK SMILES O=C(CC[N@@H+]1C[C@@H](c2ccccc2)[C@@H]2[C@H]1[C@H]1CC[N@H+]2CC1)NCCCCNC(=O)c1ccc(-c2c3nc(c(-c4c(F)cccc4F)c4ccc([nH]4)c(-c4c(F)cccc4F)c4nc(c(-c5c(F)cccc5F)c5ccc2[nH]5)C=C4)C=C3)cc1
REMARK SMILES IDX 24 1 23 2 22 3 1 4 2 5 3 7 4 8 5 9 6 10 15 11 7 13 14 14
REMARK SMILES IDX 16 15 19 16 17 17 21 18 18 19 20 20 8 22 9 23 13 24 10 25
REMARK SMILES IDX 12 26 11 27 25 28 26 29 27 30 28 31 29 33 30 34 31 35 83 36
REMARK SMILES IDX 32 37 82 38 33 39 34 40 35 41 76 42 36 43 81 44 75 45 77 46
REMARK SMILES IDX 37 47 80 48 74 49 73 50 38 52 64 53 47 54 63 55 48 56 51 57
REMARK SMILES IDX 62 58 78 59 49 60 50 61 61 63 79 64 52 65 39 66 40 67 45 68
REMARK SMILES IDX 41 69 42 70 44 71 46 72 43 73 65 74 66 75 71 76 67 77 68 78
REMARK SMILES IDX 70 79 72 80 69 81 53 82 54 83 59 84 55 85 56 86 58 87 60 88
REMARK SMILES IDX 57 89
REMARK H PARENT 22 6 5 12 19 21 27 32 77 51 51 62
REMARK Flexibility Score: inf
ROOT
ATOM      1  C   UNL A   1      38.821  22.094  26.053  1.00  0.00     0.023 C 
ENDROOT
BRANCH   1   2
ATOM      2  C   UNL A   1      37.593  22.014  25.118  1.00  0.00     0.116 C 
BRANCH   2   3
ATOM      3  N   UNL A   1      36.878  23.265  24.850  1.00  0.00    -0.356 N 
ATOM      4  O   UNL A   1      34.920  22.210  24.280  1.00  0.00    -0.275 OA
ATOM      5  C   UNL A   1      35.523  23.254  24.527  1.00  0.00     0.225 C 
ATOM      6  H   UNL A   1      37.360  24.122  24.898  1.00  0.00     0.163 HD
BRANCH   5   7
ATOM      7  C   UNL A   1      34.791  24.607  24.569  1.00  0.00     0.161 C 
BRANCH   7   8
ATOM      8  C   UNL A   1      33.425  24.624  23.811  1.00  0.00     0.272 C 
BRANCH   8   9
ATOM      9  N   UNL A   1      32.282  25.452  24.307  1.00  0.00    -0.326 N 
ATOM     10  C   UNL A   1      31.369  25.929  23.201  1.00  0.00     0.277 C 
ATOM     11  C   UNL A   1      32.794  26.593  25.079  1.00  0.00     0.247 C 
ATOM     12  H   UNL A   1      31.715  24.851  24.905  1.00  0.00     0.348 HD
ATOM     13  C   UNL A   1      31.525  27.440  22.810  1.00  0.00     0.139 C 
ATOM     14  C   UNL A   1      32.622  27.934  23.782  1.00  0.00     0.256 C 
ATOM     15  C   UNL A   1      32.154  27.244  26.684  1.00  0.00     0.065 C 
ATOM     16  N   UNL A   1      32.659  29.414  24.384  1.00  0.00    -0.327 N 
ATOM     17  C   UNL A   1      31.438  27.916  25.704  1.00  0.00     0.071 C 
ATOM     18  C   UNL A   1      31.959  28.987  27.202  1.00  0.00     0.071 C 
ATOM     19  C   UNL A   1      33.189  28.721  25.439  1.00  0.00     0.263 C 
ATOM     20  C   UNL A   1      31.837  30.049  25.605  1.00  0.00     0.263 C 
ATOM     21  H   UNL A   1      32.756  30.091  23.628  1.00  0.00     0.348 HD
BRANCH  13  22
ATOM     22  C   UNL A   1      30.345  28.420  22.768  1.00  0.00    -0.033 A 
ATOM     23  C   UNL A   1      30.352  29.641  22.075  1.00  0.00     0.004 A 
ATOM     24  C   UNL A   1      29.103  27.961  23.257  1.00  0.00     0.004 A 
ATOM     25  C   UNL A   1      29.151  30.288  21.750  1.00  0.00     0.000 A 
ATOM     26  C   UNL A   1      27.907  28.620  22.953  1.00  0.00     0.000 A 
ATOM     27  C   UNL A   1      27.929  29.766  22.167  1.00  0.00     0.000 A 
ENDBRANCH  13  22
ENDBRANCH   8   9
ENDBRANCH   7   8
ENDBRANCH   5   7
ENDBRANCH   2   3
ENDBRANCH   1   2
BRANCH   1  28
ATOM     28  C   UNL A   1      39.929  21.016  25.968  1.00  0.00     0.023 C 
BRANCH  28  29
ATOM     29  C   UNL A   1      41.358  21.378  26.437  1.00  0.00     0.116 C 
BRANCH  29  30
ATOM     30  N   UNL A   1      42.232  22.000  25.451  1.00  0.00    -0.352 N 
ATOM     31  C   UNL A   1      42.761  23.279  25.365  1.00  0.00     0.251 C 
ATOM     32  H   UNL A   1      42.496  21.405  24.713  1.00  0.00     0.163 HD
ATOM     33  O   UNL A   1      43.523  23.527  24.429  1.00  0.00    -0.269 OA
BRANCH  31  34
ATOM     34  C   UNL A   1      42.436  24.397  26.302  1.00  0.00     0.039 A 
ATOM     35  C   UNL A   1      41.508  24.159  27.324  1.00  0.00     0.014 A 
ATOM     36  C   UNL A   1      42.893  25.703  26.148  1.00  0.00     0.014 A 
ATOM     37  C   UNL A   1      41.140  25.175  28.235  1.00  0.00     0.010 A 
ATOM     38  C   UNL A   1      42.577  26.704  27.109  1.00  0.00     0.010 A 
ATOM     39  C   UNL A   1      41.716  26.457  28.192  1.00  0.00    -0.014 A 
BRANCH  39  40
ATOM     40  C   UNL A   1      41.426  27.471  29.281  1.00  0.00     0.031 A 
ATOM     41  C   UNL A   1      40.270  28.454  29.210  1.00  0.00     0.074 A 
ATOM     42  C   UNL A   1      42.210  27.542  30.384  1.00  0.00     0.049 A 
ATOM     43  N   UNL A   1      39.861  29.322  30.112  1.00  0.00    -0.248 NA
ATOM     44  C   UNL A   1      39.488  28.489  27.968  1.00  0.00     0.031 C 
ATOM     45  C   UNL A   1      43.423  26.755  30.615  1.00  0.00     0.029 A 
ATOM     46  N   UNL A   1      42.098  28.303  31.532  1.00  0.00    -0.354 N 
ATOM     47  C   UNL A   1      38.789  30.004  29.544  1.00  0.00     0.074 A 
ATOM     48  C   UNL A   1      38.648  29.489  28.198  1.00  0.00     0.031 C 
ATOM     49  C   UNL A   1      43.900  27.021  31.841  1.00  0.00     0.029 A 
ATOM     50  C   UNL A   1      43.056  28.029  32.482  1.00  0.00     0.049 A 
ATOM     51  H   UNL A   1      41.396  28.982  31.658  1.00  0.00     0.167 HD
ATOM     52  C   UNL A   1      37.970  30.944  30.085  1.00  0.00     0.037 A 
ATOM     53  C   UNL A   1      43.247  28.506  33.730  1.00  0.00     0.037 A 
ATOM     54  C   UNL A   1      38.046  31.457  31.432  1.00  0.00     0.049 A 
ATOM     55  C   UNL A   1      42.314  29.530  34.322  1.00  0.00     0.074 A 
ATOM     56  C   UNL A   1      37.188  32.346  32.063  1.00  0.00     0.029 A 
ATOM     57  N   UNL A   1      39.028  31.139  32.353  1.00  0.00    -0.354 N 
ATOM     58  N   UNL A   1      41.249  30.078  33.797  1.00  0.00    -0.248 NA
ATOM     59  C   UNL A   1      42.612  29.996  35.688  1.00  0.00     0.031 C 
ATOM     60  C   UNL A   1      37.673  32.596  33.350  1.00  0.00     0.029 A 
ATOM     61  C   UNL A   1      38.809  31.831  33.536  1.00  0.00     0.049 A 
ATOM     62  H   UNL A   1      39.772  30.514  32.192  1.00  0.00     0.167 HD
ATOM     63  C   UNL A   1      40.739  30.929  34.771  1.00  0.00     0.074 A 
ATOM     64  C   UNL A   1      41.599  30.817  35.927  1.00  0.00     0.031 C 
ATOM     65  C   UNL A   1      39.649  31.731  34.702  1.00  0.00     0.037 A 
BRANCH  52  66
ATOM     66  C   UNL A   1      36.867  31.482  29.216  1.00  0.00     0.057 A 
ATOM     67  C   UNL A   1      35.711  30.736  28.953  1.00  0.00     0.134 A 
ATOM     68  C   UNL A   1      36.926  32.784  28.701  1.00  0.00     0.134 A 
ATOM     69  F   UNL A   1      35.590  29.485  29.420  1.00  0.00    -0.206 F 
ATOM     70  C   UNL A   1      34.666  31.253  28.186  1.00  0.00     0.040 A 
ATOM     71  C   UNL A   1      35.876  33.322  27.955  1.00  0.00     0.040 A 
ATOM     72  F   UNL A   1      37.994  33.562  28.933  1.00  0.00    -0.206 F 
ATOM     73  C   UNL A   1      34.744  32.553  27.690  1.00  0.00     0.006 A 
ENDBRANCH  52  66
BRANCH  53  74
ATOM     74  C   UNL A   1      44.380  28.000  34.551  1.00  0.00     0.057 A 
ATOM     75  C   UNL A   1      44.223  26.893  35.395  1.00  0.00     0.134 A 
ATOM     76  C   UNL A   1      45.628  28.631  34.540  1.00  0.00     0.134 A 
ATOM     77  F   UNL A   1      43.039  26.266  35.473  1.00  0.00    -0.206 F 
ATOM     78  C   UNL A   1      45.263  26.441  36.209  1.00  0.00     0.040 A 
ATOM     79  C   UNL A   1      46.684  28.174  35.331  1.00  0.00     0.040 A 
ATOM     80  F   UNL A   1      45.840  29.698  33.754  1.00  0.00    -0.206 F 
ATOM     81  C   UNL A   1      46.500  27.081  36.174  1.00  0.00     0.006 A 
ENDBRANCH  53  74
BRANCH  65  82
ATOM     82  C   UNL A   1      39.293  32.539  35.918  1.00  0.00     0.057 A 
ATOM     83  C   UNL A   1      38.467  32.031  36.928  1.00  0.00     0.134 A 
ATOM     84  C   UNL A   1      39.812  33.828  36.100  1.00  0.00     0.134 A 
ATOM     85  F   UNL A   1      37.926  30.809  36.814  1.00  0.00    -0.206 F 
ATOM     86  C   UNL A   1      38.153  32.782  38.065  1.00  0.00     0.040 A 
ATOM     87  C   UNL A   1      39.523  34.581  37.240  1.00  0.00     0.040 A 
ATOM     88  F   UNL A   1      40.615  34.376  35.175  1.00  0.00    -0.206 F 
ATOM     89  C   UNL A   1      38.687  34.059  38.226  1.00  0.00     0.006 A 
ENDBRANCH  65  82
ENDBRANCH  39  40
ENDBRANCH  31  34
ENDBRANCH  29  30
ENDBRANCH  28  29
ENDBRANCH   1  28
TORSDOF 14
ENDMDL
MODEL 3
REMARK VINA RESULT:     -11.8      4.999      9.746
REMARK SMILES O=C(CC[N@@H+]1C[C@@H](c2ccccc2)[C@@H]2[C@H]1[C@H]1CC[N@H+]2CC1)NCCCCNC(=O)c1ccc(-c2c3nc(c(-c4c(F)cccc4F)c4ccc([nH]4)c(-c4c(F)cccc4F)c4nc(c(-c5c(F)cccc5F)c5ccc2[nH]5)C=C4)C=C3)cc1
REMARK SMILES IDX 24 1 23 2 22 3 1 4 2 5 3 7 4 8 5 9 6 10 15 11 7 13 14 14
REMARK SMILES IDX 16 15 19 16 17 17 21 18 18 19 20 20 8 22 9 23 13 24 10 25
REMARK SMILES IDX 12 26 11 27 25 28 26 29 27 30 28 31 29 33 30 34 31 35 83 36
REMARK SMILES IDX 32 37 82 38 33 39 34 40 35 41 76 42 36 43 81 44 75 45 77 46
REMARK SMILES IDX 37 47 80 48 74 49 73 50 38 52 64 53 47 54 63 55 48 56 51 57
REMARK SMILES IDX 62 58 78 59 49 60 50 61 61 63 79 64 52 65 39 66 40 67 45 68
REMARK SMILES IDX 41 69 42 70 44 71 46 72 43 73 65 74 66 75 71 76 67 77 68 78
REMARK SMILES IDX 70 79 72 80 69 81 53 82 54 83 59 84 55 85 56 86 58 87 60 88
REMARK SMILES IDX 57 89
REMARK H PARENT 22 6 5 12 19 21 27 32 77 51 51 62
REMARK Flexibility Score: inf
ROOT
ATOM      1  C   UNL A   1      36.192  21.334  25.349  1.00  0.00     0.023 C 
ENDROOT
BRANCH   1   2
ATOM      2  C   UNL A   1      34.853  20.648  24.996  1.00  0.00     0.116 C 
BRANCH   2   3
ATOM      3  N   UNL A   1      33.885  21.435  24.225  1.00  0.00    -0.356 N 
ATOM      4  O   UNL A   1      32.063  20.341  25.093  1.00  0.00    -0.275 OA
ATOM      5  C   UNL A   1      32.516  21.264  24.417  1.00  0.00     0.225 C 
ATOM      6  H   UNL A   1      34.206  22.090  23.564  1.00  0.00     0.163 HD
BRANCH   5   7
ATOM      7  C   UNL A   1      31.593  22.332  23.805  1.00  0.00     0.161 C 
BRANCH   7   8
ATOM      8  C   UNL A   1      31.369  23.584  24.710  1.00  0.00     0.272 C 
BRANCH   8   9
ATOM      9  N   UNL A   1      32.429  24.630  24.853  1.00  0.00    -0.326 N 
ATOM     10  C   UNL A   1      32.416  25.312  26.201  1.00  0.00     0.277 C 
ATOM     11  C   UNL A   1      32.296  25.620  23.774  1.00  0.00     0.247 C 
ATOM     12  H   UNL A   1      33.329  24.155  24.782  1.00  0.00     0.348 HD
ATOM     13  C   UNL A   1      31.815  26.760  26.212  1.00  0.00     0.139 C 
ATOM     14  C   UNL A   1      31.445  26.990  24.728  1.00  0.00     0.256 C 
ATOM     15  C   UNL A   1      33.646  26.366  22.758  1.00  0.00     0.065 C 
ATOM     16  N   UNL A   1      31.531  28.416  24.013  1.00  0.00    -0.327 N 
ATOM     17  C   UNL A   1      33.520  27.192  23.865  1.00  0.00     0.071 C 
ATOM     18  C   UNL A   1      33.822  28.100  22.207  1.00  0.00     0.071 C 
ATOM     19  C   UNL A   1      31.850  27.607  22.956  1.00  0.00     0.263 C 
ATOM     20  C   UNL A   1      32.799  29.191  23.413  1.00  0.00     0.263 C 
ATOM     21  H   UNL A   1      30.896  29.070  24.471  1.00  0.00     0.348 HD
BRANCH  13  22
ATOM     22  C   UNL A   1      32.561  27.972  26.788  1.00  0.00    -0.033 A 
ATOM     23  C   UNL A   1      33.958  28.092  26.838  1.00  0.00     0.004 A 
ATOM     24  C   UNL A   1      31.801  29.129  27.065  1.00  0.00     0.004 A 
ATOM     25  C   UNL A   1      34.565  29.346  27.001  1.00  0.00     0.000 A 
ATOM     26  C   UNL A   1      32.408  30.376  27.251  1.00  0.00     0.000 A 
ATOM     27  C   UNL A   1      33.791  30.489  27.182  1.00  0.00     0.000 A 
ENDBRANCH  13  22
ENDBRANCH   8   9
ENDBRANCH   7   8
ENDBRANCH   5   7
ENDBRANCH   2   3
ENDBRANCH   1   2
BRANCH   1  28
ATOM     28  C   UNL A   1      36.194  22.757  25.959  1.00  0.00     0.023 C 
BRANCH  28  29
ATOM     29  C   UNL A   1      37.361  23.714  25.615  1.00  0.00     0.116 C 
BRANCH  29  30
ATOM     30  N   UNL A   1      38.709  23.180  25.761  1.00  0.00    -0.352 N 
ATOM     31  C   UNL A   1      39.792  23.605  26.514  1.00  0.00     0.251 C 
ATOM     32  H   UNL A   1      38.882  22.370  25.229  1.00  0.00     0.163 HD
ATOM     33  O   UNL A   1      40.820  22.927  26.484  1.00  0.00    -0.269 OA
BRANCH  31  34
ATOM     34  C   UNL A   1      39.820  24.860  27.328  1.00  0.00     0.039 A 
ATOM     35  C   UNL A   1      39.046  24.913  28.494  1.00  0.00     0.014 A 
ATOM     36  C   UNL A   1      40.460  26.032  26.934  1.00  0.00     0.014 A 
ATOM     37  C   UNL A   1      39.011  26.072  29.301  1.00  0.00     0.010 A 
ATOM     38  C   UNL A   1      40.481  27.172  27.785  1.00  0.00     0.010 A 
ATOM     39  C   UNL A   1      39.781  27.210  29.003  1.00  0.00    -0.014 A 
BRANCH  39  40
ATOM     40  C   UNL A   1      39.851  28.372  29.973  1.00  0.00     0.031 A 
ATOM     41  C   UNL A   1      38.880  29.540  29.938  1.00  0.00     0.074 A 
ATOM     42  C   UNL A   1      40.809  28.414  30.931  1.00  0.00     0.049 A 
ATOM     43  N   UNL A   1      38.778  30.562  30.762  1.00  0.00    -0.248 NA
ATOM     44  C   UNL A   1      37.919  29.587  28.828  1.00  0.00     0.031 C 
ATOM     45  C   UNL A   1      41.894  27.445  31.089  1.00  0.00     0.029 A 
ATOM     46  N   UNL A   1      41.019  29.303  31.969  1.00  0.00    -0.354 N 
ATOM     47  C   UNL A   1      37.757  31.367  30.268  1.00  0.00     0.074 A 
ATOM     48  C   UNL A   1      37.309  30.745  29.039  1.00  0.00     0.031 C 
ATOM     49  C   UNL A   1      42.606  27.748  32.187  1.00  0.00     0.029 A 
ATOM     50  C   UNL A   1      42.062  28.959  32.799  1.00  0.00     0.049 A 
ATOM     51  H   UNL A   1      40.471  30.110  32.102  1.00  0.00     0.167 HD
ATOM     52  C   UNL A   1      37.209  32.496  30.788  1.00  0.00     0.037 A 
ATOM     53  C   UNL A   1      42.536  29.525  33.929  1.00  0.00     0.037 A 
ATOM     54  C   UNL A   1      37.593  33.128  32.027  1.00  0.00     0.049 A 
ATOM     55  C   UNL A   1      41.899  30.763  34.505  1.00  0.00     0.074 A 
ATOM     56  C   UNL A   1      37.012  34.225  32.648  1.00  0.00     0.029 A 
ATOM     57  N   UNL A   1      38.647  32.734  32.831  1.00  0.00    -0.354 N 
ATOM     58  N   UNL A   1      40.869  31.440  34.069  1.00  0.00    -0.248 NA
ATOM     59  C   UNL A   1      42.494  31.310  35.737  1.00  0.00     0.031 C 
ATOM     60  C   UNL A   1      37.741  34.519  33.805  1.00  0.00     0.029 A 
ATOM     61  C   UNL A   1      38.748  33.579  33.928  1.00  0.00     0.049 A 
ATOM     62  H   UNL A   1      39.239  31.968  32.651  1.00  0.00     0.167 HD
ATOM     63  C   UNL A   1      40.678  32.472  34.982  1.00  0.00     0.074 A 
ATOM     64  C   UNL A   1      41.687  32.327  36.006  1.00  0.00     0.031 C 
ATOM     65  C   UNL A   1      39.742  33.451  34.962  1.00  0.00     0.037 A 
BRANCH  52  66
ATOM     66  C   UNL A   1      36.082  33.134  30.022  1.00  0.00     0.057 A 
ATOM     67  C   UNL A   1      36.310  33.835  28.831  1.00  0.00     0.134 A 
ATOM     68  C   UNL A   1      34.752  32.981  30.437  1.00  0.00     0.134 A 
ATOM     69  F   UNL A   1      37.559  34.014  28.376  1.00  0.00    -0.206 F 
ATOM     70  C   UNL A   1      35.260  34.386  28.094  1.00  0.00     0.040 A 
ATOM     71  C   UNL A   1      33.692  33.505  29.695  1.00  0.00     0.040 A 
ATOM     72  F   UNL A   1      34.461  32.302  31.557  1.00  0.00    -0.206 F 
ATOM     73  C   UNL A   1      33.945  34.216  28.523  1.00  0.00     0.006 A 
ENDBRANCH  52  66
BRANCH  53  74
ATOM     74  C   UNL A   1      43.688  28.908  34.639  1.00  0.00     0.057 A 
ATOM     75  C   UNL A   1      43.491  27.945  35.638  1.00  0.00     0.134 A 
ATOM     76  C   UNL A   1      45.005  29.291  34.363  1.00  0.00     0.134 A 
ATOM     77  F   UNL A   1      42.249  27.561  35.970  1.00  0.00    -0.206 F 
ATOM     78  C   UNL A   1      44.561  27.398  36.347  1.00  0.00     0.040 A 
ATOM     79  C   UNL A   1      46.086  28.734  35.048  1.00  0.00     0.040 A 
ATOM     80  F   UNL A   1      45.258  30.210  33.419  1.00  0.00    -0.206 F 
ATOM     81  C   UNL A   1      45.864  27.789  36.049  1.00  0.00     0.006 A 
ENDBRANCH  53  74
BRANCH  65  82
ATOM     82  C   UNL A   1      39.733  34.438  36.095  1.00  0.00     0.057 A 
ATOM     83  C   UNL A   1      40.446  35.643  36.033  1.00  0.00     0.134 A 
ATOM     84  C   UNL A   1      38.975  34.200  37.249  1.00  0.00     0.134 A 
ATOM     85  F   UNL A   1      41.203  35.930  34.963  1.00  0.00    -0.206 F 
ATOM     86  C   UNL A   1      40.421  36.564  37.083  1.00  0.00     0.040 A 
ATOM     87  C   UNL A   1      38.925  35.122  38.297  1.00  0.00     0.040 A 
ATOM     88  F   UNL A   1      38.263  33.070  37.374  1.00  0.00    -0.206 F 
ATOM     89  C   UNL A   1      39.653  36.308  38.218  1.00  0.00     0.006 A 
ENDBRANCH  65  82
ENDBRANCH  39  40
ENDBRANCH  31  34
ENDBRANCH  29  30
ENDBRANCH  28  29
ENDBRANCH   1  28
TORSDOF 14
ENDMDL
