MODEL 1
REMARK VINA RESULT:     -12.0      0.000      0.000
REMARK SMILES Cc1ccc(CNc2ccc(C(=O)NCCCCNC(=O)c3ccc(-c4c5nc(c(-c6c(F)cccc6F)c6ccc([nH]6)c(-c6c(F)cccc6F)c6nc(c(-c7c(F)cccc7F)c7ccc4[nH]7)C=C6)C=C5)cc3)cc2Br)cc1
REMARK SMILES IDX 16 1 15 2 14 3 12 4 13 5 11 7 8 8 9 9 77 10 10 11 76 12
REMARK SMILES IDX 78 13 7 14 6 16 5 17 1 18 2 19 3 20 80 21 4 22 79 23 17 24
REMARK SMILES IDX 18 25 19 26 20 27 21 29 22 30 23 31 75 32 24 33 74 34 25 35
REMARK SMILES IDX 26 36 27 37 68 38 28 39 73 40 67 41 69 42 29 43 72 44 66 45
REMARK SMILES IDX 65 46 30 48 56 49 39 50 55 51 40 52 43 53 54 54 70 55 41 56
REMARK SMILES IDX 42 57 53 59 71 60 44 61 31 62 32 63 37 64 33 65 34 66 36 67
REMARK SMILES IDX 38 68 35 69 57 70 58 71 63 72 59 73 60 74 62 75 64 76 61 77
REMARK SMILES IDX 45 78 46 79 51 80 47 81 48 82 50 83 52 84 49 85
REMARK H PARENT 14 6 7 15 19 28 69 47 43 58
REMARK Flexibility Score: inf
ROOT
ATOM      1  C   UNL A   1      33.187  29.987  26.202  1.00  0.00     0.023 C 
ENDROOT
BRANCH   1   2
ATOM      2  C   UNL A   1      31.692  30.199  25.965  1.00  0.00     0.116 C 
BRANCH   2   3
ATOM      3  N   UNL A   1      31.272  29.984  24.588  1.00  0.00    -0.352 N 
ATOM      4  C   UNL A   1      31.392  28.936  23.705  1.00  0.00     0.251 C 
ATOM      5  O   UNL A   1      30.980  29.111  22.556  1.00  0.00    -0.269 OA
ATOM      6  H   UNL A   1      30.800  30.758  24.204  1.00  0.00     0.163 HD
BRANCH   4   7
ATOM      7  C   UNL A   1      32.010  27.628  24.046  1.00  0.00     0.041 A 
ATOM      8  C   UNL A   1      33.093  25.087  24.752  1.00  0.00     0.049 A 
ATOM      9  C   UNL A   1      33.844  26.041  24.062  1.00  0.00     0.028 A 
ATOM     10  C   UNL A   1      31.779  25.450  25.107  1.00  0.00     0.041 A 
ATOM     11  C   UNL A   1      33.335  27.310  23.774  1.00  0.00     0.016 A 
ATOM     12  C   UNL A   1      31.239  26.695  24.753  1.00  0.00     0.031 A 
ATOM     13  Br  UNL A   1      30.691  24.275  26.139  1.00  0.00    -0.049 Br
BRANCH   8  14
ATOM     14  N   UNL A   1      33.619  23.855  25.098  1.00  0.00    -0.380 N 
ATOM     15  H   UNL A   1      33.457  23.534  26.015  1.00  0.00     0.160 HD
BRANCH  14  16
ATOM     16  C   UNL A   1      34.391  23.000  24.216  1.00  0.00     0.148 C 
BRANCH  16  17
ATOM     17  C   UNL A   1      35.759  22.745  24.799  1.00  0.00    -0.029 A 
ATOM     18  C   UNL A   1      39.709  22.051  26.391  1.00  0.00     0.044 C 
ATOM     19  C   UNL A   1      38.344  22.291  25.818  1.00  0.00    -0.051 A 
ATOM     20  C   UNL A   1      37.691  23.503  26.064  1.00  0.00     0.004 A 
ATOM     21  C   UNL A   1      37.705  21.315  25.047  1.00  0.00     0.004 A 
ATOM     22  C   UNL A   1      36.414  23.731  25.552  1.00  0.00     0.006 A 
ATOM     23  C   UNL A   1      36.424  21.541  24.538  1.00  0.00     0.006 A 
ENDBRANCH  16  17
ENDBRANCH  14  16
ENDBRANCH   8  14
ENDBRANCH   4   7
ENDBRANCH   2   3
ENDBRANCH   1   2
BRANCH   1  24
ATOM     24  C   UNL A   1      33.702  30.387  27.583  1.00  0.00     0.023 C 
BRANCH  24  25
ATOM     25  C   UNL A   1      34.345  31.768  27.655  1.00  0.00     0.116 C 
BRANCH  25  26
ATOM     26  N   UNL A   1      34.777  32.196  28.979  1.00  0.00    -0.352 N 
ATOM     27  C   UNL A   1      35.665  31.595  29.864  1.00  0.00     0.251 C 
ATOM     28  H   UNL A   1      34.379  33.039  29.295  1.00  0.00     0.163 HD
ATOM     29  O   UNL A   1      35.829  32.075  30.970  1.00  0.00    -0.269 OA
BRANCH  27  30
ATOM     30  C   UNL A   1      36.526  30.462  29.413  1.00  0.00     0.039 A 
ATOM     31  C   UNL A   1      36.648  29.357  30.269  1.00  0.00     0.014 A 
ATOM     32  C   UNL A   1      37.363  30.569  28.310  1.00  0.00     0.014 A 
ATOM     33  C   UNL A   1      37.778  28.546  30.186  1.00  0.00     0.010 A 
ATOM     34  C   UNL A   1      38.540  29.850  28.297  1.00  0.00     0.010 A 
ATOM     35  C   UNL A   1      38.780  28.891  29.283  1.00  0.00    -0.014 A 
BRANCH  35  36
ATOM     36  C   UNL A   1      40.156  28.423  29.397  1.00  0.00     0.031 A 
ATOM     37  C   UNL A   1      40.572  27.139  28.801  1.00  0.00     0.074 A 
ATOM     38  C   UNL A   1      41.076  29.251  29.940  1.00  0.00     0.049 A 
ATOM     39  N   UNL A   1      41.611  26.466  29.166  1.00  0.00    -0.248 NA
ATOM     40  C   UNL A   1      39.807  26.486  27.747  1.00  0.00     0.031 C 
ATOM     41  C   UNL A   1      42.529  29.137  29.872  1.00  0.00     0.029 A 
ATOM     42  N   UNL A   1      40.851  30.295  30.848  1.00  0.00    -0.354 N 
ATOM     43  C   UNL A   1      41.812  25.467  28.238  1.00  0.00     0.074 A 
ATOM     44  C   UNL A   1      40.626  25.484  27.415  1.00  0.00     0.031 C 
ATOM     45  C   UNL A   1      43.068  29.852  30.873  1.00  0.00     0.029 A 
ATOM     46  C   UNL A   1      41.971  30.317  31.706  1.00  0.00     0.049 A 
ATOM     47  H   UNL A   1      40.070  30.894  30.881  1.00  0.00     0.167 HD
ATOM     48  C   UNL A   1      43.022  24.835  28.186  1.00  0.00     0.037 A 
ATOM     49  C   UNL A   1      41.843  30.052  33.039  1.00  0.00     0.037 A 
ATOM     50  C   UNL A   1      43.910  25.314  29.245  1.00  0.00     0.049 A 
ATOM     51  C   UNL A   1      42.625  28.846  33.502  1.00  0.00     0.074 A 
ATOM     52  C   UNL A   1      44.915  26.270  29.252  1.00  0.00     0.029 A 
ATOM     53  N   UNL A   1      43.617  25.041  30.577  1.00  0.00    -0.354 N 
ATOM     54  N   UNL A   1      43.084  27.926  32.701  1.00  0.00    -0.248 NA
ATOM     55  C   UNL A   1      42.919  28.560  34.905  1.00  0.00     0.031 C 
ATOM     56  C   UNL A   1      45.175  26.624  30.598  1.00  0.00     0.029 A 
ATOM     57  C   UNL A   1      44.347  25.869  31.410  1.00  0.00     0.049 A 
ATOM     58  H   UNL A   1      42.979  24.356  30.883  1.00  0.00     0.167 HD
ATOM     59  C   UNL A   1      43.675  26.934  33.436  1.00  0.00     0.074 A 
ATOM     60  C   UNL A   1      43.571  27.387  34.809  1.00  0.00     0.031 C 
ATOM     61  C   UNL A   1      44.185  25.809  32.854  1.00  0.00     0.037 A 
BRANCH  48  62
ATOM     62  C   UNL A   1      43.504  24.036  26.991  1.00  0.00     0.057 A 
ATOM     63  C   UNL A   1      44.150  24.670  25.910  1.00  0.00     0.134 A 
ATOM     64  C   UNL A   1      43.307  22.656  26.807  1.00  0.00     0.134 A 
ATOM     65  F   UNL A   1      44.540  25.950  25.971  1.00  0.00    -0.206 F 
ATOM     66  C   UNL A   1      44.438  24.021  24.701  1.00  0.00     0.040 A 
ATOM     67  C   UNL A   1      43.538  22.005  25.585  1.00  0.00     0.040 A 
ATOM     68  F   UNL A   1      42.943  21.860  27.819  1.00  0.00    -0.206 F 
ATOM     69  C   UNL A   1      44.089  22.694  24.517  1.00  0.00     0.006 A 
ENDBRANCH  48  62
BRANCH  49  70
ATOM     70  C   UNL A   1      40.533  30.478  33.599  1.00  0.00     0.057 A 
ATOM     71  C   UNL A   1      40.355  31.827  33.950  1.00  0.00     0.134 A 
ATOM     72  C   UNL A   1      39.380  29.705  33.435  1.00  0.00     0.134 A 
ATOM     73  F   UNL A   1      41.422  32.625  34.119  1.00  0.00    -0.206 F 
ATOM     74  C   UNL A   1      39.089  32.411  34.021  1.00  0.00     0.040 A 
ATOM     75  C   UNL A   1      38.105  30.277  33.516  1.00  0.00     0.040 A 
ATOM     76  F   UNL A   1      39.466  28.415  33.077  1.00  0.00    -0.206 F 
ATOM     77  C   UNL A   1      37.958  31.640  33.768  1.00  0.00     0.006 A 
ENDBRANCH  49  70
BRANCH  61  78
ATOM     78  C   UNL A   1      44.654  24.586  33.594  1.00  0.00     0.057 A 
ATOM     79  C   UNL A   1      46.000  24.203  33.695  1.00  0.00     0.134 A 
ATOM     80  C   UNL A   1      43.750  23.828  34.368  1.00  0.00     0.134 A 
ATOM     81  F   UNL A   1      46.972  24.902  33.093  1.00  0.00    -0.206 F 
ATOM     82  C   UNL A   1      46.411  23.110  34.467  1.00  0.00     0.040 A 
ATOM     83  C   UNL A   1      44.155  22.767  35.181  1.00  0.00     0.040 A 
ATOM     84  F   UNL A   1      42.436  24.103  34.381  1.00  0.00    -0.206 F 
ATOM     85  C   UNL A   1      45.489  22.395  35.223  1.00  0.00     0.006 A 
ENDBRANCH  61  78
ENDBRANCH  35  36
ENDBRANCH  27  30
ENDBRANCH  25  26
ENDBRANCH  24  25
ENDBRANCH   1  24
TORSDOF 14
ENDMDL
MODEL 2
REMARK VINA RESULT:     -12.0      1.319      1.874
REMARK SMILES Cc1ccc(CNc2ccc(C(=O)NCCCCNC(=O)c3ccc(-c4c5nc(c(-c6c(F)cccc6F)c6ccc([nH]6)c(-c6c(F)cccc6F)c6nc(c(-c7c(F)cccc7F)c7ccc4[nH]7)C=C6)C=C5)cc3)cc2Br)cc1
REMARK SMILES IDX 16 1 15 2 14 3 12 4 13 5 11 7 8 8 9 9 77 10 10 11 76 12
REMARK SMILES IDX 78 13 7 14 6 16 5 17 1 18 2 19 3 20 80 21 4 22 79 23 17 24
REMARK SMILES IDX 18 25 19 26 20 27 21 29 22 30 23 31 75 32 24 33 74 34 25 35
REMARK SMILES IDX 26 36 27 37 68 38 28 39 73 40 67 41 69 42 29 43 72 44 66 45
REMARK SMILES IDX 65 46 30 48 56 49 39 50 55 51 40 52 43 53 54 54 70 55 41 56
REMARK SMILES IDX 42 57 53 59 71 60 44 61 31 62 32 63 37 64 33 65 34 66 36 67
REMARK SMILES IDX 38 68 35 69 57 70 58 71 63 72 59 73 60 74 62 75 64 76 61 77
REMARK SMILES IDX 45 78 46 79 51 80 47 81 48 82 50 83 52 84 49 85
REMARK H PARENT 14 6 7 15 19 28 69 47 43 58
REMARK Flexibility Score: inf
ROOT
ATOM      1  C   UNL A   1      32.070  30.061  26.746  1.00  0.00     0.023 C 
ENDROOT
BRANCH   1   2
ATOM      2  C   UNL A   1      32.199  29.834  25.239  1.00  0.00     0.116 C 
BRANCH   2   3
ATOM      3  N   UNL A   1      30.949  29.983  24.506  1.00  0.00    -0.352 N 
ATOM      4  C   UNL A   1      30.180  29.133  23.746  1.00  0.00     0.251 C 
ATOM      5  O   UNL A   1      29.189  29.609  23.188  1.00  0.00    -0.269 OA
ATOM      6  H   UNL A   1      30.573  30.890  24.568  1.00  0.00     0.163 HD
BRANCH   4   7
ATOM      7  C   UNL A   1      30.489  27.694  23.538  1.00  0.00     0.041 A 
ATOM      8  C   UNL A   1      31.141  24.964  23.041  1.00  0.00     0.049 A 
ATOM      9  C   UNL A   1      30.374  25.348  24.142  1.00  0.00     0.028 A 
ATOM     10  C   UNL A   1      31.559  25.990  22.170  1.00  0.00     0.041 A 
ATOM     11  C   UNL A   1      29.998  26.677  24.349  1.00  0.00     0.016 A 
ATOM     12  C   UNL A   1      31.249  27.335  22.416  1.00  0.00     0.031 A 
ATOM     13  Br  UNL A   1      32.524  25.581  20.579  1.00  0.00    -0.049 Br
BRANCH   8  14
ATOM     14  N   UNL A   1      31.456  23.639  22.797  1.00  0.00    -0.380 N 
ATOM     15  H   UNL A   1      31.407  23.325  21.865  1.00  0.00     0.160 HD
BRANCH  14  16
ATOM     16  C   UNL A   1      31.852  22.675  23.807  1.00  0.00     0.148 C 
BRANCH  16  17
ATOM     17  C   UNL A   1      33.251  22.967  24.291  1.00  0.00    -0.029 A 
ATOM     18  C   UNL A   1      37.257  23.719  25.707  1.00  0.00     0.044 C 
ATOM     19  C   UNL A   1      35.862  23.444  25.230  1.00  0.00    -0.051 A 
ATOM     20  C   UNL A   1      35.657  22.904  23.956  1.00  0.00     0.004 A 
ATOM     21  C   UNL A   1      34.755  23.728  26.037  1.00  0.00     0.004 A 
ATOM     22  C   UNL A   1      34.364  22.660  23.494  1.00  0.00     0.006 A 
ATOM     23  C   UNL A   1      33.461  23.489  25.573  1.00  0.00     0.006 A 
ENDBRANCH  16  17
ENDBRANCH  14  16
ENDBRANCH   8  14
ENDBRANCH   4   7
ENDBRANCH   2   3
ENDBRANCH   1   2
BRANCH   1  24
ATOM     24  C   UNL A   1      32.972  31.145  27.331  1.00  0.00     0.023 C 
BRANCH  24  25
ATOM     25  C   UNL A   1      34.384  30.688  27.680  1.00  0.00     0.116 C 
BRANCH  25  26
ATOM     26  N   UNL A   1      35.075  31.482  28.686  1.00  0.00    -0.352 N 
ATOM     27  C   UNL A   1      36.216  31.187  29.425  1.00  0.00     0.251 C 
ATOM     28  H   UNL A   1      34.674  32.361  28.873  1.00  0.00     0.163 HD
ATOM     29  O   UNL A   1      36.591  31.960  30.288  1.00  0.00    -0.269 OA
BRANCH  27  30
ATOM     30  C   UNL A   1      37.064  30.013  29.064  1.00  0.00     0.039 A 
ATOM     31  C   UNL A   1      37.145  28.961  29.988  1.00  0.00     0.014 A 
ATOM     32  C   UNL A   1      37.925  30.036  27.975  1.00  0.00     0.014 A 
ATOM     33  C   UNL A   1      38.261  28.126  29.980  1.00  0.00     0.010 A 
ATOM     34  C   UNL A   1      39.089  29.296  28.032  1.00  0.00     0.010 A 
ATOM     35  C   UNL A   1      39.289  28.395  29.080  1.00  0.00    -0.014 A 
BRANCH  35  36
ATOM     36  C   UNL A   1      40.652  27.909  29.253  1.00  0.00     0.031 A 
ATOM     37  C   UNL A   1      41.075  26.618  28.679  1.00  0.00     0.074 A 
ATOM     38  C   UNL A   1      41.560  28.727  29.832  1.00  0.00     0.049 A 
ATOM     39  N   UNL A   1      42.089  25.933  29.089  1.00  0.00    -0.248 NA
ATOM     40  C   UNL A   1      40.346  25.972  27.596  1.00  0.00     0.031 C 
ATOM     41  C   UNL A   1      43.013  28.594  29.825  1.00  0.00     0.029 A 
ATOM     42  N   UNL A   1      41.311  29.778  30.726  1.00  0.00    -0.354 N 
ATOM     43  C   UNL A   1      42.316  24.928  28.175  1.00  0.00     0.074 A 
ATOM     44  C   UNL A   1      41.165  24.958  27.302  1.00  0.00     0.031 C 
ATOM     45  C   UNL A   1      43.518  29.306  30.845  1.00  0.00     0.029 A 
ATOM     46  C   UNL A   1      42.394  29.788  31.630  1.00  0.00     0.049 A 
ATOM     47  H   UNL A   1      40.537  30.387  30.724  1.00  0.00     0.167 HD
ATOM     48  C   UNL A   1      43.518  24.280  28.175  1.00  0.00     0.037 A 
ATOM     49  C   UNL A   1      42.207  29.531  32.957  1.00  0.00     0.037 A 
ATOM     50  C   UNL A   1      44.367  24.752  29.269  1.00  0.00     0.049 A 
ATOM     51  C   UNL A   1      42.953  28.316  33.457  1.00  0.00     0.074 A 
ATOM     52  C   UNL A   1      45.384  25.694  29.315  1.00  0.00     0.029 A 
ATOM     53  N   UNL A   1      44.015  24.487  30.588  1.00  0.00    -0.354 N 
ATOM     54  N   UNL A   1      43.432  27.387  32.678  1.00  0.00    -0.248 NA
ATOM     55  C   UNL A   1      43.184  28.032  34.872  1.00  0.00     0.031 C 
ATOM     56  C   UNL A   1      45.592  26.050  30.670  1.00  0.00     0.029 A 
ATOM     57  C   UNL A   1      44.721  25.309  31.449  1.00  0.00     0.049 A 
ATOM     58  H   UNL A   1      43.357  23.812  30.869  1.00  0.00     0.167 HD
ATOM     59  C   UNL A   1      43.979  26.390  33.441  1.00  0.00     0.074 A 
ATOM     60  C   UNL A   1      43.823  26.850  34.807  1.00  0.00     0.031 C 
ATOM     61  C   UNL A   1      44.498  25.256  32.885  1.00  0.00     0.037 A 
BRANCH  48  62
ATOM     62  C   UNL A   1      44.040  23.470  27.004  1.00  0.00     0.057 A 
ATOM     63  C   UNL A   1      45.008  24.004  26.129  1.00  0.00     0.134 A 
ATOM     64  C   UNL A   1      43.586  22.190  26.640  1.00  0.00     0.134 A 
ATOM     65  F   UNL A   1      45.647  25.150  26.397  1.00  0.00    -0.206 F 
ATOM     66  C   UNL A   1      45.379  23.386  24.926  1.00  0.00     0.040 A 
ATOM     67  C   UNL A   1      43.905  21.585  25.414  1.00  0.00     0.040 A 
ATOM     68  F   UNL A   1      42.866  21.437  27.479  1.00  0.00    -0.206 F 
ATOM     69  C   UNL A   1      44.792  22.193  24.541  1.00  0.00     0.006 A 
ENDBRANCH  48  62
BRANCH  49  70
ATOM     70  C   UNL A   1      40.880  29.975  33.460  1.00  0.00     0.057 A 
ATOM     71  C   UNL A   1      40.706  31.329  33.799  1.00  0.00     0.134 A 
ATOM     72  C   UNL A   1      39.725  29.217  33.251  1.00  0.00     0.134 A 
ATOM     73  F   UNL A   1      41.775  32.113  34.011  1.00  0.00    -0.206 F 
ATOM     74  C   UNL A   1      39.445  31.929  33.815  1.00  0.00     0.040 A 
ATOM     75  C   UNL A   1      38.455  29.806  33.277  1.00  0.00     0.040 A 
ATOM     76  F   UNL A   1      39.808  27.926  32.901  1.00  0.00    -0.206 F 
ATOM     77  C   UNL A   1      38.316  31.172  33.518  1.00  0.00     0.006 A 
ENDBRANCH  49  70
BRANCH  61  78
ATOM     78  C   UNL A   1      44.919  24.030  33.647  1.00  0.00     0.057 A 
ATOM     79  C   UNL A   1      44.068  22.950  33.921  1.00  0.00     0.134 A 
ATOM     80  C   UNL A   1      46.272  23.840  34.003  1.00  0.00     0.134 A 
ATOM     81  F   UNL A   1      42.783  22.960  33.541  1.00  0.00    -0.206 F 
ATOM     82  C   UNL A   1      44.517  21.785  34.555  1.00  0.00     0.040 A 
ATOM     83  C   UNL A   1      46.741  22.663  34.591  1.00  0.00     0.040 A 
ATOM     84  F   UNL A   1      47.196  24.786  33.776  1.00  0.00    -0.206 F 
ATOM     85  C   UNL A   1      45.860  21.633  34.881  1.00  0.00     0.006 A 
ENDBRANCH  61  78
ENDBRANCH  35  36
ENDBRANCH  27  30
ENDBRANCH  25  26
ENDBRANCH  24  25
ENDBRANCH   1  24
TORSDOF 14
ENDMDL
MODEL 3
REMARK VINA RESULT:     -11.9      1.515      2.116
REMARK SMILES Cc1ccc(CNc2ccc(C(=O)NCCCCNC(=O)c3ccc(-c4c5nc(c(-c6c(F)cccc6F)c6ccc([nH]6)c(-c6c(F)cccc6F)c6nc(c(-c7c(F)cccc7F)c7ccc4[nH]7)C=C6)C=C5)cc3)cc2Br)cc1
REMARK SMILES IDX 16 1 15 2 14 3 12 4 13 5 11 7 8 8 9 9 77 10 10 11 76 12
REMARK SMILES IDX 78 13 7 14 6 16 5 17 1 18 2 19 3 20 80 21 4 22 79 23 17 24
REMARK SMILES IDX 18 25 19 26 20 27 21 29 22 30 23 31 75 32 24 33 74 34 25 35
REMARK SMILES IDX 26 36 27 37 68 38 28 39 73 40 67 41 69 42 29 43 72 44 66 45
REMARK SMILES IDX 65 46 30 48 56 49 39 50 55 51 40 52 43 53 54 54 70 55 41 56
REMARK SMILES IDX 42 57 53 59 71 60 44 61 31 62 32 63 37 64 33 65 34 66 36 67
REMARK SMILES IDX 38 68 35 69 57 70 58 71 63 72 59 73 60 74 62 75 64 76 61 77
REMARK SMILES IDX 45 78 46 79 51 80 47 81 48 82 50 83 52 84 49 85
REMARK H PARENT 14 6 7 15 19 28 69 47 43 58
REMARK Flexibility Score: inf
ROOT
ATOM      1  C   UNL A   1      32.290  30.418  27.090  1.00  0.00     0.023 C 
ENDROOT
BRANCH   1   2
ATOM      2  C   UNL A   1      32.472  29.754  25.725  1.00  0.00     0.116 C 
BRANCH   2   3
ATOM      3  N   UNL A   1      31.379  29.997  24.795  1.00  0.00    -0.352 N 
ATOM      4  C   UNL A   1      30.690  29.208  23.903  1.00  0.00     0.251 C 
ATOM      5  O   UNL A   1      29.845  29.757  23.194  1.00  0.00    -0.269 OA
ATOM      6  H   UNL A   1      31.064  30.929  24.807  1.00  0.00     0.163 HD
BRANCH   4   7
ATOM      7  C   UNL A   1      30.925  27.751  23.728  1.00  0.00     0.041 A 
ATOM      8  C   UNL A   1      31.358  24.942  23.509  1.00  0.00     0.049 A 
ATOM      9  C   UNL A   1      31.439  25.787  22.401  1.00  0.00     0.028 A 
ATOM     10  C   UNL A   1      31.076  25.547  24.749  1.00  0.00     0.041 A 
ATOM     11  C   UNL A   1      31.292  27.171  22.519  1.00  0.00     0.016 A 
ATOM     12  C   UNL A   1      30.853  26.927  24.860  1.00  0.00     0.031 A 
ATOM     13  Br  UNL A   1      31.042  24.514  26.349  1.00  0.00    -0.049 Br
BRANCH   8  14
ATOM     14  N   UNL A   1      31.571  23.579  23.404  1.00  0.00    -0.380 N 
ATOM     15  H   UNL A   1      30.963  22.984  23.901  1.00  0.00     0.160 HD
BRANCH  14  16
ATOM     16  C   UNL A   1      32.621  22.956  22.618  1.00  0.00     0.148 C 
BRANCH  16  17
ATOM     17  C   UNL A   1      33.887  22.844  23.431  1.00  0.00    -0.029 A 
ATOM     18  C   UNL A   1      37.488  22.600  25.795  1.00  0.00     0.044 C 
ATOM     19  C   UNL A   1      36.237  22.706  24.975  1.00  0.00    -0.051 A 
ATOM     20  C   UNL A   1      35.048  22.140  25.447  1.00  0.00     0.004 A 
ATOM     21  C   UNL A   1      36.240  23.354  23.736  1.00  0.00     0.004 A 
ATOM     22  C   UNL A   1      33.882  22.216  24.685  1.00  0.00     0.006 A 
ATOM     23  C   UNL A   1      35.074  23.426  22.971  1.00  0.00     0.006 A 
ENDBRANCH  16  17
ENDBRANCH  14  16
ENDBRANCH   8  14
ENDBRANCH   4   7
ENDBRANCH   2   3
ENDBRANCH   1   2
BRANCH   1  24
ATOM     24  C   UNL A   1      33.386  31.399  27.501  1.00  0.00     0.023 C 
BRANCH  24  25
ATOM     25  C   UNL A   1      34.772  30.784  27.661  1.00  0.00     0.116 C 
BRANCH  25  26
ATOM     26  N   UNL A   1      35.780  31.645  28.264  1.00  0.00    -0.352 N 
ATOM     27  C   UNL A   1      37.037  31.328  28.768  1.00  0.00     0.251 C 
ATOM     28  H   UNL A   1      35.534  32.597  28.325  1.00  0.00     0.163 HD
ATOM     29  O   UNL A   1      37.701  32.190  29.313  1.00  0.00    -0.269 OA
BRANCH  27  30
ATOM     30  C   UNL A   1      37.635  29.986  28.509  1.00  0.00     0.039 A 
ATOM     31  C   UNL A   1      37.677  29.076  29.575  1.00  0.00     0.014 A 
ATOM     32  C   UNL A   1      38.334  29.706  27.342  1.00  0.00     0.014 A 
ATOM     33  C   UNL A   1      38.637  28.066  29.579  1.00  0.00     0.010 A 
ATOM     34  C   UNL A   1      39.365  28.789  27.389  1.00  0.00     0.010 A 
ATOM     35  C   UNL A   1      39.563  28.024  28.540  1.00  0.00    -0.014 A 
BRANCH  35  36
ATOM     36  C   UNL A   1      40.845  27.337  28.637  1.00  0.00     0.031 A 
ATOM     37  C   UNL A   1      40.958  25.897  28.339  1.00  0.00     0.074 A 
ATOM     38  C   UNL A   1      41.955  28.072  28.872  1.00  0.00     0.049 A 
ATOM     39  N   UNL A   1      41.912  25.136  28.760  1.00  0.00    -0.248 NA
ATOM     40  C   UNL A   1      39.959  25.184  27.553  1.00  0.00     0.031 C 
ATOM     41  C   UNL A   1      43.346  27.668  28.699  1.00  0.00     0.029 A 
ATOM     42  N   UNL A   1      42.031  29.318  29.512  1.00  0.00    -0.354 N 
ATOM     43  C   UNL A   1      41.817  23.934  28.092  1.00  0.00     0.074 A 
ATOM     44  C   UNL A   1      40.549  23.994  27.403  1.00  0.00     0.031 C 
ATOM     45  C   UNL A   1      44.126  28.473  29.439  1.00  0.00     0.029 A 
ATOM     46  C   UNL A   1      43.245  29.315  30.230  1.00  0.00     0.049 A 
ATOM     47  H   UNL A   1      41.371  30.047  29.469  1.00  0.00     0.167 HD
ATOM     48  C   UNL A   1      42.887  23.085  28.085  1.00  0.00     0.037 A 
ATOM     49  C   UNL A   1      43.258  29.387  31.594  1.00  0.00     0.037 A 
ATOM     50  C   UNL A   1      43.978  23.610  28.906  1.00  0.00     0.049 A 
ATOM     51  C   UNL A   1      43.886  28.188  32.265  1.00  0.00     0.074 A 
ATOM     52  C   UNL A   1      45.118  24.331  28.585  1.00  0.00     0.029 A 
ATOM     53  N   UNL A   1      43.828  23.705  30.285  1.00  0.00    -0.354 N 
ATOM     54  N   UNL A   1      44.073  27.041  31.675  1.00  0.00    -0.248 NA
ATOM     55  C   UNL A   1      44.317  28.174  33.661  1.00  0.00     0.031 C 
ATOM     56  C   UNL A   1      45.614  24.921  29.772  1.00  0.00     0.029 A 
ATOM     57  C   UNL A   1      44.791  24.543  30.819  1.00  0.00     0.049 A 
ATOM     58  H   UNL A   1      43.134  23.243  30.808  1.00  0.00     0.167 HD
ATOM     59  C   UNL A   1      44.586  26.145  32.573  1.00  0.00     0.074 A 
ATOM     60  C   UNL A   1      44.746  26.907  33.797  1.00  0.00     0.031 C 
ATOM     61  C   UNL A   1      44.819  24.841  32.241  1.00  0.00     0.037 A 
BRANCH  48  62
ATOM     62  C   UNL A   1      43.064  21.960  27.083  1.00  0.00     0.057 A 
ATOM     63  C   UNL A   1      42.286  20.788  27.167  1.00  0.00     0.134 A 
ATOM     64  C   UNL A   1      44.024  21.936  26.056  1.00  0.00     0.134 A 
ATOM     65  F   UNL A   1      41.239  20.692  27.996  1.00  0.00    -0.206 F 
ATOM     66  C   UNL A   1      42.539  19.642  26.398  1.00  0.00     0.040 A 
ATOM     67  C   UNL A   1      44.325  20.781  25.317  1.00  0.00     0.040 A 
ATOM     68  F   UNL A   1      44.669  23.044  25.674  1.00  0.00    -0.206 F 
ATOM     69  C   UNL A   1      43.593  19.620  25.501  1.00  0.00     0.006 A 
ENDBRANCH  48  62
BRANCH  49  70
ATOM     70  C   UNL A   1      42.124  30.172  32.151  1.00  0.00     0.057 A 
ATOM     71  C   UNL A   1      42.188  31.576  32.105  1.00  0.00     0.134 A 
ATOM     72  C   UNL A   1      40.867  29.598  32.358  1.00  0.00     0.134 A 
ATOM     73  F   UNL A   1      43.366  32.190  31.905  1.00  0.00    -0.206 F 
ATOM     74  C   UNL A   1      41.040  32.368  32.147  1.00  0.00     0.040 A 
ATOM     75  C   UNL A   1      39.710  30.384  32.414  1.00  0.00     0.040 A 
ATOM     76  F   UNL A   1      40.720  28.266  32.391  1.00  0.00    -0.206 F 
ATOM     77  C   UNL A   1      39.790  31.768  32.267  1.00  0.00     0.006 A 
ENDBRANCH  49  70
BRANCH  61  78
ATOM     78  C   UNL A   1      45.177  23.749  33.212  1.00  0.00     0.057 A 
ATOM     79  C   UNL A   1      46.422  23.648  33.850  1.00  0.00     0.134 A 
ATOM     80  C   UNL A   1      44.196  22.835  33.652  1.00  0.00     0.134 A 
ATOM     81  F   UNL A   1      47.407  24.521  33.599  1.00  0.00    -0.206 F 
ATOM     82  C   UNL A   1      46.690  22.672  34.817  1.00  0.00     0.040 A 
ATOM     83  C   UNL A   1      44.437  21.889  34.651  1.00  0.00     0.040 A 
ATOM     84  F   UNL A   1      42.955  22.838  33.141  1.00  0.00    -0.206 F 
ATOM     85  C   UNL A   1      45.693  21.795  35.229  1.00  0.00     0.006 A 
ENDBRANCH  61  78
ENDBRANCH  35  36
ENDBRANCH  27  30
ENDBRANCH  25  26
ENDBRANCH  24  25
ENDBRANCH   1  24
TORSDOF 14
ENDMDL
