MODEL 1
REMARK VINA RESULT:     -12.2      0.000      0.000
REMARK SMILES CC(C)CSc1cc2c(cc1Cl)C=C(C(=O)NCCCCNC(=O)c1ccc(-c3c4nc(c(-c5c(F)cccc5F)c5ccc([nH]5)c(-c5c(F)cccc5F)c5nc(c(-c6c(F)cccc6F)c6ccc3[nH]6)C=C5)C=C4)cc1)[C@@H](C(F)(F)F)O2
REMARK SMILES IDX 19 1 18 2 17 3 15 4 16 5 14 7 6 8 7 9 11 10 8 11 10 12 12 13
REMARK SMILES IDX 9 14 84 15 13 16 79 17 5 18 4 19 2 20 1 21 3 22 80 23 81 24
REMARK SMILES IDX 82 25 83 26 20 27 21 28 22 29 23 30 24 32 25 33 26 34 78 35
REMARK SMILES IDX 27 36 77 37 28 38 29 39 30 40 71 41 31 42 76 43 70 44 72 45
REMARK SMILES IDX 32 46 75 47 69 48 68 49 33 51 59 52 42 53 58 54 43 55 46 56
REMARK SMILES IDX 57 57 73 58 44 59 45 60 56 62 74 63 47 64 34 65 35 66 40 67
REMARK SMILES IDX 36 68 37 69 39 70 41 71 38 72 60 73 61 74 66 75 62 76 63 77
REMARK SMILES IDX 65 78 67 79 64 80 48 81 49 82 54 83 50 84 51 85 53 86 55 87
REMARK SMILES IDX 52 88
REMARK H PARENT 17 6 22 31 72 50 46 61
REMARK Flexibility Score: inf
ROOT
ATOM      1  C   UNL A   1      37.064  22.073  24.411  1.00  0.00     0.023 C 
ENDROOT
BRANCH   1   2
ATOM      2  C   UNL A   1      36.813  21.066  25.531  1.00  0.00     0.116 C 
BRANCH   2   3
ATOM      3  N   UNL A   1      35.835  20.061  25.157  1.00  0.00    -0.352 N 
ATOM      4  C   UNL A   1      34.510  20.027  24.878  1.00  0.00     0.251 C 
ATOM      5  O   UNL A   1      34.063  18.913  24.587  1.00  0.00    -0.270 OA
ATOM      6  H   UNL A   1      36.242  19.167  25.088  1.00  0.00     0.163 HD
BRANCH   4   7
ATOM      7  C   UNL A   1      33.592  21.206  24.904  1.00  0.00     0.067 C 
ATOM      8  C   UNL A   1      30.962  25.337  23.619  1.00  0.00     0.030 A 
ATOM      9  C   UNL A   1      30.932  24.440  24.698  1.00  0.00     0.063 A 
ATOM     10  C   UNL A   1      31.842  25.071  22.558  1.00  0.00     0.055 A 
ATOM     11  C   UNL A   1      31.801  23.351  24.748  1.00  0.00     0.129 A 
ATOM     12  C   UNL A   1      32.718  23.976  22.618  1.00  0.00     0.033 A 
ATOM     13  Cl  UNL A   1      31.871  26.003  21.101  1.00  0.00    -0.083 Cl
ATOM     14  C   UNL A   1      32.703  23.115  23.717  1.00  0.00     0.019 A 
ATOM     15  O   UNL A   1      31.675  22.530  25.829  1.00  0.00    -0.475 OA
ATOM     16  C   UNL A   1      33.565  21.943  23.777  1.00  0.00     0.025 C 
ATOM     17  C   UNL A   1      32.766  21.608  26.094  1.00  0.00     0.314 C 
BRANCH   8  18
ATOM     18  S   UNL A   1      29.803  26.696  23.725  1.00  0.00    -0.124 SA
BRANCH  18  19
ATOM     19  C   UNL A   1      30.786  28.033  24.502  1.00  0.00     0.078 C 
BRANCH  19  20
ATOM     20  C   UNL A   1      31.399  29.083  23.557  1.00  0.00    -0.007 C 
ATOM     21  C   UNL A   1      32.826  28.759  23.115  1.00  0.00     0.008 C 
ATOM     22  C   UNL A   1      30.512  29.193  22.309  1.00  0.00     0.008 C 
ENDBRANCH  19  20
ENDBRANCH  18  19
ENDBRANCH   8  18
BRANCH  17  23
ATOM     23  C   UNL A   1      33.618  22.176  27.245  1.00  0.00     0.429 C 
ATOM     24  F   UNL A   1      34.413  21.207  27.768  1.00  0.00    -0.167 F 
ATOM     25  F   UNL A   1      34.443  23.170  26.844  1.00  0.00    -0.167 F 
ATOM     26  F   UNL A   1      32.863  22.669  28.253  1.00  0.00    -0.167 F 
ENDBRANCH  17  23
ENDBRANCH   4   7
ENDBRANCH   2   3
ENDBRANCH   1   2
BRANCH   1  27
ATOM     27  C   UNL A   1      37.070  23.533  24.869  1.00  0.00     0.023 C 
BRANCH  27  28
ATOM     28  C   UNL A   1      37.903  23.832  26.113  1.00  0.00     0.116 C 
BRANCH  28  29
ATOM     29  N   UNL A   1      39.327  23.560  25.966  1.00  0.00    -0.352 N 
ATOM     30  C   UNL A   1      40.387  24.275  26.477  1.00  0.00     0.251 C 
ATOM     31  H   UNL A   1      39.560  22.764  25.434  1.00  0.00     0.163 HD
ATOM     32  O   UNL A   1      41.541  23.958  26.209  1.00  0.00    -0.269 OA
BRANCH  30  33
ATOM     33  C   UNL A   1      40.111  25.466  27.305  1.00  0.00     0.039 A 
ATOM     34  C   UNL A   1      40.691  26.694  26.988  1.00  0.00     0.014 A 
ATOM     35  C   UNL A   1      39.332  25.327  28.456  1.00  0.00     0.014 A 
ATOM     36  C   UNL A   1      40.652  27.726  27.916  1.00  0.00     0.010 A 
ATOM     37  C   UNL A   1      39.222  26.396  29.349  1.00  0.00     0.010 A 
ATOM     38  C   UNL A   1      39.934  27.583  29.114  1.00  0.00    -0.014 A 
BRANCH  38  39
ATOM     39  C   UNL A   1      39.977  28.681  30.114  1.00  0.00     0.031 A 
ATOM     40  C   UNL A   1      38.960  29.792  30.085  1.00  0.00     0.074 A 
ATOM     41  C   UNL A   1      40.886  28.627  31.106  1.00  0.00     0.049 A 
ATOM     42  N   UNL A   1      38.804  30.789  30.921  1.00  0.00    -0.248 NA
ATOM     43  C   UNL A   1      37.996  29.788  28.973  1.00  0.00     0.031 C 
ATOM     44  C   UNL A   1      41.919  27.598  31.246  1.00  0.00     0.029 A 
ATOM     45  N   UNL A   1      41.064  29.430  32.201  1.00  0.00    -0.354 N 
ATOM     46  C   UNL A   1      37.743  31.539  30.426  1.00  0.00     0.074 A 
ATOM     47  C   UNL A   1      37.309  30.898  29.203  1.00  0.00     0.031 C 
ATOM     48  C   UNL A   1      42.581  27.795  32.396  1.00  0.00     0.029 A 
ATOM     49  C   UNL A   1      42.055  28.991  33.045  1.00  0.00     0.049 A 
ATOM     50  H   UNL A   1      40.534  30.243  32.368  1.00  0.00     0.167 HD
ATOM     51  C   UNL A   1      37.175  32.652  30.949  1.00  0.00     0.037 A 
ATOM     52  C   UNL A   1      42.491  29.494  34.213  1.00  0.00     0.037 A 
ATOM     53  C   UNL A   1      37.590  33.278  32.178  1.00  0.00     0.049 A 
ATOM     54  C   UNL A   1      41.851  30.735  34.763  1.00  0.00     0.074 A 
ATOM     55  C   UNL A   1      37.068  34.402  32.795  1.00  0.00     0.029 A 
ATOM     56  N   UNL A   1      38.626  32.828  32.981  1.00  0.00    -0.354 N 
ATOM     57  N   UNL A   1      40.846  31.427  34.286  1.00  0.00    -0.248 NA
ATOM     58  C   UNL A   1      42.412  31.266  36.013  1.00  0.00     0.031 C 
ATOM     59  C   UNL A   1      37.809  34.649  33.957  1.00  0.00     0.029 A 
ATOM     60  C   UNL A   1      38.767  33.657  34.082  1.00  0.00     0.049 A 
ATOM     61  H   UNL A   1      39.180  32.035  32.796  1.00  0.00     0.167 HD
ATOM     62  C   UNL A   1      40.645  32.467  35.182  1.00  0.00     0.074 A 
ATOM     63  C   UNL A   1      41.617  32.301  36.243  1.00  0.00     0.031 C 
ATOM     64  C   UNL A   1      39.739  33.475  35.128  1.00  0.00     0.037 A 
BRANCH  51  65
ATOM     65  C   UNL A   1      36.045  33.276  30.180  1.00  0.00     0.057 A 
ATOM     66  C   UNL A   1      36.299  34.056  29.045  1.00  0.00     0.134 A 
ATOM     67  C   UNL A   1      34.710  33.127  30.578  1.00  0.00     0.134 A 
ATOM     68  F   UNL A   1      37.555  34.242  28.614  1.00  0.00    -0.206 F 
ATOM     69  C   UNL A   1      35.265  34.667  28.334  1.00  0.00     0.040 A 
ATOM     70  C   UNL A   1      33.666  33.717  29.861  1.00  0.00     0.040 A 
ATOM     71  F   UNL A   1      34.398  32.380  31.648  1.00  0.00    -0.206 F 
ATOM     72  C   UNL A   1      33.943  34.493  28.739  1.00  0.00     0.006 A 
ENDBRANCH  51  65
BRANCH  52  73
ATOM     73  C   UNL A   1      43.588  28.818  34.946  1.00  0.00     0.057 A 
ATOM     74  C   UNL A   1      44.932  29.093  34.664  1.00  0.00     0.134 A 
ATOM     75  C   UNL A   1      43.316  27.879  35.948  1.00  0.00     0.134 A 
ATOM     76  F   UNL A   1      45.255  29.980  33.711  1.00  0.00    -0.206 F 
ATOM     77  C   UNL A   1      45.966  28.453  35.346  1.00  0.00     0.040 A 
ATOM     78  C   UNL A   1      44.341  27.249  36.654  1.00  0.00     0.040 A 
ATOM     79  F   UNL A   1      42.048  27.587  36.272  1.00  0.00    -0.206 F 
ATOM     80  C   UNL A   1      45.671  27.532  36.350  1.00  0.00     0.006 A 
ENDBRANCH  52  73
BRANCH  64  81
ATOM     81  C   UNL A   1      39.752  34.451  36.265  1.00  0.00     0.057 A 
ATOM     82  C   UNL A   1      39.041  34.186  37.441  1.00  0.00     0.134 A 
ATOM     83  C   UNL A   1      40.469  35.652  36.195  1.00  0.00     0.134 A 
ATOM     84  F   UNL A   1      38.331  33.055  37.568  1.00  0.00    -0.206 F 
ATOM     85  C   UNL A   1      39.049  35.079  38.513  1.00  0.00     0.040 A 
ATOM     86  C   UNL A   1      40.503  36.542  37.269  1.00  0.00     0.040 A 
ATOM     87  F   UNL A   1      41.184  35.955  35.101  1.00  0.00    -0.206 F 
ATOM     88  C   UNL A   1      39.789  36.257  38.431  1.00  0.00     0.006 A 
ENDBRANCH  64  81
ENDBRANCH  38  39
ENDBRANCH  30  33
ENDBRANCH  28  29
ENDBRANCH  27  28
ENDBRANCH   1  27
TORSDOF 15
ENDMDL
MODEL 2
REMARK VINA RESULT:     -11.8      4.032      7.993
REMARK SMILES CC(C)CSc1cc2c(cc1Cl)C=C(C(=O)NCCCCNC(=O)c1ccc(-c3c4nc(c(-c5c(F)cccc5F)c5ccc([nH]5)c(-c5c(F)cccc5F)c5nc(c(-c6c(F)cccc6F)c6ccc3[nH]6)C=C5)C=C4)cc1)[C@@H](C(F)(F)F)O2
REMARK SMILES IDX 19 1 18 2 17 3 15 4 16 5 14 7 6 8 7 9 11 10 8 11 10 12 12 13
REMARK SMILES IDX 9 14 84 15 13 16 79 17 5 18 4 19 2 20 1 21 3 22 80 23 81 24
REMARK SMILES IDX 82 25 83 26 20 27 21 28 22 29 23 30 24 32 25 33 26 34 78 35
REMARK SMILES IDX 27 36 77 37 28 38 29 39 30 40 71 41 31 42 76 43 70 44 72 45
REMARK SMILES IDX 32 46 75 47 69 48 68 49 33 51 59 52 42 53 58 54 43 55 46 56
REMARK SMILES IDX 57 57 73 58 44 59 45 60 56 62 74 63 47 64 34 65 35 66 40 67
REMARK SMILES IDX 36 68 37 69 39 70 41 71 38 72 60 73 61 74 66 75 62 76 63 77
REMARK SMILES IDX 65 78 67 79 64 80 48 81 49 82 54 83 50 84 51 85 53 86 55 87
REMARK SMILES IDX 52 88
REMARK H PARENT 17 6 22 31 72 50 46 61
REMARK Flexibility Score: inf
ROOT
ATOM      1  C   UNL A   1      38.472  23.132  26.107  1.00  0.00     0.023 C 
ENDROOT
BRANCH   1   2
ATOM      2  C   UNL A   1      37.124  23.727  25.709  1.00  0.00     0.116 C 
BRANCH   2   3
ATOM      3  N   UNL A   1      36.023  23.139  26.451  1.00  0.00    -0.352 N 
ATOM      4  C   UNL A   1      34.672  23.230  26.450  1.00  0.00     0.251 C 
ATOM      5  O   UNL A   1      34.097  22.518  27.280  1.00  0.00    -0.270 OA
ATOM      6  H   UNL A   1      36.343  22.507  27.134  1.00  0.00     0.163 HD
BRANCH   4   7
ATOM      7  C   UNL A   1      33.865  24.108  25.549  1.00  0.00     0.067 C 
ATOM      8  C   UNL A   1      31.372  28.044  23.569  1.00  0.00     0.030 A 
ATOM      9  C   UNL A   1      31.789  26.794  23.088  1.00  0.00     0.063 A 
ATOM     10  C   UNL A   1      31.750  28.417  24.868  1.00  0.00     0.055 A 
ATOM     11  C   UNL A   1      32.503  25.916  23.902  1.00  0.00     0.129 A 
ATOM     12  C   UNL A   1      32.463  27.525  25.685  1.00  0.00     0.033 A 
ATOM     13  Cl  UNL A   1      31.437  29.985  25.528  1.00  0.00    -0.083 Cl
ATOM     14  C   UNL A   1      32.837  26.269  25.205  1.00  0.00     0.019 A 
ATOM     15  O   UNL A   1      32.879  24.736  23.332  1.00  0.00    -0.475 OA
ATOM     16  C   UNL A   1      33.623  25.348  26.015  1.00  0.00     0.025 C 
ATOM     17  C   UNL A   1      33.304  23.671  24.224  1.00  0.00     0.314 C 
BRANCH   8  18
ATOM     18  S   UNL A   1      30.441  29.036  22.405  1.00  0.00    -0.124 SA
BRANCH  18  19
ATOM     19  C   UNL A   1      28.724  28.928  23.033  1.00  0.00     0.078 C 
BRANCH  19  20
ATOM     20  C   UNL A   1      27.757  30.049  22.608  1.00  0.00    -0.007 C 
ATOM     21  C   UNL A   1      27.709  31.226  23.582  1.00  0.00     0.008 C 
ATOM     22  C   UNL A   1      28.189  30.569  21.230  1.00  0.00     0.008 C 
ENDBRANCH  19  20
ENDBRANCH  18  19
ENDBRANCH   8  18
BRANCH  17  23
ATOM     23  C   UNL A   1      32.148  22.663  24.370  1.00  0.00     0.429 C 
ATOM     24  F   UNL A   1      31.374  22.668  23.256  1.00  0.00    -0.167 F 
ATOM     25  F   UNL A   1      32.580  21.391  24.528  1.00  0.00    -0.167 F 
ATOM     26  F   UNL A   1      31.348  22.944  25.423  1.00  0.00    -0.167 F 
ENDBRANCH  17  23
ENDBRANCH   4   7
ENDBRANCH   2   3
ENDBRANCH   1   2
BRANCH   1  27
ATOM     27  C   UNL A   1      38.789  21.791  25.441  1.00  0.00     0.023 C 
BRANCH  27  28
ATOM     28  C   UNL A   1      39.180  20.659  26.389  1.00  0.00     0.116 C 
BRANCH  28  29
ATOM     29  N   UNL A   1      40.190  19.752  25.860  1.00  0.00    -0.352 N 
ATOM     30  C   UNL A   1      41.558  19.907  25.864  1.00  0.00     0.251 C 
ATOM     31  H   UNL A   1      39.851  18.924  25.448  1.00  0.00     0.163 HD
ATOM     32  O   UNL A   1      42.283  19.082  25.316  1.00  0.00    -0.269 OA
BRANCH  30  33
ATOM     33  C   UNL A   1      42.137  21.114  26.486  1.00  0.00     0.039 A 
ATOM     34  C   UNL A   1      42.191  21.234  27.875  1.00  0.00     0.014 A 
ATOM     35  C   UNL A   1      42.550  22.169  25.668  1.00  0.00     0.014 A 
ATOM     36  C   UNL A   1      42.474  22.469  28.443  1.00  0.00     0.010 A 
ATOM     37  C   UNL A   1      42.917  23.387  26.245  1.00  0.00     0.010 A 
ATOM     38  C   UNL A   1      42.822  23.564  27.635  1.00  0.00    -0.014 A 
BRANCH  38  39
ATOM     39  C   UNL A   1      43.045  24.887  28.274  1.00  0.00     0.031 A 
ATOM     40  C   UNL A   1      44.436  25.353  28.617  1.00  0.00     0.074 A 
ATOM     41  C   UNL A   1      41.994  25.706  28.463  1.00  0.00     0.049 A 
ATOM     42  N   UNL A   1      44.821  26.504  29.110  1.00  0.00    -0.248 NA
ATOM     43  C   UNL A   1      45.536  24.405  28.384  1.00  0.00     0.031 C 
ATOM     44  C   UNL A   1      40.600  25.371  28.165  1.00  0.00     0.029 A 
ATOM     45  N   UNL A   1      41.938  26.999  28.914  1.00  0.00    -0.354 N 
ATOM     46  C   UNL A   1      46.199  26.411  29.265  1.00  0.00     0.074 A 
ATOM     47  C   UNL A   1      46.582  25.082  28.838  1.00  0.00     0.031 C 
ATOM     48  C   UNL A   1      39.834  26.451  28.380  1.00  0.00     0.029 A 
ATOM     49  C   UNL A   1      40.673  27.535  28.880  1.00  0.00     0.049 A 
ATOM     50  H   UNL A   1      42.727  27.496  29.233  1.00  0.00     0.167 HD
ATOM     51  C   UNL A   1      47.069  27.351  29.709  1.00  0.00     0.037 A 
ATOM     52  C   UNL A   1      40.238  28.763  29.213  1.00  0.00     0.037 A 
ATOM     53  C   UNL A   1      46.693  28.682  30.112  1.00  0.00     0.049 A 
ATOM     54  C   UNL A   1      41.221  29.780  29.712  1.00  0.00     0.074 A 
ATOM     55  C   UNL A   1      47.503  29.709  30.566  1.00  0.00     0.029 A 
ATOM     56  N   UNL A   1      45.397  29.171  30.103  1.00  0.00    -0.354 N 
ATOM     57  N   UNL A   1      42.521  29.677  29.846  1.00  0.00    -0.248 NA
ATOM     58  C   UNL A   1      40.673  31.083  30.113  1.00  0.00     0.031 C 
ATOM     59  C   UNL A   1      46.692  30.811  30.860  1.00  0.00     0.029 A 
ATOM     60  C   UNL A   1      45.382  30.482  30.553  1.00  0.00     0.049 A 
ATOM     61  H   UNL A   1      44.603  28.663  29.819  1.00  0.00     0.167 HD
ATOM     62  C   UNL A   1      42.948  30.904  30.333  1.00  0.00     0.074 A 
ATOM     63  C   UNL A   1      41.773  31.742  30.449  1.00  0.00     0.031 C 
ATOM     64  C   UNL A   1      44.203  31.300  30.662  1.00  0.00     0.037 A 
BRANCH  51  65
ATOM     65  C   UNL A   1      48.517  26.964  29.796  1.00  0.00     0.057 A 
ATOM     66  C   UNL A   1      49.029  26.371  30.958  1.00  0.00     0.134 A 
ATOM     67  C   UNL A   1      49.410  27.203  28.744  1.00  0.00     0.134 A 
ATOM     68  F   UNL A   1      48.228  26.120  32.004  1.00  0.00    -0.206 F 
ATOM     69  C   UNL A   1      50.378  26.030  31.069  1.00  0.00     0.040 A 
ATOM     70  C   UNL A   1      50.758  26.846  28.836  1.00  0.00     0.040 A 
ATOM     71  F   UNL A   1      48.980  27.754  27.599  1.00  0.00    -0.206 F 
ATOM     72  C   UNL A   1      51.246  26.263  30.003  1.00  0.00     0.006 A 
ENDBRANCH  51  65
BRANCH  52  73
ATOM     73  C   UNL A   1      38.801  29.100  29.074  1.00  0.00     0.057 A 
ATOM     74  C   UNL A   1      38.266  29.522  27.851  1.00  0.00     0.134 A 
ATOM     75  C   UNL A   1      37.930  29.008  30.165  1.00  0.00     0.134 A 
ATOM     76  F   UNL A   1      39.053  29.635  26.771  1.00  0.00    -0.206 F 
ATOM     77  C   UNL A   1      36.916  29.848  27.719  1.00  0.00     0.040 A 
ATOM     78  C   UNL A   1      36.572  29.308  30.042  1.00  0.00     0.040 A 
ATOM     79  F   UNL A   1      38.383  28.594  31.358  1.00  0.00    -0.206 F 
ATOM     80  C   UNL A   1      36.064  29.735  28.817  1.00  0.00     0.006 A 
ENDBRANCH  52  73
BRANCH  64  81
ATOM     81  C   UNL A   1      44.356  32.708  31.151  1.00  0.00     0.057 A 
ATOM     82  C   UNL A   1      44.574  33.757  30.250  1.00  0.00     0.134 A 
ATOM     83  C   UNL A   1      44.287  33.026  32.513  1.00  0.00     0.134 A 
ATOM     84  F   UNL A   1      44.656  33.518  28.932  1.00  0.00    -0.206 F 
ATOM     85  C   UNL A   1      44.711  35.075  30.686  1.00  0.00     0.040 A 
ATOM     86  C   UNL A   1      44.399  34.343  32.960  1.00  0.00     0.040 A 
ATOM     87  F   UNL A   1      44.062  32.066  33.424  1.00  0.00    -0.206 F 
ATOM     88  C   UNL A   1      44.614  35.371  32.044  1.00  0.00     0.006 A 
ENDBRANCH  64  81
ENDBRANCH  38  39
ENDBRANCH  30  33
ENDBRANCH  28  29
ENDBRANCH  27  28
ENDBRANCH   1  27
TORSDOF 15
ENDMDL
MODEL 3
REMARK VINA RESULT:     -11.8      1.616      2.146
REMARK SMILES CC(C)CSc1cc2c(cc1Cl)C=C(C(=O)NCCCCNC(=O)c1ccc(-c3c4nc(c(-c5c(F)cccc5F)c5ccc([nH]5)c(-c5c(F)cccc5F)c5nc(c(-c6c(F)cccc6F)c6ccc3[nH]6)C=C5)C=C4)cc1)[C@@H](C(F)(F)F)O2
REMARK SMILES IDX 19 1 18 2 17 3 15 4 16 5 14 7 6 8 7 9 11 10 8 11 10 12 12 13
REMARK SMILES IDX 9 14 84 15 13 16 79 17 5 18 4 19 2 20 1 21 3 22 80 23 81 24
REMARK SMILES IDX 82 25 83 26 20 27 21 28 22 29 23 30 24 32 25 33 26 34 78 35
REMARK SMILES IDX 27 36 77 37 28 38 29 39 30 40 71 41 31 42 76 43 70 44 72 45
REMARK SMILES IDX 32 46 75 47 69 48 68 49 33 51 59 52 42 53 58 54 43 55 46 56
REMARK SMILES IDX 57 57 73 58 44 59 45 60 56 62 74 63 47 64 34 65 35 66 40 67
REMARK SMILES IDX 36 68 37 69 39 70 41 71 38 72 60 73 61 74 66 75 62 76 63 77
REMARK SMILES IDX 65 78 67 79 64 80 48 81 49 82 54 83 50 84 51 85 53 86 55 87
REMARK SMILES IDX 52 88
REMARK H PARENT 17 6 22 31 72 50 46 61
REMARK Flexibility Score: inf
ROOT
ATOM      1  C   UNL A   1      37.633  21.552  25.686  1.00  0.00     0.023 C 
ENDROOT
BRANCH   1   2
ATOM      2  C   UNL A   1      36.768  20.598  24.866  1.00  0.00     0.116 C 
BRANCH   2   3
ATOM      3  N   UNL A   1      35.451  20.412  25.448  1.00  0.00    -0.352 N 
ATOM      4  C   UNL A   1      34.291  21.109  25.510  1.00  0.00     0.251 C 
ATOM      5  O   UNL A   1      33.377  20.553  26.127  1.00  0.00    -0.270 OA
ATOM      6  H   UNL A   1      35.382  19.551  25.921  1.00  0.00     0.163 HD
BRANCH   4   7
ATOM      7  C   UNL A   1      34.060  22.457  24.908  1.00  0.00     0.067 C 
ATOM      8  C   UNL A   1      33.315  27.424  24.273  1.00  0.00     0.030 A 
ATOM      9  C   UNL A   1      33.604  26.349  23.419  1.00  0.00     0.063 A 
ATOM     10  C   UNL A   1      33.276  27.182  25.656  1.00  0.00     0.055 A 
ATOM     11  C   UNL A   1      33.781  25.061  23.923  1.00  0.00     0.129 A 
ATOM     12  C   UNL A   1      33.449  25.882  26.156  1.00  0.00     0.033 A 
ATOM     13  Cl  UNL A   1      33.085  28.440  26.828  1.00  0.00    -0.083 Cl
ATOM     14  C   UNL A   1      33.698  24.816  25.289  1.00  0.00     0.019 A 
ATOM     15  O   UNL A   1      34.080  24.094  23.010  1.00  0.00    -0.475 OA
ATOM     16  C   UNL A   1      33.933  23.468  25.787  1.00  0.00     0.025 C 
ATOM     17  C   UNL A   1      33.928  22.711  23.432  1.00  0.00     0.314 C 
BRANCH   8  18
ATOM     18  S   UNL A   1      33.088  29.003  23.462  1.00  0.00    -0.124 SA
BRANCH  18  19
ATOM     19  C   UNL A   1      31.474  28.817  22.615  1.00  0.00     0.078 C 
BRANCH  19  20
ATOM     20  C   UNL A   1      30.222  28.763  23.509  1.00  0.00    -0.007 C 
ATOM     21  C   UNL A   1      29.044  29.577  22.973  1.00  0.00     0.008 C 
ATOM     22  C   UNL A   1      29.783  27.298  23.646  1.00  0.00     0.008 C 
ENDBRANCH  19  20
ENDBRANCH  18  19
ENDBRANCH   8  18
BRANCH  17  23
ATOM     23  C   UNL A   1      32.612  22.163  22.849  1.00  0.00     0.429 C 
ATOM     24  F   UNL A   1      32.595  22.311  21.500  1.00  0.00    -0.167 F 
ATOM     25  F   UNL A   1      32.443  20.843  23.089  1.00  0.00    -0.167 F 
ATOM     26  F   UNL A   1      31.524  22.798  23.341  1.00  0.00    -0.167 F 
ENDBRANCH  17  23
ENDBRANCH   4   7
ENDBRANCH   2   3
ENDBRANCH   1   2
BRANCH   1  27
ATOM     27  C   UNL A   1      37.430  23.031  25.349  1.00  0.00     0.023 C 
BRANCH  27  28
ATOM     28  C   UNL A   1      38.324  24.009  26.108  1.00  0.00     0.116 C 
BRANCH  28  29
ATOM     29  N   UNL A   1      39.736  23.651  26.121  1.00  0.00    -0.352 N 
ATOM     30  C   UNL A   1      40.774  24.303  26.748  1.00  0.00     0.251 C 
ATOM     31  H   UNL A   1      39.979  22.841  25.616  1.00  0.00     0.163 HD
ATOM     32  O   UNL A   1      41.930  23.917  26.610  1.00  0.00    -0.269 OA
BRANCH  30  33
ATOM     33  C   UNL A   1      40.480  25.513  27.542  1.00  0.00     0.039 A 
ATOM     34  C   UNL A   1      41.217  26.681  27.347  1.00  0.00     0.014 A 
ATOM     35  C   UNL A   1      39.513  25.446  28.549  1.00  0.00     0.014 A 
ATOM     36  C   UNL A   1      41.124  27.709  28.275  1.00  0.00     0.010 A 
ATOM     37  C   UNL A   1      39.360  26.517  29.432  1.00  0.00     0.010 A 
ATOM     38  C   UNL A   1      40.209  27.632  29.338  1.00  0.00    -0.014 A 
BRANCH  38  39
ATOM     39  C   UNL A   1      40.191  28.718  30.352  1.00  0.00     0.031 A 
ATOM     40  C   UNL A   1      39.162  29.815  30.289  1.00  0.00     0.074 A 
ATOM     41  C   UNL A   1      41.054  28.662  31.384  1.00  0.00     0.049 A 
ATOM     42  N   UNL A   1      38.954  30.800  31.129  1.00  0.00    -0.248 NA
ATOM     43  C   UNL A   1      38.251  29.814  29.134  1.00  0.00     0.031 C 
ATOM     44  C   UNL A   1      42.094  27.645  31.560  1.00  0.00     0.029 A 
ATOM     45  N   UNL A   1      41.170  29.453  32.497  1.00  0.00    -0.354 N 
ATOM     46  C   UNL A   1      37.908  31.542  30.595  1.00  0.00     0.074 A 
ATOM     47  C   UNL A   1      37.539  30.912  29.345  1.00  0.00     0.031 C 
ATOM     48  C   UNL A   1      42.698  27.836  32.741  1.00  0.00     0.029 A 
ATOM     49  C   UNL A   1      42.127  29.017  33.380  1.00  0.00     0.049 A 
ATOM     50  H   UNL A   1      40.622  30.258  32.648  1.00  0.00     0.167 HD
ATOM     51  C   UNL A   1      37.301  32.642  31.104  1.00  0.00     0.037 A 
ATOM     52  C   UNL A   1      42.502  29.511  34.573  1.00  0.00     0.037 A 
ATOM     53  C   UNL A   1      37.650  33.257  32.358  1.00  0.00     0.049 A 
ATOM     54  C   UNL A   1      41.821  30.736  35.108  1.00  0.00     0.074 A 
ATOM     55  C   UNL A   1      37.086  34.367  32.964  1.00  0.00     0.029 A 
ATOM     56  N   UNL A   1      38.654  32.810  33.203  1.00  0.00    -0.354 N 
ATOM     57  N   UNL A   1      40.829  31.422  34.592  1.00  0.00    -0.248 NA
ATOM     58  C   UNL A   1      42.316  31.258  36.388  1.00  0.00     0.031 C 
ATOM     59  C   UNL A   1      37.768  34.608  34.162  1.00  0.00     0.029 A 
ATOM     60  C   UNL A   1      38.732  33.626  34.320  1.00  0.00     0.049 A 
ATOM     61  H   UNL A   1      39.227  32.027  33.035  1.00  0.00     0.167 HD
ATOM     62  C   UNL A   1      40.573  32.447  35.490  1.00  0.00     0.074 A 
ATOM     63  C   UNL A   1      41.497  32.280  36.594  1.00  0.00     0.031 C 
ATOM     64  C   UNL A   1      39.658  33.444  35.407  1.00  0.00     0.037 A 
BRANCH  51  65
ATOM     65  C   UNL A   1      36.200  33.260  30.291  1.00  0.00     0.057 A 
ATOM     66  C   UNL A   1      34.857  33.030  30.616  1.00  0.00     0.134 A 
ATOM     67  C   UNL A   1      36.467  34.060  29.173  1.00  0.00     0.134 A 
ATOM     68  F   UNL A   1      34.533  32.269  31.672  1.00  0.00    -0.206 F 
ATOM     69  C   UNL A   1      33.819  33.572  29.857  1.00  0.00     0.040 A 
ATOM     70  C   UNL A   1      35.436  34.626  28.418  1.00  0.00     0.040 A 
ATOM     71  F   UNL A   1      37.731  34.332  28.817  1.00  0.00    -0.206 F 
ATOM     72  C   UNL A   1      34.107  34.378  28.756  1.00  0.00     0.006 A 
ENDBRANCH  51  65
BRANCH  52  73
ATOM     73  C   UNL A   1      43.573  28.839  35.348  1.00  0.00     0.057 A 
ATOM     74  C   UNL A   1      44.924  29.135  35.132  1.00  0.00     0.134 A 
ATOM     75  C   UNL A   1      43.267  27.885  36.325  1.00  0.00     0.134 A 
ATOM     76  F   UNL A   1      45.280  30.037  34.205  1.00  0.00    -0.206 F 
ATOM     77  C   UNL A   1      45.934  28.499  35.853  1.00  0.00     0.040 A 
ATOM     78  C   UNL A   1      44.266  27.259  37.071  1.00  0.00     0.040 A 
ATOM     79  F   UNL A   1      41.989  27.574  36.587  1.00  0.00    -0.206 F 
ATOM     80  C   UNL A   1      45.605  27.562  36.831  1.00  0.00     0.006 A 
ENDBRANCH  52  73
BRANCH  64  81
ATOM     81  C   UNL A   1      39.605  34.406  36.555  1.00  0.00     0.057 A 
ATOM     82  C   UNL A   1      38.864  34.106  37.703  1.00  0.00     0.134 A 
ATOM     83  C   UNL A   1      40.289  35.628  36.523  1.00  0.00     0.134 A 
ATOM     84  F   UNL A   1      38.182  32.954  37.794  1.00  0.00    -0.206 F 
ATOM     85  C   UNL A   1      38.810  34.985  38.785  1.00  0.00     0.040 A 
ATOM     86  C   UNL A   1      40.262  36.505  37.608  1.00  0.00     0.040 A 
ATOM     87  F   UNL A   1      41.031  35.964  35.457  1.00  0.00    -0.206 F 
ATOM     88  C   UNL A   1      39.518  36.185  38.742  1.00  0.00     0.006 A 
ENDBRANCH  64  81
ENDBRANCH  38  39
ENDBRANCH  30  33
ENDBRANCH  28  29
ENDBRANCH  27  28
ENDBRANCH   1  27
TORSDOF 15
ENDMDL
