MODEL 1
REMARK VINA RESULT:     -10.7      0.000      0.000
REMARK SMILES CC(C)OCCS(=O)(=O)N1CCC[C@H](C(=O)NCCCCNC(=O)c2ccc(-c3c4nc(c(-c5c(F)cccc5F)c5ccc([nH]5)c(-c5c(F)cccc5F)c5nc(c(-c6c(F)cccc6F)c6ccc3[nH]6)C=C5)C=C4)cc2)C1
REMARK SMILES IDX 18 1 17 2 15 3 16 4 14 6 10 7 11 8 79 9 12 10 13 11 7 12
REMARK SMILES IDX 8 13 9 14 6 15 5 16 4 17 2 18 1 19 3 20 19 21 20 22 21 23
REMARK SMILES IDX 22 24 23 25 24 27 25 28 26 29 78 30 27 31 77 32 28 33 29 34
REMARK SMILES IDX 30 35 71 36 31 37 76 38 70 39 72 40 32 41 75 42 69 43 68 44
REMARK SMILES IDX 33 46 59 47 42 48 58 49 43 50 46 51 57 52 73 53 44 54 45 55
REMARK SMILES IDX 56 57 74 58 47 59 34 60 35 61 40 62 36 63 37 64 39 65 41 66
REMARK SMILES IDX 38 67 60 68 61 69 66 70 62 71 63 72 65 73 67 74 64 75 48 76
REMARK SMILES IDX 49 77 54 78 50 79 51 80 53 81 55 82 52 83
REMARK H PARENT 17 5 22 26 72 45 46 56
REMARK Flexibility Score: inf
ROOT
ATOM      1  C   UNL A   1      31.795  29.411  27.246  1.00  0.00     0.116 C 
ENDROOT
BRANCH   1   2
ATOM      2  N   UNL A   1      33.122  28.910  27.518  1.00  0.00    -0.356 N 
ATOM      3  C   UNL A   1      33.996  28.493  26.547  1.00  0.00     0.224 C 
ATOM      4  O   UNL A   1      35.122  29.001  26.547  1.00  0.00    -0.275 OA
ATOM      5  H   UNL A   1      33.418  28.867  28.456  1.00  0.00     0.163 HD
BRANCH   3   6
ATOM      6  C   UNL A   1      33.657  27.381  25.536  1.00  0.00     0.093 C 
ATOM      7  N   UNL A   1      31.284  27.416  24.571  1.00  0.00    -0.201 NA
ATOM      8  C   UNL A   1      31.120  25.977  24.995  1.00  0.00     0.102 C 
ATOM      9  C   UNL A   1      32.746  27.740  24.348  1.00  0.00     0.115 C 
ATOM     10  C   UNL A   1      31.948  25.607  26.218  1.00  0.00     0.018 C 
ATOM     11  C   UNL A   1      33.412  25.991  26.113  1.00  0.00     0.016 C 
BRANCH   7  12
ATOM     12  S   UNL A   1      30.276  27.705  23.170  1.00  0.00     0.216 S 
ATOM     13  O   UNL A   1      28.940  27.240  23.499  1.00  0.00    -0.212 OA
ATOM     14  O   UNL A   1      30.975  27.120  22.048  1.00  0.00    -0.212 OA
BRANCH  12  15
ATOM     15  C   UNL A   1      30.192  29.482  22.895  1.00  0.00     0.182 C 
BRANCH  15  16
ATOM     16  C   UNL A   1      28.791  30.088  22.824  1.00  0.00     0.178 C 
BRANCH  16  17
ATOM     17  O   UNL A   1      28.436  30.793  21.632  1.00  0.00    -0.378 OA
BRANCH  17  18
ATOM     18  C   UNL A   1      27.992  32.140  21.747  1.00  0.00     0.112 C 
ATOM     19  C   UNL A   1      28.768  32.955  22.784  1.00  0.00     0.038 C 
ATOM     20  C   UNL A   1      27.869  32.723  20.349  1.00  0.00     0.038 C 
ENDBRANCH  17  18
ENDBRANCH  16  17
ENDBRANCH  15  16
ENDBRANCH  12  15
ENDBRANCH   7  12
ENDBRANCH   3   6
ENDBRANCH   1   2
BRANCH   1  21
ATOM     21  C   UNL A   1      31.672  30.555  26.246  1.00  0.00     0.023 C 
BRANCH  21  22
ATOM     22  C   UNL A   1      31.372  31.925  26.880  1.00  0.00     0.023 C 
BRANCH  22  23
ATOM     23  C   UNL A   1      32.383  33.056  26.651  1.00  0.00     0.116 C 
BRANCH  23  24
ATOM     24  N   UNL A   1      32.298  34.164  27.587  1.00  0.00    -0.352 N 
ATOM     25  C   UNL A   1      33.204  34.517  28.567  1.00  0.00     0.251 C 
ATOM     26  H   UNL A   1      31.498  34.733  27.513  1.00  0.00     0.163 HD
ATOM     27  O   UNL A   1      33.015  35.501  29.274  1.00  0.00    -0.269 OA
BRANCH  25  28
ATOM     28  C   UNL A   1      34.371  33.642  28.815  1.00  0.00     0.039 A 
ATOM     29  C   UNL A   1      35.645  34.210  28.751  1.00  0.00     0.014 A 
ATOM     30  C   UNL A   1      34.207  32.312  29.210  1.00  0.00     0.014 A 
ATOM     31  C   UNL A   1      36.749  33.477  29.190  1.00  0.00     0.010 A 
ATOM     32  C   UNL A   1      35.301  31.605  29.709  1.00  0.00     0.010 A 
ATOM     33  C   UNL A   1      36.577  32.191  29.731  1.00  0.00    -0.014 A 
BRANCH  33  34
ATOM     34  C   UNL A   1      37.720  31.482  30.368  1.00  0.00     0.031 A 
ATOM     35  C   UNL A   1      38.093  31.759  31.795  1.00  0.00     0.074 A 
ATOM     36  C   UNL A   1      38.451  30.615  29.637  1.00  0.00     0.049 A 
ATOM     37  N   UNL A   1      39.063  31.246  32.510  1.00  0.00    -0.248 NA
ATOM     38  C   UNL A   1      37.285  32.758  32.509  1.00  0.00     0.031 C 
ATOM     39  C   UNL A   1      38.222  30.295  28.226  1.00  0.00     0.029 A 
ATOM     40  N   UNL A   1      39.536  29.845  29.977  1.00  0.00    -0.354 N 
ATOM     41  C   UNL A   1      38.982  31.858  33.754  1.00  0.00     0.074 A 
ATOM     42  C   UNL A   1      37.907  32.824  33.677  1.00  0.00     0.031 C 
ATOM     43  C   UNL A   1      39.115  29.373  27.833  1.00  0.00     0.029 A 
ATOM     44  C   UNL A   1      40.006  29.066  28.947  1.00  0.00     0.049 A 
ATOM     45  H   UNL A   1      39.939  29.850  30.875  1.00  0.00     0.167 HD
ATOM     46  C   UNL A   1      39.720  31.621  34.864  1.00  0.00     0.037 A 
ATOM     47  C   UNL A   1      41.041  28.204  28.902  1.00  0.00     0.037 A 
ATOM     48  C   UNL A   1      40.787  30.655  34.938  1.00  0.00     0.049 A 
ATOM     49  C   UNL A   1      41.862  27.978  30.142  1.00  0.00     0.074 A 
ATOM     50  C   UNL A   1      41.562  30.310  36.031  1.00  0.00     0.029 A 
ATOM     51  N   UNL A   1      41.234  29.888  33.872  1.00  0.00    -0.354 N 
ATOM     52  N   UNL A   1      41.725  28.511  31.332  1.00  0.00    -0.248 NA
ATOM     53  C   UNL A   1      42.978  27.027  30.035  1.00  0.00     0.031 C 
ATOM     54  C   UNL A   1      42.516  29.377  35.613  1.00  0.00     0.029 A 
ATOM     55  C   UNL A   1      42.294  29.092  34.275  1.00  0.00     0.049 A 
ATOM     56  H   UNL A   1      40.855  29.908  32.964  1.00  0.00     0.167 HD
ATOM     57  C   UNL A   1      42.713  27.937  32.122  1.00  0.00     0.074 A 
ATOM     58  C   UNL A   1      43.432  27.004  31.280  1.00  0.00     0.031 C 
ATOM     59  C   UNL A   1      42.998  28.161  33.428  1.00  0.00     0.037 A 
BRANCH  46  60
ATOM     60  C   UNL A   1      39.399  32.425  36.091  1.00  0.00     0.057 A 
ATOM     61  C   UNL A   1      39.991  33.672  36.335  1.00  0.00     0.134 A 
ATOM     62  C   UNL A   1      38.464  31.964  37.027  1.00  0.00     0.134 A 
ATOM     63  F   UNL A   1      40.902  34.170  35.485  1.00  0.00    -0.206 F 
ATOM     64  C   UNL A   1      39.691  34.414  37.478  1.00  0.00     0.040 A 
ATOM     65  C   UNL A   1      38.132  32.711  38.159  1.00  0.00     0.040 A 
ATOM     66  F   UNL A   1      37.852  30.783  36.854  1.00  0.00    -0.206 F 
ATOM     67  C   UNL A   1      38.753  33.936  38.391  1.00  0.00     0.006 A 
ENDBRANCH  46  60
BRANCH  47  68
ATOM     68  C   UNL A   1      41.354  27.473  27.644  1.00  0.00     0.057 A 
ATOM     69  C   UNL A   1      40.847  26.190  27.404  1.00  0.00     0.134 A 
ATOM     70  C   UNL A   1      42.184  28.030  26.662  1.00  0.00     0.134 A 
ATOM     71  F   UNL A   1      40.063  25.594  28.315  1.00  0.00    -0.206 F 
ATOM     72  C   UNL A   1      41.173  25.477  26.249  1.00  0.00     0.040 A 
ATOM     73  C   UNL A   1      42.494  27.340  25.489  1.00  0.00     0.040 A 
ATOM     74  F   UNL A   1      42.697  29.258  26.824  1.00  0.00    -0.206 F 
ATOM     75  C   UNL A   1      41.996  26.055  25.284  1.00  0.00     0.006 A 
ENDBRANCH  47  68
BRANCH  59  76
ATOM     76  C   UNL A   1      44.110  27.358  34.041  1.00  0.00     0.057 A 
ATOM     77  C   UNL A   1      43.890  26.101  34.619  1.00  0.00     0.134 A 
ATOM     78  C   UNL A   1      45.428  27.836  34.018  1.00  0.00     0.134 A 
ATOM     79  F   UNL A   1      42.651  25.590  34.686  1.00  0.00    -0.206 F 
ATOM     80  C   UNL A   1      44.935  25.360  35.174  1.00  0.00     0.040 A 
ATOM     81  C   UNL A   1      46.485  27.090  34.542  1.00  0.00     0.040 A 
ATOM     82  F   UNL A   1      45.712  29.027  33.472  1.00  0.00    -0.206 F 
ATOM     83  C   UNL A   1      46.238  25.852  35.129  1.00  0.00     0.006 A 
ENDBRANCH  59  76
ENDBRANCH  33  34
ENDBRANCH  25  28
ENDBRANCH  23  24
ENDBRANCH  22  23
ENDBRANCH  21  22
ENDBRANCH   1  21
TORSDOF 16
ENDMDL
MODEL 2
REMARK VINA RESULT:     -10.5      5.075     10.003
REMARK SMILES CC(C)OCCS(=O)(=O)N1CCC[C@H](C(=O)NCCCCNC(=O)c2ccc(-c3c4nc(c(-c5c(F)cccc5F)c5ccc([nH]5)c(-c5c(F)cccc5F)c5nc(c(-c6c(F)cccc6F)c6ccc3[nH]6)C=C5)C=C4)cc2)C1
REMARK SMILES IDX 18 1 17 2 15 3 16 4 14 6 10 7 11 8 79 9 12 10 13 11 7 12
REMARK SMILES IDX 8 13 9 14 6 15 5 16 4 17 2 18 1 19 3 20 19 21 20 22 21 23
REMARK SMILES IDX 22 24 23 25 24 27 25 28 26 29 78 30 27 31 77 32 28 33 29 34
REMARK SMILES IDX 30 35 71 36 31 37 76 38 70 39 72 40 32 41 75 42 69 43 68 44
REMARK SMILES IDX 33 46 59 47 42 48 58 49 43 50 46 51 57 52 73 53 44 54 45 55
REMARK SMILES IDX 56 57 74 58 47 59 34 60 35 61 40 62 36 63 37 64 39 65 41 66
REMARK SMILES IDX 38 67 60 68 61 69 66 70 62 71 63 72 65 73 67 74 64 75 48 76
REMARK SMILES IDX 49 77 54 78 50 79 51 80 53 81 55 82 52 83
REMARK H PARENT 17 5 22 26 72 45 46 56
REMARK Flexibility Score: inf
ROOT
ATOM      1  C   UNL A   1      35.301  21.012  24.643  1.00  0.00     0.116 C 
ENDROOT
BRANCH   1   2
ATOM      2  N   UNL A   1      34.271  20.288  25.351  1.00  0.00    -0.356 N 
ATOM      3  C   UNL A   1      32.939  20.610  25.301  1.00  0.00     0.224 C 
ATOM      4  O   UNL A   1      32.154  19.708  24.989  1.00  0.00    -0.275 OA
ATOM      5  H   UNL A   1      34.541  19.518  25.902  1.00  0.00     0.163 HD
BRANCH   3   6
ATOM      6  C   UNL A   1      32.396  21.998  25.691  1.00  0.00     0.093 C 
ATOM      7  N   UNL A   1      33.338  23.989  24.383  1.00  0.00    -0.201 NA
ATOM      8  C   UNL A   1      33.697  24.645  25.694  1.00  0.00     0.102 C 
ATOM      9  C   UNL A   1      32.182  23.029  24.569  1.00  0.00     0.115 C 
ATOM     10  C   UNL A   1      33.993  23.651  26.808  1.00  0.00     0.018 C 
ATOM     11  C   UNL A   1      32.922  22.591  26.993  1.00  0.00     0.016 C 
BRANCH   7  12
ATOM     12  S   UNL A   1      33.033  25.239  23.196  1.00  0.00     0.216 S 
ATOM     13  O   UNL A   1      31.623  25.173  22.855  1.00  0.00    -0.212 OA
ATOM     14  O   UNL A   1      34.024  25.056  22.160  1.00  0.00    -0.212 OA
BRANCH  12  15
ATOM     15  C   UNL A   1      33.341  26.835  23.971  1.00  0.00     0.182 C 
BRANCH  15  16
ATOM     16  C   UNL A   1      32.205  27.853  23.892  1.00  0.00     0.178 C 
BRANCH  16  17
ATOM     17  O   UNL A   1      31.063  27.633  24.723  1.00  0.00    -0.378 OA
BRANCH  17  18
ATOM     18  C   UNL A   1      31.254  27.015  25.990  1.00  0.00     0.112 C 
ATOM     19  C   UNL A   1      31.391  28.010  27.144  1.00  0.00     0.038 C 
ATOM     20  C   UNL A   1      30.225  25.907  26.140  1.00  0.00     0.038 C 
ENDBRANCH  17  18
ENDBRANCH  16  17
ENDBRANCH  15  16
ENDBRANCH  12  15
ENDBRANCH   7  12
ENDBRANCH   3   6
ENDBRANCH   1   2
BRANCH   1  21
ATOM     21  C   UNL A   1      36.585  21.322  25.404  1.00  0.00     0.023 C 
BRANCH  21  22
ATOM     22  C   UNL A   1      37.810  20.512  24.942  1.00  0.00     0.023 C 
BRANCH  22  23
ATOM     23  C   UNL A   1      39.075  20.573  25.806  1.00  0.00     0.116 C 
BRANCH  23  24
ATOM     24  N   UNL A   1      39.922  19.393  25.752  1.00  0.00    -0.352 N 
ATOM     25  C   UNL A   1      41.261  19.296  26.075  1.00  0.00     0.251 C 
ATOM     26  H   UNL A   1      39.489  18.563  25.448  1.00  0.00     0.163 HD
ATOM     27  O   UNL A   1      41.848  18.222  26.007  1.00  0.00    -0.269 OA
BRANCH  25  28
ATOM     28  C   UNL A   1      42.006  20.525  26.427  1.00  0.00     0.039 A 
ATOM     29  C   UNL A   1      42.373  21.391  25.396  1.00  0.00     0.014 A 
ATOM     30  C   UNL A   1      42.242  20.870  27.760  1.00  0.00     0.014 A 
ATOM     31  C   UNL A   1      42.878  22.655  25.705  1.00  0.00     0.010 A 
ATOM     32  C   UNL A   1      42.684  22.157  28.068  1.00  0.00     0.010 A 
ATOM     33  C   UNL A   1      42.979  23.072  27.043  1.00  0.00    -0.014 A 
BRANCH  33  34
ATOM     34  C   UNL A   1      43.340  24.477  27.370  1.00  0.00     0.031 A 
ATOM     35  C   UNL A   1      44.764  24.943  27.281  1.00  0.00     0.074 A 
ATOM     36  C   UNL A   1      42.379  25.326  27.791  1.00  0.00     0.049 A 
ATOM     37  N   UNL A   1      45.264  26.125  27.539  1.00  0.00    -0.248 NA
ATOM     38  C   UNL A   1      45.763  23.945  26.870  1.00  0.00     0.031 C 
ATOM     39  C   UNL A   1      40.966  24.985  27.966  1.00  0.00     0.029 A 
ATOM     40  N   UNL A   1      42.445  26.650  28.151  1.00  0.00    -0.354 N 
ATOM     41  C   UNL A   1      46.632  26.014  27.322  1.00  0.00     0.074 A 
ATOM     42  C   UNL A   1      46.890  24.634  26.970  1.00  0.00     0.031 C 
ATOM     43  C   UNL A   1      40.295  26.076  28.366  1.00  0.00     0.029 A 
ATOM     44  C   UNL A   1      41.232  27.184  28.517  1.00  0.00     0.049 A 
ATOM     45  H   UNL A   1      43.282  27.169  28.146  1.00  0.00     0.167 HD
ATOM     46  C   UNL A   1      47.581  26.977  27.386  1.00  0.00     0.037 A 
ATOM     47  C   UNL A   1      40.911  28.425  28.931  1.00  0.00     0.037 A 
ATOM     48  C   UNL A   1      47.319  28.351  27.733  1.00  0.00     0.049 A 
ATOM     49  C   UNL A   1      41.989  29.471  29.021  1.00  0.00     0.074 A 
ATOM     50  C   UNL A   1      48.207  29.412  27.781  1.00  0.00     0.029 A 
ATOM     51  N   UNL A   1      46.079  28.851  28.100  1.00  0.00    -0.354 N 
ATOM     52  N   UNL A   1      43.266  29.368  28.740  1.00  0.00    -0.248 NA
ATOM     53  C   UNL A   1      41.581  30.807  29.479  1.00  0.00     0.031 C 
ATOM     54  C   UNL A   1      47.517  30.541  28.233  1.00  0.00     0.029 A 
ATOM     55  C   UNL A   1      46.185  30.200  28.404  1.00  0.00     0.049 A 
ATOM     56  H   UNL A   1      45.248  28.327  28.140  1.00  0.00     0.167 HD
ATOM     57  C   UNL A   1      43.806  30.629  28.954  1.00  0.00     0.074 A 
ATOM     58  C   UNL A   1      42.715  31.485  29.375  1.00  0.00     0.031 C 
ATOM     59  C   UNL A   1      45.089  31.043  28.815  1.00  0.00     0.037 A 
BRANCH  46  60
ATOM     60  C   UNL A   1      48.995  26.575  27.079  1.00  0.00     0.057 A 
ATOM     61  C   UNL A   1      49.888  26.180  28.085  1.00  0.00     0.134 A 
ATOM     62  C   UNL A   1      49.464  26.552  25.759  1.00  0.00     0.134 A 
ATOM     63  F   UNL A   1      49.508  26.187  29.372  1.00  0.00    -0.206 F 
ATOM     64  C   UNL A   1      51.202  25.810  27.794  1.00  0.00     0.040 A 
ATOM     65  C   UNL A   1      50.766  26.154  25.452  1.00  0.00     0.040 A 
ATOM     66  F   UNL A   1      48.661  26.910  24.745  1.00  0.00    -0.206 F 
ATOM     67  C   UNL A   1      51.642  25.790  26.472  1.00  0.00     0.006 A 
ENDBRANCH  46  60
BRANCH  47  68
ATOM     68  C   UNL A   1      39.504  28.759  29.280  1.00  0.00     0.057 A 
ATOM     69  C   UNL A   1      39.018  28.587  30.582  1.00  0.00     0.134 A 
ATOM     70  C   UNL A   1      38.605  29.235  28.317  1.00  0.00     0.134 A 
ATOM     71  F   UNL A   1      39.824  28.116  31.545  1.00  0.00    -0.206 F 
ATOM     72  C   UNL A   1      37.687  28.853  30.909  1.00  0.00     0.040 A 
ATOM     73  C   UNL A   1      37.279  29.532  28.637  1.00  0.00     0.040 A 
ATOM     74  F   UNL A   1      39.005  29.429  27.052  1.00  0.00    -0.206 F 
ATOM     75  C   UNL A   1      36.814  29.332  29.935  1.00  0.00     0.006 A 
ENDBRANCH  47  68
BRANCH  59  76
ATOM     76  C   UNL A   1      45.381  32.493  29.080  1.00  0.00     0.057 A 
ATOM     77  C   UNL A   1      45.814  32.949  30.332  1.00  0.00     0.134 A 
ATOM     78  C   UNL A   1      45.261  33.440  28.054  1.00  0.00     0.134 A 
ATOM     79  F   UNL A   1      45.937  32.097  31.361  1.00  0.00    -0.206 F 
ATOM     80  C   UNL A   1      46.092  34.298  30.561  1.00  0.00     0.040 A 
ATOM     81  C   UNL A   1      45.567  34.786  28.263  1.00  0.00     0.040 A 
ATOM     82  F   UNL A   1      44.861  33.071  26.828  1.00  0.00    -0.206 F 
ATOM     83  C   UNL A   1      45.976  35.218  29.522  1.00  0.00     0.006 A 
ENDBRANCH  59  76
ENDBRANCH  33  34
ENDBRANCH  25  28
ENDBRANCH  23  24
ENDBRANCH  22  23
ENDBRANCH  21  22
ENDBRANCH   1  21
TORSDOF 16
ENDMDL
MODEL 3
REMARK VINA RESULT:     -10.4      4.322      8.891
REMARK SMILES CC(C)OCCS(=O)(=O)N1CCC[C@H](C(=O)NCCCCNC(=O)c2ccc(-c3c4nc(c(-c5c(F)cccc5F)c5ccc([nH]5)c(-c5c(F)cccc5F)c5nc(c(-c6c(F)cccc6F)c6ccc3[nH]6)C=C5)C=C4)cc2)C1
REMARK SMILES IDX 18 1 17 2 15 3 16 4 14 6 10 7 11 8 79 9 12 10 13 11 7 12
REMARK SMILES IDX 8 13 9 14 6 15 5 16 4 17 2 18 1 19 3 20 19 21 20 22 21 23
REMARK SMILES IDX 22 24 23 25 24 27 25 28 26 29 78 30 27 31 77 32 28 33 29 34
REMARK SMILES IDX 30 35 71 36 31 37 76 38 70 39 72 40 32 41 75 42 69 43 68 44
REMARK SMILES IDX 33 46 59 47 42 48 58 49 43 50 46 51 57 52 73 53 44 54 45 55
REMARK SMILES IDX 56 57 74 58 47 59 34 60 35 61 40 62 36 63 37 64 39 65 41 66
REMARK SMILES IDX 38 67 60 68 61 69 66 70 62 71 63 72 65 73 67 74 64 75 48 76
REMARK SMILES IDX 49 77 54 78 50 79 51 80 53 81 55 82 52 83
REMARK H PARENT 17 5 22 26 72 45 46 56
REMARK Flexibility Score: inf
ROOT
ATOM      1  C   UNL A   1      36.642  23.384  25.119  1.00  0.00     0.116 C 
ENDROOT
BRANCH   1   2
ATOM      2  N   UNL A   1      35.345  23.359  25.755  1.00  0.00    -0.356 N 
ATOM      3  C   UNL A   1      34.197  22.938  25.134  1.00  0.00     0.224 C 
ATOM      4  O   UNL A   1      33.538  22.062  25.705  1.00  0.00    -0.275 OA
ATOM      5  H   UNL A   1      35.281  23.661  26.690  1.00  0.00     0.163 HD
BRANCH   3   6
ATOM      6  C   UNL A   1      33.673  23.562  23.827  1.00  0.00     0.093 C 
ATOM      7  N   UNL A   1      32.069  25.543  24.085  1.00  0.00    -0.201 NA
ATOM      8  C   UNL A   1      31.082  24.824  23.198  1.00  0.00     0.102 C 
ATOM      9  C   UNL A   1      33.482  25.089  23.784  1.00  0.00     0.115 C 
ATOM     10  C   UNL A   1      31.190  23.307  23.276  1.00  0.00     0.018 C 
ATOM     11  C   UNL A   1      32.599  22.777  23.083  1.00  0.00     0.016 C 
BRANCH   7  12
ATOM     12  S   UNL A   1      31.830  27.267  23.905  1.00  0.00     0.216 S 
ATOM     13  O   UNL A   1      33.035  27.808  23.301  1.00  0.00    -0.212 OA
ATOM     14  O   UNL A   1      31.407  27.749  25.200  1.00  0.00    -0.212 OA
BRANCH  12  15
ATOM     15  C   UNL A   1      30.470  27.528  22.755  1.00  0.00     0.182 C 
BRANCH  15  16
ATOM     16  C   UNL A   1      29.707  28.844  22.899  1.00  0.00     0.178 C 
BRANCH  16  17
ATOM     17  O   UNL A   1      29.161  29.425  21.712  1.00  0.00    -0.378 OA
BRANCH  17  18
ATOM     18  C   UNL A   1      28.020  30.266  21.831  1.00  0.00     0.112 C 
ATOM     19  C   UNL A   1      27.724  30.697  23.269  1.00  0.00     0.038 C 
ATOM     20  C   UNL A   1      28.121  31.359  20.780  1.00  0.00     0.038 C 
ENDBRANCH  17  18
ENDBRANCH  16  17
ENDBRANCH  15  16
ENDBRANCH  12  15
ENDBRANCH   7  12
ENDBRANCH   3   6
ENDBRANCH   1   2
BRANCH   1  21
ATOM     21  C   UNL A   1      36.992  22.220  24.199  1.00  0.00     0.023 C 
BRANCH  21  22
ATOM     22  C   UNL A   1      37.437  20.942  24.931  1.00  0.00     0.023 C 
BRANCH  22  23
ATOM     23  C   UNL A   1      38.735  20.999  25.746  1.00  0.00     0.116 C 
BRANCH  23  24
ATOM     24  N   UNL A   1      39.633  19.871  25.566  1.00  0.00    -0.352 N 
ATOM     25  C   UNL A   1      40.948  19.761  25.970  1.00  0.00     0.251 C 
ATOM     26  H   UNL A   1      39.257  19.090  25.098  1.00  0.00     0.163 HD
ATOM     27  O   UNL A   1      41.583  18.731  25.773  1.00  0.00    -0.269 OA
BRANCH  25  28
ATOM     28  C   UNL A   1      41.614  20.936  26.574  1.00  0.00     0.039 A 
ATOM     29  C   UNL A   1      42.167  21.891  25.719  1.00  0.00     0.014 A 
ATOM     30  C   UNL A   1      41.597  21.146  27.955  1.00  0.00     0.014 A 
ATOM     31  C   UNL A   1      42.605  23.110  26.239  1.00  0.00     0.010 A 
ATOM     32  C   UNL A   1      41.974  22.389  28.464  1.00  0.00     0.010 A 
ATOM     33  C   UNL A   1      42.455  23.393  27.607  1.00  0.00    -0.014 A 
BRANCH  33  34
ATOM     34  C   UNL A   1      42.748  24.753  28.133  1.00  0.00     0.031 A 
ATOM     35  C   UNL A   1      44.145  25.137  28.529  1.00  0.00     0.074 A 
ATOM     36  C   UNL A   1      41.738  25.633  28.293  1.00  0.00     0.049 A 
ATOM     37  N   UNL A   1      44.583  26.271  29.016  1.00  0.00    -0.248 NA
ATOM     38  C   UNL A   1      45.182  24.107  28.378  1.00  0.00     0.031 C 
ATOM     39  C   UNL A   1      40.329  25.368  27.992  1.00  0.00     0.029 A 
ATOM     40  N   UNL A   1      41.737  26.928  28.751  1.00  0.00    -0.354 N 
ATOM     41  C   UNL A   1      45.943  26.090  29.229  1.00  0.00     0.074 A 
ATOM     42  C   UNL A   1      46.246  24.720  28.876  1.00  0.00     0.031 C 
ATOM     43  C   UNL A   1      39.609  26.473  28.240  1.00  0.00     0.029 A 
ATOM     44  C   UNL A   1      40.493  27.512  28.757  1.00  0.00     0.049 A 
ATOM     45  H   UNL A   1      42.552  27.395  29.046  1.00  0.00     0.167 HD
ATOM     46  C   UNL A   1      46.861  26.990  29.658  1.00  0.00     0.037 A 
ATOM     47  C   UNL A   1      40.106  28.745  29.140  1.00  0.00     0.037 A 
ATOM     48  C   UNL A   1      46.556  28.355  30.004  1.00  0.00     0.049 A 
ATOM     49  C   UNL A   1      41.140  29.717  29.638  1.00  0.00     0.074 A 
ATOM     50  C   UNL A   1      47.424  29.356  30.405  1.00  0.00     0.029 A 
ATOM     51  N   UNL A   1      45.284  28.907  30.000  1.00  0.00    -0.354 N 
ATOM     52  N   UNL A   1      42.435  29.554  29.764  1.00  0.00    -0.248 NA
ATOM     53  C   UNL A   1      40.660  31.047  30.042  1.00  0.00     0.031 C 
ATOM     54  C   UNL A   1      46.671  30.497  30.699  1.00  0.00     0.029 A 
ATOM     55  C   UNL A   1      45.340  30.227  30.420  1.00  0.00     0.049 A 
ATOM     56  H   UNL A   1      44.463  28.432  29.740  1.00  0.00     0.167 HD
ATOM     57  C   UNL A   1      42.928  30.766  30.228  1.00  0.00     0.074 A 
ATOM     58  C   UNL A   1      41.795  31.660  30.347  1.00  0.00     0.031 C 
ATOM     59  C   UNL A   1      44.205  31.109  30.528  1.00  0.00     0.037 A 
BRANCH  46  60
ATOM     60  C   UNL A   1      48.282  26.522  29.780  1.00  0.00     0.057 A 
ATOM     61  C   UNL A   1      49.216  26.711  28.751  1.00  0.00     0.134 A 
ATOM     62  C   UNL A   1      48.735  25.903  30.952  1.00  0.00     0.134 A 
ATOM     63  F   UNL A   1      48.847  27.288  27.597  1.00  0.00    -0.206 F 
ATOM     64  C   UNL A   1      50.535  26.272  28.869  1.00  0.00     0.040 A 
ATOM     65  C   UNL A   1      50.060  25.487  31.095  1.00  0.00     0.040 A 
ATOM     66  F   UNL A   1      47.899  25.698  31.981  1.00  0.00    -0.206 F 
ATOM     67  C   UNL A   1      50.962  25.663  30.048  1.00  0.00     0.006 A 
ENDBRANCH  46  60
BRANCH  47  68
ATOM     68  C   UNL A   1      38.674  29.141  29.054  1.00  0.00     0.057 A 
ATOM     69  C   UNL A   1      38.115  29.585  27.849  1.00  0.00     0.134 A 
ATOM     70  C   UNL A   1      37.837  29.107  30.177  1.00  0.00     0.134 A 
ATOM     71  F   UNL A   1      38.869  29.660  26.743  1.00  0.00    -0.206 F 
ATOM     72  C   UNL A   1      36.785  30.004  27.769  1.00  0.00     0.040 A 
ATOM     73  C   UNL A   1      36.498  29.495  30.103  1.00  0.00     0.040 A 
ATOM     74  F   UNL A   1      38.306  28.685  31.360  1.00  0.00    -0.206 F 
ATOM     75  C   UNL A   1      35.971  29.955  28.898  1.00  0.00     0.006 A 
ENDBRANCH  47  68
BRANCH  59  76
ATOM     76  C   UNL A   1      44.454  32.522  30.976  1.00  0.00     0.057 A 
ATOM     77  C   UNL A   1      44.456  32.885  32.329  1.00  0.00     0.134 A 
ATOM     78  C   UNL A   1      44.732  33.526  30.039  1.00  0.00     0.134 A 
ATOM     79  F   UNL A   1      44.183  31.975  33.278  1.00  0.00    -0.206 F 
ATOM     80  C   UNL A   1      44.700  34.199  32.732  1.00  0.00     0.040 A 
ATOM     81  C   UNL A   1      45.009  34.836  30.431  1.00  0.00     0.040 A 
ATOM     82  F   UNL A   1      44.756  33.246  28.727  1.00  0.00    -0.206 F 
ATOM     83  C   UNL A   1      44.985  35.177  31.781  1.00  0.00     0.006 A 
ENDBRANCH  59  76
ENDBRANCH  33  34
ENDBRANCH  25  28
ENDBRANCH  23  24
ENDBRANCH  22  23
ENDBRANCH  21  22
ENDBRANCH   1  21
TORSDOF 16
ENDMDL
