MODEL 1
REMARK VINA RESULT:     -11.7      0.000      0.000
REMARK SMILES O=C(Cc1cccn1-c1ccc2c(c1)OCCO2)NCCCCNC(=O)c1ccc(-c2c3nc(c(-c4c(F)cccc4F)c4ccc([nH]4)c(-c4c(F)cccc4F)c4nc(c(-c5c(F)cccc5F)c5ccc2[nH]5)C=C4)C=C3)cc1
REMARK SMILES IDX 21 1 20 2 19 3 1 4 2 5 3 7 4 8 5 9 8 10 6 11 7 12 9 13 10 14
REMARK SMILES IDX 14 15 11 16 13 17 12 18 15 19 18 20 16 21 17 22 22 23 23 24
REMARK SMILES IDX 24 25 25 26 26 28 27 29 28 30 80 31 29 32 79 33 30 34 31 35
REMARK SMILES IDX 32 36 73 37 33 38 78 39 72 40 74 41 34 42 77 43 71 44 70 45
REMARK SMILES IDX 35 47 61 48 44 49 60 50 45 51 48 52 59 53 75 54 46 55 47 56
REMARK SMILES IDX 58 58 76 59 49 60 36 61 37 62 42 63 38 64 39 65 41 66 43 67
REMARK SMILES IDX 40 68 62 69 63 70 68 71 64 72 65 73 67 74 69 75 66 76 50 77
REMARK SMILES IDX 51 78 56 79 52 80 53 81 55 82 57 83 54 84
REMARK H PARENT 19 6 24 27 74 46 48 57
REMARK Flexibility Score: inf
ROOT
ATOM      1  C   UNL A   1      36.613  20.658  24.661  1.00  0.00     0.023 C 
ENDROOT
BRANCH   1   2
ATOM      2  C   UNL A   1      37.091  22.057  24.269  1.00  0.00     0.116 C 
BRANCH   2   3
ATOM      3  N   UNL A   1      35.994  22.899  23.841  1.00  0.00    -0.356 N 
ATOM      4  O   UNL A   1      36.045  24.312  25.644  1.00  0.00    -0.275 OA
ATOM      5  C   UNL A   1      35.547  23.976  24.574  1.00  0.00     0.225 C 
ATOM      6  H   UNL A   1      35.548  22.692  22.988  1.00  0.00     0.163 HD
BRANCH   5   7
ATOM      7  C   UNL A   1      34.319  24.669  24.003  1.00  0.00     0.154 C 
BRANCH   7   8
ATOM      8  C   UNL A   1      33.168  24.717  24.971  1.00  0.00     0.032 A 
ATOM      9  C   UNL A   1      32.703  25.809  25.691  1.00  0.00     0.024 A 
ATOM     10  N   UNL A   1      32.258  23.680  25.151  1.00  0.00    -0.320 N 
ATOM     11  C   UNL A   1      31.489  25.445  26.308  1.00  0.00     0.020 A 
ATOM     12  C   UNL A   1      31.216  24.154  25.925  1.00  0.00     0.091 A 
BRANCH  10  13
ATOM     13  C   UNL A   1      32.304  22.374  24.607  1.00  0.00     0.049 A 
ATOM     14  C   UNL A   1      32.034  22.187  23.244  1.00  0.00     0.031 A 
ATOM     15  C   UNL A   1      32.597  21.280  25.427  1.00  0.00     0.077 A 
ATOM     16  C   UNL A   1      32.104  20.907  22.693  1.00  0.00     0.052 A 
ATOM     17  C   UNL A   1      32.635  20.000  24.874  1.00  0.00     0.163 A 
ATOM     18  C   UNL A   1      32.388  19.813  23.509  1.00  0.00     0.161 A 
ATOM     19  O   UNL A   1      32.897  18.967  25.736  1.00  0.00    -0.486 OA
ATOM     20  O   UNL A   1      32.410  18.583  22.903  1.00  0.00    -0.486 OA
ATOM     21  C   UNL A   1      33.264  17.777  25.033  1.00  0.00     0.271 C 
ATOM     22  C   UNL A   1      32.326  17.526  23.865  1.00  0.00     0.271 C 
ENDBRANCH  10  13
ENDBRANCH   7   8
ENDBRANCH   5   7
ENDBRANCH   2   3
ENDBRANCH   1   2
BRANCH   1  23
ATOM     23  C   UNL A   1      37.731  19.669  25.028  1.00  0.00     0.023 C 
BRANCH  23  24
ATOM     24  C   UNL A   1      38.951  20.315  25.684  1.00  0.00     0.116 C 
BRANCH  24  25
ATOM     25  N   UNL A   1      39.987  19.332  25.950  1.00  0.00    -0.352 N 
ATOM     26  C   UNL A   1      41.342  19.505  26.093  1.00  0.00     0.251 C 
ATOM     27  H   UNL A   1      39.671  18.405  26.041  1.00  0.00     0.163 HD
ATOM     28  O   UNL A   1      42.089  18.548  25.933  1.00  0.00    -0.269 OA
BRANCH  26  29
ATOM     29  C   UNL A   1      41.915  20.822  26.441  1.00  0.00     0.039 A 
ATOM     30  C   UNL A   1      42.355  21.647  25.396  1.00  0.00     0.014 A 
ATOM     31  C   UNL A   1      42.128  21.194  27.772  1.00  0.00     0.014 A 
ATOM     32  C   UNL A   1      42.962  22.865  25.681  1.00  0.00     0.010 A 
ATOM     33  C   UNL A   1      42.706  22.420  28.064  1.00  0.00     0.010 A 
ATOM     34  C   UNL A   1      43.113  23.255  27.016  1.00  0.00    -0.014 A 
BRANCH  34  35
ATOM     35  C   UNL A   1      43.573  24.622  27.327  1.00  0.00     0.031 A 
ATOM     36  C   UNL A   1      42.370  25.585  27.546  1.00  0.00     0.074 A 
ATOM     37  C   UNL A   1      44.934  24.769  27.401  1.00  0.00     0.049 A 
ATOM     38  N   UNL A   1      42.312  26.883  27.561  1.00  0.00    -0.248 NA
ATOM     39  C   UNL A   1      41.007  25.007  27.756  1.00  0.00     0.031 C 
ATOM     40  C   UNL A   1      45.918  23.677  27.185  1.00  0.00     0.029 A 
ATOM     41  N   UNL A   1      45.777  25.826  27.670  1.00  0.00    -0.354 N 
ATOM     42  C   UNL A   1      41.013  27.258  27.999  1.00  0.00     0.074 A 
ATOM     43  C   UNL A   1      40.229  26.064  28.001  1.00  0.00     0.031 C 
ATOM     44  C   UNL A   1      47.185  24.140  27.241  1.00  0.00     0.029 A 
ATOM     45  C   UNL A   1      47.169  25.562  27.516  1.00  0.00     0.049 A 
ATOM     46  H   UNL A   1      45.439  26.707  27.951  1.00  0.00     0.167 HD
ATOM     47  C   UNL A   1      40.706  28.510  28.459  1.00  0.00     0.037 A 
ATOM     48  C   UNL A   1      48.220  26.442  27.557  1.00  0.00     0.037 A 
ATOM     49  C   UNL A   1      41.846  29.351  28.341  1.00  0.00     0.049 A 
ATOM     50  C   UNL A   1      47.618  27.700  28.011  1.00  0.00     0.074 A 
ATOM     51  C   UNL A   1      42.423  29.955  27.259  1.00  0.00     0.029 A 
ATOM     52  N   UNL A   1      42.730  29.351  29.391  1.00  0.00    -0.354 N 
ATOM     53  N   UNL A   1      47.206  27.916  29.222  1.00  0.00    -0.248 NA
ATOM     54  C   UNL A   1      47.333  28.745  27.022  1.00  0.00     0.031 C 
ATOM     55  C   UNL A   1      43.798  29.833  27.529  1.00  0.00     0.029 A 
ATOM     56  C   UNL A   1      43.990  29.410  28.851  1.00  0.00     0.049 A 
ATOM     57  H   UNL A   1      42.504  29.316  30.348  1.00  0.00     0.167 HD
ATOM     58  C   UNL A   1      46.317  28.946  29.049  1.00  0.00     0.074 A 
ATOM     59  C   UNL A   1      46.676  29.596  27.805  1.00  0.00     0.031 C 
ATOM     60  C   UNL A   1      45.088  28.879  29.623  1.00  0.00     0.037 A 
BRANCH  47  61
ATOM     61  C   UNL A   1      39.546  29.086  29.228  1.00  0.00     0.057 A 
ATOM     62  C   UNL A   1      39.410  28.733  30.594  1.00  0.00     0.134 A 
ATOM     63  C   UNL A   1      38.401  29.611  28.623  1.00  0.00     0.134 A 
ATOM     64  F   UNL A   1      40.463  28.292  31.303  1.00  0.00    -0.206 F 
ATOM     65  C   UNL A   1      38.182  28.733  31.260  1.00  0.00     0.040 A 
ATOM     66  C   UNL A   1      37.170  29.663  29.301  1.00  0.00     0.040 A 
ATOM     67  F   UNL A   1      38.407  30.001  27.342  1.00  0.00    -0.206 F 
ATOM     68  C   UNL A   1      37.047  29.175  30.599  1.00  0.00     0.006 A 
ENDBRANCH  47  61
BRANCH  48  69
ATOM     69  C   UNL A   1      49.689  26.498  27.197  1.00  0.00     0.057 A 
ATOM     70  C   UNL A   1      50.751  26.734  28.071  1.00  0.00     0.134 A 
ATOM     71  C   UNL A   1      50.106  26.174  25.872  1.00  0.00     0.134 A 
ATOM     72  F   UNL A   1      50.544  27.185  29.312  1.00  0.00    -0.206 F 
ATOM     73  C   UNL A   1      52.098  26.525  27.700  1.00  0.00     0.040 A 
ATOM     74  C   UNL A   1      51.429  25.913  25.503  1.00  0.00     0.040 A 
ATOM     75  F   UNL A   1      49.236  26.080  24.857  1.00  0.00    -0.206 F 
ATOM     76  C   UNL A   1      52.438  26.064  26.432  1.00  0.00     0.006 A 
ENDBRANCH  48  69
BRANCH  60  77
ATOM     77  C   UNL A   1      44.995  27.911  30.799  1.00  0.00     0.057 A 
ATOM     78  C   UNL A   1      45.743  28.143  31.962  1.00  0.00     0.134 A 
ATOM     79  C   UNL A   1      44.302  26.689  30.777  1.00  0.00     0.134 A 
ATOM     80  F   UNL A   1      46.412  29.297  32.113  1.00  0.00    -0.206 F 
ATOM     81  C   UNL A   1      45.836  27.203  33.001  1.00  0.00     0.040 A 
ATOM     82  C   UNL A   1      44.378  25.739  31.807  1.00  0.00     0.040 A 
ATOM     83  F   UNL A   1      43.513  26.366  29.758  1.00  0.00    -0.206 F 
ATOM     84  C   UNL A   1      45.161  25.990  32.921  1.00  0.00     0.006 A 
ENDBRANCH  60  77
ENDBRANCH  34  35
ENDBRANCH  26  29
ENDBRANCH  24  25
ENDBRANCH  23  24
ENDBRANCH   1  23
TORSDOF 13
ENDMDL
MODEL 2
REMARK VINA RESULT:     -11.7      5.460     10.536
REMARK SMILES O=C(Cc1cccn1-c1ccc2c(c1)OCCO2)NCCCCNC(=O)c1ccc(-c2c3nc(c(-c4c(F)cccc4F)c4ccc([nH]4)c(-c4c(F)cccc4F)c4nc(c(-c5c(F)cccc5F)c5ccc2[nH]5)C=C4)C=C3)cc1
REMARK SMILES IDX 21 1 20 2 19 3 1 4 2 5 3 7 4 8 5 9 8 10 6 11 7 12 9 13 10 14
REMARK SMILES IDX 14 15 11 16 13 17 12 18 15 19 18 20 16 21 17 22 22 23 23 24
REMARK SMILES IDX 24 25 25 26 26 28 27 29 28 30 80 31 29 32 79 33 30 34 31 35
REMARK SMILES IDX 32 36 73 37 33 38 78 39 72 40 74 41 34 42 77 43 71 44 70 45
REMARK SMILES IDX 35 47 61 48 44 49 60 50 45 51 48 52 59 53 75 54 46 55 47 56
REMARK SMILES IDX 58 58 76 59 49 60 36 61 37 62 42 63 38 64 39 65 41 66 43 67
REMARK SMILES IDX 40 68 62 69 63 70 68 71 64 72 65 73 67 74 69 75 66 76 50 77
REMARK SMILES IDX 51 78 56 79 52 80 53 81 55 82 57 83 54 84
REMARK H PARENT 19 6 24 27 74 46 48 57
REMARK Flexibility Score: inf
ROOT
ATOM      1  C   UNL A   1      31.347  30.821  25.967  1.00  0.00     0.023 C 
ENDROOT
BRANCH   1   2
ATOM      2  C   UNL A   1      32.422  29.932  26.593  1.00  0.00     0.116 C 
BRANCH   2   3
ATOM      3  N   UNL A   1      32.130  28.526  26.410  1.00  0.00    -0.356 N 
ATOM      4  O   UNL A   1      34.306  27.811  26.450  1.00  0.00    -0.275 OA
ATOM      5  C   UNL A   1      33.110  27.560  26.348  1.00  0.00     0.225 C 
ATOM      6  H   UNL A   1      31.189  28.249  26.325  1.00  0.00     0.163 HD
BRANCH   5   7
ATOM      7  C   UNL A   1      32.602  26.157  26.048  1.00  0.00     0.154 C 
BRANCH   7   8
ATOM      8  C   UNL A   1      33.075  25.634  24.719  1.00  0.00     0.032 A 
ATOM      9  C   UNL A   1      33.927  24.564  24.476  1.00  0.00     0.024 A 
ATOM     10  N   UNL A   1      32.561  26.045  23.493  1.00  0.00    -0.320 N 
ATOM     11  C   UNL A   1      33.928  24.307  23.091  1.00  0.00     0.020 A 
ATOM     12  C   UNL A   1      33.050  25.197  22.518  1.00  0.00     0.091 A 
BRANCH  10  13
ATOM     13  C   UNL A   1      31.646  27.094  23.237  1.00  0.00     0.049 A 
ATOM     14  C   UNL A   1      32.126  28.324  22.765  1.00  0.00     0.031 A 
ATOM     15  C   UNL A   1      30.280  26.911  23.472  1.00  0.00     0.077 A 
ATOM     16  C   UNL A   1      31.230  29.356  22.485  1.00  0.00     0.052 A 
ATOM     17  C   UNL A   1      29.395  27.958  23.217  1.00  0.00     0.163 A 
ATOM     18  C   UNL A   1      29.868  29.179  22.725  1.00  0.00     0.161 A 
ATOM     19  O   UNL A   1      28.073  27.724  23.497  1.00  0.00    -0.486 OA
ATOM     20  O   UNL A   1      29.052  30.247  22.453  1.00  0.00    -0.486 OA
ATOM     21  C   UNL A   1      27.226  28.698  22.880  1.00  0.00     0.271 C 
ATOM     22  C   UNL A   1      27.774  30.100  23.081  1.00  0.00     0.271 C 
ENDBRANCH  10  13
ENDBRANCH   7   8
ENDBRANCH   5   7
ENDBRANCH   2   3
ENDBRANCH   1   2
BRANCH   1  23
ATOM     23  C   UNL A   1      31.318  32.268  26.486  1.00  0.00     0.023 C 
BRANCH  23  24
ATOM     24  C   UNL A   1      32.563  32.678  27.272  1.00  0.00     0.116 C 
BRANCH  24  25
ATOM     25  N   UNL A   1      32.538  34.094  27.595  1.00  0.00    -0.352 N 
ATOM     26  C   UNL A   1      33.155  34.770  28.620  1.00  0.00     0.251 C 
ATOM     27  H   UNL A   1      31.998  34.652  26.991  1.00  0.00     0.163 HD
ATOM     28  O   UNL A   1      32.726  35.865  28.960  1.00  0.00    -0.269 OA
BRANCH  26  29
ATOM     29  C   UNL A   1      34.329  34.203  29.316  1.00  0.00     0.039 A 
ATOM     30  C   UNL A   1      34.125  33.591  30.561  1.00  0.00     0.014 A 
ATOM     31  C   UNL A   1      35.623  34.371  28.815  1.00  0.00     0.014 A 
ATOM     32  C   UNL A   1      35.210  33.104  31.281  1.00  0.00     0.010 A 
ATOM     33  C   UNL A   1      36.707  33.862  29.513  1.00  0.00     0.010 A 
ATOM     34  C   UNL A   1      36.495  33.223  30.740  1.00  0.00    -0.014 A 
BRANCH  34  35
ATOM     35  C   UNL A   1      37.627  32.540  31.397  1.00  0.00     0.031 A 
ATOM     36  C   UNL A   1      37.979  31.208  30.672  1.00  0.00     0.074 A 
ATOM     37  C   UNL A   1      38.162  33.210  32.466  1.00  0.00     0.049 A 
ATOM     38  N   UNL A   1      38.691  30.192  31.058  1.00  0.00    -0.248 NA
ATOM     39  C   UNL A   1      37.428  30.960  29.304  1.00  0.00     0.031 C 
ATOM     40  C   UNL A   1      37.677  34.518  32.976  1.00  0.00     0.029 A 
ATOM     41  N   UNL A   1      39.201  32.963  33.338  1.00  0.00    -0.354 N 
ATOM     42  C   UNL A   1      38.862  29.328  29.943  1.00  0.00     0.074 A 
ATOM     43  C   UNL A   1      37.976  29.802  28.928  1.00  0.00     0.031 C 
ATOM     44  C   UNL A   1      38.345  34.890  34.089  1.00  0.00     0.029 A 
ATOM     45  C   UNL A   1      39.339  33.888  34.413  1.00  0.00     0.049 A 
ATOM     46  H   UNL A   1      39.808  32.197  33.225  1.00  0.00     0.167 HD
ATOM     47  C   UNL A   1      39.823  28.355  29.885  1.00  0.00     0.037 A 
ATOM     48  C   UNL A   1      40.164  33.817  35.507  1.00  0.00     0.037 A 
ATOM     49  C   UNL A   1      40.527  28.310  31.120  1.00  0.00     0.049 A 
ATOM     50  C   UNL A   1      41.038  32.673  35.225  1.00  0.00     0.074 A 
ATOM     51  C   UNL A   1      40.182  27.813  32.345  1.00  0.00     0.029 A 
ATOM     52  N   UNL A   1      41.604  29.150  31.251  1.00  0.00    -0.354 N 
ATOM     53  N   UNL A   1      41.983  32.680  34.337  1.00  0.00    -0.248 NA
ATOM     54  C   UNL A   1      40.759  31.391  35.881  1.00  0.00     0.031 C 
ATOM     55  C   UNL A   1      40.726  28.762  33.231  1.00  0.00     0.029 A 
ATOM     56  C   UNL A   1      41.581  29.628  32.537  1.00  0.00     0.049 A 
ATOM     57  H   UNL A   1      42.267  29.367  30.557  1.00  0.00     0.167 HD
ATOM     58  C   UNL A   1      42.158  31.342  34.086  1.00  0.00     0.074 A 
ATOM     59  C   UNL A   1      41.649  30.636  35.244  1.00  0.00     0.031 C 
ATOM     60  C   UNL A   1      42.211  30.899  32.803  1.00  0.00     0.037 A 
BRANCH  47  61
ATOM     61  C   UNL A   1      40.404  27.524  28.771  1.00  0.00     0.057 A 
ATOM     62  C   UNL A   1      41.219  28.174  27.810  1.00  0.00     0.134 A 
ATOM     63  C   UNL A   1      39.900  26.278  28.391  1.00  0.00     0.134 A 
ATOM     64  F   UNL A   1      41.823  29.341  28.091  1.00  0.00    -0.206 F 
ATOM     65  C   UNL A   1      41.375  27.703  26.504  1.00  0.00     0.040 A 
ATOM     66  C   UNL A   1      40.094  25.770  27.095  1.00  0.00     0.040 A 
ATOM     67  F   UNL A   1      39.133  25.556  29.218  1.00  0.00    -0.206 F 
ATOM     68  C   UNL A   1      40.784  26.506  26.135  1.00  0.00     0.006 A 
ENDBRANCH  47  61
BRANCH  48  69
ATOM     69  C   UNL A   1      40.341  34.473  36.860  1.00  0.00     0.057 A 
ATOM     70  C   UNL A   1      41.496  35.093  37.338  1.00  0.00     0.134 A 
ATOM     71  C   UNL A   1      39.222  34.604  37.735  1.00  0.00     0.134 A 
ATOM     72  F   UNL A   1      42.671  34.952  36.716  1.00  0.00    -0.206 F 
ATOM     73  C   UNL A   1      41.499  35.892  38.503  1.00  0.00     0.040 A 
ATOM     74  C   UNL A   1      39.195  35.431  38.861  1.00  0.00     0.040 A 
ATOM     75  F   UNL A   1      38.078  33.937  37.529  1.00  0.00    -0.206 F 
ATOM     76  C   UNL A   1      40.338  36.106  39.239  1.00  0.00     0.006 A 
ENDBRANCH  48  69
BRANCH  60  77
ATOM     77  C   UNL A   1      42.569  31.974  31.781  1.00  0.00     0.057 A 
ATOM     78  C   UNL A   1      43.819  32.606  31.833  1.00  0.00     0.134 A 
ATOM     79  C   UNL A   1      41.679  32.503  30.831  1.00  0.00     0.134 A 
ATOM     80  F   UNL A   1      44.765  32.158  32.672  1.00  0.00    -0.206 F 
ATOM     81  C   UNL A   1      44.138  33.718  31.036  1.00  0.00     0.040 A 
ATOM     82  C   UNL A   1      41.979  33.610  30.023  1.00  0.00     0.040 A 
ATOM     83  F   UNL A   1      40.479  31.965  30.640  1.00  0.00    -0.206 F 
ATOM     84  C   UNL A   1      43.212  34.233  30.135  1.00  0.00     0.006 A 
ENDBRANCH  60  77
ENDBRANCH  34  35
ENDBRANCH  26  29
ENDBRANCH  24  25
ENDBRANCH  23  24
ENDBRANCH   1  23
TORSDOF 13
ENDMDL
MODEL 3
REMARK VINA RESULT:     -11.7      2.980      7.494
REMARK SMILES O=C(Cc1cccn1-c1ccc2c(c1)OCCO2)NCCCCNC(=O)c1ccc(-c2c3nc(c(-c4c(F)cccc4F)c4ccc([nH]4)c(-c4c(F)cccc4F)c4nc(c(-c5c(F)cccc5F)c5ccc2[nH]5)C=C4)C=C3)cc1
REMARK SMILES IDX 21 1 20 2 19 3 1 4 2 5 3 7 4 8 5 9 8 10 6 11 7 12 9 13 10 14
REMARK SMILES IDX 14 15 11 16 13 17 12 18 15 19 18 20 16 21 17 22 22 23 23 24
REMARK SMILES IDX 24 25 25 26 26 28 27 29 28 30 80 31 29 32 79 33 30 34 31 35
REMARK SMILES IDX 32 36 73 37 33 38 78 39 72 40 74 41 34 42 77 43 71 44 70 45
REMARK SMILES IDX 35 47 61 48 44 49 60 50 45 51 48 52 59 53 75 54 46 55 47 56
REMARK SMILES IDX 58 58 76 59 49 60 36 61 37 62 42 63 38 64 39 65 41 66 43 67
REMARK SMILES IDX 40 68 62 69 63 70 68 71 64 72 65 73 67 74 69 75 66 76 50 77
REMARK SMILES IDX 51 78 56 79 52 80 53 81 55 82 57 83 54 84
REMARK H PARENT 19 6 24 27 74 46 48 57
REMARK Flexibility Score: inf
ROOT
ATOM      1  C   UNL A   1      32.434  28.810  27.526  1.00  0.00     0.023 C 
ENDROOT
BRANCH   1   2
ATOM      2  C   UNL A   1      31.355  27.734  27.384  1.00  0.00     0.116 C 
BRANCH   2   3
ATOM      3  N   UNL A   1      31.107  27.403  25.997  1.00  0.00    -0.356 N 
ATOM      4  O   UNL A   1      30.098  25.385  26.401  1.00  0.00    -0.275 OA
ATOM      5  C   UNL A   1      30.491  26.234  25.606  1.00  0.00     0.225 C 
ATOM      6  H   UNL A   1      31.391  28.040  25.303  1.00  0.00     0.163 HD
BRANCH   5   7
ATOM      7  C   UNL A   1      30.416  26.027  24.101  1.00  0.00     0.154 C 
BRANCH   7   8
ATOM      8  C   UNL A   1      31.356  26.920  23.338  1.00  0.00     0.032 A 
ATOM      9  C   UNL A   1      31.129  28.216  22.893  1.00  0.00     0.024 A 
ATOM     10  N   UNL A   1      32.700  26.633  23.121  1.00  0.00    -0.320 N 
ATOM     11  C   UNL A   1      32.347  28.736  22.411  1.00  0.00     0.020 A 
ATOM     12  C   UNL A   1      33.301  27.764  22.604  1.00  0.00     0.091 A 
BRANCH  10  13
ATOM     13  C   UNL A   1      33.397  25.438  23.420  1.00  0.00     0.049 A 
ATOM     14  C   UNL A   1      33.165  24.296  22.640  1.00  0.00     0.031 A 
ATOM     15  C   UNL A   1      34.291  25.393  24.493  1.00  0.00     0.077 A 
ATOM     16  C   UNL A   1      33.867  23.120  22.909  1.00  0.00     0.052 A 
ATOM     17  C   UNL A   1      34.966  24.205  24.773  1.00  0.00     0.163 A 
ATOM     18  C   UNL A   1      34.754  23.070  23.984  1.00  0.00     0.161 A 
ATOM     19  O   UNL A   1      35.806  24.218  25.857  1.00  0.00    -0.486 OA
ATOM     20  O   UNL A   1      35.385  21.872  24.204  1.00  0.00    -0.486 OA
ATOM     21  C   UNL A   1      36.697  23.100  25.844  1.00  0.00     0.271 C 
ATOM     22  C   UNL A   1      35.953  21.817  25.517  1.00  0.00     0.271 C 
ENDBRANCH  10  13
ENDBRANCH   7   8
ENDBRANCH   5   7
ENDBRANCH   2   3
ENDBRANCH   1   2
BRANCH   1  23
ATOM     23  C   UNL A   1      33.454  28.862  26.377  1.00  0.00     0.023 C 
BRANCH  23  24
ATOM     24  C   UNL A   1      34.910  28.939  26.834  1.00  0.00     0.116 C 
BRANCH  24  25
ATOM     25  N   UNL A   1      35.293  30.306  27.140  1.00  0.00    -0.352 N 
ATOM     26  C   UNL A   1      36.280  30.774  27.972  1.00  0.00     0.251 C 
ATOM     27  H   UNL A   1      34.766  31.001  26.683  1.00  0.00     0.163 HD
ATOM     28  O   UNL A   1      36.213  31.921  28.397  1.00  0.00    -0.269 OA
BRANCH  26  29
ATOM     29  C   UNL A   1      37.424  29.923  28.360  1.00  0.00     0.039 A 
ATOM     30  C   UNL A   1      38.553  29.917  27.528  1.00  0.00     0.014 A 
ATOM     31  C   UNL A   1      37.349  29.056  29.454  1.00  0.00     0.014 A 
ATOM     32  C   UNL A   1      39.625  29.081  27.818  1.00  0.00     0.010 A 
ATOM     33  C   UNL A   1      38.426  28.241  29.767  1.00  0.00     0.010 A 
ATOM     34  C   UNL A   1      39.563  28.263  28.952  1.00  0.00    -0.014 A 
BRANCH  34  35
ATOM     35  C   UNL A   1      40.766  27.520  29.379  1.00  0.00     0.031 A 
ATOM     36  C   UNL A   1      41.010  26.277  28.476  1.00  0.00     0.074 A 
ATOM     37  C   UNL A   1      41.440  28.076  30.435  1.00  0.00     0.049 A 
ATOM     38  N   UNL A   1      41.758  25.230  28.654  1.00  0.00    -0.248 NA
ATOM     39  C   UNL A   1      40.284  26.174  27.172  1.00  0.00     0.031 C 
ATOM     40  C   UNL A   1      41.035  29.318  31.142  1.00  0.00     0.029 A 
ATOM     41  N   UNL A   1      42.582  27.743  31.133  1.00  0.00    -0.354 N 
ATOM     42  C   UNL A   1      41.776  24.492  27.439  1.00  0.00     0.074 A 
ATOM     43  C   UNL A   1      40.770  25.067  26.605  1.00  0.00     0.031 C 
ATOM     44  C   UNL A   1      41.846  29.572  32.192  1.00  0.00     0.029 A 
ATOM     45  C   UNL A   1      42.866  28.548  32.274  1.00  0.00     0.049 A 
ATOM     46  H   UNL A   1      43.163  26.997  30.860  1.00  0.00     0.167 HD
ATOM     47  C   UNL A   1      42.714  23.538  27.153  1.00  0.00     0.037 A 
ATOM     48  C   UNL A   1      43.825  28.364  33.238  1.00  0.00     0.037 A 
ATOM     49  C   UNL A   1      43.572  23.365  28.273  1.00  0.00     0.049 A 
ATOM     50  C   UNL A   1      44.646  27.263  32.723  1.00  0.00     0.074 A 
ATOM     51  C   UNL A   1      43.386  22.736  29.473  1.00  0.00     0.029 A 
ATOM     52  N   UNL A   1      44.664  24.192  28.354  1.00  0.00    -0.354 N 
ATOM     53  N   UNL A   1      45.468  27.371  31.726  1.00  0.00    -0.248 NA
ATOM     54  C   UNL A   1      44.445  25.916  33.267  1.00  0.00     0.031 C 
ATOM     55  C   UNL A   1      44.048  23.587  30.377  1.00  0.00     0.029 A 
ATOM     56  C   UNL A   1      44.812  24.528  29.675  1.00  0.00     0.049 A 
ATOM     57  H   UNL A   1      45.233  24.487  27.606  1.00  0.00     0.167 HD
ATOM     58  C   UNL A   1      45.598  26.070  31.311  1.00  0.00     0.074 A 
ATOM     59  C   UNL A   1      45.239  25.239  32.442  1.00  0.00     0.031 C 
ATOM     60  C   UNL A   1      45.481  25.768  29.992  1.00  0.00     0.037 A 
BRANCH  47  61
ATOM     61  C   UNL A   1      43.139  22.835  25.890  1.00  0.00     0.057 A 
ATOM     62  C   UNL A   1      43.254  21.422  25.919  1.00  0.00     0.134 A 
ATOM     63  C   UNL A   1      43.793  23.472  24.833  1.00  0.00     0.134 A 
ATOM     64  F   UNL A   1      42.603  20.694  26.843  1.00  0.00    -0.206 F 
ATOM     65  C   UNL A   1      44.101  20.712  25.066  1.00  0.00     0.040 A 
ATOM     66  C   UNL A   1      44.609  22.759  23.936  1.00  0.00     0.040 A 
ATOM     67  F   UNL A   1      43.744  24.802  24.684  1.00  0.00    -0.206 F 
ATOM     68  C   UNL A   1      44.806  21.388  24.085  1.00  0.00     0.006 A 
ENDBRANCH  47  61
BRANCH  48  69
ATOM     69  C   UNL A   1      44.181  28.871  34.618  1.00  0.00     0.057 A 
ATOM     70  C   UNL A   1      43.640  28.437  35.829  1.00  0.00     0.134 A 
ATOM     71  C   UNL A   1      45.249  29.804  34.777  1.00  0.00     0.134 A 
ATOM     72  F   UNL A   1      42.544  27.672  35.868  1.00  0.00    -0.206 F 
ATOM     73  C   UNL A   1      44.202  28.784  37.078  1.00  0.00     0.040 A 
ATOM     74  C   UNL A   1      45.849  30.116  36.000  1.00  0.00     0.040 A 
ATOM     75  F   UNL A   1      45.781  30.457  33.734  1.00  0.00    -0.206 F 
ATOM     76  C   UNL A   1      45.339  29.582  37.165  1.00  0.00     0.006 A 
ENDBRANCH  48  69
BRANCH  60  77
ATOM     77  C   UNL A   1      45.711  26.949  29.053  1.00  0.00     0.057 A 
ATOM     78  C   UNL A   1      46.965  27.574  29.004  1.00  0.00     0.134 A 
ATOM     79  C   UNL A   1      44.708  27.577  28.297  1.00  0.00     0.134 A 
ATOM     80  F   UNL A   1      48.010  27.039  29.653  1.00  0.00    -0.206 F 
ATOM     81  C   UNL A   1      47.187  28.767  28.297  1.00  0.00     0.040 A 
ATOM     82  C   UNL A   1      44.911  28.766  27.581  1.00  0.00     0.040 A 
ATOM     83  F   UNL A   1      43.486  27.060  28.214  1.00  0.00    -0.206 F 
ATOM     84  C   UNL A   1      46.155  29.375  27.591  1.00  0.00     0.006 A 
ENDBRANCH  60  77
ENDBRANCH  34  35
ENDBRANCH  26  29
ENDBRANCH  24  25
ENDBRANCH  23  24
ENDBRANCH   1  23
TORSDOF 13
ENDMDL
