MODEL 1
REMARK VINA RESULT:     -11.9      0.000      0.000
REMARK SMILES Cc1ccc(C(=O)N[C@@H]2C=C[C@H](C(=O)NCCCCNC(=O)c3ccc(-c4c5nc(c(-c6c(F)cccc6F)c6ccc([nH]6)c(-c6c(F)cccc6F)c6nc(c(-c7c(F)cccc7F)c7ccc4[nH]7)C=C6)C=C5)cc3)C2)c(F)c1
REMARK SMILES IDX 17 1 16 2 15 3 13 4 14 5 12 7 9 8 10 9 77 10 11 11 8 12 6 13
REMARK SMILES IDX 7 14 5 16 1 17 2 18 3 19 80 20 4 21 78 22 79 23 18 24 19 25
REMARK SMILES IDX 20 26 21 27 22 29 23 30 24 31 76 32 25 33 75 34 26 35 27 36
REMARK SMILES IDX 28 37 69 38 29 39 74 40 68 41 70 42 30 43 73 44 67 45 66 46
REMARK SMILES IDX 31 48 57 49 40 50 56 51 41 52 44 53 55 54 71 55 42 56 43 57
REMARK SMILES IDX 54 59 72 60 45 61 32 62 33 63 38 64 34 65 35 66 37 67 39 68
REMARK SMILES IDX 36 69 58 70 59 71 64 72 60 73 61 74 63 75 65 76 62 77 46 78
REMARK SMILES IDX 47 79 52 80 48 81 49 82 51 83 53 84 50 85
REMARK H PARENT 15 6 8 15 20 28 70 47 44 58
REMARK Flexibility Score: inf
ROOT
ATOM      1  C   UNL A   1      37.328  20.915  24.591  1.00  0.00     0.023 C 
ENDROOT
BRANCH   1   2
ATOM      2  C   UNL A   1      37.627  22.161  25.422  1.00  0.00     0.116 C 
BRANCH   2   3
ATOM      3  N   UNL A   1      36.554  22.518  26.333  1.00  0.00    -0.356 N 
ATOM      4  C   UNL A   1      35.356  23.122  26.052  1.00  0.00     0.227 C 
ATOM      5  O   UNL A   1      34.509  23.172  26.942  1.00  0.00    -0.274 OA
ATOM      6  H   UNL A   1      36.709  22.296  27.280  1.00  0.00     0.163 HD
BRANCH   4   7
ATOM      7  C   UNL A   1      35.165  23.749  24.669  1.00  0.00     0.103 C 
ATOM      8  C   UNL A   1      33.035  24.969  24.306  1.00  0.00     0.106 C 
ATOM      9  C   UNL A   1      33.100  23.679  23.545  1.00  0.00    -0.006 C 
ATOM     10  C   UNL A   1      34.475  25.107  24.829  1.00  0.00     0.047 C 
ATOM     11  C   UNL A   1      34.236  23.008  23.764  1.00  0.00    -0.016 C 
BRANCH   8  12
ATOM     12  N   UNL A   1      31.946  24.850  25.259  1.00  0.00    -0.346 N 
ATOM     13  C   UNL A   1      31.121  25.772  25.858  1.00  0.00     0.254 C 
ATOM     14  O   UNL A   1      30.066  25.401  26.361  1.00  0.00    -0.269 OA
ATOM     15  H   UNL A   1      31.762  23.922  25.532  1.00  0.00     0.164 HD
BRANCH  13  16
ATOM     16  C   UNL A   1      31.536  27.176  25.991  1.00  0.00     0.075 A 
ATOM     17  C   UNL A   1      31.708  31.430  26.529  1.00  0.00     0.044 C 
ATOM     18  C   UNL A   1      31.748  29.946  26.312  1.00  0.00    -0.048 A 
ATOM     19  C   UNL A   1      32.151  29.081  27.340  1.00  0.00     0.004 A 
ATOM     20  C   UNL A   1      31.381  29.409  25.075  1.00  0.00     0.043 A 
ATOM     21  C   UNL A   1      32.069  27.694  27.174  1.00  0.00     0.017 A 
ATOM     22  C   UNL A   1      31.266  28.032  24.922  1.00  0.00     0.136 A 
ATOM     23  F   UNL A   1      30.818  27.563  23.748  1.00  0.00    -0.206 F 
ENDBRANCH  13  16
ENDBRANCH   8  12
ENDBRANCH   4   7
ENDBRANCH   2   3
ENDBRANCH   1   2
BRANCH   1  24
ATOM     24  C   UNL A   1      38.153  19.671  24.927  1.00  0.00     0.023 C 
BRANCH  24  25
ATOM     25  C   UNL A   1      39.176  19.834  26.045  1.00  0.00     0.116 C 
BRANCH  25  26
ATOM     26  N   UNL A   1      40.430  19.154  25.772  1.00  0.00    -0.352 N 
ATOM     27  C   UNL A   1      41.722  19.603  25.898  1.00  0.00     0.251 C 
ATOM     28  H   UNL A   1      40.340  18.229  25.446  1.00  0.00     0.163 HD
ATOM     29  O   UNL A   1      42.644  18.907  25.487  1.00  0.00    -0.269 OA
BRANCH  27  30
ATOM     30  C   UNL A   1      42.014  20.927  26.498  1.00  0.00     0.039 A 
ATOM     31  C   UNL A   1      42.325  21.990  25.646  1.00  0.00     0.014 A 
ATOM     32  C   UNL A   1      42.021  21.123  27.882  1.00  0.00     0.014 A 
ATOM     33  C   UNL A   1      42.599  23.253  26.178  1.00  0.00     0.010 A 
ATOM     34  C   UNL A   1      42.208  22.402  28.406  1.00  0.00     0.010 A 
ATOM     35  C   UNL A   1      42.520  23.477  27.562  1.00  0.00    -0.014 A 
BRANCH  35  36
ATOM     36  C   UNL A   1      42.784  24.826  28.128  1.00  0.00     0.031 A 
ATOM     37  C   UNL A   1      44.174  25.218  28.552  1.00  0.00     0.074 A 
ATOM     38  C   UNL A   1      41.765  25.690  28.296  1.00  0.00     0.049 A 
ATOM     39  N   UNL A   1      44.599  26.354  29.048  1.00  0.00    -0.248 NA
ATOM     40  C   UNL A   1      45.220  24.192  28.430  1.00  0.00     0.031 C 
ATOM     41  C   UNL A   1      40.360  25.409  27.995  1.00  0.00     0.029 A 
ATOM     42  N   UNL A   1      41.753  26.979  28.766  1.00  0.00    -0.354 N 
ATOM     43  C   UNL A   1      45.951  26.172  29.312  1.00  0.00     0.074 A 
ATOM     44  C   UNL A   1      46.262  24.799  28.978  1.00  0.00     0.031 C 
ATOM     45  C   UNL A   1      39.628  26.501  28.261  1.00  0.00     0.029 A 
ATOM     46  C   UNL A   1      40.503  27.549  28.777  1.00  0.00     0.049 A 
ATOM     47  H   UNL A   1      42.563  27.451  29.067  1.00  0.00     0.167 HD
ATOM     48  C   UNL A   1      46.858  27.070  29.766  1.00  0.00     0.037 A 
ATOM     49  C   UNL A   1      40.106  28.777  29.159  1.00  0.00     0.037 A 
ATOM     50  C   UNL A   1      46.549  28.441  30.080  1.00  0.00     0.049 A 
ATOM     51  C   UNL A   1      41.132  29.770  29.628  1.00  0.00     0.074 A 
ATOM     52  C   UNL A   1      47.410  29.452  30.472  1.00  0.00     0.029 A 
ATOM     53  N   UNL A   1      45.276  28.992  30.047  1.00  0.00    -0.354 N 
ATOM     54  N   UNL A   1      42.425  29.614  29.778  1.00  0.00    -0.248 NA
ATOM     55  C   UNL A   1      40.646  31.116  29.961  1.00  0.00     0.031 C 
ATOM     56  C   UNL A   1      46.650  30.598  30.731  1.00  0.00     0.029 A 
ATOM     57  C   UNL A   1      45.324  30.321  30.439  1.00  0.00     0.049 A 
ATOM     58  H   UNL A   1      44.459  28.509  29.784  1.00  0.00     0.167 HD
ATOM     59  C   UNL A   1      42.911  30.846  30.199  1.00  0.00     0.074 A 
ATOM     60  C   UNL A   1      41.775  31.742  30.260  1.00  0.00     0.031 C 
ATOM     61  C   UNL A   1      44.184  31.202  30.504  1.00  0.00     0.037 A 
BRANCH  48  62
ATOM     62  C   UNL A   1      48.268  26.587  29.963  1.00  0.00     0.057 A 
ATOM     63  C   UNL A   1      48.700  26.019  31.171  1.00  0.00     0.134 A 
ATOM     64  C   UNL A   1      49.207  26.685  28.929  1.00  0.00     0.134 A 
ATOM     65  F   UNL A   1      47.858  25.904  32.208  1.00  0.00    -0.206 F 
ATOM     66  C   UNL A   1      50.022  25.606  31.354  1.00  0.00     0.040 A 
ATOM     67  C   UNL A   1      50.522  26.245  29.088  1.00  0.00     0.040 A 
ATOM     68  F   UNL A   1      48.863  27.210  27.743  1.00  0.00    -0.206 F 
ATOM     69  C   UNL A   1      50.936  25.713  30.308  1.00  0.00     0.006 A 
ENDBRANCH  48  62
BRANCH  49  70
ATOM     70  C   UNL A   1      38.669  29.143  29.075  1.00  0.00     0.057 A 
ATOM     71  C   UNL A   1      37.832  29.068  30.195  1.00  0.00     0.134 A 
ATOM     72  C   UNL A   1      38.104  29.597  27.878  1.00  0.00     0.134 A 
ATOM     73  F   UNL A   1      38.312  28.626  31.367  1.00  0.00    -0.206 F 
ATOM     74  C   UNL A   1      36.482  29.414  30.124  1.00  0.00     0.040 A 
ATOM     75  C   UNL A   1      36.761  29.973  27.798  1.00  0.00     0.040 A 
ATOM     76  F   UNL A   1      38.855  29.704  26.772  1.00  0.00    -0.206 F 
ATOM     77  C   UNL A   1      35.946  29.876  28.923  1.00  0.00     0.006 A 
ENDBRANCH  49  70
BRANCH  61  78
ATOM     78  C   UNL A   1      44.418  32.633  30.901  1.00  0.00     0.057 A 
ATOM     79  C   UNL A   1      44.703  33.630  29.959  1.00  0.00     0.134 A 
ATOM     80  C   UNL A   1      44.343  33.019  32.246  1.00  0.00     0.134 A 
ATOM     81  F   UNL A   1      44.800  33.327  28.655  1.00  0.00    -0.206 F 
ATOM     82  C   UNL A   1      44.942  34.952  30.344  1.00  0.00     0.040 A 
ATOM     83  C   UNL A   1      44.548  34.343  32.639  1.00  0.00     0.040 A 
ATOM     84  F   UNL A   1      44.062  32.118  33.199  1.00  0.00    -0.206 F 
ATOM     85  C   UNL A   1      44.859  35.311  31.687  1.00  0.00     0.006 A 
ENDBRANCH  61  78
ENDBRANCH  35  36
ENDBRANCH  27  30
ENDBRANCH  25  26
ENDBRANCH  24  25
ENDBRANCH   1  24
TORSDOF 13
ENDMDL
MODEL 2
REMARK VINA RESULT:     -11.7      4.072      9.387
REMARK SMILES Cc1ccc(C(=O)N[C@@H]2C=C[C@H](C(=O)NCCCCNC(=O)c3ccc(-c4c5nc(c(-c6c(F)cccc6F)c6ccc([nH]6)c(-c6c(F)cccc6F)c6nc(c(-c7c(F)cccc7F)c7ccc4[nH]7)C=C6)C=C5)cc3)C2)c(F)c1
REMARK SMILES IDX 17 1 16 2 15 3 13 4 14 5 12 7 9 8 10 9 77 10 11 11 8 12 6 13
REMARK SMILES IDX 7 14 5 16 1 17 2 18 3 19 80 20 4 21 78 22 79 23 18 24 19 25
REMARK SMILES IDX 20 26 21 27 22 29 23 30 24 31 76 32 25 33 75 34 26 35 27 36
REMARK SMILES IDX 28 37 69 38 29 39 74 40 68 41 70 42 30 43 73 44 67 45 66 46
REMARK SMILES IDX 31 48 57 49 40 50 56 51 41 52 44 53 55 54 71 55 42 56 43 57
REMARK SMILES IDX 54 59 72 60 45 61 32 62 33 63 38 64 34 65 35 66 37 67 39 68
REMARK SMILES IDX 36 69 58 70 59 71 64 72 60 73 61 74 63 75 65 76 62 77 46 78
REMARK SMILES IDX 47 79 52 80 48 81 49 82 51 83 53 84 50 85
REMARK H PARENT 15 6 8 15 20 28 70 47 44 58
REMARK Flexibility Score: inf
ROOT
ATOM      1  C   UNL A   1      31.637  30.649  26.494  1.00  0.00     0.023 C 
ENDROOT
BRANCH   1   2
ATOM      2  C   UNL A   1      33.041  30.096  26.736  1.00  0.00     0.116 C 
BRANCH   2   3
ATOM      3  N   UNL A   1      33.638  29.503  25.553  1.00  0.00    -0.356 N 
ATOM      4  C   UNL A   1      33.488  28.231  25.063  1.00  0.00     0.227 C 
ATOM      5  O   UNL A   1      33.939  27.983  23.946  1.00  0.00    -0.274 OA
ATOM      6  H   UNL A   1      34.230  30.093  25.033  1.00  0.00     0.163 HD
BRANCH   4   7
ATOM      7  C   UNL A   1      32.824  27.181  25.957  1.00  0.00     0.103 C 
ATOM      8  C   UNL A   1      32.690  24.883  25.033  1.00  0.00     0.106 C 
ATOM      9  C   UNL A   1      31.355  25.560  25.092  1.00  0.00    -0.006 C 
ATOM     10  C   UNL A   1      33.582  25.858  25.820  1.00  0.00     0.047 C 
ATOM     11  C   UNL A   1      31.431  26.809  25.564  1.00  0.00    -0.016 C 
BRANCH   8  12
ATOM     12  N   UNL A   1      32.981  24.634  23.632  1.00  0.00    -0.346 N 
ATOM     13  C   UNL A   1      33.689  23.650  22.983  1.00  0.00     0.254 C 
ATOM     14  O   UNL A   1      33.509  23.468  21.783  1.00  0.00    -0.269 OA
ATOM     15  H   UNL A   1      32.595  25.305  23.024  1.00  0.00     0.164 HD
BRANCH  13  16
ATOM     16  C   UNL A   1      34.729  22.885  23.687  1.00  0.00     0.075 A 
ATOM     17  C   UNL A   1      37.625  19.974  24.935  1.00  0.00     0.044 C 
ATOM     18  C   UNL A   1      36.625  21.039  24.591  1.00  0.00    -0.048 A 
ATOM     19  C   UNL A   1      37.035  22.245  24.003  1.00  0.00     0.004 A 
ATOM     20  C   UNL A   1      35.268  20.836  24.854  1.00  0.00     0.043 A 
ATOM     21  C   UNL A   1      36.089  23.181  23.570  1.00  0.00     0.017 A 
ATOM     22  C   UNL A   1      34.327  21.751  24.394  1.00  0.00     0.136 A 
ATOM     23  F   UNL A   1      33.029  21.470  24.584  1.00  0.00    -0.206 F 
ENDBRANCH  13  16
ENDBRANCH   8  12
ENDBRANCH   4   7
ENDBRANCH   2   3
ENDBRANCH   1   2
BRANCH   1  24
ATOM     24  C   UNL A   1      31.472  32.159  26.675  1.00  0.00     0.023 C 
BRANCH  24  25
ATOM     25  C   UNL A   1      32.751  32.939  26.960  1.00  0.00     0.116 C 
BRANCH  25  26
ATOM     26  N   UNL A   1      32.518  34.159  27.712  1.00  0.00    -0.352 N 
ATOM     27  C   UNL A   1      33.176  34.657  28.810  1.00  0.00     0.251 C 
ATOM     28  H   UNL A   1      31.772  34.714  27.386  1.00  0.00     0.163 HD
ATOM     29  O   UNL A   1      32.734  35.650  29.378  1.00  0.00    -0.269 OA
BRANCH  27  30
ATOM     30  C   UNL A   1      34.398  33.997  29.330  1.00  0.00     0.039 A 
ATOM     31  C   UNL A   1      34.253  32.999  30.299  1.00  0.00     0.014 A 
ATOM     32  C   UNL A   1      35.676  34.371  28.906  1.00  0.00     0.014 A 
ATOM     33  C   UNL A   1      35.382  32.352  30.807  1.00  0.00     0.010 A 
ATOM     34  C   UNL A   1      36.794  33.665  29.349  1.00  0.00     0.010 A 
ATOM     35  C   UNL A   1      36.663  32.662  30.320  1.00  0.00    -0.014 A 
BRANCH  35  36
ATOM     36  C   UNL A   1      37.864  31.955  30.838  1.00  0.00     0.031 A 
ATOM     37  C   UNL A   1      38.431  32.303  32.188  1.00  0.00     0.074 A 
ATOM     38  C   UNL A   1      38.468  31.022  30.079  1.00  0.00     0.049 A 
ATOM     39  N   UNL A   1      39.459  31.783  32.812  1.00  0.00    -0.248 NA
ATOM     40  C   UNL A   1      37.779  33.399  32.921  1.00  0.00     0.031 C 
ATOM     41  C   UNL A   1      38.063  30.642  28.724  1.00  0.00     0.029 A 
ATOM     42  N   UNL A   1      39.555  30.225  30.336  1.00  0.00    -0.354 N 
ATOM     43  C   UNL A   1      39.584  32.497  33.998  1.00  0.00     0.074 A 
ATOM     44  C   UNL A   1      38.567  33.526  33.977  1.00  0.00     0.031 C 
ATOM     45  C   UNL A   1      38.872  29.668  28.281  1.00  0.00     0.029 A 
ATOM     46  C   UNL A   1      39.869  29.373  29.305  1.00  0.00     0.049 A 
ATOM     47  H   UNL A   1      40.062  30.261  31.179  1.00  0.00     0.167 HD
ATOM     48  C   UNL A   1      40.449  32.301  35.022  1.00  0.00     0.037 A 
ATOM     49  C   UNL A   1      40.849  28.456  29.197  1.00  0.00     0.037 A 
ATOM     50  C   UNL A   1      41.448  31.264  35.048  1.00  0.00     0.049 A 
ATOM     51  C   UNL A   1      41.777  28.231  30.357  1.00  0.00     0.074 A 
ATOM     52  C   UNL A   1      42.320  30.931  36.070  1.00  0.00     0.029 A 
ATOM     53  N   UNL A   1      41.715  30.398  33.998  1.00  0.00    -0.354 N 
ATOM     54  N   UNL A   1      41.821  28.847  31.514  1.00  0.00    -0.248 NA
ATOM     55  C   UNL A   1      42.779  27.167  30.205  1.00  0.00     0.031 C 
ATOM     56  C   UNL A   1      43.153  29.902  35.616  1.00  0.00     0.029 A 
ATOM     57  C   UNL A   1      42.758  29.549  34.336  1.00  0.00     0.049 A 
ATOM     58  H   UNL A   1      41.234  30.388  33.138  1.00  0.00     0.167 HD
ATOM     59  C   UNL A   1      42.835  28.232  32.236  1.00  0.00     0.074 A 
ATOM     60  C   UNL A   1      43.367  27.181  31.392  1.00  0.00     0.031 C 
ATOM     61  C   UNL A   1      43.285  28.511  33.485  1.00  0.00     0.037 A 
BRANCH  48  62
ATOM     62  C   UNL A   1      40.357  33.240  36.193  1.00  0.00     0.057 A 
ATOM     63  C   UNL A   1      39.478  33.014  37.262  1.00  0.00     0.134 A 
ATOM     64  C   UNL A   1      41.163  34.383  36.257  1.00  0.00     0.134 A 
ATOM     65  F   UNL A   1      38.667  31.945  37.263  1.00  0.00    -0.206 F 
ATOM     66  C   UNL A   1      39.375  33.910  38.328  1.00  0.00     0.040 A 
ATOM     67  C   UNL A   1      41.094  35.269  37.333  1.00  0.00     0.040 A 
ATOM     68  F   UNL A   1      42.034  34.659  35.274  1.00  0.00    -0.206 F 
ATOM     69  C   UNL A   1      40.189  35.040  38.368  1.00  0.00     0.006 A 
ENDBRANCH  48  62
BRANCH  49  70
ATOM     70  C   UNL A   1      40.974  27.659  27.950  1.00  0.00     0.057 A 
ATOM     71  C   UNL A   1      41.753  28.106  26.876  1.00  0.00     0.134 A 
ATOM     72  C   UNL A   1      40.334  26.422  27.812  1.00  0.00     0.134 A 
ATOM     73  F   UNL A   1      42.379  29.290  26.942  1.00  0.00    -0.206 F 
ATOM     74  C   UNL A   1      41.878  27.359  25.703  1.00  0.00     0.040 A 
ATOM     75  C   UNL A   1      40.472  25.652  26.655  1.00  0.00     0.040 A 
ATOM     76  F   UNL A   1      39.583  25.933  28.810  1.00  0.00    -0.206 F 
ATOM     77  C   UNL A   1      41.242  26.124  25.595  1.00  0.00     0.006 A 
ENDBRANCH  49  70
BRANCH  61  78
ATOM     78  C   UNL A   1      44.386  27.643  34.027  1.00  0.00     0.057 A 
ATOM     79  C   UNL A   1      44.126  26.434  34.685  1.00  0.00     0.134 A 
ATOM     80  C   UNL A   1      45.727  28.019  33.873  1.00  0.00     0.134 A 
ATOM     81  F   UNL A   1      42.864  26.020  34.875  1.00  0.00    -0.206 F 
ATOM     82  C   UNL A   1      45.158  25.648  35.205  1.00  0.00     0.040 A 
ATOM     83  C   UNL A   1      46.769  27.226  34.360  1.00  0.00     0.040 A 
ATOM     84  F   UNL A   1      46.049  29.158  33.243  1.00  0.00    -0.206 F 
ATOM     85  C   UNL A   1      46.484  26.042  35.037  1.00  0.00     0.006 A 
ENDBRANCH  61  78
ENDBRANCH  35  36
ENDBRANCH  27  30
ENDBRANCH  25  26
ENDBRANCH  24  25
ENDBRANCH   1  24
TORSDOF 13
ENDMDL
MODEL 3
REMARK VINA RESULT:     -11.6      4.388      9.240
REMARK SMILES Cc1ccc(C(=O)N[C@@H]2C=C[C@H](C(=O)NCCCCNC(=O)c3ccc(-c4c5nc(c(-c6c(F)cccc6F)c6ccc([nH]6)c(-c6c(F)cccc6F)c6nc(c(-c7c(F)cccc7F)c7ccc4[nH]7)C=C6)C=C5)cc3)C2)c(F)c1
REMARK SMILES IDX 17 1 16 2 15 3 13 4 14 5 12 7 9 8 10 9 77 10 11 11 8 12 6 13
REMARK SMILES IDX 7 14 5 16 1 17 2 18 3 19 80 20 4 21 78 22 79 23 18 24 19 25
REMARK SMILES IDX 20 26 21 27 22 29 23 30 24 31 76 32 25 33 75 34 26 35 27 36
REMARK SMILES IDX 28 37 69 38 29 39 74 40 68 41 70 42 30 43 73 44 67 45 66 46
REMARK SMILES IDX 31 48 57 49 40 50 56 51 41 52 44 53 55 54 71 55 42 56 43 57
REMARK SMILES IDX 54 59 72 60 45 61 32 62 33 63 38 64 34 65 35 66 37 67 39 68
REMARK SMILES IDX 36 69 58 70 59 71 64 72 60 73 61 74 63 75 65 76 62 77 46 78
REMARK SMILES IDX 47 79 52 80 48 81 49 82 51 83 53 84 50 85
REMARK H PARENT 15 6 8 15 20 28 70 47 44 58
REMARK Flexibility Score: inf
ROOT
ATOM      1  C   UNL A   1      31.671  30.696  26.251  1.00  0.00     0.023 C 
ENDROOT
BRANCH   1   2
ATOM      2  C   UNL A   1      33.035  30.064  26.524  1.00  0.00     0.116 C 
BRANCH   2   3
ATOM      3  N   UNL A   1      33.604  29.399  25.366  1.00  0.00    -0.356 N 
ATOM      4  C   UNL A   1      33.477  28.090  24.980  1.00  0.00     0.227 C 
ATOM      5  O   UNL A   1      33.891  27.770  23.868  1.00  0.00    -0.274 OA
ATOM      6  H   UNL A   1      34.155  29.965  24.778  1.00  0.00     0.163 HD
BRANCH   4   7
ATOM      7  C   UNL A   1      32.883  27.093  25.979  1.00  0.00     0.103 C 
ATOM      8  C   UNL A   1      32.702  24.743  25.204  1.00  0.00     0.106 C 
ATOM      9  C   UNL A   1      31.369  25.419  25.316  1.00  0.00    -0.006 C 
ATOM     10  C   UNL A   1      33.639  25.766  25.867  1.00  0.00     0.047 C 
ATOM     11  C   UNL A   1      31.469  26.694  25.707  1.00  0.00    -0.016 C 
BRANCH   8  12
ATOM     12  N   UNL A   1      32.897  24.412  23.803  1.00  0.00    -0.346 N 
ATOM     13  C   UNL A   1      33.578  23.403  23.166  1.00  0.00     0.254 C 
ATOM     14  O   UNL A   1      33.316  23.143  21.995  1.00  0.00    -0.269 OA
ATOM     15  H   UNL A   1      32.453  25.038  23.185  1.00  0.00     0.164 HD
BRANCH  13  16
ATOM     16  C   UNL A   1      34.682  22.702  23.837  1.00  0.00     0.075 A 
ATOM     17  C   UNL A   1      37.775  19.964  25.001  1.00  0.00     0.044 C 
ATOM     18  C   UNL A   1      36.707  20.970  24.685  1.00  0.00    -0.048 A 
ATOM     19  C   UNL A   1      37.030  22.189  24.072  1.00  0.00     0.004 A 
ATOM     20  C   UNL A   1      35.373  20.697  25.001  1.00  0.00     0.043 A 
ATOM     21  C   UNL A   1      36.020  23.069  23.667  1.00  0.00     0.017 A 
ATOM     22  C   UNL A   1      34.368  21.556  24.568  1.00  0.00     0.136 A 
ATOM     23  F   UNL A   1      33.095  21.208  24.808  1.00  0.00    -0.206 F 
ENDBRANCH  13  16
ENDBRANCH   8  12
ENDBRANCH   4   7
ENDBRANCH   2   3
ENDBRANCH   1   2
BRANCH   1  24
ATOM     24  C   UNL A   1      31.482  32.128  26.755  1.00  0.00     0.023 C 
BRANCH  24  25
ATOM     25  C   UNL A   1      32.761  32.925  26.987  1.00  0.00     0.116 C 
BRANCH  25  26
ATOM     26  N   UNL A   1      32.524  34.207  27.626  1.00  0.00    -0.352 N 
ATOM     27  C   UNL A   1      33.124  34.767  28.728  1.00  0.00     0.251 C 
ATOM     28  H   UNL A   1      31.825  34.760  27.206  1.00  0.00     0.163 HD
ATOM     29  O   UNL A   1      32.683  35.816  29.186  1.00  0.00    -0.269 OA
BRANCH  27  30
ATOM     30  C   UNL A   1      34.280  34.110  29.383  1.00  0.00     0.039 A 
ATOM     31  C   UNL A   1      34.028  33.137  30.355  1.00  0.00     0.014 A 
ATOM     32  C   UNL A   1      35.598  34.463  29.081  1.00  0.00     0.014 A 
ATOM     33  C   UNL A   1      35.093  32.492  30.989  1.00  0.00     0.010 A 
ATOM     34  C   UNL A   1      36.658  33.758  29.650  1.00  0.00     0.010 A 
ATOM     35  C   UNL A   1      36.420  32.779  30.626  1.00  0.00    -0.014 A 
BRANCH  35  36
ATOM     36  C   UNL A   1      37.555  32.075  31.279  1.00  0.00     0.031 A 
ATOM     37  C   UNL A   1      38.301  30.990  30.550  1.00  0.00     0.074 A 
ATOM     38  C   UNL A   1      37.893  32.387  32.544  1.00  0.00     0.049 A 
ATOM     39  N   UNL A   1      39.326  30.280  30.950  1.00  0.00    -0.248 NA
ATOM     40  C   UNL A   1      37.815  30.635  29.208  1.00  0.00     0.031 C 
ATOM     41  C   UNL A   1      37.205  33.367  33.386  1.00  0.00     0.029 A 
ATOM     42  N   UNL A   1      38.900  31.908  33.345  1.00  0.00    -0.354 N 
ATOM     43  C   UNL A   1      39.595  29.387  29.919  1.00  0.00     0.074 A 
ATOM     44  C   UNL A   1      38.588  29.604  28.904  1.00  0.00     0.031 C 
ATOM     45  C   UNL A   1      37.826  33.436  34.574  1.00  0.00     0.029 A 
ATOM     46  C   UNL A   1      38.936  32.489  34.589  1.00  0.00     0.049 A 
ATOM     47  H   UNL A   1      39.535  31.214  33.055  1.00  0.00     0.167 HD
ATOM     48  C   UNL A   1      40.601  28.485  29.815  1.00  0.00     0.037 A 
ATOM     49  C   UNL A   1      39.769  32.282  35.626  1.00  0.00     0.037 A 
ATOM     50  C   UNL A   1      41.613  28.285  30.820  1.00  0.00     0.049 A 
ATOM     51  C   UNL A   1      40.900  31.302  35.478  1.00  0.00     0.074 A 
ATOM     52  C   UNL A   1      42.719  27.454  30.777  1.00  0.00     0.029 A 
ATOM     53  N   UNL A   1      41.636  28.916  32.055  1.00  0.00    -0.354 N 
ATOM     54  N   UNL A   1      41.201  30.535  34.458  1.00  0.00    -0.248 NA
ATOM     55  C   UNL A   1      41.817  31.175  36.618  1.00  0.00     0.031 C 
ATOM     56  C   UNL A   1      43.379  27.540  32.008  1.00  0.00     0.029 A 
ATOM     57  C   UNL A   1      42.721  28.472  32.795  1.00  0.00     0.049 A 
ATOM     58  H   UNL A   1      40.977  29.581  32.361  1.00  0.00     0.167 HD
ATOM     59  C   UNL A   1      42.355  29.854  34.822  1.00  0.00     0.074 A 
ATOM     60  C   UNL A   1      42.709  30.314  36.149  1.00  0.00     0.031 C 
ATOM     61  C   UNL A   1      43.059  28.931  34.119  1.00  0.00     0.037 A 
BRANCH  48  62
ATOM     62  C   UNL A   1      40.644  27.640  28.573  1.00  0.00     0.057 A 
ATOM     63  C   UNL A   1      39.956  26.421  28.476  1.00  0.00     0.134 A 
ATOM     64  C   UNL A   1      41.378  28.052  27.453  1.00  0.00     0.134 A 
ATOM     65  F   UNL A   1      39.242  25.958  29.513  1.00  0.00    -0.206 F 
ATOM     66  C   UNL A   1      40.030  25.627  27.329  1.00  0.00     0.040 A 
ATOM     67  C   UNL A   1      41.433  27.283  26.289  1.00  0.00     0.040 A 
ATOM     68  F   UNL A   1      42.054  29.211  27.470  1.00  0.00    -0.206 F 
ATOM     69  C   UNL A   1      40.767  26.060  26.229  1.00  0.00     0.006 A 
ENDBRANCH  48  62
BRANCH  49  70
ATOM     70  C   UNL A   1      39.582  33.051  36.883  1.00  0.00     0.057 A 
ATOM     71  C   UNL A   1      40.327  34.206  37.148  1.00  0.00     0.134 A 
ATOM     72  C   UNL A   1      38.639  32.658  37.840  1.00  0.00     0.134 A 
ATOM     73  F   UNL A   1      41.257  34.624  36.276  1.00  0.00    -0.206 F 
ATOM     74  C   UNL A   1      40.152  34.935  38.326  1.00  0.00     0.040 A 
ATOM     75  C   UNL A   1      38.434  33.392  39.010  1.00  0.00     0.040 A 
ATOM     76  F   UNL A   1      37.885  31.567  37.640  1.00  0.00    -0.206 F 
ATOM     77  C   UNL A   1      39.197  34.531  39.257  1.00  0.00     0.006 A 
ENDBRANCH  49  70
BRANCH  61  78
ATOM     78  C   UNL A   1      44.303  28.384  34.762  1.00  0.00     0.057 A 
ATOM     79  C   UNL A   1      44.288  27.217  35.537  1.00  0.00     0.134 A 
ATOM     80  C   UNL A   1      45.535  29.028  34.589  1.00  0.00     0.134 A 
ATOM     81  F   UNL A   1      43.141  26.556  35.752  1.00  0.00    -0.206 F 
ATOM     82  C   UNL A   1      45.447  26.732  36.149  1.00  0.00     0.040 A 
ATOM     83  C   UNL A   1      46.706  28.535  35.169  1.00  0.00     0.040 A 
ATOM     84  F   UNL A   1      45.624  30.144  33.850  1.00  0.00    -0.206 F 
ATOM     85  C   UNL A   1      46.661  27.389  35.960  1.00  0.00     0.006 A 
ENDBRANCH  61  78
ENDBRANCH  35  36
ENDBRANCH  27  30
ENDBRANCH  25  26
ENDBRANCH  24  25
ENDBRANCH   1  24
TORSDOF 13
ENDMDL
