MODEL 1
REMARK VINA RESULT:     -10.7      0.000      0.000
REMARK SMILES C[C@@H]1CC([NH2+][C@@](C)(C(=O)NCCCCNC(=O)c2ccc(-c3c4nc(c(-c5c(F)cccc5F)c5ccc([nH]5)c(-c5c(F)cccc5F)c5nc(c(-c6c(F)cccc6F)c6ccc3[nH]6)C=C5)C=C4)cc2)C(F)(F)F)C[C@@H](C)C1
REMARK SMILES IDX 12 1 11 2 10 3 8 4 9 5 6 7 7 8 5 9 4 12 1 13 2 14 3 15 79 16
REMARK SMILES IDX 77 17 76 18 78 19 72 20 73 21 74 22 75 23 13 24 14 25 15 26
REMARK SMILES IDX 16 27 17 29 18 30 19 31 71 32 20 33 70 34 21 35 22 36 23 37
REMARK SMILES IDX 64 38 24 39 69 40 63 41 65 42 25 43 68 44 62 45 61 46 26 48
REMARK SMILES IDX 52 49 35 50 51 51 36 52 39 53 50 54 66 55 37 56 38 57 49 59
REMARK SMILES IDX 67 60 40 61 27 62 28 63 33 64 29 65 30 66 32 67 34 68 31 69
REMARK SMILES IDX 53 70 54 71 59 72 55 73 56 74 58 75 60 76 57 77 41 78 42 79
REMARK SMILES IDX 47 80 43 81 44 82 46 83 48 84 45 85
REMARK H PARENT 10 6 5 10 5 11 15 28 65 47 39 58
REMARK Flexibility Score: inf
ROOT
ATOM      1  C   UNL A   1      38.618  22.838  26.349  1.00  0.00     0.023 C 
ENDROOT
BRANCH   1   2
ATOM      2  C   UNL A   1      37.453  23.622  25.751  1.00  0.00     0.116 C 
BRANCH   2   3
ATOM      3  N   UNL A   1      37.356  23.407  24.321  1.00  0.00    -0.350 N 
ATOM      4  C   UNL A   1      36.302  23.131  23.490  1.00  0.00     0.290 C 
ATOM      5  O   UNL A   1      36.609  22.940  22.311  1.00  0.00    -0.267 OA
ATOM      6  H   UNL A   1      38.221  23.473  23.853  1.00  0.00     0.163 HD
BRANCH   4   7
ATOM      7  C   UNL A   1      34.831  23.095  24.003  1.00  0.00     0.268 C 
ATOM      8  C   UNL A   1      33.919  22.832  22.783  1.00  0.00     0.101 C 
BRANCH   7   9
ATOM      9  N   UNL A   1      34.573  24.399  24.712  1.00  0.00    -0.324 N 
ATOM     10  H   UNL A   1      34.238  24.167  25.647  1.00  0.00     0.347 HD
ATOM     11  H   UNL A   1      35.467  24.888  24.650  1.00  0.00     0.347 HD
BRANCH   9  12
ATOM     12  C   UNL A   1      33.618  25.355  24.142  1.00  0.00     0.184 C 
ATOM     13  C   UNL A   1      32.073  23.958  26.818  1.00  0.00     0.008 C 
ATOM     14  C   UNL A   1      31.655  25.081  25.869  1.00  0.00    -0.008 C 
ATOM     15  C   UNL A   1      32.175  24.878  24.429  1.00  0.00     0.068 C 
ATOM     16  C   UNL A   1      32.013  26.464  26.446  1.00  0.00     0.007 C 
ATOM     17  C   UNL A   1      33.465  26.882  26.171  1.00  0.00    -0.008 C 
ATOM     18  C   UNL A   1      33.747  26.792  24.666  1.00  0.00     0.068 C 
ATOM     19  C   UNL A   1      33.754  28.287  26.694  1.00  0.00     0.008 C 
ENDBRANCH   9  12
ENDBRANCH   7   9
BRANCH   7  20
ATOM     20  C   UNL A   1      34.744  21.819  24.900  1.00  0.00     0.453 C 
ATOM     21  F   UNL A   1      35.720  20.918  24.648  1.00  0.00    -0.164 F 
ATOM     22  F   UNL A   1      34.862  22.155  26.216  1.00  0.00    -0.164 F 
ATOM     23  F   UNL A   1      33.546  21.194  24.794  1.00  0.00    -0.164 F 
ENDBRANCH   7  20
ENDBRANCH   4   7
ENDBRANCH   2   3
ENDBRANCH   1   2
BRANCH   1  24
ATOM     24  C   UNL A   1      38.990  21.568  25.591  1.00  0.00     0.023 C 
BRANCH  24  25
ATOM     25  C   UNL A   1      39.316  20.374  26.479  1.00  0.00     0.116 C 
BRANCH  25  26
ATOM     26  N   UNL A   1      40.372  19.521  25.948  1.00  0.00    -0.352 N 
ATOM     27  C   UNL A   1      41.722  19.779  25.864  1.00  0.00     0.251 C 
ATOM     28  H   UNL A   1      40.081  18.646  25.603  1.00  0.00     0.163 HD
ATOM     29  O   UNL A   1      42.476  18.996  25.306  1.00  0.00    -0.269 OA
BRANCH  27  30
ATOM     30  C   UNL A   1      42.237  21.045  26.425  1.00  0.00     0.039 A 
ATOM     31  C   UNL A   1      42.644  22.054  25.551  1.00  0.00     0.014 A 
ATOM     32  C   UNL A   1      42.235  21.255  27.806  1.00  0.00     0.014 A 
ATOM     33  C   UNL A   1      42.967  23.313  26.061  1.00  0.00     0.010 A 
ATOM     34  C   UNL A   1      42.479  22.528  28.303  1.00  0.00     0.010 A 
ATOM     35  C   UNL A   1      42.839  23.571  27.435  1.00  0.00    -0.014 A 
BRANCH  35  36
ATOM     36  C   UNL A   1      43.069  24.924  27.995  1.00  0.00     0.031 A 
ATOM     37  C   UNL A   1      44.445  25.323  28.445  1.00  0.00     0.074 A 
ATOM     38  C   UNL A   1      42.025  25.755  28.185  1.00  0.00     0.049 A 
ATOM     39  N   UNL A   1      44.830  26.407  29.067  1.00  0.00    -0.248 NA
ATOM     40  C   UNL A   1      45.527  24.358  28.193  1.00  0.00     0.031 C 
ATOM     41  C   UNL A   1      40.632  25.462  27.841  1.00  0.00     0.029 A 
ATOM     42  N   UNL A   1      41.974  27.013  28.731  1.00  0.00    -0.354 N 
ATOM     43  C   UNL A   1      46.189  26.244  29.302  1.00  0.00     0.074 A 
ATOM     44  C   UNL A   1      46.551  24.936  28.801  1.00  0.00     0.031 C 
ATOM     45  C   UNL A   1      39.868  26.519  28.163  1.00  0.00     0.029 A 
ATOM     46  C   UNL A   1      40.708  27.546  28.769  1.00  0.00     0.049 A 
ATOM     47  H   UNL A   1      42.769  27.489  29.062  1.00  0.00     0.167 HD
ATOM     48  C   UNL A   1      47.060  27.114  29.863  1.00  0.00     0.037 A 
ATOM     49  C   UNL A   1      40.275  28.728  29.245  1.00  0.00     0.037 A 
ATOM     50  C   UNL A   1      46.705  28.429  30.325  1.00  0.00     0.049 A 
ATOM     51  C   UNL A   1      41.267  29.684  29.847  1.00  0.00     0.074 A 
ATOM     52  C   UNL A   1      47.527  29.411  30.847  1.00  0.00     0.029 A 
ATOM     53  N   UNL A   1      45.419  28.947  30.312  1.00  0.00    -0.354 N 
ATOM     54  N   UNL A   1      42.559  29.540  30.009  1.00  0.00    -0.248 NA
ATOM     55  C   UNL A   1      40.739  30.969  30.331  1.00  0.00     0.031 C 
ATOM     56  C   UNL A   1      46.733  30.514  31.178  1.00  0.00     0.029 A 
ATOM     57  C   UNL A   1      45.423  30.231  30.828  1.00  0.00     0.049 A 
ATOM     58  H   UNL A   1      44.621  28.472  29.984  1.00  0.00     0.167 HD
ATOM     59  C   UNL A   1      43.004  30.723  30.587  1.00  0.00     0.074 A 
ATOM     60  C   UNL A   1      41.844  31.577  30.738  1.00  0.00     0.031 C 
ATOM     61  C   UNL A   1      44.259  31.070  30.959  1.00  0.00     0.037 A 
BRANCH  48  62
ATOM     62  C   UNL A   1      48.486  26.669  29.997  1.00  0.00     0.057 A 
ATOM     63  C   UNL A   1      49.446  26.974  29.022  1.00  0.00     0.134 A 
ATOM     64  C   UNL A   1      48.910  25.946  31.119  1.00  0.00     0.134 A 
ATOM     65  F   UNL A   1      49.101  27.650  27.917  1.00  0.00    -0.206 F 
ATOM     66  C   UNL A   1      50.771  26.554  29.147  1.00  0.00     0.040 A 
ATOM     67  C   UNL A   1      50.238  25.542  31.267  1.00  0.00     0.040 A 
ATOM     68  F   UNL A   1      48.041  25.624  32.090  1.00  0.00    -0.206 F 
ATOM     69  C   UNL A   1      51.171  25.840  30.275  1.00  0.00     0.006 A 
ENDBRANCH  48  62
BRANCH  49  70
ATOM     70  C   UNL A   1      38.839  29.089  29.146  1.00  0.00     0.057 A 
ATOM     71  C   UNL A   1      38.294  29.535  27.936  1.00  0.00     0.134 A 
ATOM     72  C   UNL A   1      37.984  29.007  30.251  1.00  0.00     0.134 A 
ATOM     73  F   UNL A   1      39.070  29.652  26.849  1.00  0.00    -0.206 F 
ATOM     74  C   UNL A   1      36.952  29.904  27.832  1.00  0.00     0.040 A 
ATOM     75  C   UNL A   1      36.635  29.352  30.155  1.00  0.00     0.040 A 
ATOM     76  F   UNL A   1      38.446  28.580  31.436  1.00  0.00    -0.206 F 
ATOM     77  C   UNL A   1      36.117  29.809  28.944  1.00  0.00     0.006 A 
ENDBRANCH  49  70
BRANCH  61  78
ATOM     78  C   UNL A   1      44.450  32.442  31.530  1.00  0.00     0.057 A 
ATOM     79  C   UNL A   1      44.370  32.684  32.906  1.00  0.00     0.134 A 
ATOM     80  C   UNL A   1      44.760  33.523  30.696  1.00  0.00     0.134 A 
ATOM     81  F   UNL A   1      44.062  31.691  33.755  1.00  0.00    -0.206 F 
ATOM     82  C   UNL A   1      44.577  33.959  33.433  1.00  0.00     0.040 A 
ATOM     83  C   UNL A   1      44.992  34.798  31.214  1.00  0.00     0.040 A 
ATOM     84  F   UNL A   1      44.858  33.354  29.369  1.00  0.00    -0.206 F 
ATOM     85  C   UNL A   1      44.896  35.019  32.586  1.00  0.00     0.006 A 
ENDBRANCH  61  78
ENDBRANCH  35  36
ENDBRANCH  27  30
ENDBRANCH  25  26
ENDBRANCH  24  25
ENDBRANCH   1  24
TORSDOF 14
ENDMDL
MODEL 2
REMARK VINA RESULT:     -10.6      1.309      6.437
REMARK SMILES C[C@@H]1CC([NH2+][C@@](C)(C(=O)NCCCCNC(=O)c2ccc(-c3c4nc(c(-c5c(F)cccc5F)c5ccc([nH]5)c(-c5c(F)cccc5F)c5nc(c(-c6c(F)cccc6F)c6ccc3[nH]6)C=C5)C=C4)cc2)C(F)(F)F)C[C@@H](C)C1
REMARK SMILES IDX 12 1 11 2 10 3 8 4 9 5 6 7 7 8 5 9 4 12 1 13 2 14 3 15 79 16
REMARK SMILES IDX 77 17 76 18 78 19 72 20 73 21 74 22 75 23 13 24 14 25 15 26
REMARK SMILES IDX 16 27 17 29 18 30 19 31 71 32 20 33 70 34 21 35 22 36 23 37
REMARK SMILES IDX 64 38 24 39 69 40 63 41 65 42 25 43 68 44 62 45 61 46 26 48
REMARK SMILES IDX 52 49 35 50 51 51 36 52 39 53 50 54 66 55 37 56 38 57 49 59
REMARK SMILES IDX 67 60 40 61 27 62 28 63 33 64 29 65 30 66 32 67 34 68 31 69
REMARK SMILES IDX 53 70 54 71 59 72 55 73 56 74 58 75 60 76 57 77 41 78 42 79
REMARK SMILES IDX 47 80 43 81 44 82 46 83 48 84 45 85
REMARK H PARENT 10 6 5 10 5 11 15 28 65 47 39 58
REMARK Flexibility Score: inf
ROOT
ATOM      1  C   UNL A   1      36.406  19.941  24.948  1.00  0.00     0.023 C 
ENDROOT
BRANCH   1   2
ATOM      2  C   UNL A   1      34.940  20.364  24.914  1.00  0.00     0.116 C 
BRANCH   2   3
ATOM      3  N   UNL A   1      34.588  21.129  26.094  1.00  0.00    -0.350 N 
ATOM      4  C   UNL A   1      33.906  22.304  26.272  1.00  0.00     0.290 C 
ATOM      5  O   UNL A   1      33.854  22.699  27.439  1.00  0.00    -0.267 OA
ATOM      6  H   UNL A   1      34.901  20.722  26.935  1.00  0.00     0.163 HD
BRANCH   4   7
ATOM      7  C   UNL A   1      33.228  23.056  25.088  1.00  0.00     0.268 C 
ATOM      8  C   UNL A   1      34.208  23.024  23.894  1.00  0.00     0.101 C 
BRANCH   7   9
ATOM      9  N   UNL A   1      32.877  24.438  25.578  1.00  0.00    -0.324 N 
ATOM     10  H   UNL A   1      31.871  24.447  25.745  1.00  0.00     0.347 HD
ATOM     11  H   UNL A   1      33.481  24.565  26.391  1.00  0.00     0.347 HD
BRANCH   9  12
ATOM     12  C   UNL A   1      33.181  25.600  24.738  1.00  0.00     0.184 C 
ATOM     13  C   UNL A   1      29.879  25.812  25.486  1.00  0.00     0.008 C 
ATOM     14  C   UNL A   1      30.820  26.755  24.736  1.00  0.00    -0.008 C 
ATOM     15  C   UNL A   1      31.918  26.011  23.946  1.00  0.00     0.068 C 
ATOM     16  C   UNL A   1      31.386  27.842  25.670  1.00  0.00     0.007 C 
ATOM     17  C   UNL A   1      32.616  27.381  26.466  1.00  0.00    -0.008 C 
ATOM     18  C   UNL A   1      33.676  26.838  25.499  1.00  0.00     0.068 C 
ATOM     19  C   UNL A   1      33.188  28.510  27.320  1.00  0.00     0.008 C 
ENDBRANCH   9  12
ENDBRANCH   7   9
BRANCH   7  20
ATOM     20  C   UNL A   1      32.011  22.163  24.684  1.00  0.00     0.453 C 
ATOM     21  F   UNL A   1      31.555  21.387  25.692  1.00  0.00    -0.164 F 
ATOM     22  F   UNL A   1      30.962  22.940  24.291  1.00  0.00    -0.164 F 
ATOM     23  F   UNL A   1      32.286  21.367  23.621  1.00  0.00    -0.164 F 
ENDBRANCH   7  20
ENDBRANCH   4   7
ENDBRANCH   2   3
ENDBRANCH   1   2
BRANCH   1  24
ATOM     24  C   UNL A   1      37.404  21.073  24.728  1.00  0.00     0.023 C 
BRANCH  24  25
ATOM     25  C   UNL A   1      38.559  21.101  25.721  1.00  0.00     0.116 C 
BRANCH  25  26
ATOM     26  N   UNL A   1      39.441  19.945  25.627  1.00  0.00    -0.352 N 
ATOM     27  C   UNL A   1      40.773  19.853  25.963  1.00  0.00     0.251 C 
ATOM     28  H   UNL A   1      39.030  19.122  25.277  1.00  0.00     0.163 HD
ATOM     29  O   UNL A   1      41.406  18.832  25.740  1.00  0.00    -0.269 OA
BRANCH  27  30
ATOM     30  C   UNL A   1      41.435  21.031  26.558  1.00  0.00     0.039 A 
ATOM     31  C   UNL A   1      42.005  21.985  25.712  1.00  0.00     0.014 A 
ATOM     32  C   UNL A   1      41.416  21.226  27.941  1.00  0.00     0.014 A 
ATOM     33  C   UNL A   1      42.478  23.182  26.250  1.00  0.00     0.010 A 
ATOM     34  C   UNL A   1      41.814  22.449  28.464  1.00  0.00     0.010 A 
ATOM     35  C   UNL A   1      42.341  23.442  27.624  1.00  0.00    -0.014 A 
BRANCH  35  36
ATOM     36  C   UNL A   1      42.733  24.745  28.210  1.00  0.00     0.031 A 
ATOM     37  C   UNL A   1      41.695  25.806  28.435  1.00  0.00     0.074 A 
ATOM     38  C   UNL A   1      44.034  25.006  28.451  1.00  0.00     0.049 A 
ATOM     39  N   UNL A   1      41.849  27.046  28.822  1.00  0.00    -0.248 NA
ATOM     40  C   UNL A   1      40.300  25.434  28.152  1.00  0.00     0.031 C 
ATOM     41  C   UNL A   1      45.143  24.078  28.223  1.00  0.00     0.029 A 
ATOM     42  N   UNL A   1      44.643  26.139  28.929  1.00  0.00    -0.354 N 
ATOM     43  C   UNL A   1      40.579  27.606  28.805  1.00  0.00     0.074 A 
ATOM     44  C   UNL A   1      39.672  26.587  28.321  1.00  0.00     0.031 C 
ATOM     45  C   UNL A   1      46.293  24.671  28.581  1.00  0.00     0.029 A 
ATOM     46  C   UNL A   1      46.008  26.031  29.028  1.00  0.00     0.049 A 
ATOM     47  H   UNL A   1      44.147  26.952  29.177  1.00  0.00     0.167 HD
ATOM     48  C   UNL A   1      40.198  28.849  29.180  1.00  0.00     0.037 A 
ATOM     49  C   UNL A   1      46.926  26.930  29.428  1.00  0.00     0.037 A 
ATOM     50  C   UNL A   1      41.095  29.848  29.697  1.00  0.00     0.049 A 
ATOM     51  C   UNL A   1      46.476  28.298  29.857  1.00  0.00     0.074 A 
ATOM     52  C   UNL A   1      40.798  31.114  30.168  1.00  0.00     0.029 A 
ATOM     53  N   UNL A   1      42.467  29.686  29.818  1.00  0.00    -0.354 N 
ATOM     54  N   UNL A   1      45.263  28.794  29.892  1.00  0.00    -0.248 NA
ATOM     55  C   UNL A   1      47.521  29.230  30.305  1.00  0.00     0.031 C 
ATOM     56  C   UNL A   1      41.995  31.731  30.546  1.00  0.00     0.029 A 
ATOM     57  C   UNL A   1      43.032  30.835  30.344  1.00  0.00     0.049 A 
ATOM     58  H   UNL A   1      42.966  28.875  29.566  1.00  0.00     0.167 HD
ATOM     59  C   UNL A   1      45.395  30.085  30.390  1.00  0.00     0.074 A 
ATOM     60  C   UNL A   1      46.805  30.290  30.652  1.00  0.00     0.031 C 
ATOM     61  C   UNL A   1      44.436  31.015  30.610  1.00  0.00     0.037 A 
BRANCH  48  62
ATOM     62  C   UNL A   1      38.744  29.191  29.053  1.00  0.00     0.057 A 
ATOM     63  C   UNL A   1      37.873  29.121  30.149  1.00  0.00     0.134 A 
ATOM     64  C   UNL A   1      38.211  29.614  27.828  1.00  0.00     0.134 A 
ATOM     65  F   UNL A   1      38.317  28.707  31.344  1.00  0.00    -0.206 F 
ATOM     66  C   UNL A   1      36.518  29.434  30.025  1.00  0.00     0.040 A 
ATOM     67  C   UNL A   1      36.863  29.954  27.699  1.00  0.00     0.040 A 
ATOM     68  F   UNL A   1      38.992  29.706  26.741  1.00  0.00    -0.206 F 
ATOM     69  C   UNL A   1      36.012  29.857  28.798  1.00  0.00     0.006 A 
ENDBRANCH  48  62
BRANCH  49  70
ATOM     70  C   UNL A   1      48.362  26.558  29.472  1.00  0.00     0.057 A 
ATOM     71  C   UNL A   1      49.210  26.839  28.393  1.00  0.00     0.134 A 
ATOM     72  C   UNL A   1      48.919  25.909  30.580  1.00  0.00     0.134 A 
ATOM     73  F   UNL A   1      48.727  27.441  27.297  1.00  0.00    -0.206 F 
ATOM     74  C   UNL A   1      50.556  26.472  28.407  1.00  0.00     0.040 A 
ATOM     75  C   UNL A   1      50.270  25.557  30.616  1.00  0.00     0.040 A 
ATOM     76  F   UNL A   1      48.161  25.619  31.648  1.00  0.00    -0.206 F 
ATOM     77  C   UNL A   1      51.090  25.832  29.524  1.00  0.00     0.006 A 
ENDBRANCH  49  70
BRANCH  61  78
ATOM     78  C   UNL A   1      44.872  32.324  31.194  1.00  0.00     0.057 A 
ATOM     79  C   UNL A   1      44.955  32.522  32.577  1.00  0.00     0.134 A 
ATOM     80  C   UNL A   1      45.255  33.383  30.361  1.00  0.00     0.134 A 
ATOM     81  F   UNL A   1      44.588  31.550  33.427  1.00  0.00    -0.206 F 
ATOM     82  C   UNL A   1      45.389  33.735  33.113  1.00  0.00     0.040 A 
ATOM     83  C   UNL A   1      45.713  34.592  30.885  1.00  0.00     0.040 A 
ATOM     84  F   UNL A   1      45.206  33.252  29.027  1.00  0.00    -0.206 F 
ATOM     85  C   UNL A   1      45.777  34.772  32.265  1.00  0.00     0.006 A 
ENDBRANCH  61  78
ENDBRANCH  35  36
ENDBRANCH  27  30
ENDBRANCH  25  26
ENDBRANCH  24  25
ENDBRANCH   1  24
TORSDOF 14
ENDMDL
MODEL 3
REMARK VINA RESULT:     -10.6      2.454      7.657
REMARK SMILES C[C@@H]1CC([NH2+][C@@](C)(C(=O)NCCCCNC(=O)c2ccc(-c3c4nc(c(-c5c(F)cccc5F)c5ccc([nH]5)c(-c5c(F)cccc5F)c5nc(c(-c6c(F)cccc6F)c6ccc3[nH]6)C=C5)C=C4)cc2)C(F)(F)F)C[C@@H](C)C1
REMARK SMILES IDX 12 1 11 2 10 3 8 4 9 5 6 7 7 8 5 9 4 12 1 13 2 14 3 15 79 16
REMARK SMILES IDX 77 17 76 18 78 19 72 20 73 21 74 22 75 23 13 24 14 25 15 26
REMARK SMILES IDX 16 27 17 29 18 30 19 31 71 32 20 33 70 34 21 35 22 36 23 37
REMARK SMILES IDX 64 38 24 39 69 40 63 41 65 42 25 43 68 44 62 45 61 46 26 48
REMARK SMILES IDX 52 49 35 50 51 51 36 52 39 53 50 54 66 55 37 56 38 57 49 59
REMARK SMILES IDX 67 60 40 61 27 62 28 63 33 64 29 65 30 66 32 67 34 68 31 69
REMARK SMILES IDX 53 70 54 71 59 72 55 73 56 74 58 75 60 76 57 77 41 78 42 79
REMARK SMILES IDX 47 80 43 81 44 82 46 83 48 84 45 85
REMARK H PARENT 10 6 5 10 5 11 15 28 65 47 39 58
REMARK Flexibility Score: inf
ROOT
ATOM      1  C   UNL A   1      31.619  28.493  25.889  1.00  0.00     0.023 C 
ENDROOT
BRANCH   1   2
ATOM      2  C   UNL A   1      30.994  27.210  25.345  1.00  0.00     0.116 C 
BRANCH   2   3
ATOM      3  N   UNL A   1      31.101  26.129  26.304  1.00  0.00    -0.350 N 
ATOM      4  C   UNL A   1      31.739  24.916  26.273  1.00  0.00     0.290 C 
ATOM      5  O   UNL A   1      31.553  24.209  27.265  1.00  0.00    -0.267 OA
ATOM      6  H   UNL A   1      30.619  26.301  27.147  1.00  0.00     0.163 HD
BRANCH   4   7
ATOM      7  C   UNL A   1      32.651  24.491  25.084  1.00  0.00     0.268 C 
ATOM      8  C   UNL A   1      31.933  24.899  23.778  1.00  0.00     0.101 C 
BRANCH   7   9
ATOM      9  N   UNL A   1      32.909  23.013  25.225  1.00  0.00    -0.324 N 
ATOM     10  H   UNL A   1      33.729  22.910  25.822  1.00  0.00     0.347 HD
ATOM     11  H   UNL A   1      32.027  22.648  25.586  1.00  0.00     0.347 HD
BRANCH   9  12
ATOM     12  C   UNL A   1      33.151  22.204  24.026  1.00  0.00     0.184 C 
ATOM     13  C   UNL A   1      35.896  21.836  25.985  1.00  0.00     0.008 C 
ATOM     14  C   UNL A   1      35.489  21.185  24.662  1.00  0.00    -0.008 C 
ATOM     15  C   UNL A   1      34.671  22.127  23.752  1.00  0.00     0.068 C 
ATOM     16  C   UNL A   1      34.798  19.828  24.895  1.00  0.00     0.007 C 
ATOM     17  C   UNL A   1      33.299  19.952  25.202  1.00  0.00    -0.008 C 
ATOM     18  C   UNL A   1      32.617  20.766  24.095  1.00  0.00     0.068 C 
ATOM     19  C   UNL A   1      32.640  18.583  25.351  1.00  0.00     0.008 C 
ENDBRANCH   9  12
ENDBRANCH   7   9
BRANCH   7  20
ATOM     20  C   UNL A   1      33.915  25.402  25.195  1.00  0.00     0.453 C 
ATOM     21  F   UNL A   1      35.060  24.780  24.837  1.00  0.00    -0.164 F 
ATOM     22  F   UNL A   1      33.793  26.484  24.375  1.00  0.00    -0.164 F 
ATOM     23  F   UNL A   1      34.075  25.912  26.440  1.00  0.00    -0.164 F 
ENDBRANCH   7  20
ENDBRANCH   4   7
ENDBRANCH   2   3
ENDBRANCH   1   2
BRANCH   1  24
ATOM     24  C   UNL A   1      32.303  28.346  27.243  1.00  0.00     0.023 C 
BRANCH  24  25
ATOM     25  C   UNL A   1      33.700  28.949  27.316  1.00  0.00     0.116 C 
BRANCH  25  26
ATOM     26  N   UNL A   1      33.731  30.287  27.891  1.00  0.00    -0.352 N 
ATOM     27  C   UNL A   1      34.773  30.922  28.529  1.00  0.00     0.251 C 
ATOM     28  H   UNL A   1      32.898  30.806  27.813  1.00  0.00     0.163 HD
ATOM     29  O   UNL A   1      34.618  32.020  29.043  1.00  0.00    -0.269 OA
BRANCH  27  30
ATOM     30  C   UNL A   1      36.074  30.229  28.621  1.00  0.00     0.039 A 
ATOM     31  C   UNL A   1      36.934  30.258  27.522  1.00  0.00     0.014 A 
ATOM     32  C   UNL A   1      36.469  29.629  29.819  1.00  0.00     0.014 A 
ATOM     33  C   UNL A   1      38.231  29.759  27.653  1.00  0.00     0.010 A 
ATOM     34  C   UNL A   1      37.783  29.207  29.971  1.00  0.00     0.010 A 
ATOM     35  C   UNL A   1      38.679  29.276  28.893  1.00  0.00    -0.014 A 
BRANCH  35  36
ATOM     36  C   UNL A   1      40.081  28.841  29.096  1.00  0.00     0.031 A 
ATOM     37  C   UNL A   1      41.086  29.800  29.667  1.00  0.00     0.074 A 
ATOM     38  C   UNL A   1      40.469  27.619  28.679  1.00  0.00     0.049 A 
ATOM     39  N   UNL A   1      42.378  29.656  29.811  1.00  0.00    -0.248 NA
ATOM     40  C   UNL A   1      40.574  31.109  30.102  1.00  0.00     0.031 C 
ATOM     41  C   UNL A   1      39.600  26.617  28.058  1.00  0.00     0.029 A 
ATOM     42  N   UNL A   1      41.703  27.018  28.703  1.00  0.00    -0.354 N 
ATOM     43  C   UNL A   1      42.835  30.861  30.327  1.00  0.00     0.074 A 
ATOM     44  C   UNL A   1      41.691  31.742  30.425  1.00  0.00     0.031 C 
ATOM     45  C   UNL A   1      40.323  25.520  27.781  1.00  0.00     0.029 A 
ATOM     46  C   UNL A   1      41.710  25.753  28.169  1.00  0.00     0.049 A 
ATOM     47  H   UNL A   1      42.506  27.453  29.069  1.00  0.00     0.167 HD
ATOM     48  C   UNL A   1      44.090  31.195  30.708  1.00  0.00     0.037 A 
ATOM     49  C   UNL A   1      42.724  24.883  28.005  1.00  0.00     0.037 A 
ATOM     50  C   UNL A   1      45.217  30.305  30.647  1.00  0.00     0.049 A 
ATOM     51  C   UNL A   1      44.105  25.272  28.453  1.00  0.00     0.074 A 
ATOM     52  C   UNL A   1      46.515  30.526  31.070  1.00  0.00     0.029 A 
ATOM     53  N   UNL A   1      45.176  29.017  30.134  1.00  0.00    -0.354 N 
ATOM     54  N   UNL A   1      44.511  26.394  28.995  1.00  0.00    -0.248 NA
ATOM     55  C   UNL A   1      45.167  24.273  28.268  1.00  0.00     0.031 C 
ATOM     56  C   UNL A   1      47.268  29.381  30.787  1.00  0.00     0.029 A 
ATOM     57  C   UNL A   1      46.429  28.436  30.219  1.00  0.00     0.049 A 
ATOM     58  H   UNL A   1      44.375  28.581  29.763  1.00  0.00     0.167 HD
ATOM     59  C   UNL A   1      45.868  26.226  29.241  1.00  0.00     0.074 A 
ATOM     60  C   UNL A   1      46.213  24.891  28.798  1.00  0.00     0.031 C 
ATOM     61  C   UNL A   1      46.749  27.100  29.784  1.00  0.00     0.037 A 
BRANCH  48  62
ATOM     62  C   UNL A   1      44.302  32.583  31.235  1.00  0.00     0.057 A 
ATOM     63  C   UNL A   1      44.167  32.881  32.598  1.00  0.00     0.134 A 
ATOM     64  C   UNL A   1      44.663  33.629  30.376  1.00  0.00     0.134 A 
ATOM     65  F   UNL A   1      43.808  31.927  33.469  1.00  0.00    -0.206 F 
ATOM     66  C   UNL A   1      44.360  34.175  33.084  1.00  0.00     0.040 A 
ATOM     67  C   UNL A   1      44.883  34.922  30.855  1.00  0.00     0.040 A 
ATOM     68  F   UNL A   1      44.811  33.410  29.061  1.00  0.00    -0.206 F 
ATOM     69  C   UNL A   1      44.724  35.198  32.212  1.00  0.00     0.006 A 
ENDBRANCH  48  62
BRANCH  49  70
ATOM     70  C   UNL A   1      42.468  23.545  27.416  1.00  0.00     0.057 A 
ATOM     71  C   UNL A   1      42.132  22.456  28.229  1.00  0.00     0.134 A 
ATOM     72  C   UNL A   1      42.560  23.320  26.038  1.00  0.00     0.134 A 
ATOM     73  F   UNL A   1      42.048  22.608  29.559  1.00  0.00    -0.206 F 
ATOM     74  C   UNL A   1      41.914  21.185  27.695  1.00  0.00     0.040 A 
ATOM     75  C   UNL A   1      42.323  22.058  25.488  1.00  0.00     0.040 A 
ATOM     76  F   UNL A   1      42.871  24.325  25.206  1.00  0.00    -0.206 F 
ATOM     77  C   UNL A   1      42.005  20.986  26.318  1.00  0.00     0.006 A 
ENDBRANCH  49  70
BRANCH  61  78
ATOM     78  C   UNL A   1      48.160  26.628  29.964  1.00  0.00     0.057 A 
ATOM     79  C   UNL A   1      49.141  26.851  28.991  1.00  0.00     0.134 A 
ATOM     80  C   UNL A   1      48.549  25.982  31.144  1.00  0.00     0.134 A 
ATOM     81  F   UNL A   1      48.826  27.453  27.833  1.00  0.00    -0.206 F 
ATOM     82  C   UNL A   1      50.459  26.433  29.178  1.00  0.00     0.040 A 
ATOM     83  C   UNL A   1      49.869  25.580  31.352  1.00  0.00     0.040 A 
ATOM     84  F   UNL A   1      47.657  25.746  32.117  1.00  0.00    -0.206 F 
ATOM     85  C   UNL A   1      50.827  25.802  30.365  1.00  0.00     0.006 A 
ENDBRANCH  61  78
ENDBRANCH  35  36
ENDBRANCH  27  30
ENDBRANCH  25  26
ENDBRANCH  24  25
ENDBRANCH   1  24
TORSDOF 14
ENDMDL
