MODEL 1
REMARK VINA RESULT:     -12.1      0.000      0.000
REMARK SMILES C[C@@H]1CCC[C@@]1(C(=O)NCCCCNC(=O)c1ccc(-c2c3nc(c(-c4c(F)cccc4F)c4ccc([nH]4)c(-c4c(F)cccc4F)c4nc(c(-c5c(F)cccc5F)c5ccc2[nH]5)C=C4)C=C3)cc1)c1ccc(Cl)cc1Cl
REMARK SMILES IDX 12 1 11 2 10 3 9 4 7 5 8 6 6 8 1 9 2 10 3 11 4 12 5 13 71 14
REMARK SMILES IDX 72 15 77 16 73 17 76 18 78 19 74 20 75 21 13 22 14 23 15 24
REMARK SMILES IDX 16 26 17 27 18 28 70 29 19 30 69 31 20 32 21 33 22 34 63 35
REMARK SMILES IDX 23 36 68 37 62 38 64 39 24 40 67 41 61 42 60 43 25 45 51 46
REMARK SMILES IDX 34 47 50 48 35 49 38 50 49 51 65 52 36 53 37 54 48 56 66 57
REMARK SMILES IDX 39 58 26 59 27 60 32 61 28 62 29 63 31 64 33 65 30 66 52 67
REMARK SMILES IDX 53 68 58 69 54 70 55 71 57 72 59 73 56 74 40 75 41 76 46 77
REMARK SMILES IDX 42 78 43 79 45 80 47 81 44 82
REMARK H PARENT 9 7 14 25 64 44 38 55
REMARK Flexibility Score: inf
ROOT
ATOM      1  C   UNL A   1      38.075  20.091  24.626  1.00  0.00     0.023 C 
ENDROOT
BRANCH   1   2
ATOM      2  C   UNL A   1      36.632  20.359  25.030  1.00  0.00     0.023 C 
BRANCH   2   3
ATOM      3  C   UNL A   1      36.393  21.742  25.623  1.00  0.00     0.116 C 
BRANCH   3   4
ATOM      4  N   UNL A   1      35.379  21.739  26.658  1.00  0.00    -0.355 N 
ATOM      5  C   UNL A   1      34.105  22.246  26.635  1.00  0.00     0.230 C 
ATOM      6  O   UNL A   1      33.434  22.128  27.662  1.00  0.00    -0.274 OA
ATOM      7  H   UNL A   1      35.643  21.310  27.503  1.00  0.00     0.163 HD
BRANCH   5   8
ATOM      8  C   UNL A   1      33.586  22.996  25.376  1.00  0.00     0.078 C 
ATOM      9  C   UNL A   1      32.821  20.529  24.833  1.00  0.00     0.009 C 
ATOM     10  C   UNL A   1      32.521  22.040  24.696  1.00  0.00     0.006 C 
ATOM     11  C   UNL A   1      32.550  22.369  23.197  1.00  0.00     0.005 C 
ATOM     12  C   UNL A   1      33.897  23.023  22.928  1.00  0.00     0.002 C 
ATOM     13  C   UNL A   1      34.653  23.072  24.257  1.00  0.00     0.022 C 
BRANCH   8  14
ATOM     14  C   UNL A   1      33.137  24.452  25.726  1.00  0.00    -0.013 A 
ATOM     15  C   UNL A   1      34.036  25.533  25.603  1.00  0.00     0.008 A 
ATOM     16  C   UNL A   1      31.809  24.787  26.106  1.00  0.00     0.046 A 
ATOM     17  C   UNL A   1      33.626  26.864  25.750  1.00  0.00     0.021 A 
ATOM     18  C   UNL A   1      31.390  26.124  26.203  1.00  0.00     0.041 A 
ATOM     19  Cl  UNL A   1      30.593  23.623  26.501  1.00  0.00    -0.084 Cl
ATOM     20  C   UNL A   1      32.297  27.154  26.012  1.00  0.00     0.042 A 
ATOM     21  Cl  UNL A   1      31.775  28.789  26.104  1.00  0.00    -0.084 Cl
ENDBRANCH   8  14
ENDBRANCH   5   8
ENDBRANCH   3   4
ENDBRANCH   2   3
ENDBRANCH   1   2
BRANCH   1  22
ATOM     22  C   UNL A   1      39.087  20.252  25.751  1.00  0.00     0.116 C 
BRANCH  22  23
ATOM     23  N   UNL A   1      40.039  19.150  25.832  1.00  0.00    -0.352 N 
ATOM     24  C   UNL A   1      41.387  19.198  26.086  1.00  0.00     0.251 C 
ATOM     25  H   UNL A   1      39.665  18.252  25.684  1.00  0.00     0.163 HD
ATOM     26  O   UNL A   1      42.079  18.189  26.010  1.00  0.00    -0.269 OA
BRANCH  24  27
ATOM     27  C   UNL A   1      41.994  20.499  26.415  1.00  0.00     0.039 A 
ATOM     28  C   UNL A   1      42.333  21.369  25.376  1.00  0.00     0.014 A 
ATOM     29  C   UNL A   1      42.136  20.886  27.750  1.00  0.00     0.014 A 
ATOM     30  C   UNL A   1      42.743  22.665  25.681  1.00  0.00     0.010 A 
ATOM     31  C   UNL A   1      42.457  22.202  28.047  1.00  0.00     0.010 A 
ATOM     32  C   UNL A   1      42.767  23.104  27.016  1.00  0.00    -0.014 A 
BRANCH  32  33
ATOM     33  C   UNL A   1      43.121  24.501  27.360  1.00  0.00     0.031 A 
ATOM     34  C   UNL A   1      44.556  24.939  27.308  1.00  0.00     0.074 A 
ATOM     35  C   UNL A   1      42.164  25.348  27.785  1.00  0.00     0.049 A 
ATOM     36  N   UNL A   1      45.080  26.094  27.634  1.00  0.00    -0.248 NA
ATOM     37  C   UNL A   1      45.541  23.938  26.865  1.00  0.00     0.031 C 
ATOM     38  C   UNL A   1      40.745  25.018  27.940  1.00  0.00     0.029 A 
ATOM     39  N   UNL A   1      42.243  26.661  28.174  1.00  0.00    -0.354 N 
ATOM     40  C   UNL A   1      46.449  25.947  27.456  1.00  0.00     0.074 A 
ATOM     41  C   UNL A   1      46.683  24.579  27.052  1.00  0.00     0.031 C 
ATOM     42  C   UNL A   1      40.084  26.108  28.361  1.00  0.00     0.029 A 
ATOM     43  C   UNL A   1      41.034  27.202  28.538  1.00  0.00     0.049 A 
ATOM     44  H   UNL A   1      43.087  27.168  28.190  1.00  0.00     0.167 HD
ATOM     45  C   UNL A   1      47.423  26.879  27.586  1.00  0.00     0.037 A 
ATOM     46  C   UNL A   1      40.730  28.442  28.964  1.00  0.00     0.037 A 
ATOM     47  C   UNL A   1      47.182  28.249  27.951  1.00  0.00     0.049 A 
ATOM     48  C   UNL A   1      41.825  29.465  29.079  1.00  0.00     0.074 A 
ATOM     49  C   UNL A   1      48.089  29.289  28.045  1.00  0.00     0.029 A 
ATOM     50  N   UNL A   1      45.939  28.768  28.278  1.00  0.00    -0.354 N 
ATOM     51  N   UNL A   1      43.107  29.335  28.835  1.00  0.00    -0.248 NA
ATOM     52  C   UNL A   1      41.430  30.810  29.521  1.00  0.00     0.031 C 
ATOM     53  C   UNL A   1      47.399  30.432  28.462  1.00  0.00     0.029 A 
ATOM     54  C   UNL A   1      46.056  30.113  28.589  1.00  0.00     0.049 A 
ATOM     55  H   UNL A   1      45.097  28.258  28.288  1.00  0.00     0.167 HD
ATOM     56  C   UNL A   1      43.667  30.583  29.066  1.00  0.00     0.074 A 
ATOM     57  C   UNL A   1      42.583  31.462  29.456  1.00  0.00     0.031 C 
ATOM     58  C   UNL A   1      44.962  30.970  28.965  1.00  0.00     0.037 A 
BRANCH  45  59
ATOM     59  C   UNL A   1      48.833  26.443  27.319  1.00  0.00     0.057 A 
ATOM     60  C   UNL A   1      49.666  25.974  28.343  1.00  0.00     0.134 A 
ATOM     61  C   UNL A   1      49.359  26.475  26.022  1.00  0.00     0.134 A 
ATOM     62  F   UNL A   1      49.228  25.933  29.612  1.00  0.00    -0.206 F 
ATOM     63  C   UNL A   1      50.981  25.579  28.093  1.00  0.00     0.040 A 
ATOM     64  C   UNL A   1      50.665  26.058  25.754  1.00  0.00     0.040 A 
ATOM     65  F   UNL A   1      48.615  26.910  24.995  1.00  0.00    -0.206 F 
ATOM     66  C   UNL A   1      51.482  25.615  26.793  1.00  0.00     0.006 A 
ENDBRANCH  45  59
BRANCH  46  67
ATOM     67  C   UNL A   1      39.323  28.798  29.278  1.00  0.00     0.057 A 
ATOM     68  C   UNL A   1      38.484  29.342  28.299  1.00  0.00     0.134 A 
ATOM     69  C   UNL A   1      38.787  28.612  30.557  1.00  0.00     0.134 A 
ATOM     70  F   UNL A   1      38.946  29.558  27.058  1.00  0.00    -0.206 F 
ATOM     71  C   UNL A   1      37.168  29.708  28.584  1.00  0.00     0.040 A 
ATOM     72  C   UNL A   1      37.466  28.953  30.851  1.00  0.00     0.040 A 
ATOM     73  F   UNL A   1      39.538  28.088  31.536  1.00  0.00    -0.206 F 
ATOM     74  C   UNL A   1      36.654  29.510  29.864  1.00  0.00     0.006 A 
ENDBRANCH  46  67
BRANCH  58  75
ATOM     75  C   UNL A   1      45.271  32.410  29.248  1.00  0.00     0.057 A 
ATOM     76  C   UNL A   1      45.657  32.846  30.521  1.00  0.00     0.134 A 
ATOM     77  C   UNL A   1      45.218  33.363  28.223  1.00  0.00     0.134 A 
ATOM     78  F   UNL A   1      45.714  31.983  31.547  1.00  0.00    -0.206 F 
ATOM     79  C   UNL A   1      45.960  34.185  30.770  1.00  0.00     0.040 A 
ATOM     80  C   UNL A   1      45.542  34.700  28.455  1.00  0.00     0.040 A 
ATOM     81  F   UNL A   1      44.862  33.008  26.980  1.00  0.00    -0.206 F 
ATOM     82  C   UNL A   1      45.909  35.115  29.733  1.00  0.00     0.006 A 
ENDBRANCH  58  75
ENDBRANCH  32  33
ENDBRANCH  24  27
ENDBRANCH  22  23
ENDBRANCH   1  22
TORSDOF 12
ENDMDL
MODEL 2
REMARK VINA RESULT:     -12.1      5.338     10.211
REMARK SMILES C[C@@H]1CCC[C@@]1(C(=O)NCCCCNC(=O)c1ccc(-c2c3nc(c(-c4c(F)cccc4F)c4ccc([nH]4)c(-c4c(F)cccc4F)c4nc(c(-c5c(F)cccc5F)c5ccc2[nH]5)C=C4)C=C3)cc1)c1ccc(Cl)cc1Cl
REMARK SMILES IDX 12 1 11 2 10 3 9 4 7 5 8 6 6 8 1 9 2 10 3 11 4 12 5 13 71 14
REMARK SMILES IDX 72 15 77 16 73 17 76 18 78 19 74 20 75 21 13 22 14 23 15 24
REMARK SMILES IDX 16 26 17 27 18 28 70 29 19 30 69 31 20 32 21 33 22 34 63 35
REMARK SMILES IDX 23 36 68 37 62 38 64 39 24 40 67 41 61 42 60 43 25 45 51 46
REMARK SMILES IDX 34 47 50 48 35 49 38 50 49 51 65 52 36 53 37 54 48 56 66 57
REMARK SMILES IDX 39 58 26 59 27 60 32 61 28 62 29 63 31 64 33 65 30 66 52 67
REMARK SMILES IDX 53 68 58 69 54 70 55 71 57 72 59 73 56 74 40 75 41 76 46 77
REMARK SMILES IDX 42 78 43 79 45 80 47 81 44 82
REMARK H PARENT 9 7 14 25 64 44 38 55
REMARK Flexibility Score: inf
ROOT
ATOM      1  C   UNL A   1      31.484  31.883  27.105  1.00  0.00     0.023 C 
ENDROOT
BRANCH   1   2
ATOM      2  C   UNL A   1      31.533  30.957  25.897  1.00  0.00     0.023 C 
BRANCH   2   3
ATOM      3  C   UNL A   1      32.638  29.910  25.953  1.00  0.00     0.116 C 
BRANCH   3   4
ATOM      4  N   UNL A   1      33.277  29.703  24.670  1.00  0.00    -0.355 N 
ATOM      5  C   UNL A   1      33.260  28.603  23.851  1.00  0.00     0.230 C 
ATOM      6  O   UNL A   1      33.905  28.672  22.803  1.00  0.00    -0.274 OA
ATOM      7  H   UNL A   1      33.803  30.466  24.335  1.00  0.00     0.163 HD
BRANCH   5   8
ATOM      8  C   UNL A   1      32.510  27.315  24.292  1.00  0.00     0.078 C 
ATOM      9  C   UNL A   1      30.550  28.663  23.150  1.00  0.00     0.009 C 
ATOM     10  C   UNL A   1      31.164  27.277  23.458  1.00  0.00     0.006 C 
ATOM     11  C   UNL A   1      30.148  26.520  24.325  1.00  0.00     0.005 C 
ATOM     12  C   UNL A   1      30.653  26.613  25.757  1.00  0.00     0.002 C 
ATOM     13  C   UNL A   1      31.951  27.423  25.730  1.00  0.00     0.022 C 
BRANCH   8  14
ATOM     14  C   UNL A   1      33.444  26.061  24.222  1.00  0.00    -0.013 A 
ATOM     15  C   UNL A   1      34.179  25.646  25.352  1.00  0.00     0.008 A 
ATOM     16  C   UNL A   1      33.552  25.234  23.071  1.00  0.00     0.046 A 
ATOM     17  C   UNL A   1      34.894  24.443  25.375  1.00  0.00     0.021 A 
ATOM     18  C   UNL A   1      34.226  24.004  23.114  1.00  0.00     0.041 A 
ATOM     19  Cl  UNL A   1      32.897  25.641  21.522  1.00  0.00    -0.084 Cl
ATOM     20  C   UNL A   1      34.883  23.609  24.269  1.00  0.00     0.042 A 
ATOM     21  Cl  UNL A   1      35.686  22.091  24.327  1.00  0.00    -0.084 Cl
ENDBRANCH   8  14
ENDBRANCH   5   8
ENDBRANCH   3   4
ENDBRANCH   2   3
ENDBRANCH   1   2
BRANCH   1  22
ATOM     22  C   UNL A   1      32.715  32.763  27.276  1.00  0.00     0.116 C 
BRANCH  22  23
ATOM     23  N   UNL A   1      32.392  34.146  27.604  1.00  0.00    -0.352 N 
ATOM     24  C   UNL A   1      32.988  34.970  28.527  1.00  0.00     0.251 C 
ATOM     25  H   UNL A   1      31.648  34.543  27.098  1.00  0.00     0.163 HD
ATOM     26  O   UNL A   1      32.529  36.081  28.769  1.00  0.00    -0.269 OA
BRANCH  24  27
ATOM     27  C   UNL A   1      34.171  34.475  29.250  1.00  0.00     0.039 A 
ATOM     28  C   UNL A   1      33.993  33.822  30.472  1.00  0.00     0.014 A 
ATOM     29  C   UNL A   1      35.438  34.578  28.670  1.00  0.00     0.014 A 
ATOM     30  C   UNL A   1      35.083  33.199  31.076  1.00  0.00     0.010 A 
ATOM     31  C   UNL A   1      36.500  33.881  29.227  1.00  0.00     0.010 A 
ATOM     32  C   UNL A   1      36.334  33.188  30.436  1.00  0.00    -0.014 A 
BRANCH  32  33
ATOM     33  C   UNL A   1      37.489  32.463  31.019  1.00  0.00     0.031 A 
ATOM     34  C   UNL A   1      38.101  32.946  32.302  1.00  0.00     0.074 A 
ATOM     35  C   UNL A   1      38.026  31.420  30.356  1.00  0.00     0.049 A 
ATOM     36  N   UNL A   1      39.152  32.495  32.938  1.00  0.00    -0.248 NA
ATOM     37  C   UNL A   1      37.470  34.114  32.940  1.00  0.00     0.031 C 
ATOM     38  C   UNL A   1      37.560  30.900  29.069  1.00  0.00     0.029 A 
ATOM     39  N   UNL A   1      39.091  30.615  30.674  1.00  0.00    -0.354 N 
ATOM     40  C   UNL A   1      39.317  33.334  34.031  1.00  0.00     0.074 A 
ATOM     41  C   UNL A   1      38.298  34.356  33.943  1.00  0.00     0.031 C 
ATOM     42  C   UNL A   1      38.315  29.845  28.722  1.00  0.00     0.029 A 
ATOM     43  C   UNL A   1      39.337  29.635  29.743  1.00  0.00     0.049 A 
ATOM     44  H   UNL A   1      39.627  30.729  31.492  1.00  0.00     0.167 HD
ATOM     45  C   UNL A   1      40.217  33.244  35.038  1.00  0.00     0.037 A 
ATOM     46  C   UNL A   1      40.281  28.676  29.721  1.00  0.00     0.037 A 
ATOM     47  C   UNL A   1      41.205  32.203  35.143  1.00  0.00     0.049 A 
ATOM     48  C   UNL A   1      41.256  28.582  30.861  1.00  0.00     0.074 A 
ATOM     49  C   UNL A   1      42.119  31.981  36.156  1.00  0.00     0.029 A 
ATOM     50  N   UNL A   1      41.401  31.207  34.198  1.00  0.00    -0.354 N 
ATOM     51  N   UNL A   1      41.354  29.337  31.929  1.00  0.00    -0.248 NA
ATOM     52  C   UNL A   1      42.245  27.497  30.798  1.00  0.00     0.031 C 
ATOM     53  C   UNL A   1      42.893  30.869  35.808  1.00  0.00     0.029 A 
ATOM     54  C   UNL A   1      42.433  30.375  34.598  1.00  0.00     0.049 A 
ATOM     55  H   UNL A   1      40.884  31.106  33.367  1.00  0.00     0.167 HD
ATOM     56  C   UNL A   1      42.394  28.804  32.677  1.00  0.00     0.074 A 
ATOM     57  C   UNL A   1      42.887  27.653  31.948  1.00  0.00     0.031 C 
ATOM     58  C   UNL A   1      42.900  29.229  33.861  1.00  0.00     0.037 A 
BRANCH  45  59
ATOM     59  C   UNL A   1      40.162  34.293  36.108  1.00  0.00     0.057 A 
ATOM     60  C   UNL A   1      40.895  35.483  36.012  1.00  0.00     0.134 A 
ATOM     61  C   UNL A   1      39.353  34.122  37.239  1.00  0.00     0.134 A 
ATOM     62  F   UNL A   1      41.702  35.702  34.961  1.00  0.00    -0.206 F 
ATOM     63  C   UNL A   1      40.850  36.453  37.015  1.00  0.00     0.040 A 
ATOM     64  C   UNL A   1      39.278  35.096  38.236  1.00  0.00     0.040 A 
ATOM     65  F   UNL A   1      38.624  33.007  37.392  1.00  0.00    -0.206 F 
ATOM     66  C   UNL A   1      40.034  36.262  38.128  1.00  0.00     0.006 A 
ENDBRANCH  45  59
BRANCH  46  67
ATOM     67  C   UNL A   1      40.328  27.703  28.600  1.00  0.00     0.057 A 
ATOM     68  C   UNL A   1      41.073  27.972  27.446  1.00  0.00     0.134 A 
ATOM     69  C   UNL A   1      39.628  26.493  28.649  1.00  0.00     0.134 A 
ATOM     70  F   UNL A   1      41.752  29.123  27.334  1.00  0.00    -0.206 F 
ATOM     71  C   UNL A   1      41.105  27.081  26.372  1.00  0.00     0.040 A 
ATOM     72  C   UNL A   1      39.669  25.582  27.592  1.00  0.00     0.040 A 
ATOM     73  F   UNL A   1      38.902  26.174  29.731  1.00  0.00    -0.206 F 
ATOM     74  C   UNL A   1      40.403  25.880  26.446  1.00  0.00     0.006 A 
ENDBRANCH  46  67
BRANCH  58  75
ATOM     75  C   UNL A   1      44.018  28.426  34.456  1.00  0.00     0.057 A 
ATOM     76  C   UNL A   1      45.361  28.743  34.220  1.00  0.00     0.134 A 
ATOM     77  C   UNL A   1      43.744  27.347  35.306  1.00  0.00     0.134 A 
ATOM     78  F   UNL A   1      45.687  29.756  33.404  1.00  0.00    -0.206 F 
ATOM     79  C   UNL A   1      46.394  28.001  34.793  1.00  0.00     0.040 A 
ATOM     80  C   UNL A   1      44.769  26.614  35.904  1.00  0.00     0.040 A 
ATOM     81  F   UNL A   1      42.478  26.998  35.579  1.00  0.00    -0.206 F 
ATOM     82  C   UNL A   1      46.099  26.936  35.643  1.00  0.00     0.006 A 
ENDBRANCH  58  75
ENDBRANCH  32  33
ENDBRANCH  24  27
ENDBRANCH  22  23
ENDBRANCH   1  22
TORSDOF 12
ENDMDL
MODEL 3
REMARK VINA RESULT:     -12.1      0.157      1.628
REMARK SMILES C[C@@H]1CCC[C@@]1(C(=O)NCCCCNC(=O)c1ccc(-c2c3nc(c(-c4c(F)cccc4F)c4ccc([nH]4)c(-c4c(F)cccc4F)c4nc(c(-c5c(F)cccc5F)c5ccc2[nH]5)C=C4)C=C3)cc1)c1ccc(Cl)cc1Cl
REMARK SMILES IDX 12 1 11 2 10 3 9 4 7 5 8 6 6 8 1 9 2 10 3 11 4 12 5 13 71 14
REMARK SMILES IDX 72 15 77 16 73 17 76 18 78 19 74 20 75 21 13 22 14 23 15 24
REMARK SMILES IDX 16 26 17 27 18 28 70 29 19 30 69 31 20 32 21 33 22 34 63 35
REMARK SMILES IDX 23 36 68 37 62 38 64 39 24 40 67 41 61 42 60 43 25 45 51 46
REMARK SMILES IDX 34 47 50 48 35 49 38 50 49 51 65 52 36 53 37 54 48 56 66 57
REMARK SMILES IDX 39 58 26 59 27 60 32 61 28 62 29 63 31 64 33 65 30 66 52 67
REMARK SMILES IDX 53 68 58 69 54 70 55 71 57 72 59 73 56 74 40 75 41 76 46 77
REMARK SMILES IDX 42 78 43 79 45 80 47 81 44 82
REMARK H PARENT 9 7 14 25 64 44 38 55
REMARK Flexibility Score: inf
ROOT
ATOM      1  C   UNL A   1      38.153  19.994  24.618  1.00  0.00     0.023 C 
ENDROOT
BRANCH   1   2
ATOM      2  C   UNL A   1      36.708  20.272  25.006  1.00  0.00     0.023 C 
BRANCH   2   3
ATOM      3  C   UNL A   1      36.460  21.678  25.538  1.00  0.00     0.116 C 
BRANCH   3   4
ATOM      4  N   UNL A   1      35.474  21.707  26.599  1.00  0.00    -0.355 N 
ATOM      5  C   UNL A   1      34.211  22.242  26.606  1.00  0.00     0.230 C 
ATOM      6  O   UNL A   1      33.566  22.149  27.652  1.00  0.00    -0.274 OA
ATOM      7  H   UNL A   1      35.751  21.280  27.442  1.00  0.00     0.163 HD
BRANCH   5   8
ATOM      8  C   UNL A   1      33.676  22.992  25.354  1.00  0.00     0.078 C 
ATOM      9  C   UNL A   1      32.948  20.517  24.798  1.00  0.00     0.009 C 
ATOM     10  C   UNL A   1      32.624  22.024  24.672  1.00  0.00     0.006 C 
ATOM     11  C   UNL A   1      32.641  22.363  23.175  1.00  0.00     0.005 C 
ATOM     12  C   UNL A   1      33.976  23.041  22.905  1.00  0.00     0.002 C 
ATOM     13  C   UNL A   1      34.736  23.093  24.231  1.00  0.00     0.022 C 
BRANCH   8  14
ATOM     14  C   UNL A   1      33.204  24.439  25.716  1.00  0.00    -0.013 A 
ATOM     15  C   UNL A   1      34.084  25.535  25.593  1.00  0.00     0.008 A 
ATOM     16  C   UNL A   1      31.874  24.750  26.106  1.00  0.00     0.046 A 
ATOM     17  C   UNL A   1      33.653  26.858  25.751  1.00  0.00     0.021 A 
ATOM     18  C   UNL A   1      31.432  26.078  26.213  1.00  0.00     0.041 A 
ATOM     19  Cl  UNL A   1      30.679  23.562  26.501  1.00  0.00    -0.084 Cl
ATOM     20  C   UNL A   1      32.321  27.125  26.023  1.00  0.00     0.042 A 
ATOM     21  Cl  UNL A   1      31.773  28.750  26.128  1.00  0.00    -0.084 Cl
ENDBRANCH   8  14
ENDBRANCH   5   8
ENDBRANCH   3   4
ENDBRANCH   2   3
ENDBRANCH   1   2
BRANCH   1  22
ATOM     22  C   UNL A   1      39.156  20.168  25.751  1.00  0.00     0.116 C 
BRANCH  22  23
ATOM     23  N   UNL A   1      40.105  19.066  25.855  1.00  0.00    -0.352 N 
ATOM     24  C   UNL A   1      41.452  19.116  26.116  1.00  0.00     0.251 C 
ATOM     25  H   UNL A   1      39.731  18.166  25.719  1.00  0.00     0.163 HD
ATOM     26  O   UNL A   1      42.142  18.104  26.060  1.00  0.00    -0.269 OA
BRANCH  24  27
ATOM     27  C   UNL A   1      42.059  20.421  26.426  1.00  0.00     0.039 A 
ATOM     28  C   UNL A   1      42.398  21.276  25.376  1.00  0.00     0.014 A 
ATOM     29  C   UNL A   1      42.201  20.826  27.756  1.00  0.00     0.014 A 
ATOM     30  C   UNL A   1      42.809  22.576  25.663  1.00  0.00     0.010 A 
ATOM     31  C   UNL A   1      42.523  22.146  28.035  1.00  0.00     0.010 A 
ATOM     32  C   UNL A   1      42.833  23.033  26.992  1.00  0.00    -0.014 A 
BRANCH  32  33
ATOM     33  C   UNL A   1      43.188  24.435  27.317  1.00  0.00     0.031 A 
ATOM     34  C   UNL A   1      44.617  24.884  27.216  1.00  0.00     0.074 A 
ATOM     35  C   UNL A   1      42.238  25.277  27.769  1.00  0.00     0.049 A 
ATOM     36  N   UNL A   1      45.142  26.044  27.518  1.00  0.00    -0.248 NA
ATOM     37  C   UNL A   1      45.594  23.888  26.745  1.00  0.00     0.031 C 
ATOM     38  C   UNL A   1      40.828  24.938  27.973  1.00  0.00     0.029 A 
ATOM     39  N   UNL A   1      42.321  26.593  28.149  1.00  0.00    -0.354 N 
ATOM     40  C   UNL A   1      46.506  25.907  27.296  1.00  0.00     0.074 A 
ATOM     41  C   UNL A   1      46.737  24.538  26.891  1.00  0.00     0.031 C 
ATOM     42  C   UNL A   1      40.173  26.025  28.410  1.00  0.00     0.029 A 
ATOM     43  C   UNL A   1      41.120  27.127  28.550  1.00  0.00     0.049 A 
ATOM     44  H   UNL A   1      43.161  27.106  28.135  1.00  0.00     0.167 HD
ATOM     45  C   UNL A   1      47.476  26.846  27.389  1.00  0.00     0.037 A 
ATOM     46  C   UNL A   1      40.821  28.366  28.980  1.00  0.00     0.037 A 
ATOM     47  C   UNL A   1      47.237  28.216  27.754  1.00  0.00     0.049 A 
ATOM     48  C   UNL A   1      41.912  29.398  29.053  1.00  0.00     0.074 A 
ATOM     49  C   UNL A   1      48.139  29.263  27.812  1.00  0.00     0.029 A 
ATOM     50  N   UNL A   1      46.001  28.728  28.120  1.00  0.00    -0.354 N 
ATOM     51  N   UNL A   1      43.186  29.276  28.767  1.00  0.00    -0.248 NA
ATOM     52  C   UNL A   1      41.522  30.743  29.501  1.00  0.00     0.031 C 
ATOM     53  C   UNL A   1      47.455  30.403  28.247  1.00  0.00     0.029 A 
ATOM     54  C   UNL A   1      46.119  30.075  28.420  1.00  0.00     0.049 A 
ATOM     55  H   UNL A   1      45.165  28.211  28.160  1.00  0.00     0.167 HD
ATOM     56  C   UNL A   1      43.743  30.530  28.973  1.00  0.00     0.074 A 
ATOM     57  C   UNL A   1      42.666  31.403  29.395  1.00  0.00     0.031 C 
ATOM     58  C   UNL A   1      45.031  30.926  28.828  1.00  0.00     0.037 A 
BRANCH  45  59
ATOM     59  C   UNL A   1      48.881  26.419  27.077  1.00  0.00     0.057 A 
ATOM     60  C   UNL A   1      49.396  26.474  25.775  1.00  0.00     0.134 A 
ATOM     61  C   UNL A   1      49.733  25.964  28.091  1.00  0.00     0.134 A 
ATOM     62  F   UNL A   1      48.625  26.886  24.756  1.00  0.00    -0.206 F 
ATOM     63  C   UNL A   1      50.699  26.066  25.487  1.00  0.00     0.040 A 
ATOM     64  C   UNL A   1      51.047  25.578  27.820  1.00  0.00     0.040 A 
ATOM     65  F   UNL A   1      49.304  25.888  29.359  1.00  0.00    -0.206 F 
ATOM     66  C   UNL A   1      51.530  25.622  26.512  1.00  0.00     0.006 A 
ENDBRANCH  45  59
BRANCH  46  67
ATOM     67  C   UNL A   1      39.423  28.713  29.338  1.00  0.00     0.057 A 
ATOM     68  C   UNL A   1      38.944  28.520  30.639  1.00  0.00     0.134 A 
ATOM     69  C   UNL A   1      38.531  29.235  28.393  1.00  0.00     0.134 A 
ATOM     70  F   UNL A   1      39.747  28.008  31.584  1.00  0.00    -0.206 F 
ATOM     71  C   UNL A   1      37.625  28.814  30.985  1.00  0.00     0.040 A 
ATOM     72  C   UNL A   1      37.216  29.555  28.730  1.00  0.00     0.040 A 
ATOM     73  F   UNL A   1      38.931  29.450  27.132  1.00  0.00    -0.206 F 
ATOM     74  C   UNL A   1      36.757  29.338  30.029  1.00  0.00     0.006 A 
ENDBRANCH  46  67
BRANCH  58  75
ATOM     75  C   UNL A   1      45.338  32.370  29.093  1.00  0.00     0.057 A 
ATOM     76  C   UNL A   1      45.214  33.346  28.098  1.00  0.00     0.134 A 
ATOM     77  C   UNL A   1      45.726  32.791  30.371  1.00  0.00     0.134 A 
ATOM     78  F   UNL A   1      44.859  33.004  26.850  1.00  0.00    -0.206 F 
ATOM     79  C   UNL A   1      45.484  34.689  28.359  1.00  0.00     0.040 A 
ATOM     80  C   UNL A   1      45.975  34.135  30.650  1.00  0.00     0.040 A 
ATOM     81  F   UNL A   1      45.856  31.906  31.371  1.00  0.00    -0.206 F 
ATOM     82  C   UNL A   1      45.860  35.088  29.641  1.00  0.00     0.006 A 
ENDBRANCH  58  75
ENDBRANCH  32  33
ENDBRANCH  24  27
ENDBRANCH  22  23
ENDBRANCH   1  22
TORSDOF 12
ENDMDL
