MODEL 1
REMARK VINA RESULT:     -12.3      0.000      0.000
REMARK SMILES O=C(NCCCCNC(=O)[C@H](Cc1ccc(O)cc1)NC(=O)c1ccc(Cl)s1)c1ccc(-c2c3nc(c(-c4c(F)cccc4F)c4ccc([nH]4)c(-c4c(F)cccc4F)c4nc(c(-c5c(F)cccc5F)c5ccc2[nH]5)C=C4)C=C3)cc1
REMARK SMILES IDX 6 1 5 2 4 3 3 4 1 5 2 6 29 8 30 9 82 10 31 11 81 12 32 13
REMARK SMILES IDX 33 14 34 15 75 16 35 17 80 18 74 19 76 20 36 21 79 22 73 23
REMARK SMILES IDX 72 24 37 26 63 27 46 28 62 29 47 30 50 31 61 32 77 33 48 34
REMARK SMILES IDX 49 35 60 37 78 38 51 39 38 40 39 41 44 42 40 43 41 44 43 45
REMARK SMILES IDX 45 46 42 47 64 48 65 49 70 50 66 51 67 52 69 53 71 54 68 55
REMARK SMILES IDX 52 56 53 57 58 58 54 59 55 60 57 61 59 62 56 63 7 64 8 65
REMARK SMILES IDX 9 66 10 68 11 69 20 70 21 71 22 73 23 74 24 75 28 76 25 77
REMARK SMILES IDX 26 78 27 79 12 80 13 81 14 82 19 83 15 84 18 85 16 86 17 87
REMARK H PARENT 3 7 76 25 50 36 8 67 20 72 17 88
REMARK Flexibility Score: inf
ROOT
ATOM      1  C   UNL A   1      37.031  21.068  24.441  1.00  0.00     0.023 C 
ENDROOT
BRANCH   1   2
ATOM      2  C   UNL A   1      37.779  19.868  25.016  1.00  0.00     0.023 C 
BRANCH   2   3
ATOM      3  C   UNL A   1      38.991  20.228  25.862  1.00  0.00     0.116 C 
BRANCH   3   4
ATOM      4  N   UNL A   1      40.016  19.197  25.846  1.00  0.00    -0.352 N 
ATOM      5  O   UNL A   1      42.132  18.400  25.883  1.00  0.00    -0.269 OA
ATOM      6  C   UNL A   1      41.365  19.333  26.067  1.00  0.00     0.251 C 
ATOM      7  H   UNL A   1      39.704  18.284  25.651  1.00  0.00     0.163 HD
BRANCH   6   8
ATOM      8  C   UNL A   1      41.873  20.645  26.506  1.00  0.00     0.039 A 
ATOM      9  C   UNL A   1      41.965  20.940  27.869  1.00  0.00     0.014 A 
ATOM     10  C   UNL A   1      42.212  21.596  25.542  1.00  0.00     0.014 A 
ATOM     11  C   UNL A   1      42.277  22.230  28.270  1.00  0.00     0.010 A 
ATOM     12  C   UNL A   1      42.603  22.869  25.950  1.00  0.00     0.010 A 
ATOM     13  C   UNL A   1      42.615  23.200  27.314  1.00  0.00    -0.014 A 
BRANCH  13  14
ATOM     14  C   UNL A   1      43.053  24.543  27.755  1.00  0.00     0.031 A 
ATOM     15  C   UNL A   1      42.056  25.580  28.174  1.00  0.00     0.074 A 
ATOM     16  C   UNL A   1      44.368  24.821  27.739  1.00  0.00     0.049 A 
ATOM     17  N   UNL A   1      42.257  26.831  28.498  1.00  0.00    -0.248 NA
ATOM     18  C   UNL A   1      40.647  25.164  28.225  1.00  0.00     0.031 C 
ATOM     19  C   UNL A   1      45.421  23.884  27.340  1.00  0.00     0.029 A 
ATOM     20  N   UNL A   1      45.045  25.971  28.051  1.00  0.00    -0.354 N 
ATOM     21  C   UNL A   1      41.002  27.361  28.764  1.00  0.00     0.074 A 
ATOM     22  C   UNL A   1      40.042  26.299  28.549  1.00  0.00     0.031 C 
ATOM     23  C   UNL A   1      46.611  24.493  27.436  1.00  0.00     0.029 A 
ATOM     24  C   UNL A   1      46.398  25.877  27.841  1.00  0.00     0.049 A 
ATOM     25  H   UNL A   1      44.604  26.782  28.392  1.00  0.00     0.167 HD
ATOM     26  C   UNL A   1      40.687  28.620  29.151  1.00  0.00     0.037 A 
ATOM     27  C   UNL A   1      47.359  26.814  27.922  1.00  0.00     0.037 A 
ATOM     28  C   UNL A   1      41.659  29.661  29.372  1.00  0.00     0.049 A 
ATOM     29  C   UNL A   1      46.984  28.206  28.328  1.00  0.00     0.074 A 
ATOM     30  C   UNL A   1      41.450  30.955  29.817  1.00  0.00     0.029 A 
ATOM     31  N   UNL A   1      43.023  29.528  29.152  1.00  0.00    -0.354 N 
ATOM     32  N   UNL A   1      45.799  28.687  28.615  1.00  0.00    -0.248 NA
ATOM     33  C   UNL A   1      48.073  29.186  28.419  1.00  0.00     0.031 C 
ATOM     34  C   UNL A   1      42.683  31.618  29.821  1.00  0.00     0.029 A 
ATOM     35  C   UNL A   1      43.665  30.725  29.424  1.00  0.00     0.049 A 
ATOM     36  H   UNL A   1      43.468  28.705  28.847  1.00  0.00     0.167 HD
ATOM     37  C   UNL A   1      45.998  30.021  28.935  1.00  0.00     0.074 A 
ATOM     38  C   UNL A   1      47.421  30.270  28.816  1.00  0.00     0.031 C 
ATOM     39  C   UNL A   1      45.083  30.953  29.297  1.00  0.00     0.037 A 
BRANCH  26  40
ATOM     40  C   UNL A   1      39.233  28.948  29.326  1.00  0.00     0.057 A 
ATOM     41  C   UNL A   1      38.572  28.777  30.549  1.00  0.00     0.134 A 
ATOM     42  C   UNL A   1      38.487  29.462  28.256  1.00  0.00     0.134 A 
ATOM     43  F   UNL A   1      39.225  28.278  31.610  1.00  0.00    -0.206 F 
ATOM     44  C   UNL A   1      37.217  29.078  30.695  1.00  0.00     0.040 A 
ATOM     45  C   UNL A   1      37.137  29.789  28.397  1.00  0.00     0.040 A 
ATOM     46  F   UNL A   1      39.059  29.656  27.058  1.00  0.00    -0.206 F 
ATOM     47  C   UNL A   1      36.496  29.590  29.617  1.00  0.00     0.006 A 
ENDBRANCH  26  40
BRANCH  27  48
ATOM     48  C   UNL A   1      48.752  26.443  27.585  1.00  0.00     0.057 A 
ATOM     49  C   UNL A   1      49.613  25.907  28.547  1.00  0.00     0.134 A 
ATOM     50  C   UNL A   1      49.229  26.541  26.270  1.00  0.00     0.134 A 
ATOM     51  F   UNL A   1      49.214  25.797  29.822  1.00  0.00    -0.206 F 
ATOM     52  C   UNL A   1      50.900  25.480  28.216  1.00  0.00     0.040 A 
ATOM     53  C   UNL A   1      50.504  26.097  25.921  1.00  0.00     0.040 A 
ATOM     54  F   UNL A   1      48.443  27.031  25.301  1.00  0.00    -0.206 F 
ATOM     55  C   UNL A   1      51.344  25.564  26.897  1.00  0.00     0.006 A 
ENDBRANCH  27  48
BRANCH  39  56
ATOM     56  C   UNL A   1      45.596  32.323  29.615  1.00  0.00     0.057 A 
ATOM     57  C   UNL A   1      46.042  32.663  30.899  1.00  0.00     0.134 A 
ATOM     58  C   UNL A   1      45.700  33.295  28.612  1.00  0.00     0.134 A 
ATOM     59  F   UNL A   1      45.954  31.781  31.905  1.00  0.00    -0.206 F 
ATOM     60  C   UNL A   1      46.565  33.927  31.175  1.00  0.00     0.040 A 
ATOM     61  C   UNL A   1      46.242  34.554  28.871  1.00  0.00     0.040 A 
ATOM     62  F   UNL A   1      45.295  33.028  27.361  1.00  0.00    -0.206 F 
ATOM     63  C   UNL A   1      46.675  34.873  30.156  1.00  0.00     0.006 A 
ENDBRANCH  39  56
ENDBRANCH  13  14
ENDBRANCH   6   8
ENDBRANCH   3   4
ENDBRANCH   2   3
ENDBRANCH   1   2
BRANCH   1  64
ATOM     64  C   UNL A   1      36.434  21.997  25.500  1.00  0.00     0.116 C 
BRANCH  64  65
ATOM     65  N   UNL A   1      35.525  21.257  26.351  1.00  0.00    -0.354 N 
ATOM     66  C   UNL A   1      34.167  21.272  26.416  1.00  0.00     0.242 C 
ATOM     67  H   UNL A   1      35.962  20.645  26.985  1.00  0.00     0.163 HD
ATOM     68  O   UNL A   1      33.686  21.119  27.546  1.00  0.00    -0.273 OA
BRANCH  66  69
ATOM     69  C   UNL A   1      33.243  21.527  25.198  1.00  0.00     0.176 C 
BRANCH  69  70
ATOM     70  N   UNL A   1      33.860  22.000  23.960  1.00  0.00    -0.339 N 
ATOM     71  C   UNL A   1      33.966  23.261  23.419  1.00  0.00     0.262 C 
ATOM     72  H   UNL A   1      34.273  21.290  23.416  1.00  0.00     0.164 HD
ATOM     73  O   UNL A   1      34.401  23.304  22.265  1.00  0.00    -0.268 OA
BRANCH  71  74
ATOM     74  C   UNL A   1      33.640  24.459  24.190  1.00  0.00     0.093 A 
ATOM     75  C   UNL A   1      34.322  25.135  25.192  1.00  0.00     0.027 A 
ATOM     76  S   UNL A   1      32.199  25.321  23.779  1.00  0.00    -0.118 S 
ATOM     77  C   UNL A   1      33.671  26.332  25.615  1.00  0.00     0.033 A 
ATOM     78  C   UNL A   1      32.512  26.528  24.917  1.00  0.00     0.094 A 
ATOM     79  Cl  UNL A   1      31.426  27.846  25.098  1.00  0.00    -0.072 Cl
ENDBRANCH  71  74
ENDBRANCH  69  70
BRANCH  69  80
ATOM     80  C   UNL A   1      32.376  20.269  24.920  1.00  0.00     0.070 C 
BRANCH  80  81
ATOM     81  C   UNL A   1      33.080  18.929  25.003  1.00  0.00    -0.045 A 
ATOM     82  C   UNL A   1      34.259  18.683  24.285  1.00  0.00     0.007 A 
ATOM     83  C   UNL A   1      32.533  17.887  25.768  1.00  0.00     0.007 A 
ATOM     84  C   UNL A   1      34.871  17.425  24.332  1.00  0.00     0.046 A 
ATOM     85  C   UNL A   1      33.152  16.640  25.833  1.00  0.00     0.046 A 
ATOM     86  C   UNL A   1      34.313  16.415  25.108  1.00  0.00     0.115 A 
BRANCH  86  87
ATOM     87  O   UNL A   1      34.869  15.172  25.178  1.00  0.00    -0.508 OA
ATOM     88  H   UNL A   1      34.327  14.426  25.340  1.00  0.00     0.293 HD
ENDBRANCH  86  87
ENDBRANCH  80  81
ENDBRANCH  69  80
ENDBRANCH  66  69
ENDBRANCH  64  65
ENDBRANCH   1  64
TORSDOF 16
ENDMDL
MODEL 2
REMARK VINA RESULT:     -12.1      1.573      3.578
REMARK SMILES O=C(NCCCCNC(=O)[C@H](Cc1ccc(O)cc1)NC(=O)c1ccc(Cl)s1)c1ccc(-c2c3nc(c(-c4c(F)cccc4F)c4ccc([nH]4)c(-c4c(F)cccc4F)c4nc(c(-c5c(F)cccc5F)c5ccc2[nH]5)C=C4)C=C3)cc1
REMARK SMILES IDX 6 1 5 2 4 3 3 4 1 5 2 6 29 8 30 9 82 10 31 11 81 12 32 13
REMARK SMILES IDX 33 14 34 15 75 16 35 17 80 18 74 19 76 20 36 21 79 22 73 23
REMARK SMILES IDX 72 24 37 26 63 27 46 28 62 29 47 30 50 31 61 32 77 33 48 34
REMARK SMILES IDX 49 35 60 37 78 38 51 39 38 40 39 41 44 42 40 43 41 44 43 45
REMARK SMILES IDX 45 46 42 47 64 48 65 49 70 50 66 51 67 52 69 53 71 54 68 55
REMARK SMILES IDX 52 56 53 57 58 58 54 59 55 60 57 61 59 62 56 63 7 64 8 65
REMARK SMILES IDX 9 66 10 68 11 69 20 70 21 71 22 73 23 74 24 75 28 76 25 77
REMARK SMILES IDX 26 78 27 79 12 80 13 81 14 82 19 83 15 84 18 85 16 86 17 87
REMARK H PARENT 3 7 76 25 50 36 8 67 20 72 17 88
REMARK Flexibility Score: inf
ROOT
ATOM      1  C   UNL A   1      36.679  20.160  25.063  1.00  0.00     0.023 C 
ENDROOT
BRANCH   1   2
ATOM      2  C   UNL A   1      38.139  19.917  24.686  1.00  0.00     0.023 C 
BRANCH   2   3
ATOM      3  C   UNL A   1      39.122  20.098  25.832  1.00  0.00     0.116 C 
BRANCH   3   4
ATOM      4  N   UNL A   1      40.151  19.071  25.861  1.00  0.00    -0.352 N 
ATOM      5  O   UNL A   1      42.267  18.282  25.960  1.00  0.00    -0.269 OA
ATOM      6  C   UNL A   1      41.494  19.216  26.108  1.00  0.00     0.251 C 
ATOM      7  H   UNL A   1      39.846  18.153  25.678  1.00  0.00     0.163 HD
BRANCH   6   8
ATOM      8  C   UNL A   1      41.988  20.539  26.529  1.00  0.00     0.039 A 
ATOM      9  C   UNL A   1      42.066  20.858  27.888  1.00  0.00     0.014 A 
ATOM     10  C   UNL A   1      42.329  21.476  25.552  1.00  0.00     0.014 A 
ATOM     11  C   UNL A   1      42.365  22.156  28.270  1.00  0.00     0.010 A 
ATOM     12  C   UNL A   1      42.707  22.759  25.943  1.00  0.00     0.010 A 
ATOM     13  C   UNL A   1      42.704  23.113  27.301  1.00  0.00    -0.014 A 
BRANCH  13  14
ATOM     14  C   UNL A   1      43.128  24.466  27.724  1.00  0.00     0.031 A 
ATOM     15  C   UNL A   1      42.120  25.506  28.107  1.00  0.00     0.074 A 
ATOM     16  C   UNL A   1      44.443  24.751  27.724  1.00  0.00     0.049 A 
ATOM     17  N   UNL A   1      42.310  26.764  28.411  1.00  0.00    -0.248 NA
ATOM     18  C   UNL A   1      40.712  25.083  28.143  1.00  0.00     0.031 C 
ATOM     19  C   UNL A   1      45.506  23.812  27.359  1.00  0.00     0.029 A 
ATOM     20  N   UNL A   1      45.108  25.909  28.025  1.00  0.00    -0.354 N 
ATOM     21  C   UNL A   1      41.048  27.291  28.646  1.00  0.00     0.074 A 
ATOM     22  C   UNL A   1      40.097  26.221  28.436  1.00  0.00     0.031 C 
ATOM     23  C   UNL A   1      46.691  24.428  27.463  1.00  0.00     0.029 A 
ATOM     24  C   UNL A   1      46.465  25.819  27.838  1.00  0.00     0.049 A 
ATOM     25  H   UNL A   1      44.658  26.725  28.343  1.00  0.00     0.167 HD
ATOM     26  C   UNL A   1      40.721  28.556  29.004  1.00  0.00     0.037 A 
ATOM     27  C   UNL A   1      47.420  26.762  27.916  1.00  0.00     0.037 A 
ATOM     28  C   UNL A   1      41.683  29.606  29.221  1.00  0.00     0.049 A 
ATOM     29  C   UNL A   1      47.032  28.159  28.290  1.00  0.00     0.074 A 
ATOM     30  C   UNL A   1      41.461  30.907  29.637  1.00  0.00     0.029 A 
ATOM     31  N   UNL A   1      43.051  29.477  29.025  1.00  0.00    -0.354 N 
ATOM     32  N   UNL A   1      45.840  28.640  28.549  1.00  0.00    -0.248 NA
ATOM     33  C   UNL A   1      48.115  29.147  28.380  1.00  0.00     0.031 C 
ATOM     34  C   UNL A   1      42.690  31.577  29.649  1.00  0.00     0.029 A 
ATOM     35  C   UNL A   1      43.683  30.681  29.285  1.00  0.00     0.049 A 
ATOM     36  H   UNL A   1      43.505  28.650  28.743  1.00  0.00     0.167 HD
ATOM     37  C   UNL A   1      46.027  29.981  28.847  1.00  0.00     0.074 A 
ATOM     38  C   UNL A   1      47.451  30.235  28.746  1.00  0.00     0.031 C 
ATOM     39  C   UNL A   1      45.102  30.915  29.176  1.00  0.00     0.037 A 
BRANCH  26  40
ATOM     40  C   UNL A   1      39.263  28.879  29.150  1.00  0.00     0.057 A 
ATOM     41  C   UNL A   1      38.582  28.728  30.365  1.00  0.00     0.134 A 
ATOM     42  C   UNL A   1      38.531  29.370  28.058  1.00  0.00     0.134 A 
ATOM     43  F   UNL A   1      39.220  28.252  31.445  1.00  0.00    -0.206 F 
ATOM     44  C   UNL A   1      37.223  29.024  30.483  1.00  0.00     0.040 A 
ATOM     45  C   UNL A   1      37.177  29.693  28.172  1.00  0.00     0.040 A 
ATOM     46  F   UNL A   1      39.121  29.545  26.867  1.00  0.00    -0.206 F 
ATOM     47  C   UNL A   1      36.518  29.513  29.385  1.00  0.00     0.006 A 
ENDBRANCH  26  40
BRANCH  27  48
ATOM     48  C   UNL A   1      48.821  26.392  27.609  1.00  0.00     0.057 A 
ATOM     49  C   UNL A   1      49.689  25.946  28.609  1.00  0.00     0.134 A 
ATOM     50  C   UNL A   1      49.298  26.399  26.290  1.00  0.00     0.134 A 
ATOM     51  F   UNL A   1      49.290  25.926  29.889  1.00  0.00    -0.206 F 
ATOM     52  C   UNL A   1      50.984  25.519  28.312  1.00  0.00     0.040 A 
ATOM     53  C   UNL A   1      50.581  25.953  25.976  1.00  0.00     0.040 A 
ATOM     54  F   UNL A   1      48.505  26.800  25.287  1.00  0.00    -0.206 F 
ATOM     55  C   UNL A   1      51.428  25.511  26.990  1.00  0.00     0.006 A 
ENDBRANCH  27  48
BRANCH  39  56
ATOM     56  C   UNL A   1      45.603  32.293  29.477  1.00  0.00     0.057 A 
ATOM     57  C   UNL A   1      45.676  33.283  28.488  1.00  0.00     0.134 A 
ATOM     58  C   UNL A   1      45.963  32.650  30.782  1.00  0.00     0.134 A 
ATOM     59  F   UNL A   1      45.360  32.996  27.217  1.00  0.00    -0.206 F 
ATOM     60  C   UNL A   1      46.098  34.578  28.787  1.00  0.00     0.040 A 
ATOM     61  C   UNL A   1      46.365  33.949  31.097  1.00  0.00     0.040 A 
ATOM     62  F   UNL A   1      45.910  31.749  31.774  1.00  0.00    -0.206 F 
ATOM     63  C   UNL A   1      46.435  34.916  30.097  1.00  0.00     0.006 A 
ENDBRANCH  39  56
ENDBRANCH  13  14
ENDBRANCH   6   8
ENDBRANCH   3   4
ENDBRANCH   2   3
ENDBRANCH   1   2
BRANCH   1  64
ATOM     64  C   UNL A   1      36.382  21.589  25.521  1.00  0.00     0.116 C 
BRANCH  64  65
ATOM     65  N   UNL A   1      36.468  22.497  24.397  1.00  0.00    -0.354 N 
ATOM     66  C   UNL A   1      35.488  23.080  23.655  1.00  0.00     0.242 C 
ATOM     67  H   UNL A   1      37.384  22.729  24.124  1.00  0.00     0.163 HD
ATOM     68  O   UNL A   1      35.748  23.234  22.455  1.00  0.00    -0.273 OA
BRANCH  66  69
ATOM     69  C   UNL A   1      34.098  23.479  24.214  1.00  0.00     0.176 C 
BRANCH  69  70
ATOM     70  N   UNL A   1      33.159  22.406  24.538  1.00  0.00    -0.339 N 
ATOM     71  C   UNL A   1      31.878  22.439  25.041  1.00  0.00     0.262 C 
ATOM     72  H   UNL A   1      33.504  21.500  24.367  1.00  0.00     0.164 HD
ATOM     73  O   UNL A   1      31.413  21.343  25.366  1.00  0.00    -0.268 OA
BRANCH  71  74
ATOM     74  C   UNL A   1      31.113  23.682  25.120  1.00  0.00     0.093 A 
ATOM     75  C   UNL A   1      30.738  24.477  26.192  1.00  0.00     0.027 A 
ATOM     76  S   UNL A   1      30.626  24.428  23.638  1.00  0.00    -0.118 S 
ATOM     77  C   UNL A   1      30.060  25.671  25.805  1.00  0.00     0.033 A 
ATOM     78  C   UNL A   1      29.944  25.745  24.444  1.00  0.00     0.094 A 
ATOM     79  Cl  UNL A   1      29.208  27.015  23.554  1.00  0.00    -0.072 Cl
ENDBRANCH  71  74
ENDBRANCH  69  70
BRANCH  69  80
ATOM     80  C   UNL A   1      34.272  24.427  25.431  1.00  0.00     0.070 C 
BRANCH  80  81
ATOM     81  C   UNL A   1      33.978  25.896  25.194  1.00  0.00    -0.045 A 
ATOM     82  C   UNL A   1      33.920  26.804  26.260  1.00  0.00     0.007 A 
ATOM     83  C   UNL A   1      33.709  26.364  23.898  1.00  0.00     0.007 A 
ATOM     84  C   UNL A   1      33.599  28.148  26.032  1.00  0.00     0.046 A 
ATOM     85  C   UNL A   1      33.410  27.706  23.667  1.00  0.00     0.046 A 
ATOM     86  C   UNL A   1      33.349  28.587  24.736  1.00  0.00     0.115 A 
BRANCH  86  87
ATOM     87  O   UNL A   1      33.025  29.884  24.467  1.00  0.00    -0.508 OA
ATOM     88  H   UNL A   1      32.130  30.121  24.323  1.00  0.00     0.293 HD
ENDBRANCH  86  87
ENDBRANCH  80  81
ENDBRANCH  69  80
ENDBRANCH  66  69
ENDBRANCH  64  65
ENDBRANCH   1  64
TORSDOF 16
ENDMDL
MODEL 3
REMARK VINA RESULT:     -12.1      5.153      9.880
REMARK SMILES O=C(NCCCCNC(=O)[C@H](Cc1ccc(O)cc1)NC(=O)c1ccc(Cl)s1)c1ccc(-c2c3nc(c(-c4c(F)cccc4F)c4ccc([nH]4)c(-c4c(F)cccc4F)c4nc(c(-c5c(F)cccc5F)c5ccc2[nH]5)C=C4)C=C3)cc1
REMARK SMILES IDX 6 1 5 2 4 3 3 4 1 5 2 6 29 8 30 9 82 10 31 11 81 12 32 13
REMARK SMILES IDX 33 14 34 15 75 16 35 17 80 18 74 19 76 20 36 21 79 22 73 23
REMARK SMILES IDX 72 24 37 26 63 27 46 28 62 29 47 30 50 31 61 32 77 33 48 34
REMARK SMILES IDX 49 35 60 37 78 38 51 39 38 40 39 41 44 42 40 43 41 44 43 45
REMARK SMILES IDX 45 46 42 47 64 48 65 49 70 50 66 51 67 52 69 53 71 54 68 55
REMARK SMILES IDX 52 56 53 57 58 58 54 59 55 60 57 61 59 62 56 63 7 64 8 65
REMARK SMILES IDX 9 66 10 68 11 69 20 70 21 71 22 73 23 74 24 75 28 76 25 77
REMARK SMILES IDX 26 78 27 79 12 80 13 81 14 82 19 83 15 84 18 85 16 86 17 87
REMARK H PARENT 3 7 76 25 50 36 8 67 20 72 17 88
REMARK Flexibility Score: inf
ROOT
ATOM      1  C   UNL A   1      31.422  30.680  26.557  1.00  0.00     0.023 C 
ENDROOT
BRANCH   1   2
ATOM      2  C   UNL A   1      31.416  32.208  26.550  1.00  0.00     0.023 C 
BRANCH   2   3
ATOM      3  C   UNL A   1      32.577  32.844  27.298  1.00  0.00     0.116 C 
BRANCH   3   4
ATOM      4  N   UNL A   1      32.313  34.222  27.682  1.00  0.00    -0.352 N 
ATOM      5  O   UNL A   1      32.555  36.091  28.931  1.00  0.00    -0.269 OA
ATOM      6  C   UNL A   1      32.976  34.990  28.608  1.00  0.00     0.251 C 
ATOM      7  H   UNL A   1      31.562  34.660  27.220  1.00  0.00     0.163 HD
BRANCH   6   8
ATOM      8  C   UNL A   1      34.196  34.442  29.227  1.00  0.00     0.039 A 
ATOM      9  C   UNL A   1      35.439  34.640  28.618  1.00  0.00     0.014 A 
ATOM     10  C   UNL A   1      34.081  33.689  30.396  1.00  0.00     0.014 A 
ATOM     11  C   UNL A   1      36.554  33.979  29.110  1.00  0.00     0.010 A 
ATOM     12  C   UNL A   1      35.218  33.090  30.934  1.00  0.00     0.010 A 
ATOM     13  C   UNL A   1      36.455  33.212  30.282  1.00  0.00    -0.014 A 
BRANCH  13  14
ATOM     14  C   UNL A   1      37.671  32.599  30.861  1.00  0.00     0.031 A 
ATOM     15  C   UNL A   1      38.311  31.404  30.223  1.00  0.00     0.074 A 
ATOM     16  C   UNL A   1      38.169  33.122  31.995  1.00  0.00     0.049 A 
ATOM     17  N   UNL A   1      39.320  30.687  30.646  1.00  0.00    -0.248 NA
ATOM     18  C   UNL A   1      37.737  30.945  28.949  1.00  0.00     0.031 C 
ATOM     19  C   UNL A   1      37.616  34.280  32.701  1.00  0.00     0.029 A 
ATOM     20  N   UNL A   1      39.240  32.743  32.761  1.00  0.00    -0.354 N 
ATOM     21  C   UNL A   1      39.486  29.676  29.710  1.00  0.00     0.074 A 
ATOM     22  C   UNL A   1      38.464  29.863  28.702  1.00  0.00     0.031 C 
ATOM     23  C   UNL A   1      38.353  34.522  33.793  1.00  0.00     0.029 A 
ATOM     24  C   UNL A   1      39.388  33.500  33.897  1.00  0.00     0.049 A 
ATOM     25  H   UNL A   1      39.842  32.003  32.521  1.00  0.00     0.167 HD
ATOM     26  C   UNL A   1      40.409  28.685  29.699  1.00  0.00     0.037 A 
ATOM     27  C   UNL A   1      40.236  33.362  34.931  1.00  0.00     0.037 A 
ATOM     28  C   UNL A   1      41.427  28.522  30.706  1.00  0.00     0.049 A 
ATOM     29  C   UNL A   1      41.232  32.244  34.910  1.00  0.00     0.074 A 
ATOM     30  C   UNL A   1      42.444  27.585  30.760  1.00  0.00     0.029 A 
ATOM     31  N   UNL A   1      41.549  29.311  31.841  1.00  0.00    -0.354 N 
ATOM     32  N   UNL A   1      41.406  31.316  34.000  1.00  0.00    -0.248 NA
ATOM     33  C   UNL A   1      42.146  32.149  36.055  1.00  0.00     0.031 C 
ATOM     34  C   UNL A   1      43.152  27.779  31.952  1.00  0.00     0.029 A 
ATOM     35  C   UNL A   1      42.606  28.865  32.617  1.00  0.00     0.049 A 
ATOM     36  H   UNL A   1      40.969  30.076  32.062  1.00  0.00     0.167 HD
ATOM     37  C   UNL A   1      42.458  30.534  34.452  1.00  0.00     0.074 A 
ATOM     38  C   UNL A   1      42.888  31.104  35.714  1.00  0.00     0.031 C 
ATOM     39  C   UNL A   1      43.017  29.444  33.871  1.00  0.00     0.037 A 
BRANCH  26  40
ATOM     40  C   UNL A   1      40.337  27.684  28.584  1.00  0.00     0.057 A 
ATOM     41  C   UNL A   1      41.008  27.871  27.368  1.00  0.00     0.134 A 
ATOM     42  C   UNL A   1      39.599  26.501  28.737  1.00  0.00     0.134 A 
ATOM     43  F   UNL A   1      41.722  28.986  27.152  1.00  0.00    -0.206 F 
ATOM     44  C   UNL A   1      40.925  26.934  26.336  1.00  0.00     0.040 A 
ATOM     45  C   UNL A   1      39.530  25.546  27.721  1.00  0.00     0.040 A 
ATOM     46  F   UNL A   1      38.938  26.255  29.877  1.00  0.00    -0.206 F 
ATOM     47  C   UNL A   1      40.188  25.765  26.513  1.00  0.00     0.006 A 
ENDBRANCH  26  40
BRANCH  27  48
ATOM     48  C   UNL A   1      40.139  34.307  36.068  1.00  0.00     0.057 A 
ATOM     49  C   UNL A   1      40.745  35.565  36.018  1.00  0.00     0.134 A 
ATOM     50  C   UNL A   1      39.370  34.001  37.199  1.00  0.00     0.134 A 
ATOM     51  F   UNL A   1      41.499  35.909  34.964  1.00  0.00    -0.206 F 
ATOM     52  C   UNL A   1      40.590  36.490  37.051  1.00  0.00     0.040 A 
ATOM     53  C   UNL A   1      39.187  34.924  38.229  1.00  0.00     0.040 A 
ATOM     54  F   UNL A   1      38.752  32.816  37.296  1.00  0.00    -0.206 F 
ATOM     55  C   UNL A   1      39.799  36.174  38.155  1.00  0.00     0.006 A 
ENDBRANCH  27  48
BRANCH  39  56
ATOM     56  C   UNL A   1      44.172  28.811  34.583  1.00  0.00     0.057 A 
ATOM     57  C   UNL A   1      43.992  27.753  35.484  1.00  0.00     0.134 A 
ATOM     58  C   UNL A   1      45.483  29.226  34.321  1.00  0.00     0.134 A 
ATOM     59  F   UNL A   1      42.759  27.322  35.787  1.00  0.00    -0.206 F 
ATOM     60  C   UNL A   1      45.078  27.137  36.105  1.00  0.00     0.040 A 
ATOM     61  C   UNL A   1      46.578  28.602  34.919  1.00  0.00     0.040 A 
ATOM     62  F   UNL A   1      45.721  30.231  33.464  1.00  0.00    -0.206 F 
ATOM     63  C   UNL A   1      46.377  27.555  35.815  1.00  0.00     0.006 A 
ENDBRANCH  39  56
ENDBRANCH  13  14
ENDBRANCH   6   8
ENDBRANCH   3   4
ENDBRANCH   2   3
ENDBRANCH   1   2
BRANCH   1  64
ATOM     64  C   UNL A   1      32.106  30.053  25.342  1.00  0.00     0.116 C 
BRANCH  64  65
ATOM     65  N   UNL A   1      33.462  29.671  25.680  1.00  0.00    -0.354 N 
ATOM     66  C   UNL A   1      34.006  28.444  25.897  1.00  0.00     0.242 C 
ATOM     67  H   UNL A   1      34.091  30.423  25.767  1.00  0.00     0.163 HD
ATOM     68  O   UNL A   1      34.894  28.400  26.757  1.00  0.00    -0.273 OA
BRANCH  66  69
ATOM     69  C   UNL A   1      33.533  27.148  25.189  1.00  0.00     0.176 C 
BRANCH  69  70
ATOM     70  N   UNL A   1      33.668  27.076  23.736  1.00  0.00    -0.339 N 
ATOM     71  C   UNL A   1      32.735  26.875  22.744  1.00  0.00     0.262 C 
ATOM     72  H   UNL A   1      34.589  27.190  23.408  1.00  0.00     0.164 HD
ATOM     73  O   UNL A   1      33.199  26.695  21.615  1.00  0.00    -0.268 OA
BRANCH  71  74
ATOM     74  C   UNL A   1      31.300  26.937  23.012  1.00  0.00     0.093 A 
ATOM     75  C   UNL A   1      30.446  26.092  23.707  1.00  0.00     0.027 A 
ATOM     76  S   UNL A   1      30.437  28.340  22.488  1.00  0.00    -0.118 S 
ATOM     77  C   UNL A   1      29.111  26.586  23.802  1.00  0.00     0.033 A 
ATOM     78  C   UNL A   1      28.993  27.795  23.175  1.00  0.00     0.094 A 
ATOM     79  Cl  UNL A   1      27.569  28.746  23.057  1.00  0.00    -0.072 Cl
ENDBRANCH  71  74
ENDBRANCH  69  70
BRANCH  69  80
ATOM     80  C   UNL A   1      34.198  25.913  25.854  1.00  0.00     0.070 C 
BRANCH  80  81
ATOM     81  C   UNL A   1      33.423  24.610  25.791  1.00  0.00    -0.045 A 
ATOM     82  C   UNL A   1      32.226  24.444  26.501  1.00  0.00     0.007 A 
ATOM     83  C   UNL A   1      33.922  23.524  25.055  1.00  0.00     0.007 A 
ATOM     84  C   UNL A   1      31.548  23.219  26.474  1.00  0.00     0.046 A 
ATOM     85  C   UNL A   1      33.237  22.311  25.009  1.00  0.00     0.046 A 
ATOM     86  C   UNL A   1      32.059  22.164  25.725  1.00  0.00     0.115 A 
BRANCH  86  87
ATOM     87  O   UNL A   1      31.437  20.952  25.675  1.00  0.00    -0.508 OA
ATOM     88  H   UNL A   1      30.506  20.907  25.578  1.00  0.00     0.293 HD
ENDBRANCH  86  87
ENDBRANCH  80  81
ENDBRANCH  69  80
ENDBRANCH  66  69
ENDBRANCH  64  65
ENDBRANCH   1  64
TORSDOF 16
ENDMDL
