MODEL 1
REMARK VINA RESULT:     -13.0      0.000      0.000
REMARK SMILES Cc1ccc2c(c1)c(-c1ccnc3c(C)cccc13)c(C)n2CC(=O)NCCCCNC(=O)c1ccc(-c2c3nc(c(-c4c(F)cccc4F)c4ccc([nH]4)c(-c4c(F)cccc4F)c4nc(c(-c5c(F)cccc5F)c5ccc2[nH]5)C=C4)C=C3)cc1
REMARK SMILES IDX 28 1 27 2 26 3 24 4 25 5 23 7 22 8 1 9 2 10 3 11 7 12 4 13
REMARK SMILES IDX 6 14 5 15 8 16 20 17 21 18 9 19 10 20 19 21 11 22 13 23
REMARK SMILES IDX 18 24 12 25 14 26 17 27 15 28 16 29 29 30 30 31 31 32 32 33
REMARK SMILES IDX 33 35 34 36 35 37 87 38 36 39 86 40 37 41 38 42 39 43 80 44
REMARK SMILES IDX 40 45 85 46 79 47 81 48 41 49 84 50 78 51 77 52 42 54 68 55
REMARK SMILES IDX 51 56 67 57 52 58 55 59 66 60 82 61 53 62 54 63 65 65 83 66
REMARK SMILES IDX 56 67 43 68 44 69 49 70 45 71 46 72 48 73 50 74 47 75 69 76
REMARK SMILES IDX 70 77 75 78 71 79 72 80 74 81 76 82 73 83 57 84 58 85 63 86
REMARK SMILES IDX 59 87 60 88 62 89 64 90 61 91
REMARK H PARENT 26 6 31 34 81 53 55 64
REMARK Flexibility Score: inf
ROOT
ATOM      1  C   UNL A   1      41.018  21.180  26.912  1.00  0.00     0.023 C 
ENDROOT
BRANCH   1   2
ATOM      2  C   UNL A   1      39.638  21.821  26.794  1.00  0.00     0.116 C 
BRANCH   2   3
ATOM      3  N   UNL A   1      39.134  21.796  25.435  1.00  0.00    -0.355 N 
ATOM      4  C   UNL A   1      37.841  21.783  24.993  1.00  0.00     0.239 C 
ATOM      5  O   UNL A   1      37.655  21.805  23.775  1.00  0.00    -0.273 OA
ATOM      6  H   UNL A   1      39.820  21.784  24.730  1.00  0.00     0.163 HD
BRANCH   4   7
ATOM      7  C   UNL A   1      36.678  21.811  25.969  1.00  0.00     0.222 C 
BRANCH   7   8
ATOM      8  N   UNL A   1      35.378  21.966  25.322  1.00  0.00    -0.335 N 
ATOM      9  C   UNL A   1      31.908  18.270  22.820  1.00  0.00     0.044 C 
ATOM     10  C   UNL A   1      32.806  19.202  23.581  1.00  0.00    -0.050 A 
ATOM     11  C   UNL A   1      33.840  18.682  24.358  1.00  0.00     0.005 A 
ATOM     12  C   UNL A   1      32.644  20.593  23.484  1.00  0.00     0.014 A 
ATOM     13  C   UNL A   1      34.730  19.519  25.036  1.00  0.00     0.027 A 
ATOM     14  C   UNL A   1      33.540  21.461  24.148  1.00  0.00     0.008 A 
ATOM     15  C   UNL A   1      34.587  20.911  24.889  1.00  0.00     0.049 A 
ATOM     16  C   UNL A   1      33.658  22.879  24.244  1.00  0.00     0.011 A 
ATOM     17  C   UNL A   1      34.771  23.169  25.019  1.00  0.00     0.024 A 
ATOM     18  C   UNL A   1      35.311  24.503  25.426  1.00  0.00     0.065 C 
BRANCH  16  19
ATOM     19  C   UNL A   1      32.818  23.913  23.650  1.00  0.00    -0.005 A 
ATOM     20  C   UNL A   1      33.095  24.304  22.343  1.00  0.00     0.029 A 
ATOM     21  C   UNL A   1      31.730  24.492  24.352  1.00  0.00     0.008 A 
ATOM     22  C   UNL A   1      32.265  25.238  21.766  1.00  0.00     0.112 A 
ATOM     23  C   UNL A   1      30.932  25.433  23.665  1.00  0.00     0.074 A 
ATOM     24  C   UNL A   1      31.412  24.168  25.692  1.00  0.00     0.011 A 
ATOM     25  N   UNL A   1      31.205  25.792  22.393  1.00  0.00    -0.256 NA
ATOM     26  C   UNL A   1      29.832  25.993  24.337  1.00  0.00    -0.025 A 
ATOM     27  C   UNL A   1      30.338  24.749  26.353  1.00  0.00     0.001 A 
ATOM     28  C   UNL A   1      28.908  26.969  23.658  1.00  0.00     0.047 C 
ATOM     29  C   UNL A   1      29.547  25.659  25.674  1.00  0.00     0.005 A 
ENDBRANCH  16  19
ENDBRANCH   7   8
ENDBRANCH   4   7
ENDBRANCH   2   3
ENDBRANCH   1   2
BRANCH   1  30
ATOM     30  C   UNL A   1      41.181  19.861  26.142  1.00  0.00     0.023 C 
BRANCH  30  31
ATOM     31  C   UNL A   1      42.586  19.264  26.226  1.00  0.00     0.116 C 
BRANCH  31  32
ATOM     32  N   UNL A   1      43.412  19.589  25.079  1.00  0.00    -0.352 N 
ATOM     33  C   UNL A   1      44.138  20.674  24.691  1.00  0.00     0.251 C 
ATOM     34  H   UNL A   1      43.458  18.851  24.429  1.00  0.00     0.163 HD
ATOM     35  O   UNL A   1      44.815  20.529  23.664  1.00  0.00    -0.269 OA
BRANCH  33  36
ATOM     36  C   UNL A   1      44.130  22.002  25.355  1.00  0.00     0.039 A 
ATOM     37  C   UNL A   1      44.835  22.343  26.510  1.00  0.00     0.014 A 
ATOM     38  C   UNL A   1      43.280  22.966  24.777  1.00  0.00     0.014 A 
ATOM     39  C   UNL A   1      44.622  23.569  27.129  1.00  0.00     0.010 A 
ATOM     40  C   UNL A   1      43.075  24.197  25.380  1.00  0.00     0.010 A 
ATOM     41  C   UNL A   1      43.709  24.473  26.586  1.00  0.00    -0.014 A 
BRANCH  41  42
ATOM     42  C   UNL A   1      43.519  25.748  27.268  1.00  0.00     0.031 A 
ATOM     43  C   UNL A   1      44.555  26.777  26.964  1.00  0.00     0.074 A 
ATOM     44  C   UNL A   1      42.431  26.009  28.021  1.00  0.00     0.049 A 
ATOM     45  N   UNL A   1      45.341  27.386  27.791  1.00  0.00    -0.248 NA
ATOM     46  C   UNL A   1      44.834  27.076  25.549  1.00  0.00     0.031 C 
ATOM     47  C   UNL A   1      41.241  25.176  28.208  1.00  0.00     0.029 A 
ATOM     48  N   UNL A   1      42.117  27.141  28.710  1.00  0.00    -0.354 N 
ATOM     49  C   UNL A   1      46.093  28.279  27.026  1.00  0.00     0.074 A 
ATOM     50  C   UNL A   1      45.838  27.948  25.650  1.00  0.00     0.031 C 
ATOM     51  C   UNL A   1      40.255  25.921  28.756  1.00  0.00     0.029 A 
ATOM     52  C   UNL A   1      40.778  27.239  29.069  1.00  0.00     0.049 A 
ATOM     53  H   UNL A   1      42.782  27.831  28.935  1.00  0.00     0.167 HD
ATOM     54  C   UNL A   1      46.703  29.358  27.589  1.00  0.00     0.037 A 
ATOM     55  C   UNL A   1      40.138  28.342  29.532  1.00  0.00     0.037 A 
ATOM     56  C   UNL A   1      46.859  29.190  29.009  1.00  0.00     0.049 A 
ATOM     57  C   UNL A   1      41.172  29.284  30.030  1.00  0.00     0.074 A 
ATOM     58  C   UNL A   1      47.531  28.292  29.815  1.00  0.00     0.029 A 
ATOM     59  N   UNL A   1      45.978  29.843  29.835  1.00  0.00    -0.354 N 
ATOM     60  N   UNL A   1      41.877  29.076  31.106  1.00  0.00    -0.248 NA
ATOM     61  C   UNL A   1      41.749  30.223  29.078  1.00  0.00     0.031 C 
ATOM     62  C   UNL A   1      46.684  28.108  30.946  1.00  0.00     0.029 A 
ATOM     63  C   UNL A   1      45.580  28.944  30.788  1.00  0.00     0.049 A 
ATOM     64  H   UNL A   1      45.688  30.780  29.756  1.00  0.00     0.167 HD
ATOM     65  C   UNL A   1      43.157  29.490  30.772  1.00  0.00     0.074 A 
ATOM     66  C   UNL A   1      43.000  30.269  29.545  1.00  0.00     0.031 C 
ATOM     67  C   UNL A   1      44.254  28.922  31.355  1.00  0.00     0.037 A 
BRANCH  54  68
ATOM     68  C   UNL A   1      46.800  30.717  26.935  1.00  0.00     0.057 A 
ATOM     69  C   UNL A   1      45.687  31.513  26.601  1.00  0.00     0.134 A 
ATOM     70  C   UNL A   1      48.035  31.395  26.951  1.00  0.00     0.134 A 
ATOM     71  F   UNL A   1      44.439  31.033  26.576  1.00  0.00    -0.206 F 
ATOM     72  C   UNL A   1      45.781  32.889  26.373  1.00  0.00     0.040 A 
ATOM     73  C   UNL A   1      48.134  32.780  26.770  1.00  0.00     0.040 A 
ATOM     74  F   UNL A   1      49.174  30.748  27.239  1.00  0.00    -0.206 F 
ATOM     75  C   UNL A   1      47.000  33.535  26.499  1.00  0.00     0.006 A 
ENDBRANCH  54  68
BRANCH  55  76
ATOM     76  C   UNL A   1      38.726  28.743  29.336  1.00  0.00     0.057 A 
ATOM     77  C   UNL A   1      38.283  29.301  28.123  1.00  0.00     0.134 A 
ATOM     78  C   UNL A   1      37.829  28.828  30.411  1.00  0.00     0.134 A 
ATOM     79  F   UNL A   1      39.086  29.355  27.050  1.00  0.00    -0.206 F 
ATOM     80  C   UNL A   1      37.030  29.907  27.985  1.00  0.00     0.040 A 
ATOM     81  C   UNL A   1      36.573  29.441  30.289  1.00  0.00     0.040 A 
ATOM     82  F   UNL A   1      38.172  28.370  31.623  1.00  0.00    -0.206 F 
ATOM     83  C   UNL A   1      36.174  29.990  29.074  1.00  0.00     0.006 A 
ENDBRANCH  55  76
BRANCH  67  84
ATOM     84  C   UNL A   1      44.027  28.000  32.519  1.00  0.00     0.057 A 
ATOM     85  C   UNL A   1      44.097  28.517  33.816  1.00  0.00     0.134 A 
ATOM     86  C   UNL A   1      43.881  26.610  32.398  1.00  0.00     0.134 A 
ATOM     87  F   UNL A   1      44.302  29.829  34.011  1.00  0.00    -0.206 F 
ATOM     88  C   UNL A   1      44.008  27.695  34.941  1.00  0.00     0.040 A 
ATOM     89  C   UNL A   1      43.754  25.780  33.515  1.00  0.00     0.040 A 
ATOM     90  F   UNL A   1      43.916  26.011  31.201  1.00  0.00    -0.206 F 
ATOM     91  C   UNL A   1      43.821  26.323  34.794  1.00  0.00     0.006 A 
ENDBRANCH  67  84
ENDBRANCH  41  42
ENDBRANCH  33  36
ENDBRANCH  31  32
ENDBRANCH  30  31
ENDBRANCH   1  30
TORSDOF 13
ENDMDL
MODEL 2
REMARK VINA RESULT:     -12.3      2.988      8.188
REMARK SMILES Cc1ccc2c(c1)c(-c1ccnc3c(C)cccc13)c(C)n2CC(=O)NCCCCNC(=O)c1ccc(-c2c3nc(c(-c4c(F)cccc4F)c4ccc([nH]4)c(-c4c(F)cccc4F)c4nc(c(-c5c(F)cccc5F)c5ccc2[nH]5)C=C4)C=C3)cc1
REMARK SMILES IDX 28 1 27 2 26 3 24 4 25 5 23 7 22 8 1 9 2 10 3 11 7 12 4 13
REMARK SMILES IDX 6 14 5 15 8 16 20 17 21 18 9 19 10 20 19 21 11 22 13 23
REMARK SMILES IDX 18 24 12 25 14 26 17 27 15 28 16 29 29 30 30 31 31 32 32 33
REMARK SMILES IDX 33 35 34 36 35 37 87 38 36 39 86 40 37 41 38 42 39 43 80 44
REMARK SMILES IDX 40 45 85 46 79 47 81 48 41 49 84 50 78 51 77 52 42 54 68 55
REMARK SMILES IDX 51 56 67 57 52 58 55 59 66 60 82 61 53 62 54 63 65 65 83 66
REMARK SMILES IDX 56 67 43 68 44 69 49 70 45 71 46 72 48 73 50 74 47 75 69 76
REMARK SMILES IDX 70 77 75 78 71 79 72 80 74 81 76 82 73 83 57 84 58 85 63 86
REMARK SMILES IDX 59 87 60 88 62 89 64 90 61 91
REMARK H PARENT 26 6 31 34 81 53 55 64
REMARK Flexibility Score: inf
ROOT
ATOM      1  C   UNL A   1      34.451  29.374  27.424  1.00  0.00     0.023 C 
ENDROOT
BRANCH   1   2
ATOM      2  C   UNL A   1      33.594  28.320  26.728  1.00  0.00     0.116 C 
BRANCH   2   3
ATOM      3  N   UNL A   1      32.569  28.911  25.890  1.00  0.00    -0.355 N 
ATOM      4  C   UNL A   1      31.432  28.344  25.387  1.00  0.00     0.239 C 
ATOM      5  O   UNL A   1      30.681  29.065  24.725  1.00  0.00    -0.273 OA
ATOM      6  H   UNL A   1      32.713  29.854  25.647  1.00  0.00     0.163 HD
BRANCH   4   7
ATOM      7  C   UNL A   1      31.074  26.901  25.690  1.00  0.00     0.222 C 
BRANCH   7   8
ATOM      8  N   UNL A   1      31.854  25.933  24.925  1.00  0.00    -0.335 N 
ATOM      9  C   UNL A   1      32.632  25.204  19.373  1.00  0.00     0.044 C 
ATOM     10  C   UNL A   1      32.483  25.491  20.839  1.00  0.00    -0.050 A 
ATOM     11  C   UNL A   1      31.910  26.694  21.251  1.00  0.00     0.005 A 
ATOM     12  C   UNL A   1      32.875  24.546  21.799  1.00  0.00     0.014 A 
ATOM     13  C   UNL A   1      31.704  26.973  22.605  1.00  0.00     0.027 A 
ATOM     14  C   UNL A   1      32.664  24.799  23.174  1.00  0.00     0.008 A 
ATOM     15  C   UNL A   1      32.055  25.995  23.554  1.00  0.00     0.049 A 
ATOM     16  C   UNL A   1      32.930  24.065  24.368  1.00  0.00     0.011 A 
ATOM     17  C   UNL A   1      32.468  24.809  25.444  1.00  0.00     0.024 A 
ATOM     18  C   UNL A   1      32.524  24.486  26.903  1.00  0.00     0.065 C 
BRANCH  16  19
ATOM     19  C   UNL A   1      33.549  22.754  24.522  1.00  0.00    -0.005 A 
ATOM     20  C   UNL A   1      32.730  21.633  24.431  1.00  0.00     0.029 A 
ATOM     21  C   UNL A   1      34.945  22.603  24.728  1.00  0.00     0.008 A 
ATOM     22  C   UNL A   1      33.328  20.396  24.520  1.00  0.00     0.112 A 
ATOM     23  C   UNL A   1      35.461  21.290  24.794  1.00  0.00     0.074 A 
ATOM     24  C   UNL A   1      35.831  23.698  24.865  1.00  0.00     0.011 A 
ATOM     25  N   UNL A   1      34.655  20.212  24.689  1.00  0.00    -0.256 NA
ATOM     26  C   UNL A   1      36.845  21.124  24.967  1.00  0.00    -0.025 A 
ATOM     27  C   UNL A   1      37.194  23.518  25.063  1.00  0.00     0.001 A 
ATOM     28  C   UNL A   1      37.476  19.757  25.001  1.00  0.00     0.047 C 
ATOM     29  C   UNL A   1      37.700  22.232  25.110  1.00  0.00     0.005 A 
ENDBRANCH  16  19
ENDBRANCH   7   8
ENDBRANCH   4   7
ENDBRANCH   2   3
ENDBRANCH   1   2
BRANCH   1  30
ATOM     30  C   UNL A   1      33.770  30.738  27.606  1.00  0.00     0.023 C 
BRANCH  30  31
ATOM     31  C   UNL A   1      34.730  31.862  27.999  1.00  0.00     0.116 C 
BRANCH  31  32
ATOM     32  N   UNL A   1      34.799  32.076  29.431  1.00  0.00    -0.352 N 
ATOM     33  C   UNL A   1      35.658  31.704  30.421  1.00  0.00     0.251 C 
ATOM     34  H   UNL A   1      34.048  32.617  29.767  1.00  0.00     0.163 HD
ATOM     35  O   UNL A   1      35.430  32.184  31.540  1.00  0.00    -0.269 OA
BRANCH  33  36
ATOM     36  C   UNL A   1      36.781  30.743  30.276  1.00  0.00     0.039 A 
ATOM     37  C   UNL A   1      36.695  29.358  30.422  1.00  0.00     0.014 A 
ATOM     38  C   UNL A   1      38.044  31.317  30.027  1.00  0.00     0.014 A 
ATOM     39  C   UNL A   1      37.845  28.578  30.422  1.00  0.00     0.010 A 
ATOM     40  C   UNL A   1      39.193  30.542  30.010  1.00  0.00     0.010 A 
ATOM     41  C   UNL A   1      39.094  29.179  30.261  1.00  0.00    -0.014 A 
BRANCH  41  42
ATOM     42  C   UNL A   1      40.273  28.321  30.266  1.00  0.00     0.031 A 
ATOM     43  C   UNL A   1      40.956  28.206  31.586  1.00  0.00     0.074 A 
ATOM     44  C   UNL A   1      40.645  27.600  29.188  1.00  0.00     0.049 A 
ATOM     45  N   UNL A   1      42.181  28.502  31.880  1.00  0.00    -0.248 NA
ATOM     46  C   UNL A   1      40.139  27.832  32.753  1.00  0.00     0.031 C 
ATOM     47  C   UNL A   1      39.935  27.445  27.916  1.00  0.00     0.029 A 
ATOM     48  N   UNL A   1      41.709  26.762  29.042  1.00  0.00    -0.354 N 
ATOM     49  C   UNL A   1      42.345  28.182  33.228  1.00  0.00     0.074 A 
ATOM     50  C   UNL A   1      41.030  27.907  33.743  1.00  0.00     0.031 C 
ATOM     51  C   UNL A   1      40.457  26.399  27.237  1.00  0.00     0.029 A 
ATOM     52  C   UNL A   1      41.609  25.893  27.963  1.00  0.00     0.049 A 
ATOM     53  H   UNL A   1      42.483  26.772  29.650  1.00  0.00     0.167 HD
ATOM     54  C   UNL A   1      43.578  27.964  33.761  1.00  0.00     0.037 A 
ATOM     55  C   UNL A   1      42.380  24.804  27.721  1.00  0.00     0.037 A 
ATOM     56  C   UNL A   1      44.613  28.536  32.941  1.00  0.00     0.049 A 
ATOM     57  C   UNL A   1      43.623  24.947  28.522  1.00  0.00     0.074 A 
ATOM     58  C   UNL A   1      44.932  29.815  32.529  1.00  0.00     0.029 A 
ATOM     59  N   UNL A   1      45.328  27.694  32.127  1.00  0.00    -0.354 N 
ATOM     60  N   UNL A   1      44.548  25.827  28.262  1.00  0.00    -0.248 NA
ATOM     61  C   UNL A   1      43.615  24.433  29.884  1.00  0.00     0.031 C 
ATOM     62  C   UNL A   1      45.416  29.662  31.197  1.00  0.00     0.029 A 
ATOM     63  C   UNL A   1      45.416  28.299  30.901  1.00  0.00     0.049 A 
ATOM     64  H   UNL A   1      45.706  26.821  32.376  1.00  0.00     0.167 HD
ATOM     65  C   UNL A   1      44.938  26.302  29.505  1.00  0.00     0.074 A 
ATOM     66  C   UNL A   1      44.396  25.345  30.468  1.00  0.00     0.031 C 
ATOM     67  C   UNL A   1      45.410  27.575  29.654  1.00  0.00     0.037 A 
BRANCH  54  68
ATOM     68  C   UNL A   1      43.882  26.907  34.799  1.00  0.00     0.057 A 
ATOM     69  C   UNL A   1      44.096  27.180  36.164  1.00  0.00     0.134 A 
ATOM     70  C   UNL A   1      43.615  25.558  34.495  1.00  0.00     0.134 A 
ATOM     71  F   UNL A   1      44.325  28.415  36.625  1.00  0.00    -0.206 F 
ATOM     72  C   UNL A   1      43.983  26.204  37.157  1.00  0.00     0.040 A 
ATOM     73  C   UNL A   1      43.454  24.582  35.486  1.00  0.00     0.040 A 
ATOM     74  F   UNL A   1      43.408  25.163  33.229  1.00  0.00    -0.206 F 
ATOM     75  C   UNL A   1      43.618  24.909  36.826  1.00  0.00     0.006 A 
ENDBRANCH  54  68
BRANCH  55  76
ATOM     76  C   UNL A   1      42.007  23.535  27.054  1.00  0.00     0.057 A 
ATOM     77  C   UNL A   1      40.871  22.806  27.450  1.00  0.00     0.134 A 
ATOM     78  C   UNL A   1      42.887  22.872  26.188  1.00  0.00     0.134 A 
ATOM     79  F   UNL A   1      40.003  23.303  28.343  1.00  0.00    -0.206 F 
ATOM     80  C   UNL A   1      40.624  21.499  27.014  1.00  0.00     0.040 A 
ATOM     81  C   UNL A   1      42.657  21.558  25.750  1.00  0.00     0.040 A 
ATOM     82  F   UNL A   1      44.024  23.460  25.789  1.00  0.00    -0.206 F 
ATOM     83  C   UNL A   1      41.526  20.866  26.170  1.00  0.00     0.006 A 
ENDBRANCH  55  76
BRANCH  67  84
ATOM     84  C   UNL A   1      45.700  28.362  28.409  1.00  0.00     0.057 A 
ATOM     85  C   UNL A   1      47.015  28.418  27.934  1.00  0.00     0.134 A 
ATOM     86  C   UNL A   1      44.755  29.168  27.755  1.00  0.00     0.134 A 
ATOM     87  F   UNL A   1      47.986  27.726  28.549  1.00  0.00    -0.206 F 
ATOM     88  C   UNL A   1      47.370  29.221  26.849  1.00  0.00     0.040 A 
ATOM     89  C   UNL A   1      45.091  29.948  26.646  1.00  0.00     0.040 A 
ATOM     90  F   UNL A   1      43.499  29.267  28.207  1.00  0.00    -0.206 F 
ATOM     91  C   UNL A   1      46.404  29.980  26.191  1.00  0.00     0.006 A 
ENDBRANCH  67  84
ENDBRANCH  41  42
ENDBRANCH  33  36
ENDBRANCH  31  32
ENDBRANCH  30  31
ENDBRANCH   1  30
TORSDOF 13
ENDMDL
MODEL 3
REMARK VINA RESULT:     -12.1      2.266      5.967
REMARK SMILES Cc1ccc2c(c1)c(-c1ccnc3c(C)cccc13)c(C)n2CC(=O)NCCCCNC(=O)c1ccc(-c2c3nc(c(-c4c(F)cccc4F)c4ccc([nH]4)c(-c4c(F)cccc4F)c4nc(c(-c5c(F)cccc5F)c5ccc2[nH]5)C=C4)C=C3)cc1
REMARK SMILES IDX 28 1 27 2 26 3 24 4 25 5 23 7 22 8 1 9 2 10 3 11 7 12 4 13
REMARK SMILES IDX 6 14 5 15 8 16 20 17 21 18 9 19 10 20 19 21 11 22 13 23
REMARK SMILES IDX 18 24 12 25 14 26 17 27 15 28 16 29 29 30 30 31 31 32 32 33
REMARK SMILES IDX 33 35 34 36 35 37 87 38 36 39 86 40 37 41 38 42 39 43 80 44
REMARK SMILES IDX 40 45 85 46 79 47 81 48 41 49 84 50 78 51 77 52 42 54 68 55
REMARK SMILES IDX 51 56 67 57 52 58 55 59 66 60 82 61 53 62 54 63 65 65 83 66
REMARK SMILES IDX 56 67 43 68 44 69 49 70 45 71 46 72 48 73 50 74 47 75 69 76
REMARK SMILES IDX 70 77 75 78 71 79 72 80 74 81 76 82 73 83 57 84 58 85 63 86
REMARK SMILES IDX 59 87 60 88 62 89 64 90 61 91
REMARK H PARENT 26 6 31 34 81 53 55 64
REMARK Flexibility Score: inf
ROOT
ATOM      1  C   UNL A   1      36.367  19.299  24.779  1.00  0.00     0.023 C 
ENDROOT
BRANCH   1   2
ATOM      2  C   UNL A   1      35.510  20.537  25.028  1.00  0.00     0.116 C 
BRANCH   2   3
ATOM      3  N   UNL A   1      36.254  21.768  24.844  1.00  0.00    -0.355 N 
ATOM      4  C   UNL A   1      35.909  22.889  24.143  1.00  0.00     0.239 C 
ATOM      5  O   UNL A   1      36.696  23.839  24.165  1.00  0.00    -0.273 OA
ATOM      6  H   UNL A   1      37.133  21.800  25.285  1.00  0.00     0.163 HD
BRANCH   4   7
ATOM      7  C   UNL A   1      34.577  22.986  23.423  1.00  0.00     0.222 C 
BRANCH   7   8
ATOM      8  N   UNL A   1      33.607  23.841  24.101  1.00  0.00    -0.335 N 
ATOM      9  C   UNL A   1      29.179  22.688  27.420  1.00  0.00     0.044 C 
ATOM     10  C   UNL A   1      30.420  22.958  26.620  1.00  0.00    -0.050 A 
ATOM     11  C   UNL A   1      31.319  21.921  26.371  1.00  0.00     0.005 A 
ATOM     12  C   UNL A   1      30.665  24.231  26.083  1.00  0.00     0.014 A 
ATOM     13  C   UNL A   1      32.457  22.120  25.584  1.00  0.00     0.027 A 
ATOM     14  C   UNL A   1      31.801  24.454  25.272  1.00  0.00     0.008 A 
ATOM     15  C   UNL A   1      32.663  23.388  25.011  1.00  0.00     0.049 A 
ATOM     16  C   UNL A   1      32.320  25.591  24.586  1.00  0.00     0.011 A 
ATOM     17  C   UNL A   1      33.468  25.202  23.910  1.00  0.00     0.024 A 
ATOM     18  C   UNL A   1      34.383  26.025  23.061  1.00  0.00     0.065 C 
BRANCH  16  19
ATOM     19  C   UNL A   1      31.793  26.950  24.530  1.00  0.00    -0.005 A 
ATOM     20  C   UNL A   1      30.820  27.231  23.576  1.00  0.00     0.029 A 
ATOM     21  C   UNL A   1      32.222  27.959  25.430  1.00  0.00     0.008 A 
ATOM     22  C   UNL A   1      30.285  28.500  23.564  1.00  0.00     0.112 A 
ATOM     23  C   UNL A   1      31.600  29.224  25.343  1.00  0.00     0.074 A 
ATOM     24  C   UNL A   1      33.230  27.753  26.402  1.00  0.00     0.011 A 
ATOM     25  N   UNL A   1      30.648  29.477  24.421  1.00  0.00    -0.256 NA
ATOM     26  C   UNL A   1      31.993  30.224  26.248  1.00  0.00    -0.025 A 
ATOM     27  C   UNL A   1      33.627  28.760  27.272  1.00  0.00     0.001 A 
ATOM     28  C   UNL A   1      31.345  31.585  26.248  1.00  0.00     0.047 C 
ATOM     29  C   UNL A   1      33.006  29.993  27.197  1.00  0.00     0.005 A 
ENDBRANCH  16  19
ENDBRANCH   7   8
ENDBRANCH   4   7
ENDBRANCH   2   3
ENDBRANCH   1   2
BRANCH   1  30
ATOM     30  C   UNL A   1      37.875  19.572  24.675  1.00  0.00     0.023 C 
BRANCH  30  31
ATOM     31  C   UNL A   1      38.674  19.110  25.894  1.00  0.00     0.116 C 
BRANCH  31  32
ATOM     32  N   UNL A   1      40.060  18.817  25.588  1.00  0.00    -0.352 N 
ATOM     33  C   UNL A   1      41.252  19.430  25.833  1.00  0.00     0.251 C 
ATOM     34  H   UNL A   1      40.164  17.978  25.084  1.00  0.00     0.163 HD
ATOM     35  O   UNL A   1      42.262  18.798  25.493  1.00  0.00    -0.269 OA
BRANCH  33  36
ATOM     36  C   UNL A   1      41.424  20.788  26.408  1.00  0.00     0.039 A 
ATOM     37  C   UNL A   1      42.072  21.860  25.792  1.00  0.00     0.014 A 
ATOM     38  C   UNL A   1      40.931  20.962  27.717  1.00  0.00     0.014 A 
ATOM     39  C   UNL A   1      42.312  23.035  26.494  1.00  0.00     0.010 A 
ATOM     40  C   UNL A   1      41.153  22.137  28.417  1.00  0.00     0.010 A 
ATOM     41  C   UNL A   1      41.891  23.152  27.820  1.00  0.00    -0.014 A 
BRANCH  41  42
ATOM     42  C   UNL A   1      42.162  24.404  28.516  1.00  0.00     0.031 A 
ATOM     43  C   UNL A   1      41.150  25.475  28.291  1.00  0.00     0.074 A 
ATOM     44  C   UNL A   1      43.186  24.539  29.385  1.00  0.00     0.049 A 
ATOM     45  N   UNL A   1      41.335  26.658  27.803  1.00  0.00    -0.248 NA
ATOM     46  C   UNL A   1      39.734  25.143  28.525  1.00  0.00     0.031 C 
ATOM     47  C   UNL A   1      44.105  23.505  29.866  1.00  0.00     0.029 A 
ATOM     48  N   UNL A   1      43.561  25.633  30.104  1.00  0.00    -0.354 N 
ATOM     49  C   UNL A   1      40.091  27.290  27.834  1.00  0.00     0.074 A 
ATOM     50  C   UNL A   1      39.127  26.272  28.155  1.00  0.00     0.031 C 
ATOM     51  C   UNL A   1      44.763  23.963  30.955  1.00  0.00     0.029 A 
ATOM     52  C   UNL A   1      44.405  25.354  31.172  1.00  0.00     0.049 A 
ATOM     53  H   UNL A   1      43.259  26.545  29.886  1.00  0.00     0.167 HD
ATOM     54  C   UNL A   1      39.981  28.646  27.798  1.00  0.00     0.037 A 
ATOM     55  C   UNL A   1      44.733  26.188  32.190  1.00  0.00     0.037 A 
ATOM     56  C   UNL A   1      41.177  29.255  27.279  1.00  0.00     0.049 A 
ATOM     57  C   UNL A   1      44.431  27.574  31.749  1.00  0.00     0.074 A 
ATOM     58  C   UNL A   1      41.854  29.201  26.076  1.00  0.00     0.029 A 
ATOM     59  N   UNL A   1      42.055  29.814  28.173  1.00  0.00    -0.354 N 
ATOM     60  N   UNL A   1      45.113  28.203  30.834  1.00  0.00    -0.248 NA
ATOM     61  C   UNL A   1      43.087  28.083  31.987  1.00  0.00     0.031 C 
ATOM     62  C   UNL A   1      43.234  29.262  26.428  1.00  0.00     0.029 A 
ATOM     63  C   UNL A   1      43.312  29.408  27.812  1.00  0.00     0.049 A 
ATOM     64  H   UNL A   1      41.824  30.398  28.932  1.00  0.00     0.167 HD
ATOM     65  C   UNL A   1      44.158  28.873  30.084  1.00  0.00     0.074 A 
ATOM     66  C   UNL A   1      42.941  28.836  30.893  1.00  0.00     0.031 C 
ATOM     67  C   UNL A   1      44.364  29.138  28.761  1.00  0.00     0.037 A 
BRANCH  54  68
ATOM     68  C   UNL A   1      38.967  29.439  28.590  1.00  0.00     0.057 A 
ATOM     69  C   UNL A   1      37.775  29.961  28.049  1.00  0.00     0.134 A 
ATOM     70  C   UNL A   1      39.010  29.387  29.997  1.00  0.00     0.134 A 
ATOM     71  F   UNL A   1      37.559  30.044  26.731  1.00  0.00    -0.206 F 
ATOM     72  C   UNL A   1      36.685  30.333  28.839  1.00  0.00     0.040 A 
ATOM     73  C   UNL A   1      37.907  29.714  30.795  1.00  0.00     0.040 A 
ATOM     74  F   UNL A   1      40.095  28.925  30.638  1.00  0.00    -0.206 F 
ATOM     75  C   UNL A   1      36.731  30.170  30.214  1.00  0.00     0.006 A 
ENDBRANCH  54  68
BRANCH  55  76
ATOM     76  C   UNL A   1      45.043  25.852  33.599  1.00  0.00     0.057 A 
ATOM     77  C   UNL A   1      46.340  25.484  33.997  1.00  0.00     0.134 A 
ATOM     78  C   UNL A   1      44.029  25.636  34.543  1.00  0.00     0.134 A 
ATOM     79  F   UNL A   1      47.376  25.564  33.149  1.00  0.00    -0.206 F 
ATOM     80  C   UNL A   1      46.616  24.933  35.253  1.00  0.00     0.040 A 
ATOM     81  C   UNL A   1      44.290  25.075  35.803  1.00  0.00     0.040 A 
ATOM     82  F   UNL A   1      42.750  25.907  34.246  1.00  0.00    -0.206 F 
ATOM     83  C   UNL A   1      45.586  24.715  36.158  1.00  0.00     0.006 A 
ENDBRANCH  55  76
BRANCH  67  84
ATOM     84  C   UNL A   1      45.734  28.881  28.202  1.00  0.00     0.057 A 
ATOM     85  C   UNL A   1      46.601  29.962  28.009  1.00  0.00     0.134 A 
ATOM     86  C   UNL A   1      46.163  27.633  27.726  1.00  0.00     0.134 A 
ATOM     87  F   UNL A   1      46.232  31.198  28.378  1.00  0.00    -0.206 F 
ATOM     88  C   UNL A   1      47.843  29.807  27.391  1.00  0.00     0.040 A 
ATOM     89  C   UNL A   1      47.418  27.458  27.139  1.00  0.00     0.040 A 
ATOM     90  F   UNL A   1      45.358  26.563  27.764  1.00  0.00    -0.206 F 
ATOM     91  C   UNL A   1      48.262  28.549  26.966  1.00  0.00     0.006 A 
ENDBRANCH  67  84
ENDBRANCH  41  42
ENDBRANCH  33  36
ENDBRANCH  31  32
ENDBRANCH  30  31
ENDBRANCH   1  30
TORSDOF 13
ENDMDL
