MODEL 1
REMARK VINA RESULT:     -10.9      0.000      0.000
REMARK SMILES C[C@]1(CCC(=O)NCCCCNC(=O)c2ccc(-c3c4nc(c(-c5c(F)cccc5F)c5ccc([nH]5)c(-c5c(F)cccc5F)c5nc(c(-c6c(F)cccc6F)c6ccc3[nH]6)C=C5)C=C4)cc2)CCCCC1=O
REMARK SMILES IDX 9 1 8 2 7 3 5 4 6 5 4 7 3 8 2 9 1 10 69 11 73 12 70 13 72 14
REMARK SMILES IDX 74 15 71 16 10 17 11 18 12 19 13 20 14 22 15 23 16 24 68 25
REMARK SMILES IDX 17 26 67 27 18 28 19 29 20 30 61 31 21 32 66 33 60 34 62 35
REMARK SMILES IDX 22 36 65 37 59 38 58 39 23 41 49 42 32 43 48 44 33 45 36 46
REMARK SMILES IDX 47 47 63 48 34 49 35 50 46 52 64 53 37 54 24 55 25 56 30 57
REMARK SMILES IDX 26 58 27 59 29 60 31 61 28 62 50 63 51 64 56 65 52 66 53 67
REMARK SMILES IDX 55 68 57 69 54 70 38 71 39 72 44 73 40 74 41 75 43 76 45 77
REMARK SMILES IDX 42 78
REMARK H PARENT 7 6 12 21 62 40 36 51
REMARK Flexibility Score: inf
ROOT
ATOM      1  C   UNL A   1      31.801  30.472  26.622  1.00  0.00     0.023 C 
ENDROOT
BRANCH   1   2
ATOM      2  C   UNL A   1      31.696  29.644  25.341  1.00  0.00     0.116 C 
BRANCH   2   3
ATOM      3  N   UNL A   1      30.709  30.139  24.395  1.00  0.00    -0.356 N 
ATOM      4  C   UNL A   1      30.145  29.573  23.286  1.00  0.00     0.220 C 
ATOM      5  O   UNL A   1      29.305  30.223  22.659  1.00  0.00    -0.275 OA
ATOM      6  H   UNL A   1      30.387  31.049  24.590  1.00  0.00     0.163 HD
BRANCH   4   7
ATOM      7  C   UNL A   1      30.484  28.154  22.851  1.00  0.00     0.101 C 
BRANCH   7   8
ATOM      8  C   UNL A   1      29.937  27.006  23.748  1.00  0.00     0.024 C 
BRANCH   8   9
ATOM      9  C   UNL A   1      30.896  25.828  24.128  1.00  0.00     0.027 C 
ATOM     10  C   UNL A   1      30.423  24.524  23.449  1.00  0.00     0.019 C 
ATOM     11  C   UNL A   1      32.329  26.016  23.521  1.00  0.00     0.014 C 
ATOM     12  C   UNL A   1      30.925  25.744  25.683  1.00  0.00     0.138 C 
ATOM     13  C   UNL A   1      33.439  26.525  24.423  1.00  0.00     0.001 C 
ATOM     14  C   UNL A   1      32.133  26.202  26.457  1.00  0.00     0.076 C 
ATOM     15  O   UNL A   1      29.931  25.450  26.350  1.00  0.00    -0.299 OA
ATOM     16  C   UNL A   1      33.406  25.809  25.758  1.00  0.00     0.008 C 
ENDBRANCH   8   9
ENDBRANCH   7   8
ENDBRANCH   4   7
ENDBRANCH   2   3
ENDBRANCH   1   2
BRANCH   1  17
ATOM     17  C   UNL A   1      31.253  31.888  26.573  1.00  0.00     0.023 C 
BRANCH  17  18
ATOM     18  C   UNL A   1      32.371  32.910  26.535  1.00  0.00     0.116 C 
BRANCH  18  19
ATOM     19  N   UNL A   1      32.162  34.034  27.456  1.00  0.00    -0.352 N 
ATOM     20  C   UNL A   1      32.969  34.445  28.489  1.00  0.00     0.251 C 
ATOM     21  H   UNL A   1      31.343  34.559  27.314  1.00  0.00     0.163 HD
ATOM     22  O   UNL A   1      32.650  35.376  29.221  1.00  0.00    -0.269 OA
BRANCH  20  23
ATOM     23  C   UNL A   1      34.201  33.679  28.737  1.00  0.00     0.039 A 
ATOM     24  C   UNL A   1      35.433  34.314  28.571  1.00  0.00     0.014 A 
ATOM     25  C   UNL A   1      34.113  32.414  29.319  1.00  0.00     0.014 A 
ATOM     26  C   UNL A   1      36.576  33.719  29.097  1.00  0.00     0.010 A 
ATOM     27  C   UNL A   1      35.230  31.882  29.939  1.00  0.00     0.010 A 
ATOM     28  C   UNL A   1      36.471  32.534  29.842  1.00  0.00    -0.014 A 
BRANCH  28  29
ATOM     29  C   UNL A   1      37.633  31.945  30.545  1.00  0.00     0.031 A 
ATOM     30  C   UNL A   1      38.450  30.891  29.853  1.00  0.00     0.074 A 
ATOM     31  C   UNL A   1      37.877  32.268  31.831  1.00  0.00     0.049 A 
ATOM     32  N   UNL A   1      39.398  30.131  30.335  1.00  0.00    -0.248 NA
ATOM     33  C   UNL A   1      38.119  30.620  28.444  1.00  0.00     0.031 C 
ATOM     34  C   UNL A   1      37.107  33.225  32.630  1.00  0.00     0.029 A 
ATOM     35  N   UNL A   1      38.835  31.810  32.698  1.00  0.00    -0.354 N 
ATOM     36  C   UNL A   1      39.745  29.270  29.303  1.00  0.00     0.074 A 
ATOM     37  C   UNL A   1      38.870  29.561  28.189  1.00  0.00     0.031 C 
ATOM     38  C   UNL A   1      37.640  33.301  33.861  1.00  0.00     0.029 A 
ATOM     39  C   UNL A   1      38.759  32.370  33.951  1.00  0.00     0.049 A 
ATOM     40  H   UNL A   1      39.513  31.142  32.447  1.00  0.00     0.167 HD
ATOM     41  C   UNL A   1      40.726  28.341  29.275  1.00  0.00     0.037 A 
ATOM     42  C   UNL A   1      39.506  32.147  35.049  1.00  0.00     0.037 A 
ATOM     43  C   UNL A   1      41.634  28.105  30.363  1.00  0.00     0.049 A 
ATOM     44  C   UNL A   1      40.614  31.134  34.983  1.00  0.00     0.074 A 
ATOM     45  C   UNL A   1      42.729  27.263  30.404  1.00  0.00     0.029 A 
ATOM     46  N   UNL A   1      41.554  28.724  31.602  1.00  0.00    -0.354 N 
ATOM     47  N   UNL A   1      40.983  30.380  33.975  1.00  0.00    -0.248 NA
ATOM     48  C   UNL A   1      41.408  30.938  36.203  1.00  0.00     0.031 C 
ATOM     49  C   UNL A   1      43.295  27.349  31.681  1.00  0.00     0.029 A 
ATOM     50  C   UNL A   1      42.570  28.268  32.422  1.00  0.00     0.049 A 
ATOM     51  H   UNL A   1      40.873  29.389  31.858  1.00  0.00     0.167 HD
ATOM     52  C   UNL A   1      42.058  29.632  34.433  1.00  0.00     0.074 A 
ATOM     53  C   UNL A   1      42.295  30.036  35.805  1.00  0.00     0.031 C 
ATOM     54  C   UNL A   1      42.784  28.691  33.782  1.00  0.00     0.037 A 
BRANCH  41  55
ATOM     55  C   UNL A   1      40.874  27.533  28.022  1.00  0.00     0.057 A 
ATOM     56  C   UNL A   1      40.230  26.299  27.860  1.00  0.00     0.134 A 
ATOM     57  C   UNL A   1      41.661  27.996  26.961  1.00  0.00     0.134 A 
ATOM     58  F   UNL A   1      39.478  25.790  28.847  1.00  0.00    -0.206 F 
ATOM     59  C   UNL A   1      40.388  25.541  26.699  1.00  0.00     0.040 A 
ATOM     60  C   UNL A   1      41.804  27.260  25.784  1.00  0.00     0.040 A 
ATOM     61  F   UNL A   1      42.303  29.172  27.051  1.00  0.00    -0.206 F 
ATOM     62  C   UNL A   1      41.172  26.025  25.654  1.00  0.00     0.006 A 
ENDBRANCH  41  55
BRANCH  42  63
ATOM     63  C   UNL A   1      39.244  32.907  36.296  1.00  0.00     0.057 A 
ATOM     64  C   UNL A   1      39.841  34.155  36.514  1.00  0.00     0.134 A 
ATOM     65  C   UNL A   1      38.403  32.410  37.299  1.00  0.00     0.134 A 
ATOM     66  F   UNL A   1      40.671  34.675  35.598  1.00  0.00    -0.206 F 
ATOM     67  C   UNL A   1      39.624  34.875  37.690  1.00  0.00     0.040 A 
ATOM     68  C   UNL A   1      38.161  33.130  38.471  1.00  0.00     0.040 A 
ATOM     69  F   UNL A   1      37.797  31.223  37.148  1.00  0.00    -0.206 F 
ATOM     70  C   UNL A   1      38.777  34.363  38.672  1.00  0.00     0.006 A 
ENDBRANCH  42  63
BRANCH  54  71
ATOM     71  C   UNL A   1      43.906  28.048  34.536  1.00  0.00     0.057 A 
ATOM     72  C   UNL A   1      45.187  28.610  34.559  1.00  0.00     0.134 A 
ATOM     73  C   UNL A   1      43.685  26.892  35.295  1.00  0.00     0.134 A 
ATOM     74  F   UNL A   1      45.461  29.710  33.841  1.00  0.00    -0.206 F 
ATOM     75  C   UNL A   1      46.218  28.037  35.305  1.00  0.00     0.040 A 
ATOM     76  C   UNL A   1      44.701  26.323  36.062  1.00  0.00     0.040 A 
ATOM     77  F   UNL A   1      42.476  26.312  35.319  1.00  0.00    -0.206 F 
ATOM     78  C   UNL A   1      45.973  26.895  36.066  1.00  0.00     0.006 A 
ENDBRANCH  54  71
ENDBRANCH  28  29
ENDBRANCH  20  23
ENDBRANCH  18  19
ENDBRANCH  17  18
ENDBRANCH   1  17
TORSDOF 13
ENDMDL
MODEL 2
REMARK VINA RESULT:     -10.9      4.874      9.691
REMARK SMILES C[C@]1(CCC(=O)NCCCCNC(=O)c2ccc(-c3c4nc(c(-c5c(F)cccc5F)c5ccc([nH]5)c(-c5c(F)cccc5F)c5nc(c(-c6c(F)cccc6F)c6ccc3[nH]6)C=C5)C=C4)cc2)CCCCC1=O
REMARK SMILES IDX 9 1 8 2 7 3 5 4 6 5 4 7 3 8 2 9 1 10 69 11 73 12 70 13 72 14
REMARK SMILES IDX 74 15 71 16 10 17 11 18 12 19 13 20 14 22 15 23 16 24 68 25
REMARK SMILES IDX 17 26 67 27 18 28 19 29 20 30 61 31 21 32 66 33 60 34 62 35
REMARK SMILES IDX 22 36 65 37 59 38 58 39 23 41 49 42 32 43 48 44 33 45 36 46
REMARK SMILES IDX 47 47 63 48 34 49 35 50 46 52 64 53 37 54 24 55 25 56 30 57
REMARK SMILES IDX 26 58 27 59 29 60 31 61 28 62 50 63 51 64 56 65 52 66 53 67
REMARK SMILES IDX 55 68 57 69 54 70 38 71 39 72 44 73 40 74 41 75 43 76 45 77
REMARK SMILES IDX 42 78
REMARK H PARENT 7 6 12 21 62 40 36 51
REMARK Flexibility Score: inf
ROOT
ATOM      1  C   UNL A   1      42.086  20.146  27.249  1.00  0.00     0.023 C 
ENDROOT
BRANCH   1   2
ATOM      2  C   UNL A   1      42.734  19.915  25.883  1.00  0.00     0.116 C 
BRANCH   2   3
ATOM      3  N   UNL A   1      44.133  20.304  25.818  1.00  0.00    -0.356 N 
ATOM      4  C   UNL A   1      44.745  21.423  25.328  1.00  0.00     0.220 C 
ATOM      5  O   UNL A   1      45.974  21.504  25.413  1.00  0.00    -0.275 OA
ATOM      6  H   UNL A   1      44.753  19.639  26.197  1.00  0.00     0.163 HD
BRANCH   4   7
ATOM      7  C   UNL A   1      43.949  22.582  24.743  1.00  0.00     0.101 C 
BRANCH   7   8
ATOM      8  C   UNL A   1      44.621  23.984  24.806  1.00  0.00     0.024 C 
BRANCH   8   9
ATOM      9  C   UNL A   1      44.477  24.825  26.119  1.00  0.00     0.027 C 
ATOM     10  C   UNL A   1      44.020  26.260  25.777  1.00  0.00     0.019 C 
ATOM     11  C   UNL A   1      43.305  24.311  27.024  1.00  0.00     0.014 C 
ATOM     12  C   UNL A   1      45.851  24.768  26.852  1.00  0.00     0.138 C 
ATOM     13  C   UNL A   1      43.641  23.450  28.228  1.00  0.00     0.001 C 
ATOM     14  C   UNL A   1      46.026  23.940  28.097  1.00  0.00     0.076 C 
ATOM     15  O   UNL A   1      46.876  25.261  26.378  1.00  0.00    -0.299 OA
ATOM     16  C   UNL A   1      44.816  24.034  28.985  1.00  0.00     0.008 C 
ENDBRANCH   8   9
ENDBRANCH   7   8
ENDBRANCH   4   7
ENDBRANCH   2   3
ENDBRANCH   1   2
BRANCH   1  17
ATOM     17  C   UNL A   1      40.763  20.893  27.264  1.00  0.00     0.023 C 
BRANCH  17  18
ATOM     18  C   UNL A   1      40.714  21.947  26.177  1.00  0.00     0.116 C 
BRANCH  18  19
ATOM     19  N   UNL A   1      39.348  22.353  25.823  1.00  0.00    -0.352 N 
ATOM     20  C   UNL A   1      38.723  23.547  26.088  1.00  0.00     0.251 C 
ATOM     21  H   UNL A   1      38.814  21.687  25.334  1.00  0.00     0.163 HD
ATOM     22  O   UNL A   1      37.552  23.741  25.781  1.00  0.00    -0.269 OA
BRANCH  20  23
ATOM     23  C   UNL A   1      39.487  24.567  26.825  1.00  0.00     0.039 A 
ATOM     24  C   UNL A   1      40.134  25.573  26.105  1.00  0.00     0.014 A 
ATOM     25  C   UNL A   1      39.386  24.624  28.215  1.00  0.00     0.014 A 
ATOM     26  C   UNL A   1      40.585  26.704  26.781  1.00  0.00     0.010 A 
ATOM     27  C   UNL A   1      39.731  25.796  28.865  1.00  0.00     0.010 A 
ATOM     28  C   UNL A   1      40.326  26.851  28.152  1.00  0.00    -0.014 A 
BRANCH  28  29
ATOM     29  C   UNL A   1      40.653  28.098  28.882  1.00  0.00     0.031 A 
ATOM     30  C   UNL A   1      42.002  28.237  29.525  1.00  0.00     0.074 A 
ATOM     31  C   UNL A   1      39.705  29.040  29.062  1.00  0.00     0.049 A 
ATOM     32  N   UNL A   1      42.438  29.160  30.342  1.00  0.00    -0.248 NA
ATOM     33  C   UNL A   1      42.975  27.165  29.255  1.00  0.00     0.031 C 
ATOM     34  C   UNL A   1      38.335  28.982  28.546  1.00  0.00     0.029 A 
ATOM     35  N   UNL A   1      39.748  30.226  29.749  1.00  0.00    -0.354 N 
ATOM     36  C   UNL A   1      43.714  28.758  30.711  1.00  0.00     0.074 A 
ATOM     37  C   UNL A   1      43.962  27.483  30.077  1.00  0.00     0.031 C 
ATOM     38  C   UNL A   1      37.678  30.095  28.912  1.00  0.00     0.029 A 
ATOM     39  C   UNL A   1      38.565  30.923  29.722  1.00  0.00     0.049 A 
ATOM     40  H   UNL A   1      40.552  30.548  30.218  1.00  0.00     0.167 HD
ATOM     41  C   UNL A   1      44.611  29.409  31.484  1.00  0.00     0.037 A 
ATOM     42  C   UNL A   1      38.232  32.094  30.298  1.00  0.00     0.037 A 
ATOM     43  C   UNL A   1      44.382  30.707  32.056  1.00  0.00     0.049 A 
ATOM     44  C   UNL A   1      39.259  32.817  31.123  1.00  0.00     0.074 A 
ATOM     45  C   UNL A   1      45.259  31.503  32.767  1.00  0.00     0.029 A 
ATOM     46  N   UNL A   1      43.184  31.402  31.969  1.00  0.00    -0.354 N 
ATOM     47  N   UNL A   1      40.491  32.463  31.402  1.00  0.00    -0.248 NA
ATOM     48  C   UNL A   1      38.852  34.097  31.717  1.00  0.00     0.031 C 
ATOM     49  C   UNL A   1      44.582  32.670  33.138  1.00  0.00     0.029 A 
ATOM     50  C   UNL A   1      43.294  32.612  32.632  1.00  0.00     0.049 A 
ATOM     51  H   UNL A   1      42.376  31.081  31.505  1.00  0.00     0.167 HD
ATOM     52  C   UNL A   1      41.010  33.481  32.189  1.00  0.00     0.074 A 
ATOM     53  C   UNL A   1      39.966  34.476  32.329  1.00  0.00     0.031 C 
ATOM     54  C   UNL A   1      42.239  33.584  32.751  1.00  0.00     0.037 A 
BRANCH  41  55
ATOM     55  C   UNL A   1      45.925  28.732  31.734  1.00  0.00     0.057 A 
ATOM     56  C   UNL A   1      47.058  29.012  30.958  1.00  0.00     0.134 A 
ATOM     57  C   UNL A   1      46.063  27.799  32.767  1.00  0.00     0.134 A 
ATOM     58  F   UNL A   1      46.987  29.883  29.940  1.00  0.00    -0.206 F 
ATOM     59  C   UNL A   1      48.273  28.365  31.182  1.00  0.00     0.040 A 
ATOM     60  C   UNL A   1      47.281  27.165  33.019  1.00  0.00     0.040 A 
ATOM     61  F   UNL A   1      45.017  27.487  33.549  1.00  0.00    -0.206 F 
ATOM     62  C   UNL A   1      48.389  27.442  32.220  1.00  0.00     0.006 A 
ENDBRANCH  41  55
BRANCH  42  63
ATOM     63  C   UNL A   1      36.878  32.666  30.098  1.00  0.00     0.057 A 
ATOM     64  C   UNL A   1      36.623  33.558  29.048  1.00  0.00     0.134 A 
ATOM     65  C   UNL A   1      35.811  32.346  30.946  1.00  0.00     0.134 A 
ATOM     66  F   UNL A   1      37.610  33.916  28.213  1.00  0.00    -0.206 F 
ATOM     67  C   UNL A   1      35.361  34.122  28.857  1.00  0.00     0.040 A 
ATOM     68  C   UNL A   1      34.539  32.888  30.753  1.00  0.00     0.040 A 
ATOM     69  F   UNL A   1      35.989  31.495  31.966  1.00  0.00    -0.206 F 
ATOM     70  C   UNL A   1      34.313  33.784  29.710  1.00  0.00     0.006 A 
ENDBRANCH  42  63
BRANCH  54  71
ATOM     71  C   UNL A   1      42.524  34.816  33.553  1.00  0.00     0.057 A 
ATOM     72  C   UNL A   1      43.047  35.970  32.958  1.00  0.00     0.134 A 
ATOM     73  C   UNL A   1      42.215  34.867  34.917  1.00  0.00     0.134 A 
ATOM     74  F   UNL A   1      43.375  35.976  31.657  1.00  0.00    -0.206 F 
ATOM     75  C   UNL A   1      43.263  37.133  33.697  1.00  0.00     0.040 A 
ATOM     76  C   UNL A   1      42.406  36.031  35.661  1.00  0.00     0.040 A 
ATOM     77  F   UNL A   1      41.704  33.796  35.542  1.00  0.00    -0.206 F 
ATOM     78  C   UNL A   1      42.934  37.168  35.051  1.00  0.00     0.006 A 
ENDBRANCH  54  71
ENDBRANCH  28  29
ENDBRANCH  20  23
ENDBRANCH  18  19
ENDBRANCH  17  18
ENDBRANCH   1  17
TORSDOF 13
ENDMDL
MODEL 3
REMARK VINA RESULT:     -10.8      4.876      9.010
REMARK SMILES C[C@]1(CCC(=O)NCCCCNC(=O)c2ccc(-c3c4nc(c(-c5c(F)cccc5F)c5ccc([nH]5)c(-c5c(F)cccc5F)c5nc(c(-c6c(F)cccc6F)c6ccc3[nH]6)C=C5)C=C4)cc2)CCCCC1=O
REMARK SMILES IDX 9 1 8 2 7 3 5 4 6 5 4 7 3 8 2 9 1 10 69 11 73 12 70 13 72 14
REMARK SMILES IDX 74 15 71 16 10 17 11 18 12 19 13 20 14 22 15 23 16 24 68 25
REMARK SMILES IDX 17 26 67 27 18 28 19 29 20 30 61 31 21 32 66 33 60 34 62 35
REMARK SMILES IDX 22 36 65 37 59 38 58 39 23 41 49 42 32 43 48 44 33 45 36 46
REMARK SMILES IDX 47 47 63 48 34 49 35 50 46 52 64 53 37 54 24 55 25 56 30 57
REMARK SMILES IDX 26 58 27 59 29 60 31 61 28 62 50 63 51 64 56 65 52 66 53 67
REMARK SMILES IDX 55 68 57 69 54 70 38 71 39 72 44 73 40 74 41 75 43 76 45 77
REMARK SMILES IDX 42 78
REMARK H PARENT 7 6 12 21 62 40 36 51
REMARK Flexibility Score: inf
ROOT
ATOM      1  C   UNL A   1      36.633  22.008  25.472  1.00  0.00     0.023 C 
ENDROOT
BRANCH   1   2
ATOM      2  C   UNL A   1      35.338  21.419  26.033  1.00  0.00     0.116 C 
BRANCH   2   3
ATOM      3  N   UNL A   1      34.898  20.208  25.360  1.00  0.00    -0.356 N 
ATOM      4  C   UNL A   1      33.701  19.863  24.798  1.00  0.00     0.220 C 
ATOM      5  O   UNL A   1      33.600  18.752  24.271  1.00  0.00    -0.275 OA
ATOM      6  H   UNL A   1      35.589  19.510  25.297  1.00  0.00     0.163 HD
BRANCH   4   7
ATOM      7  C   UNL A   1      32.525  20.830  24.758  1.00  0.00     0.101 C 
BRANCH   7   8
ATOM      8  C   UNL A   1      32.515  21.858  23.591  1.00  0.00     0.024 C 
BRANCH   8   9
ATOM      9  C   UNL A   1      32.223  23.361  23.918  1.00  0.00     0.027 C 
ATOM     10  C   UNL A   1      30.841  23.762  23.357  1.00  0.00     0.019 C 
ATOM     11  C   UNL A   1      32.040  23.605  25.455  1.00  0.00     0.014 C 
ATOM     12  C   UNL A   1      33.399  24.195  23.328  1.00  0.00     0.138 C 
ATOM     13  C   UNL A   1      33.197  24.197  26.240  1.00  0.00     0.001 C 
ATOM     14  C   UNL A   1      34.436  24.808  24.231  1.00  0.00     0.076 C 
ATOM     15  O   UNL A   1      33.620  24.266  22.119  1.00  0.00    -0.299 OA
ATOM     16  C   UNL A   1      33.810  25.357  25.484  1.00  0.00     0.008 C 
ENDBRANCH   8   9
ENDBRANCH   7   8
ENDBRANCH   4   7
ENDBRANCH   2   3
ENDBRANCH   1   2
BRANCH   1  17
ATOM     17  C   UNL A   1      37.675  21.022  24.968  1.00  0.00     0.023 C 
BRANCH  17  18
ATOM     18  C   UNL A   1      38.950  21.106  25.782  1.00  0.00     0.116 C 
BRANCH  18  19
ATOM     19  N   UNL A   1      39.772  19.892  25.700  1.00  0.00    -0.352 N 
ATOM     20  C   UNL A   1      41.089  19.734  26.058  1.00  0.00     0.251 C 
ATOM     21  H   UNL A   1      39.323  19.092  25.346  1.00  0.00     0.163 HD
ATOM     22  O   UNL A   1      41.677  18.672  25.889  1.00  0.00    -0.269 OA
BRANCH  20  23
ATOM     23  C   UNL A   1      41.797  20.912  26.585  1.00  0.00     0.039 A 
ATOM     24  C   UNL A   1      42.376  21.808  25.685  1.00  0.00     0.014 A 
ATOM     25  C   UNL A   1      41.704  21.212  27.945  1.00  0.00     0.014 A 
ATOM     26  C   UNL A   1      42.764  23.066  26.138  1.00  0.00     0.010 A 
ATOM     27  C   UNL A   1      41.985  22.500  28.367  1.00  0.00     0.010 A 
ATOM     28  C   UNL A   1      42.508  23.442  27.466  1.00  0.00    -0.014 A 
BRANCH  28  29
ATOM     29  C   UNL A   1      42.766  24.816  27.955  1.00  0.00     0.031 A 
ATOM     30  C   UNL A   1      44.155  25.192  28.383  1.00  0.00     0.074 A 
ATOM     31  C   UNL A   1      41.740  25.675  28.121  1.00  0.00     0.049 A 
ATOM     32  N   UNL A   1      44.569  26.274  28.990  1.00  0.00    -0.248 NA
ATOM     33  C   UNL A   1      45.211  24.194  28.145  1.00  0.00     0.031 C 
ATOM     34  C   UNL A   1      40.336  25.397  27.807  1.00  0.00     0.029 A 
ATOM     35  N   UNL A   1      41.720  26.954  28.614  1.00  0.00    -0.354 N 
ATOM     36  C   UNL A   1      45.919  26.067  29.238  1.00  0.00     0.074 A 
ATOM     37  C   UNL A   1      46.243  24.738  28.770  1.00  0.00     0.031 C 
ATOM     38  C   UNL A   1      39.597  26.482  28.092  1.00  0.00     0.029 A 
ATOM     39  C   UNL A   1      40.466  27.515  28.646  1.00  0.00     0.049 A 
ATOM     40  H   UNL A   1      42.529  27.426  28.919  1.00  0.00     0.167 HD
ATOM     41  C   UNL A   1      46.815  26.921  29.780  1.00  0.00     0.037 A 
ATOM     42  C   UNL A   1      40.065  28.724  29.082  1.00  0.00     0.037 A 
ATOM     43  C   UNL A   1      46.500  28.263  30.181  1.00  0.00     0.049 A 
ATOM     44  C   UNL A   1      41.087  29.669  29.647  1.00  0.00     0.074 A 
ATOM     45  C   UNL A   1      47.353  29.248  30.643  1.00  0.00     0.029 A 
ATOM     46  N   UNL A   1      45.226  28.812  30.155  1.00  0.00    -0.354 N 
ATOM     47  N   UNL A   1      42.377  29.491  29.807  1.00  0.00    -0.248 NA
ATOM     48  C   UNL A   1      40.601  30.981  30.096  1.00  0.00     0.031 C 
ATOM     49  C   UNL A   1      46.589  30.385  30.927  1.00  0.00     0.029 A 
ATOM     50  C   UNL A   1      45.266  30.117  30.613  1.00  0.00     0.049 A 
ATOM     51  H   UNL A   1      44.414  28.341  29.856  1.00  0.00     0.167 HD
ATOM     52  C   UNL A   1      42.859  30.669  30.359  1.00  0.00     0.074 A 
ATOM     53  C   UNL A   1      41.726  31.563  30.491  1.00  0.00     0.031 C 
ATOM     54  C   UNL A   1      44.123  30.985  30.729  1.00  0.00     0.037 A 
BRANCH  41  55
ATOM     55  C   UNL A   1      48.222  26.429  29.947  1.00  0.00     0.057 A 
ATOM     56  C   UNL A   1      49.185  26.595  28.943  1.00  0.00     0.134 A 
ATOM     57  C   UNL A   1      48.621  25.792  31.128  1.00  0.00     0.134 A 
ATOM     58  F   UNL A   1      48.861  27.180  27.780  1.00  0.00    -0.206 F 
ATOM     59  C   UNL A   1      50.487  26.117  29.096  1.00  0.00     0.040 A 
ATOM     60  C   UNL A   1      49.927  25.335  31.303  1.00  0.00     0.040 A 
ATOM     61  F   UNL A   1      47.747  25.603  32.129  1.00  0.00    -0.206 F 
ATOM     62  C   UNL A   1      50.863  25.491  30.282  1.00  0.00     0.006 A 
ENDBRANCH  41  55
BRANCH  42  63
ATOM     63  C   UNL A   1      38.638  29.117  28.985  1.00  0.00     0.057 A 
ATOM     64  C   UNL A   1      38.104  29.590  27.780  1.00  0.00     0.134 A 
ATOM     65  C   UNL A   1      37.775  29.036  30.085  1.00  0.00     0.134 A 
ATOM     66  F   UNL A   1      38.886  29.707  26.696  1.00  0.00    -0.206 F 
ATOM     67  C   UNL A   1      36.770  29.985  27.675  1.00  0.00     0.040 A 
ATOM     68  C   UNL A   1      36.433  29.408  29.988  1.00  0.00     0.040 A 
ATOM     69  F   UNL A   1      38.224  28.585  31.265  1.00  0.00    -0.206 F 
ATOM     70  C   UNL A   1      35.928  29.890  28.781  1.00  0.00     0.006 A 
ENDBRANCH  42  63
BRANCH  54  71
ATOM     71  C   UNL A   1      44.350  32.352  31.296  1.00  0.00     0.057 A 
ATOM     72  C   UNL A   1      44.346  32.579  32.677  1.00  0.00     0.134 A 
ATOM     73  C   UNL A   1      44.634  33.435  30.456  1.00  0.00     0.134 A 
ATOM     74  F   UNL A   1      44.067  31.582  33.530  1.00  0.00    -0.206 F 
ATOM     75  C   UNL A   1      44.608  33.844  33.204  1.00  0.00     0.040 A 
ATOM     76  C   UNL A   1      44.919  34.698  30.972  1.00  0.00     0.040 A 
ATOM     77  F   UNL A   1      44.660  33.277  29.124  1.00  0.00    -0.206 F 
ATOM     78  C   UNL A   1      44.905  34.906  32.351  1.00  0.00     0.006 A 
ENDBRANCH  54  71
ENDBRANCH  28  29
ENDBRANCH  20  23
ENDBRANCH  18  19
ENDBRANCH  17  18
ENDBRANCH   1  17
TORSDOF 13
ENDMDL
