MODEL 1
REMARK VINA RESULT:     -12.0      0.000      0.000
REMARK SMILES O=C(NCCCCNC(=O)c1sccc1S(=O)(=O)N1CCO[C@@H]2CCCC[C@@H]21)c1ccc(-c2c3nc(c(-c4c(F)cccc4F)c4ccc([nH]4)c(-c4c(F)cccc4F)c4nc(c(-c5c(F)cccc5F)c5ccc2[nH]5)C=C4)C=C3)cc1
REMARK SMILES IDX 5 1 4 2 3 3 1 4 2 5 29 7 30 8 82 9 31 10 81 11 32 12 33 13
REMARK SMILES IDX 34 14 75 15 35 16 80 17 74 18 76 19 36 20 79 21 73 22 72 23
REMARK SMILES IDX 37 25 63 26 46 27 62 28 47 29 50 30 61 31 77 32 48 33 49 34
REMARK SMILES IDX 60 36 78 37 51 38 38 39 39 40 44 41 40 42 41 43 43 44 45 45
REMARK SMILES IDX 42 46 64 47 65 48 70 49 66 50 67 51 69 52 71 53 68 54 52 55
REMARK SMILES IDX 53 56 58 57 54 58 55 59 57 60 59 61 56 62 6 63 7 64 8 65
REMARK SMILES IDX 9 66 10 68 11 69 12 70 15 71 13 72 14 73 16 74 17 75 18 76
REMARK SMILES IDX 19 77 20 78 28 79 21 80 23 81 27 82 22 83 24 84 26 85 25 86
REMARK H PARENT 3 6 76 24 50 35 8 67
REMARK Flexibility Score: inf
ROOT
ATOM      1  C   UNL A   1      37.770  19.601  24.823  1.00  0.00     0.023 C 
ENDROOT
BRANCH   1   2
ATOM      2  C   UNL A   1      38.891  20.167  25.702  1.00  0.00     0.116 C 
BRANCH   2   3
ATOM      3  N   UNL A   1      40.033  19.280  25.789  1.00  0.00    -0.352 N 
ATOM      4  O   UNL A   1      42.146  18.577  25.937  1.00  0.00    -0.269 OA
ATOM      5  C   UNL A   1      41.356  19.511  26.075  1.00  0.00     0.251 C 
ATOM      6  H   UNL A   1      39.822  18.336  25.611  1.00  0.00     0.163 HD
BRANCH   5   7
ATOM      7  C   UNL A   1      41.893  20.824  26.530  1.00  0.00     0.039 A 
ATOM      8  C   UNL A   1      42.339  21.823  25.658  1.00  0.00     0.014 A 
ATOM      9  C   UNL A   1      41.770  21.129  27.894  1.00  0.00     0.014 A 
ATOM     10  C   UNL A   1      42.685  23.097  26.154  1.00  0.00     0.010 A 
ATOM     11  C   UNL A   1      42.086  22.407  28.382  1.00  0.00     0.010 A 
ATOM     12  C   UNL A   1      42.550  23.410  27.520  1.00  0.00    -0.014 A 
BRANCH  12  13
ATOM     13  C   UNL A   1      42.816  24.786  28.048  1.00  0.00     0.031 A 
ATOM     14  C   UNL A   1      44.198  25.198  28.494  1.00  0.00     0.074 A 
ATOM     15  C   UNL A   1      41.805  25.665  28.195  1.00  0.00     0.049 A 
ATOM     16  N   UNL A   1      44.597  26.332  29.020  1.00  0.00    -0.248 NA
ATOM     17  C   UNL A   1      45.268  24.204  28.336  1.00  0.00     0.031 C 
ATOM     18  C   UNL A   1      40.407  25.411  27.849  1.00  0.00     0.029 A 
ATOM     19  N   UNL A   1      41.794  26.951  28.690  1.00  0.00    -0.354 N 
ATOM     20  C   UNL A   1      45.960  26.189  29.255  1.00  0.00     0.074 A 
ATOM     21  C   UNL A   1      46.312  24.844  28.846  1.00  0.00     0.031 C 
ATOM     22  C   UNL A   1      39.679  26.506  28.125  1.00  0.00     0.029 A 
ATOM     23  C   UNL A   1      40.548  27.530  28.702  1.00  0.00     0.049 A 
ATOM     24  H   UNL A   1      42.606  27.413  29.004  1.00  0.00     0.167 HD
ATOM     25  C   UNL A   1      46.843  27.092  29.752  1.00  0.00     0.037 A 
ATOM     26  C   UNL A   1      40.139  28.739  29.138  1.00  0.00     0.037 A 
ATOM     27  C   UNL A   1      46.512  28.433  30.167  1.00  0.00     0.049 A 
ATOM     28  C   UNL A   1      41.128  29.708  29.723  1.00  0.00     0.074 A 
ATOM     29  C   UNL A   1      47.360  29.422  30.641  1.00  0.00     0.029 A 
ATOM     30  N   UNL A   1      45.236  28.973  30.171  1.00  0.00    -0.354 N 
ATOM     31  N   UNL A   1      42.422  29.575  29.882  1.00  0.00    -0.248 NA
ATOM     32  C   UNL A   1      40.598  30.999  30.192  1.00  0.00     0.031 C 
ATOM     33  C   UNL A   1      46.592  30.544  30.972  1.00  0.00     0.029 A 
ATOM     34  C   UNL A   1      45.272  30.270  30.661  1.00  0.00     0.049 A 
ATOM     35  H   UNL A   1      44.424  28.504  29.871  1.00  0.00     0.167 HD
ATOM     36  C   UNL A   1      42.862  30.769  30.442  1.00  0.00     0.074 A 
ATOM     37  C   UNL A   1      41.701  31.621  30.586  1.00  0.00     0.031 C 
ATOM     38  C   UNL A   1      44.119  31.123  30.801  1.00  0.00     0.037 A 
BRANCH  25  39
ATOM     39  C   UNL A   1      48.277  26.662  29.878  1.00  0.00     0.057 A 
ATOM     40  C   UNL A   1      48.740  25.969  31.004  1.00  0.00     0.134 A 
ATOM     41  C   UNL A   1      49.187  26.882  28.836  1.00  0.00     0.134 A 
ATOM     42  F   UNL A   1      47.920  25.727  32.038  1.00  0.00    -0.206 F 
ATOM     43  C   UNL A   1      50.061  25.528  31.098  1.00  0.00     0.040 A 
ATOM     44  C   UNL A   1      50.505  26.427  28.909  1.00  0.00     0.040 A 
ATOM     45  F   UNL A   1      48.806  27.526  27.723  1.00  0.00    -0.206 F 
ATOM     46  C   UNL A   1      50.946  25.752  30.045  1.00  0.00     0.006 A 
ENDBRANCH  25  39
BRANCH  26  47
ATOM     47  C   UNL A   1      38.706  29.118  29.029  1.00  0.00     0.057 A 
ATOM     48  C   UNL A   1      38.174  29.586  27.821  1.00  0.00     0.134 A 
ATOM     49  C   UNL A   1      37.843  29.039  30.129  1.00  0.00     0.134 A 
ATOM     50  F   UNL A   1      38.960  29.711  26.742  1.00  0.00    -0.206 F 
ATOM     51  C   UNL A   1      36.837  29.972  27.713  1.00  0.00     0.040 A 
ATOM     52  C   UNL A   1      36.498  29.399  30.028  1.00  0.00     0.040 A 
ATOM     53  F   UNL A   1      38.294  28.604  31.314  1.00  0.00    -0.206 F 
ATOM     54  C   UNL A   1      35.994  29.872  28.818  1.00  0.00     0.006 A 
ENDBRANCH  26  47
BRANCH  38  55
ATOM     55  C   UNL A   1      44.318  32.505  31.355  1.00  0.00     0.057 A 
ATOM     56  C   UNL A   1      44.272  32.766  32.731  1.00  0.00     0.134 A 
ATOM     57  C   UNL A   1      44.590  33.584  30.503  1.00  0.00     0.134 A 
ATOM     58  F   UNL A   1      44.004  31.780  33.601  1.00  0.00    -0.206 F 
ATOM     59  C   UNL A   1      44.467  34.053  33.236  1.00  0.00     0.040 A 
ATOM     60  C   UNL A   1      44.808  34.870  30.999  1.00  0.00     0.040 A 
ATOM     61  F   UNL A   1      44.654  33.404  29.175  1.00  0.00    -0.206 F 
ATOM     62  C   UNL A   1      44.741  35.109  32.370  1.00  0.00     0.006 A 
ENDBRANCH  38  55
ENDBRANCH  12  13
ENDBRANCH   5   7
ENDBRANCH   2   3
ENDBRANCH   1   2
BRANCH   1  63
ATOM     63  C   UNL A   1      36.358  20.187  25.019  1.00  0.00     0.023 C 
BRANCH  63  64
ATOM     64  C   UNL A   1      36.284  21.646  25.469  1.00  0.00     0.116 C 
BRANCH  64  65
ATOM     65  N   UNL A   1      35.221  21.863  26.433  1.00  0.00    -0.351 N 
ATOM     66  C   UNL A   1      33.933  22.275  26.206  1.00  0.00     0.262 C 
ATOM     67  H   UNL A   1      35.456  21.692  27.374  1.00  0.00     0.163 HD
ATOM     68  O   UNL A   1      33.317  22.764  27.153  1.00  0.00    -0.268 OA
BRANCH  66  69
ATOM     69  C   UNL A   1      33.397  22.179  24.881  1.00  0.00     0.112 A 
ATOM     70  S   UNL A   1      32.811  20.622  24.433  1.00  0.00    -0.137 S 
ATOM     71  C   UNL A   1      33.282  23.095  23.852  1.00  0.00     0.106 A 
ATOM     72  C   UNL A   1      32.228  21.191  22.941  1.00  0.00     0.067 A 
ATOM     73  C   UNL A   1      32.537  22.521  22.753  1.00  0.00     0.034 A 
BRANCH  71  74
ATOM     74  S   UNL A   1      33.843  24.761  23.799  1.00  0.00     0.245 S 
ATOM     75  O   UNL A   1      34.966  24.707  24.716  1.00  0.00    -0.207 OA
ATOM     76  O   UNL A   1      34.077  25.007  22.396  1.00  0.00    -0.207 OA
BRANCH  74  77
ATOM     77  N   UNL A   1      32.743  25.931  24.386  1.00  0.00    -0.190 NA
ATOM     78  C   UNL A   1      31.357  25.447  24.695  1.00  0.00     0.131 C 
ATOM     79  C   UNL A   1      33.227  27.085  25.250  1.00  0.00     0.102 C 
ATOM     80  C   UNL A   1      31.005  25.516  26.179  1.00  0.00     0.177 C 
ATOM     81  C   UNL A   1      32.625  27.117  26.684  1.00  0.00     0.136 C 
ATOM     82  C   UNL A   1      33.044  28.436  24.541  1.00  0.00     0.023 C 
ATOM     83  O   UNL A   1      31.225  26.822  26.695  1.00  0.00    -0.375 OA
ATOM     84  C   UNL A   1      32.787  28.494  27.340  1.00  0.00     0.034 C 
ATOM     85  C   UNL A   1      31.945  29.336  25.080  1.00  0.00     0.002 C 
ATOM     86  C   UNL A   1      32.088  29.614  26.570  1.00  0.00     0.003 C 
ENDBRANCH  74  77
ENDBRANCH  71  74
ENDBRANCH  66  69
ENDBRANCH  64  65
ENDBRANCH  63  64
ENDBRANCH   1  63
TORSDOF 13
ENDMDL
MODEL 2
REMARK VINA RESULT:     -11.8      0.909      1.848
REMARK SMILES O=C(NCCCCNC(=O)c1sccc1S(=O)(=O)N1CCO[C@@H]2CCCC[C@@H]21)c1ccc(-c2c3nc(c(-c4c(F)cccc4F)c4ccc([nH]4)c(-c4c(F)cccc4F)c4nc(c(-c5c(F)cccc5F)c5ccc2[nH]5)C=C4)C=C3)cc1
REMARK SMILES IDX 5 1 4 2 3 3 1 4 2 5 29 7 30 8 82 9 31 10 81 11 32 12 33 13
REMARK SMILES IDX 34 14 75 15 35 16 80 17 74 18 76 19 36 20 79 21 73 22 72 23
REMARK SMILES IDX 37 25 63 26 46 27 62 28 47 29 50 30 61 31 77 32 48 33 49 34
REMARK SMILES IDX 60 36 78 37 51 38 38 39 39 40 44 41 40 42 41 43 43 44 45 45
REMARK SMILES IDX 42 46 64 47 65 48 70 49 66 50 67 51 69 52 71 53 68 54 52 55
REMARK SMILES IDX 53 56 58 57 54 58 55 59 57 60 59 61 56 62 6 63 7 64 8 65
REMARK SMILES IDX 9 66 10 68 11 69 12 70 15 71 13 72 14 73 16 74 17 75 18 76
REMARK SMILES IDX 19 77 20 78 28 79 21 80 23 81 27 82 22 83 24 84 26 85 25 86
REMARK H PARENT 3 6 76 24 50 35 8 67
REMARK Flexibility Score: inf
ROOT
ATOM      1  C   UNL A   1      37.764  19.698  24.738  1.00  0.00     0.023 C 
ENDROOT
BRANCH   1   2
ATOM      2  C   UNL A   1      38.821  20.160  25.749  1.00  0.00     0.116 C 
BRANCH   2   3
ATOM      3  N   UNL A   1      39.960  19.267  25.811  1.00  0.00    -0.352 N 
ATOM      4  O   UNL A   1      42.071  18.552  25.916  1.00  0.00    -0.269 OA
ATOM      5  C   UNL A   1      41.290  19.490  26.071  1.00  0.00     0.251 C 
ATOM      6  H   UNL A   1      39.740  18.324  25.634  1.00  0.00     0.163 HD
BRANCH   5   7
ATOM      7  C   UNL A   1      41.842  20.799  26.519  1.00  0.00     0.039 A 
ATOM      8  C   UNL A   1      42.289  21.792  25.642  1.00  0.00     0.014 A 
ATOM      9  C   UNL A   1      41.733  21.108  27.884  1.00  0.00     0.014 A 
ATOM     10  C   UNL A   1      42.650  23.064  26.132  1.00  0.00     0.010 A 
ATOM     11  C   UNL A   1      42.065  22.384  28.367  1.00  0.00     0.010 A 
ATOM     12  C   UNL A   1      42.531  23.381  27.499  1.00  0.00    -0.014 A 
BRANCH  12  13
ATOM     13  C   UNL A   1      42.814  24.755  28.021  1.00  0.00     0.031 A 
ATOM     14  C   UNL A   1      44.204  25.158  28.448  1.00  0.00     0.074 A 
ATOM     15  C   UNL A   1      41.811  25.642  28.182  1.00  0.00     0.049 A 
ATOM     16  N   UNL A   1      44.619  26.290  28.967  1.00  0.00    -0.248 NA
ATOM     17  C   UNL A   1      45.265  24.156  28.276  1.00  0.00     0.031 C 
ATOM     18  C   UNL A   1      40.406  25.397  27.855  1.00  0.00     0.029 A 
ATOM     19  N   UNL A   1      41.816  26.928  28.675  1.00  0.00    -0.354 N 
ATOM     20  C   UNL A   1      45.984  26.138  29.183  1.00  0.00     0.074 A 
ATOM     21  C   UNL A   1      46.320  24.790  28.771  1.00  0.00     0.031 C 
ATOM     22  C   UNL A   1      39.690  26.498  28.140  1.00  0.00     0.029 A 
ATOM     23  C   UNL A   1      40.574  27.516  28.704  1.00  0.00     0.049 A 
ATOM     24  H   UNL A   1      42.635  27.385  28.977  1.00  0.00     0.167 HD
ATOM     25  C   UNL A   1      46.880  27.035  29.668  1.00  0.00     0.037 A 
ATOM     26  C   UNL A   1      40.179  28.728  29.144  1.00  0.00     0.037 A 
ATOM     27  C   UNL A   1      46.564  28.379  30.085  1.00  0.00     0.049 A 
ATOM     28  C   UNL A   1      41.184  29.691  29.715  1.00  0.00     0.074 A 
ATOM     29  C   UNL A   1      47.425  29.362  30.547  1.00  0.00     0.029 A 
ATOM     30  N   UNL A   1      45.292  28.927  30.107  1.00  0.00    -0.354 N 
ATOM     31  N   UNL A   1      42.478  29.549  29.856  1.00  0.00    -0.248 NA
ATOM     32  C   UNL A   1      40.669  30.986  30.189  1.00  0.00     0.031 C 
ATOM     33  C   UNL A   1      46.670  30.490  30.888  1.00  0.00     0.029 A 
ATOM     34  C   UNL A   1      45.343  30.225  30.595  1.00  0.00     0.049 A 
ATOM     35  H   UNL A   1      44.473  28.464  29.819  1.00  0.00     0.167 HD
ATOM     36  C   UNL A   1      42.934  30.740  30.408  1.00  0.00     0.074 A 
ATOM     37  C   UNL A   1      41.782  31.600  30.568  1.00  0.00     0.031 C 
ATOM     38  C   UNL A   1      44.199  31.086  30.750  1.00  0.00     0.037 A 
BRANCH  25  39
ATOM     39  C   UNL A   1      48.312  26.595  29.774  1.00  0.00     0.057 A 
ATOM     40  C   UNL A   1      49.245  26.881  28.768  1.00  0.00     0.134 A 
ATOM     41  C   UNL A   1      48.780  25.942  30.921  1.00  0.00     0.134 A 
ATOM     42  F   UNL A   1      48.861  27.503  27.643  1.00  0.00    -0.206 F 
ATOM     43  C   UNL A   1      50.586  26.514  28.890  1.00  0.00     0.040 A 
ATOM     44  C   UNL A   1      50.124  25.590  31.065  1.00  0.00     0.040 A 
ATOM     45  F   UNL A   1      47.944  25.651  31.929  1.00  0.00    -0.206 F 
ATOM     46  C   UNL A   1      51.030  25.871  30.045  1.00  0.00     0.006 A 
ENDBRANCH  25  39
BRANCH  26  47
ATOM     47  C   UNL A   1      38.748  29.118  29.055  1.00  0.00     0.057 A 
ATOM     48  C   UNL A   1      38.201  29.584  27.853  1.00  0.00     0.134 A 
ATOM     49  C   UNL A   1      37.901  29.049  30.167  1.00  0.00     0.134 A 
ATOM     50  F   UNL A   1      38.972  29.699  26.762  1.00  0.00    -0.206 F 
ATOM     51  C   UNL A   1      36.866  29.979  27.762  1.00  0.00     0.040 A 
ATOM     52  C   UNL A   1      36.557  29.418  30.085  1.00  0.00     0.040 A 
ATOM     53  F   UNL A   1      38.366  28.614  31.347  1.00  0.00    -0.206 F 
ATOM     54  C   UNL A   1      36.038  29.890  28.880  1.00  0.00     0.006 A 
ENDBRANCH  26  47
BRANCH  38  55
ATOM     55  C   UNL A   1      44.415  32.467  31.300  1.00  0.00     0.057 A 
ATOM     56  C   UNL A   1      44.672  33.564  30.467  1.00  0.00     0.134 A 
ATOM     57  C   UNL A   1      44.337  32.708  32.678  1.00  0.00     0.134 A 
ATOM     58  F   UNL A   1      44.773  33.400  29.139  1.00  0.00    -0.206 F 
ATOM     59  C   UNL A   1      44.864  34.846  30.987  1.00  0.00     0.040 A 
ATOM     60  C   UNL A   1      44.504  33.989  33.207  1.00  0.00     0.040 A 
ATOM     61  F   UNL A   1      44.088  31.704  33.532  1.00  0.00    -0.206 F 
ATOM     62  C   UNL A   1      44.775  35.062  32.361  1.00  0.00     0.006 A 
ENDBRANCH  38  55
ENDBRANCH  12  13
ENDBRANCH   5   7
ENDBRANCH   2   3
ENDBRANCH   1   2
BRANCH   1  63
ATOM     63  C   UNL A   1      36.325  20.211  24.942  1.00  0.00     0.023 C 
BRANCH  63  64
ATOM     64  C   UNL A   1      36.172  21.517  25.721  1.00  0.00     0.116 C 
BRANCH  64  65
ATOM     65  N   UNL A   1      35.164  21.415  26.760  1.00  0.00    -0.351 N 
ATOM     66  C   UNL A   1      33.858  21.832  26.726  1.00  0.00     0.262 C 
ATOM     67  H   UNL A   1      35.456  20.991  27.599  1.00  0.00     0.163 HD
ATOM     68  O   UNL A   1      33.290  22.010  27.803  1.00  0.00    -0.268 OA
BRANCH  66  69
ATOM     69  C   UNL A   1      33.248  22.101  25.458  1.00  0.00     0.112 A 
ATOM     70  S   UNL A   1      32.577  20.730  24.657  1.00  0.00    -0.137 S 
ATOM     71  C   UNL A   1      33.113  23.258  24.714  1.00  0.00     0.106 A 
ATOM     72  C   UNL A   1      31.937  21.686  23.405  1.00  0.00     0.067 A 
ATOM     73  C   UNL A   1      32.287  23.010  23.552  1.00  0.00     0.034 A 
BRANCH  71  74
ATOM     74  S   UNL A   1      33.735  24.865  25.061  1.00  0.00     0.245 S 
ATOM     75  O   UNL A   1      33.296  25.044  26.433  1.00  0.00    -0.207 OA
ATOM     76  O   UNL A   1      35.145  24.765  24.770  1.00  0.00    -0.207 OA
BRANCH  74  77
ATOM     77  N   UNL A   1      33.069  26.134  24.129  1.00  0.00    -0.190 NA
ATOM     78  C   UNL A   1      33.527  26.225  22.703  1.00  0.00     0.131 C 
ATOM     79  C   UNL A   1      31.648  26.615  24.379  1.00  0.00     0.102 C 
ATOM     80  C   UNL A   1      32.418  25.952  21.690  1.00  0.00     0.177 C 
ATOM     81  C   UNL A   1      30.683  26.436  23.173  1.00  0.00     0.136 C 
ATOM     82  C   UNL A   1      31.627  28.062  24.898  1.00  0.00     0.023 C 
ATOM     83  O   UNL A   1      31.294  26.790  21.928  1.00  0.00    -0.375 OA
ATOM     84  C   UNL A   1      29.431  27.312  23.309  1.00  0.00     0.034 C 
ATOM     85  C   UNL A   1      31.130  29.118  23.927  1.00  0.00     0.002 C 
ATOM     86  C   UNL A   1      29.746  28.808  23.373  1.00  0.00     0.003 C 
ENDBRANCH  74  77
ENDBRANCH  71  74
ENDBRANCH  66  69
ENDBRANCH  64  65
ENDBRANCH  63  64
ENDBRANCH   1  63
TORSDOF 13
ENDMDL
MODEL 3
REMARK VINA RESULT:     -11.8      1.037      6.251
REMARK SMILES O=C(NCCCCNC(=O)c1sccc1S(=O)(=O)N1CCO[C@@H]2CCCC[C@@H]21)c1ccc(-c2c3nc(c(-c4c(F)cccc4F)c4ccc([nH]4)c(-c4c(F)cccc4F)c4nc(c(-c5c(F)cccc5F)c5ccc2[nH]5)C=C4)C=C3)cc1
REMARK SMILES IDX 5 1 4 2 3 3 1 4 2 5 29 7 30 8 82 9 31 10 81 11 32 12 33 13
REMARK SMILES IDX 34 14 75 15 35 16 80 17 74 18 76 19 36 20 79 21 73 22 72 23
REMARK SMILES IDX 37 25 63 26 46 27 62 28 47 29 50 30 61 31 77 32 48 33 49 34
REMARK SMILES IDX 60 36 78 37 51 38 38 39 39 40 44 41 40 42 41 43 43 44 45 45
REMARK SMILES IDX 42 46 64 47 65 48 70 49 66 50 67 51 69 52 71 53 68 54 52 55
REMARK SMILES IDX 53 56 58 57 54 58 55 59 57 60 59 61 56 62 6 63 7 64 8 65
REMARK SMILES IDX 9 66 10 68 11 69 12 70 15 71 13 72 14 73 16 74 17 75 18 76
REMARK SMILES IDX 19 77 20 78 28 79 21 80 23 81 27 82 22 83 24 84 26 85 25 86
REMARK H PARENT 3 6 76 24 50 35 8 67
REMARK Flexibility Score: inf
ROOT
ATOM      1  C   UNL A   1      37.781  19.865  24.725  1.00  0.00     0.023 C 
ENDROOT
BRANCH   1   2
ATOM      2  C   UNL A   1      38.846  20.289  25.743  1.00  0.00     0.116 C 
BRANCH   2   3
ATOM      3  N   UNL A   1      39.935  19.338  25.840  1.00  0.00    -0.352 N 
ATOM      4  O   UNL A   1      42.003  18.514  25.998  1.00  0.00    -0.269 OA
ATOM      5  C   UNL A   1      41.269  19.495  26.125  1.00  0.00     0.251 C 
ATOM      6  H   UNL A   1      39.669  18.406  25.672  1.00  0.00     0.163 HD
BRANCH   5   7
ATOM      7  C   UNL A   1      41.881  20.779  26.567  1.00  0.00     0.039 A 
ATOM      8  C   UNL A   1      42.305  21.779  25.685  1.00  0.00     0.014 A 
ATOM      9  C   UNL A   1      41.858  21.062  27.941  1.00  0.00     0.014 A 
ATOM     10  C   UNL A   1      42.728  23.030  26.180  1.00  0.00     0.010 A 
ATOM     11  C   UNL A   1      42.251  22.318  28.430  1.00  0.00     0.010 A 
ATOM     12  C   UNL A   1      42.694  23.321  27.557  1.00  0.00    -0.014 A 
BRANCH  12  13
ATOM     13  C   UNL A   1      43.043  24.675  28.090  1.00  0.00     0.031 A 
ATOM     14  C   UNL A   1      41.982  25.724  28.315  1.00  0.00     0.074 A 
ATOM     15  C   UNL A   1      44.331  25.005  28.318  1.00  0.00     0.049 A 
ATOM     16  N   UNL A   1      42.113  26.964  28.726  1.00  0.00    -0.248 NA
ATOM     17  C   UNL A   1      40.594  25.332  28.035  1.00  0.00     0.031 C 
ATOM     18  C   UNL A   1      45.478  24.121  28.114  1.00  0.00     0.029 A 
ATOM     19  N   UNL A   1      44.894  26.182  28.759  1.00  0.00    -0.354 N 
ATOM     20  C   UNL A   1      40.830  27.498  28.754  1.00  0.00     0.074 A 
ATOM     21  C   UNL A   1      39.937  26.458  28.285  1.00  0.00     0.031 C 
ATOM     22  C   UNL A   1      46.603  24.778  28.443  1.00  0.00     0.029 A 
ATOM     23  C   UNL A   1      46.265  26.141  28.847  1.00  0.00     0.049 A 
ATOM     24  H   UNL A   1      44.363  26.979  28.992  1.00  0.00     0.167 HD
ATOM     25  C   UNL A   1      40.424  28.734  29.144  1.00  0.00     0.037 A 
ATOM     26  C   UNL A   1      47.157  27.090  29.198  1.00  0.00     0.037 A 
ATOM     27  C   UNL A   1      41.296  29.783  29.611  1.00  0.00     0.049 A 
ATOM     28  C   UNL A   1      46.688  28.465  29.587  1.00  0.00     0.074 A 
ATOM     29  C   UNL A   1      40.956  31.048  30.065  1.00  0.00     0.029 A 
ATOM     30  N   UNL A   1      42.678  29.701  29.673  1.00  0.00    -0.354 N 
ATOM     31  N   UNL A   1      45.466  28.931  29.663  1.00  0.00    -0.248 NA
ATOM     32  C   UNL A   1      47.726  29.447  29.939  1.00  0.00     0.031 C 
ATOM     33  C   UNL A   1      42.133  31.745  30.361  1.00  0.00     0.029 A 
ATOM     34  C   UNL A   1      43.204  30.898  30.136  1.00  0.00     0.049 A 
ATOM     35  H   UNL A   1      43.208  28.909  29.426  1.00  0.00     0.167 HD
ATOM     36  C   UNL A   1      45.587  30.247  30.095  1.00  0.00     0.074 A 
ATOM     37  C   UNL A   1      46.999  30.504  30.276  1.00  0.00     0.031 C 
ATOM     38  C   UNL A   1      44.609  31.157  30.322  1.00  0.00     0.037 A 
BRANCH  25  39
ATOM     39  C   UNL A   1      38.953  29.030  29.088  1.00  0.00     0.057 A 
ATOM     40  C   UNL A   1      38.136  28.911  30.220  1.00  0.00     0.134 A 
ATOM     41  C   UNL A   1      38.360  29.505  27.911  1.00  0.00     0.134 A 
ATOM     42  F   UNL A   1      38.641  28.460  31.378  1.00  0.00    -0.206 F 
ATOM     43  C   UNL A   1      36.778  29.233  30.178  1.00  0.00     0.040 A 
ATOM     44  C   UNL A   1      37.008  29.851  27.862  1.00  0.00     0.040 A 
ATOM     45  F   UNL A   1      39.087  29.657  26.795  1.00  0.00    -0.206 F 
ATOM     46  C   UNL A   1      36.212  29.711  28.997  1.00  0.00     0.006 A 
ENDBRANCH  25  39
BRANCH  26  47
ATOM     47  C   UNL A   1      48.608  26.772  29.210  1.00  0.00     0.057 A 
ATOM     48  C   UNL A   1      49.214  26.210  30.340  1.00  0.00     0.134 A 
ATOM     49  C   UNL A   1      49.425  27.036  28.103  1.00  0.00     0.134 A 
ATOM     50  F   UNL A   1      48.489  25.963  31.441  1.00  0.00    -0.206 F 
ATOM     51  C   UNL A   1      50.582  25.932  30.375  1.00  0.00     0.040 A 
ATOM     52  C   UNL A   1      50.789  26.741  28.115  1.00  0.00     0.040 A 
ATOM     53  F   UNL A   1      48.905  27.577  26.992  1.00  0.00    -0.206 F 
ATOM     54  C   UNL A   1      51.371  26.192  29.256  1.00  0.00     0.006 A 
ENDBRANCH  26  47
BRANCH  38  55
ATOM     55  C   UNL A   1      45.025  32.510  30.825  1.00  0.00     0.057 A 
ATOM     56  C   UNL A   1      45.174  32.778  32.192  1.00  0.00     0.134 A 
ATOM     57  C   UNL A   1      45.308  33.550  29.929  1.00  0.00     0.134 A 
ATOM     58  F   UNL A   1      44.907  31.831  33.103  1.00  0.00    -0.206 F 
ATOM     59  C   UNL A   1      45.569  34.037  32.649  1.00  0.00     0.040 A 
ATOM     60  C   UNL A   1      45.725  34.805  30.374  1.00  0.00     0.040 A 
ATOM     61  F   UNL A   1      45.191  33.360  28.606  1.00  0.00    -0.206 F 
ATOM     62  C   UNL A   1      45.851  35.054  31.739  1.00  0.00     0.006 A 
ENDBRANCH  38  55
ENDBRANCH  12  13
ENDBRANCH   5   7
ENDBRANCH   2   3
ENDBRANCH   1   2
BRANCH   1  63
ATOM     63  C   UNL A   1      36.349  20.390  24.943  1.00  0.00     0.023 C 
BRANCH  63  64
ATOM     64  C   UNL A   1      36.210  21.646  25.805  1.00  0.00     0.116 C 
BRANCH  64  65
ATOM     65  N   UNL A   1      35.188  21.495  26.823  1.00  0.00    -0.351 N 
ATOM     66  C   UNL A   1      33.868  21.865  26.770  1.00  0.00     0.262 C 
ATOM     67  H   UNL A   1      35.480  21.072  27.663  1.00  0.00     0.163 HD
ATOM     68  O   UNL A   1      33.275  22.009  27.839  1.00  0.00    -0.268 OA
BRANCH  66  69
ATOM     69  C   UNL A   1      33.271  22.127  25.495  1.00  0.00     0.112 A 
ATOM     70  S   UNL A   1      32.641  20.746  24.678  1.00  0.00    -0.137 S 
ATOM     71  C   UNL A   1      33.123  23.283  24.753  1.00  0.00     0.106 A 
ATOM     72  C   UNL A   1      32.000  21.693  23.420  1.00  0.00     0.067 A 
ATOM     73  C   UNL A   1      32.320  23.023  23.578  1.00  0.00     0.034 A 
BRANCH  71  74
ATOM     74  S   UNL A   1      33.707  24.902  25.117  1.00  0.00     0.245 S 
ATOM     75  O   UNL A   1      33.235  25.069  26.479  1.00  0.00    -0.207 OA
ATOM     76  O   UNL A   1      35.125  24.830  24.855  1.00  0.00    -0.207 OA
BRANCH  74  77
ATOM     77  N   UNL A   1      33.037  26.159  24.172  1.00  0.00    -0.190 NA
ATOM     78  C   UNL A   1      33.518  26.256  22.754  1.00  0.00     0.131 C 
ATOM     79  C   UNL A   1      31.604  26.618  24.397  1.00  0.00     0.102 C 
ATOM     80  C   UNL A   1      32.430  25.966  21.722  1.00  0.00     0.177 C 
ATOM     81  C   UNL A   1      30.663  26.423  23.174  1.00  0.00     0.136 C 
ATOM     82  C   UNL A   1      31.551  28.064  24.914  1.00  0.00     0.023 C 
ATOM     83  O   UNL A   1      31.289  26.785  21.940  1.00  0.00    -0.375 OA
ATOM     84  C   UNL A   1      29.395  27.279  23.288  1.00  0.00     0.034 C 
ATOM     85  C   UNL A   1      31.054  29.112  23.934  1.00  0.00     0.002 C 
ATOM     86  C   UNL A   1      29.685  28.779  23.356  1.00  0.00     0.003 C 
ENDBRANCH  74  77
ENDBRANCH  71  74
ENDBRANCH  66  69
ENDBRANCH  64  65
ENDBRANCH  63  64
ENDBRANCH   1  63
TORSDOF 13
ENDMDL
