MODEL 1
REMARK VINA RESULT:     -13.3      0.000      0.000
REMARK SMILES O=C(NCCCCNC(=O)c1ccc(-n2cc(CSc3nc4ccccc4c(=O)n3-c3ccccc3)nn2)cc1)c1ccc(-c2c3nc(c(-c4c(F)cccc4F)c4ccc([nH]4)c(-c4c(F)cccc4F)c4nc(c(-c5c(F)cccc5F)c5ccc2[nH]5)C=C4)C=C3)cc1
REMARK SMILES IDX 7 1 6 2 5 3 4 4 3 5 1 6 2 7 41 9 42 10 94 11 43 12 93 13
REMARK SMILES IDX 44 14 45 15 46 16 87 17 47 18 92 19 86 20 88 21 48 22 91 23
REMARK SMILES IDX 85 24 84 25 49 27 75 28 58 29 74 30 59 31 62 32 73 33 89 34
REMARK SMILES IDX 60 35 61 36 72 38 90 39 63 40 50 41 51 42 56 43 52 44 53 45
REMARK SMILES IDX 55 46 57 47 54 48 76 49 77 50 82 51 78 52 79 53 81 54 83 55
REMARK SMILES IDX 80 56 64 57 65 58 70 59 66 60 67 61 69 62 71 63 68 64 8 65
REMARK SMILES IDX 9 66 10 68 11 69 12 70 40 71 13 72 39 73 14 74 15 75 16 76
REMARK SMILES IDX 38 77 17 78 37 79 18 80 19 81 20 82 21 83 30 84 22 85 28 86
REMARK SMILES IDX 23 87 27 88 29 89 24 90 26 91 25 92 31 93 32 94 36 95 33 96
REMARK SMILES IDX 35 97 34 98
REMARK H PARENT 3 8 88 26 62 37 8 67
REMARK Flexibility Score: inf
ROOT
ATOM      1  C   UNL A   1      38.476  23.376  26.050  1.00  0.00     0.116 C 
ENDROOT
BRANCH   1   2
ATOM      2  C   UNL A   1      39.134  23.818  27.352  1.00  0.00     0.023 C 
BRANCH   2   3
ATOM      3  C   UNL A   1      40.647  23.617  27.435  1.00  0.00     0.023 C 
BRANCH   3   4
ATOM      4  C   UNL A   1      41.240  22.618  26.438  1.00  0.00     0.116 C 
BRANCH   4   5
ATOM      5  N   UNL A   1      42.248  23.170  25.555  1.00  0.00    -0.352 N 
ATOM      6  O   UNL A   1      43.827  24.420  24.653  1.00  0.00    -0.269 OA
ATOM      7  C   UNL A   1      42.893  24.372  25.459  1.00  0.00     0.251 C 
ATOM      8  H   UNL A   1      42.534  22.530  24.863  1.00  0.00     0.163 HD
BRANCH   7   9
ATOM      9  C   UNL A   1      42.529  25.608  26.205  1.00  0.00     0.039 A 
ATOM     10  C   UNL A   1      41.619  26.575  25.782  1.00  0.00     0.014 A 
ATOM     11  C   UNL A   1      43.205  25.819  27.423  1.00  0.00     0.014 A 
ATOM     12  C   UNL A   1      41.447  27.755  26.500  1.00  0.00     0.010 A 
ATOM     13  C   UNL A   1      43.019  26.986  28.161  1.00  0.00     0.010 A 
ATOM     14  C   UNL A   1      42.164  27.972  27.676  1.00  0.00    -0.014 A 
BRANCH  14  15
ATOM     15  C   UNL A   1      41.916  29.217  28.400  1.00  0.00     0.031 A 
ATOM     16  C   UNL A   1      42.967  30.274  28.292  1.00  0.00     0.074 A 
ATOM     17  C   UNL A   1      40.750  29.491  29.017  1.00  0.00     0.049 A 
ATOM     18  N   UNL A   1      43.588  30.906  29.239  1.00  0.00    -0.248 NA
ATOM     19  C   UNL A   1      43.403  30.651  26.939  1.00  0.00     0.031 C 
ATOM     20  C   UNL A   1      39.500  28.732  28.961  1.00  0.00     0.029 A 
ATOM     21  N   UNL A   1      40.417  30.592  29.751  1.00  0.00    -0.354 N 
ATOM     22  C   UNL A   1      44.375  31.872  28.611  1.00  0.00     0.074 A 
ATOM     23  C   UNL A   1      44.292  31.610  27.197  1.00  0.00     0.031 C 
ATOM     24  C   UNL A   1      38.497  29.497  29.445  1.00  0.00     0.029 A 
ATOM     25  C   UNL A   1      39.055  30.737  29.958  1.00  0.00     0.049 A 
ATOM     26  H   UNL A   1      41.084  31.225  30.102  1.00  0.00     0.167 HD
ATOM     27  C   UNL A   1      44.915  32.929  29.278  1.00  0.00     0.037 A 
ATOM     28  C   UNL A   1      38.422  31.830  30.447  1.00  0.00     0.037 A 
ATOM     29  C   UNL A   1      45.005  32.687  30.691  1.00  0.00     0.049 A 
ATOM     30  C   UNL A   1      39.417  32.672  31.149  1.00  0.00     0.074 A 
ATOM     31  C   UNL A   1      45.643  31.754  31.486  1.00  0.00     0.029 A 
ATOM     32  N   UNL A   1      44.141  33.343  31.528  1.00  0.00    -0.354 N 
ATOM     33  N   UNL A   1      39.984  32.364  32.281  1.00  0.00    -0.248 NA
ATOM     34  C   UNL A   1      40.068  33.731  30.393  1.00  0.00     0.031 C 
ATOM     35  C   UNL A   1      44.781  31.568  32.606  1.00  0.00     0.029 A 
ATOM     36  C   UNL A   1      43.683  32.410  32.420  1.00  0.00     0.049 A 
ATOM     37  H   UNL A   1      43.897  34.296  31.496  1.00  0.00     0.167 HD
ATOM     38  C   UNL A   1      41.265  32.888  32.190  1.00  0.00     0.074 A 
ATOM     39  C   UNL A   1      41.219  33.813  31.063  1.00  0.00     0.031 C 
ATOM     40  C   UNL A   1      42.312  32.322  32.858  1.00  0.00     0.037 A 
BRANCH  27  41
ATOM     41  C   UNL A   1      45.089  34.310  28.690  1.00  0.00     0.057 A 
ATOM     42  C   UNL A   1      43.974  34.989  28.160  1.00  0.00     0.134 A 
ATOM     43  C   UNL A   1      46.339  34.867  28.358  1.00  0.00     0.134 A 
ATOM     44  F   UNL A   1      42.727  34.551  28.388  1.00  0.00    -0.206 F 
ATOM     45  C   UNL A   1      44.100  36.091  27.305  1.00  0.00     0.040 A 
ATOM     46  C   UNL A   1      46.474  35.999  27.547  1.00  0.00     0.040 A 
ATOM     47  F   UNL A   1      47.495  34.294  28.717  1.00  0.00    -0.206 F 
ATOM     48  C   UNL A   1      45.355  36.595  26.989  1.00  0.00     0.006 A 
ENDBRANCH  27  41
BRANCH  28  49
ATOM     49  C   UNL A   1      37.068  32.319  30.111  1.00  0.00     0.057 A 
ATOM     50  C   UNL A   1      35.965  32.029  30.923  1.00  0.00     0.134 A 
ATOM     51  C   UNL A   1      36.868  33.295  29.118  1.00  0.00     0.134 A 
ATOM     52  F   UNL A   1      36.071  31.149  31.930  1.00  0.00    -0.206 F 
ATOM     53  C   UNL A   1      34.733  32.676  30.760  1.00  0.00     0.040 A 
ATOM     54  C   UNL A   1      35.641  33.940  28.937  1.00  0.00     0.040 A 
ATOM     55  F   UNL A   1      37.880  33.717  28.346  1.00  0.00    -0.206 F 
ATOM     56  C   UNL A   1      34.571  33.639  29.768  1.00  0.00     0.006 A 
ENDBRANCH  28  49
BRANCH  40  57
ATOM     57  C   UNL A   1      42.006  31.297  33.909  1.00  0.00     0.057 A 
ATOM     58  C   UNL A   1      41.796  29.939  33.627  1.00  0.00     0.134 A 
ATOM     59  C   UNL A   1      42.092  31.660  35.258  1.00  0.00     0.134 A 
ATOM     60  F   UNL A   1      41.808  29.485  32.367  1.00  0.00    -0.206 F 
ATOM     61  C   UNL A   1      41.630  28.994  34.642  1.00  0.00     0.040 A 
ATOM     62  C   UNL A   1      41.960  30.719  36.283  1.00  0.00     0.040 A 
ATOM     63  F   UNL A   1      42.357  32.930  35.602  1.00  0.00    -0.206 F 
ATOM     64  C   UNL A   1      41.718  29.382  35.976  1.00  0.00     0.006 A 
ENDBRANCH  40  57
ENDBRANCH  14  15
ENDBRANCH   7   9
ENDBRANCH   4   5
ENDBRANCH   3   4
ENDBRANCH   2   3
ENDBRANCH   1   2
BRANCH   1  65
ATOM     65  N   UNL A   1      38.682  21.967  25.749  1.00  0.00    -0.352 N 
ATOM     66  C   UNL A   1      37.874  21.081  25.079  1.00  0.00     0.251 C 
ATOM     67  H   UNL A   1      39.532  21.591  26.077  1.00  0.00     0.163 HD
ATOM     68  O   UNL A   1      38.191  19.895  25.007  1.00  0.00    -0.269 OA
BRANCH  66  69
ATOM     69  C   UNL A   1      36.600  21.537  24.480  1.00  0.00     0.039 A 
ATOM     70  C   UNL A   1      35.400  20.966  24.931  1.00  0.00     0.016 A 
ATOM     71  C   UNL A   1      36.582  22.536  23.502  1.00  0.00     0.016 A 
ATOM     72  C   UNL A   1      34.173  21.464  24.481  1.00  0.00     0.029 A 
ATOM     73  C   UNL A   1      35.368  23.088  23.109  1.00  0.00     0.029 A 
ATOM     74  C   UNL A   1      34.173  22.560  23.616  1.00  0.00     0.066 A 
BRANCH  74  75
ATOM     75  N   UNL A   1      32.969  23.199  23.279  1.00  0.00    -0.220 N 
ATOM     76  C   UNL A   1      32.816  24.471  22.768  1.00  0.00     0.141 A 
ATOM     77  N   UNL A   1      31.795  22.748  23.758  1.00  0.00    -0.062 NA
ATOM     78  C   UNL A   1      31.530  24.831  23.106  1.00  0.00     0.093 A 
ATOM     79  N   UNL A   1      30.901  23.707  23.605  1.00  0.00    -0.134 NA
BRANCH  78  80
ATOM     80  C   UNL A   1      30.754  26.085  23.258  1.00  0.00     0.138 C 
BRANCH  80  81
ATOM     81  S   UNL A   1      30.242  26.943  24.721  1.00  0.00    -0.081 SA
BRANCH  81  82
ATOM     82  C   UNL A   1      31.236  28.288  25.167  1.00  0.00     0.176 A 
ATOM     83  N   UNL A   1      32.294  27.874  25.801  1.00  0.00    -0.223 NA
ATOM     84  N   UNL A   1      31.007  29.632  24.894  1.00  0.00    -0.255 N 
ATOM     85  C   UNL A   1      33.203  28.806  26.293  1.00  0.00     0.079 A 
ATOM     86  C   UNL A   1      31.537  30.504  25.862  1.00  0.00     0.266 A 
ATOM     87  C   UNL A   1      34.471  28.411  26.720  1.00  0.00     0.029 A 
ATOM     88  C   UNL A   1      32.823  30.125  26.457  1.00  0.00     0.066 A 
ATOM     89  O   UNL A   1      30.994  31.513  26.309  1.00  0.00    -0.268 OA
ATOM     90  C   UNL A   1      35.318  29.329  27.351  1.00  0.00     0.002 A 
ATOM     91  C   UNL A   1      33.635  31.043  27.128  1.00  0.00     0.016 A 
ATOM     92  C   UNL A   1      34.889  30.637  27.580  1.00  0.00     0.001 A 
BRANCH  84  93
ATOM     93  C   UNL A   1      30.206  30.202  23.814  1.00  0.00     0.051 A 
ATOM     94  C   UNL A   1      29.338  31.285  24.066  1.00  0.00     0.027 A 
ATOM     95  C   UNL A   1      30.249  29.777  22.481  1.00  0.00     0.027 A 
ATOM     96  C   UNL A   1      28.438  31.773  23.110  1.00  0.00     0.002 A 
ATOM     97  C   UNL A   1      29.324  30.228  21.525  1.00  0.00     0.002 A 
ATOM     98  C   UNL A   1      28.398  31.207  21.850  1.00  0.00     0.000 A 
ENDBRANCH  84  93
ENDBRANCH  81  82
ENDBRANCH  80  81
ENDBRANCH  78  80
ENDBRANCH  74  75
ENDBRANCH  66  69
ENDBRANCH   1  65
TORSDOF 16
ENDMDL
MODEL 2
REMARK VINA RESULT:     -13.1      1.253      2.414
REMARK SMILES O=C(NCCCCNC(=O)c1ccc(-n2cc(CSc3nc4ccccc4c(=O)n3-c3ccccc3)nn2)cc1)c1ccc(-c2c3nc(c(-c4c(F)cccc4F)c4ccc([nH]4)c(-c4c(F)cccc4F)c4nc(c(-c5c(F)cccc5F)c5ccc2[nH]5)C=C4)C=C3)cc1
REMARK SMILES IDX 7 1 6 2 5 3 4 4 3 5 1 6 2 7 41 9 42 10 94 11 43 12 93 13
REMARK SMILES IDX 44 14 45 15 46 16 87 17 47 18 92 19 86 20 88 21 48 22 91 23
REMARK SMILES IDX 85 24 84 25 49 27 75 28 58 29 74 30 59 31 62 32 73 33 89 34
REMARK SMILES IDX 60 35 61 36 72 38 90 39 63 40 50 41 51 42 56 43 52 44 53 45
REMARK SMILES IDX 55 46 57 47 54 48 76 49 77 50 82 51 78 52 79 53 81 54 83 55
REMARK SMILES IDX 80 56 64 57 65 58 70 59 66 60 67 61 69 62 71 63 68 64 8 65
REMARK SMILES IDX 9 66 10 68 11 69 12 70 40 71 13 72 39 73 14 74 15 75 16 76
REMARK SMILES IDX 38 77 17 78 37 79 18 80 19 81 20 82 21 83 30 84 22 85 28 86
REMARK SMILES IDX 23 87 27 88 29 89 24 90 26 91 25 92 31 93 32 94 36 95 33 96
REMARK SMILES IDX 35 97 34 98
REMARK H PARENT 3 8 88 26 62 37 8 67
REMARK Flexibility Score: inf
ROOT
ATOM      1  C   UNL A   1      38.246  23.630  26.123  1.00  0.00     0.116 C 
ENDROOT
BRANCH   1   2
ATOM      2  C   UNL A   1      39.061  24.162  27.295  1.00  0.00     0.023 C 
BRANCH   2   3
ATOM      3  C   UNL A   1      40.440  23.532  27.487  1.00  0.00     0.023 C 
BRANCH   3   4
ATOM      4  C   UNL A   1      40.893  22.576  26.381  1.00  0.00     0.116 C 
BRANCH   4   5
ATOM      5  N   UNL A   1      41.974  23.074  25.554  1.00  0.00    -0.352 N 
ATOM      6  O   UNL A   1      43.667  24.237  24.745  1.00  0.00    -0.269 OA
ATOM      7  C   UNL A   1      42.693  24.237  25.503  1.00  0.00     0.251 C 
ATOM      8  H   UNL A   1      42.257  22.424  24.871  1.00  0.00     0.163 HD
BRANCH   7   9
ATOM      9  C   UNL A   1      42.364  25.486  26.244  1.00  0.00     0.039 A 
ATOM     10  C   UNL A   1      41.506  26.492  25.802  1.00  0.00     0.014 A 
ATOM     11  C   UNL A   1      43.021  25.667  27.478  1.00  0.00     0.014 A 
ATOM     12  C   UNL A   1      41.368  27.678  26.519  1.00  0.00     0.010 A 
ATOM     13  C   UNL A   1      42.867  26.840  28.214  1.00  0.00     0.010 A 
ATOM     14  C   UNL A   1      42.066  27.862  27.712  1.00  0.00    -0.014 A 
BRANCH  14  15
ATOM     15  C   UNL A   1      41.855  29.116  28.432  1.00  0.00     0.031 A 
ATOM     16  C   UNL A   1      42.917  30.157  28.288  1.00  0.00     0.074 A 
ATOM     17  C   UNL A   1      40.710  29.410  29.080  1.00  0.00     0.049 A 
ATOM     18  N   UNL A   1      43.571  30.787  29.213  1.00  0.00    -0.248 NA
ATOM     19  C   UNL A   1      43.319  30.519  26.921  1.00  0.00     0.031 C 
ATOM     20  C   UNL A   1      39.449  28.667  29.063  1.00  0.00     0.029 A 
ATOM     21  N   UNL A   1      40.411  30.520  29.814  1.00  0.00    -0.354 N 
ATOM     22  C   UNL A   1      44.354  31.738  28.556  1.00  0.00     0.074 A 
ATOM     23  C   UNL A   1      44.228  31.468  27.147  1.00  0.00     0.031 C 
ATOM     24  C   UNL A   1      38.470  29.449  29.569  1.00  0.00     0.029 A 
ATOM     25  C   UNL A   1      39.058  30.685  30.057  1.00  0.00     0.049 A 
ATOM     26  H   UNL A   1      41.096  31.147  30.142  1.00  0.00     0.167 HD
ATOM     27  C   UNL A   1      44.926  32.793  29.201  1.00  0.00     0.037 A 
ATOM     28  C   UNL A   1      38.453  31.790  30.555  1.00  0.00     0.037 A 
ATOM     29  C   UNL A   1      45.052  32.560  30.612  1.00  0.00     0.049 A 
ATOM     30  C   UNL A   1      39.478  32.623  31.224  1.00  0.00     0.074 A 
ATOM     31  C   UNL A   1      45.698  31.624  31.397  1.00  0.00     0.029 A 
ATOM     32  N   UNL A   1      44.219  33.233  31.468  1.00  0.00    -0.354 N 
ATOM     33  N   UNL A   1      40.072  32.316  32.341  1.00  0.00    -0.248 NA
ATOM     34  C   UNL A   1      40.122  33.668  30.442  1.00  0.00     0.031 C 
ATOM     35  C   UNL A   1      44.865  31.457  32.541  1.00  0.00     0.029 A 
ATOM     36  C   UNL A   1      43.774  32.313  32.379  1.00  0.00     0.049 A 
ATOM     37  H   UNL A   1      43.987  34.190  31.435  1.00  0.00     0.167 HD
ATOM     38  C   UNL A   1      41.357  32.822  32.211  1.00  0.00     0.074 A 
ATOM     39  C   UNL A   1      41.292  33.739  31.080  1.00  0.00     0.031 C 
ATOM     40  C   UNL A   1      42.414  32.247  32.855  1.00  0.00     0.037 A 
BRANCH  27  41
ATOM     41  C   UNL A   1      45.102  34.167  28.598  1.00  0.00     0.057 A 
ATOM     42  C   UNL A   1      43.981  34.858  28.095  1.00  0.00     0.134 A 
ATOM     43  C   UNL A   1      46.349  34.704  28.225  1.00  0.00     0.134 A 
ATOM     44  F   UNL A   1      42.735  34.439  28.363  1.00  0.00    -0.206 F 
ATOM     45  C   UNL A   1      44.097  35.953  27.229  1.00  0.00     0.040 A 
ATOM     46  C   UNL A   1      46.476  35.829  27.403  1.00  0.00     0.040 A 
ATOM     47  F   UNL A   1      47.507  34.117  28.555  1.00  0.00    -0.206 F 
ATOM     48  C   UNL A   1      45.350  36.437  26.873  1.00  0.00     0.006 A 
ENDBRANCH  27  41
BRANCH  28  49
ATOM     49  C   UNL A   1      37.097  32.295  30.253  1.00  0.00     0.057 A 
ATOM     50  C   UNL A   1      36.021  32.056  31.116  1.00  0.00     0.134 A 
ATOM     51  C   UNL A   1      36.878  33.238  29.233  1.00  0.00     0.134 A 
ATOM     52  F   UNL A   1      36.148  31.211  32.149  1.00  0.00    -0.206 F 
ATOM     53  C   UNL A   1      34.796  32.723  30.976  1.00  0.00     0.040 A 
ATOM     54  C   UNL A   1      35.658  33.902  29.075  1.00  0.00     0.040 A 
ATOM     55  F   UNL A   1      37.868  33.611  28.409  1.00  0.00    -0.206 F 
ATOM     56  C   UNL A   1      34.615  33.653  29.956  1.00  0.00     0.006 A 
ENDBRANCH  28  49
BRANCH  40  57
ATOM     57  C   UNL A   1      42.124  31.233  33.922  1.00  0.00     0.057 A 
ATOM     58  C   UNL A   1      41.925  31.566  35.270  1.00  0.00     0.134 A 
ATOM     59  C   UNL A   1      41.874  29.907  33.551  1.00  0.00     0.134 A 
ATOM     60  F   UNL A   1      42.036  32.832  35.693  1.00  0.00    -0.206 F 
ATOM     61  C   UNL A   1      41.542  30.611  36.215  1.00  0.00     0.040 A 
ATOM     62  C   UNL A   1      41.459  28.950  34.480  1.00  0.00     0.040 A 
ATOM     63  F   UNL A   1      41.980  29.532  32.267  1.00  0.00    -0.206 F 
ATOM     64  C   UNL A   1      41.301  29.299  35.819  1.00  0.00     0.006 A 
ENDBRANCH  40  57
ENDBRANCH  14  15
ENDBRANCH   7   9
ENDBRANCH   4   5
ENDBRANCH   3   4
ENDBRANCH   2   3
ENDBRANCH   1   2
BRANCH   1  65
ATOM     65  N   UNL A   1      38.438  22.206  25.885  1.00  0.00    -0.352 N 
ATOM     66  C   UNL A   1      37.675  21.322  25.162  1.00  0.00     0.251 C 
ATOM     67  H   UNL A   1      39.238  21.818  26.309  1.00  0.00     0.163 HD
ATOM     68  O   UNL A   1      37.961  20.126  25.157  1.00  0.00    -0.269 OA
BRANCH  66  69
ATOM     69  C   UNL A   1      36.483  21.794  24.423  1.00  0.00     0.039 A 
ATOM     70  C   UNL A   1      35.226  21.276  24.769  1.00  0.00     0.016 A 
ATOM     71  C   UNL A   1      36.596  22.757  23.416  1.00  0.00     0.016 A 
ATOM     72  C   UNL A   1      34.067  21.793  24.180  1.00  0.00     0.029 A 
ATOM     73  C   UNL A   1      35.447  23.330  22.883  1.00  0.00     0.029 A 
ATOM     74  C   UNL A   1      34.190  22.857  23.284  1.00  0.00     0.066 A 
BRANCH  74  75
ATOM     75  N   UNL A   1      33.048  23.518  22.806  1.00  0.00    -0.220 N 
ATOM     76  C   UNL A   1      32.999  24.741  22.170  1.00  0.00     0.141 A 
ATOM     77  N   UNL A   1      31.822  23.175  23.243  1.00  0.00    -0.062 NA
ATOM     78  C   UNL A   1      31.716  25.195  22.382  1.00  0.00     0.093 A 
ATOM     79  N   UNL A   1      30.995  24.157  22.939  1.00  0.00    -0.134 NA
BRANCH  78  80
ATOM     80  C   UNL A   1      31.003  26.495  22.362  1.00  0.00     0.138 C 
BRANCH  80  81
ATOM     81  S   UNL A   1      30.232  27.397  23.678  1.00  0.00    -0.081 SA
BRANCH  81  82
ATOM     82  C   UNL A   1      31.297  27.890  24.951  1.00  0.00     0.176 A 
ATOM     83  N   UNL A   1      31.248  29.180  25.102  1.00  0.00    -0.223 NA
ATOM     84  N   UNL A   1      32.091  27.073  25.749  1.00  0.00    -0.255 N 
ATOM     85  C   UNL A   1      32.071  29.788  26.046  1.00  0.00     0.079 A 
ATOM     86  C   UNL A   1      33.270  27.694  26.197  1.00  0.00     0.266 A 
ATOM     87  C   UNL A   1      31.855  31.109  26.438  1.00  0.00     0.029 A 
ATOM     88  C   UNL A   1      33.177  29.118  26.535  1.00  0.00     0.066 A 
ATOM     89  O   UNL A   1      34.385  27.179  26.263  1.00  0.00    -0.268 OA
ATOM     90  C   UNL A   1      32.774  31.755  27.271  1.00  0.00     0.002 A 
ATOM     91  C   UNL A   1      34.132  29.761  27.327  1.00  0.00     0.016 A 
ATOM     92  C   UNL A   1      33.927  31.090  27.692  1.00  0.00     0.001 A 
BRANCH  84  93
ATOM     93  C   UNL A   1      31.892  25.660  26.060  1.00  0.00     0.051 A 
ATOM     94  C   UNL A   1      30.589  25.130  26.166  1.00  0.00     0.027 A 
ATOM     95  C   UNL A   1      32.924  24.730  26.235  1.00  0.00     0.027 A 
ATOM     96  C   UNL A   1      30.335  23.826  26.609  1.00  0.00     0.002 A 
ATOM     97  C   UNL A   1      32.685  23.434  26.719  1.00  0.00     0.002 A 
ATOM     98  C   UNL A   1      31.389  22.991  26.934  1.00  0.00     0.000 A 
ENDBRANCH  84  93
ENDBRANCH  81  82
ENDBRANCH  80  81
ENDBRANCH  78  80
ENDBRANCH  74  75
ENDBRANCH  66  69
ENDBRANCH   1  65
TORSDOF 16
ENDMDL
MODEL 3
REMARK VINA RESULT:     -13.1      2.270      3.758
REMARK SMILES O=C(NCCCCNC(=O)c1ccc(-n2cc(CSc3nc4ccccc4c(=O)n3-c3ccccc3)nn2)cc1)c1ccc(-c2c3nc(c(-c4c(F)cccc4F)c4ccc([nH]4)c(-c4c(F)cccc4F)c4nc(c(-c5c(F)cccc5F)c5ccc2[nH]5)C=C4)C=C3)cc1
REMARK SMILES IDX 7 1 6 2 5 3 4 4 3 5 1 6 2 7 41 9 42 10 94 11 43 12 93 13
REMARK SMILES IDX 44 14 45 15 46 16 87 17 47 18 92 19 86 20 88 21 48 22 91 23
REMARK SMILES IDX 85 24 84 25 49 27 75 28 58 29 74 30 59 31 62 32 73 33 89 34
REMARK SMILES IDX 60 35 61 36 72 38 90 39 63 40 50 41 51 42 56 43 52 44 53 45
REMARK SMILES IDX 55 46 57 47 54 48 76 49 77 50 82 51 78 52 79 53 81 54 83 55
REMARK SMILES IDX 80 56 64 57 65 58 70 59 66 60 67 61 69 62 71 63 68 64 8 65
REMARK SMILES IDX 9 66 10 68 11 69 12 70 40 71 13 72 39 73 14 74 15 75 16 76
REMARK SMILES IDX 38 77 17 78 37 79 18 80 19 81 20 82 21 83 30 84 22 85 28 86
REMARK SMILES IDX 23 87 27 88 29 89 24 90 26 91 25 92 31 93 32 94 36 95 33 96
REMARK SMILES IDX 35 97 34 98
REMARK H PARENT 3 8 88 26 62 37 8 67
REMARK Flexibility Score: inf
ROOT
ATOM      1  C   UNL A   1      42.702  23.503  25.132  1.00  0.00     0.116 C 
ENDROOT
BRANCH   1   2
ATOM      2  C   UNL A   1      43.771  22.814  24.294  1.00  0.00     0.023 C 
BRANCH   2   3
ATOM      3  C   UNL A   1      44.559  21.710  24.998  1.00  0.00     0.023 C 
BRANCH   3   4
ATOM      4  C   UNL A   1      45.890  22.138  25.621  1.00  0.00     0.116 C 
BRANCH   4   5
ATOM      5  N   UNL A   1      46.636  23.111  24.849  1.00  0.00    -0.352 N 
ATOM      6  O   UNL A   1      47.631  24.950  24.144  1.00  0.00    -0.269 OA
ATOM      7  C   UNL A   1      46.759  24.473  24.875  1.00  0.00     0.251 C 
ATOM      8  H   UNL A   1      47.180  22.696  24.142  1.00  0.00     0.163 HD
BRANCH   7   9
ATOM      9  C   UNL A   1      45.906  25.401  25.668  1.00  0.00     0.039 A 
ATOM     10  C   UNL A   1      44.961  26.284  25.147  1.00  0.00     0.014 A 
ATOM     11  C   UNL A   1      46.118  25.401  27.061  1.00  0.00     0.014 A 
ATOM     12  C   UNL A   1      44.308  27.196  25.970  1.00  0.00     0.010 A 
ATOM     13  C   UNL A   1      45.449  26.294  27.895  1.00  0.00     0.010 A 
ATOM     14  C   UNL A   1      44.568  27.219  27.340  1.00  0.00    -0.014 A 
BRANCH  14  15
ATOM     15  C   UNL A   1      43.828  28.180  28.154  1.00  0.00     0.031 A 
ATOM     16  C   UNL A   1      44.485  29.501  28.392  1.00  0.00     0.074 A 
ATOM     17  C   UNL A   1      42.559  27.979  28.560  1.00  0.00     0.049 A 
ATOM     18  N   UNL A   1      44.721  30.103  29.516  1.00  0.00    -0.248 NA
ATOM     19  C   UNL A   1      44.968  30.232  27.211  1.00  0.00     0.031 C 
ATOM     20  C   UNL A   1      41.644  26.908  28.161  1.00  0.00     0.029 A 
ATOM     21  N   UNL A   1      41.783  28.778  29.348  1.00  0.00    -0.354 N 
ATOM     22  C   UNL A   1      45.238  31.356  29.185  1.00  0.00     0.074 A 
ATOM     23  C   UNL A   1      45.451  31.347  27.760  1.00  0.00     0.031 C 
ATOM     24  C   UNL A   1      40.388  27.240  28.532  1.00  0.00     0.029 A 
ATOM     25  C   UNL A   1      40.433  28.474  29.300  1.00  0.00     0.049 A 
ATOM     26  H   UNL A   1      42.151  29.504  29.902  1.00  0.00     0.167 HD
ATOM     27  C   UNL A   1      45.302  32.384  30.076  1.00  0.00     0.037 A 
ATOM     28  C   UNL A   1      39.416  29.221  29.790  1.00  0.00     0.037 A 
ATOM     29  C   UNL A   1      45.257  31.925  31.436  1.00  0.00     0.049 A 
ATOM     30  C   UNL A   1      39.970  30.176  30.778  1.00  0.00     0.074 A 
ATOM     31  C   UNL A   1      46.038  31.092  32.214  1.00  0.00     0.029 A 
ATOM     32  N   UNL A   1      44.114  32.131  32.163  1.00  0.00    -0.354 N 
ATOM     33  N   UNL A   1      40.434  29.847  31.950  1.00  0.00    -0.248 NA
ATOM     34  C   UNL A   1      40.348  31.500  30.307  1.00  0.00     0.031 C 
ATOM     35  C   UNL A   1      45.128  30.457  33.108  1.00  0.00     0.029 A 
ATOM     36  C   UNL A   1      43.857  30.956  32.820  1.00  0.00     0.049 A 
ATOM     37  H   UNL A   1      43.582  32.958  32.206  1.00  0.00     0.167 HD
ATOM     38  C   UNL A   1      41.476  30.732  32.181  1.00  0.00     0.074 A 
ATOM     39  C   UNL A   1      41.299  31.793  31.196  1.00  0.00     0.031 C 
ATOM     40  C   UNL A   1      42.539  30.389  32.964  1.00  0.00     0.037 A 
BRANCH  27  41
ATOM     41  C   UNL A   1      45.105  33.839  29.716  1.00  0.00     0.057 A 
ATOM     42  C   UNL A   1      43.899  34.252  29.114  1.00  0.00     0.134 A 
ATOM     43  C   UNL A   1      46.150  34.781  29.664  1.00  0.00     0.134 A 
ATOM     44  F   UNL A   1      42.831  33.441  29.081  1.00  0.00    -0.206 F 
ATOM     45  C   UNL A   1      43.772  35.477  28.447  1.00  0.00     0.040 A 
ATOM     46  C   UNL A   1      46.017  36.029  29.046  1.00  0.00     0.040 A 
ATOM     47  F   UNL A   1      47.380  34.509  30.119  1.00  0.00    -0.206 F 
ATOM     48  C   UNL A   1      44.836  36.368  28.405  1.00  0.00     0.006 A 
ENDBRANCH  27  41
BRANCH  28  49
ATOM     49  C   UNL A   1      38.042  29.342  29.260  1.00  0.00     0.057 A 
ATOM     50  C   UNL A   1      36.933  29.400  30.114  1.00  0.00     0.134 A 
ATOM     51  C   UNL A   1      37.802  29.655  27.910  1.00  0.00     0.134 A 
ATOM     52  F   UNL A   1      37.070  29.166  31.427  1.00  0.00    -0.206 F 
ATOM     53  C   UNL A   1      35.659  29.755  29.651  1.00  0.00     0.040 A 
ATOM     54  C   UNL A   1      36.535  30.000  27.434  1.00  0.00     0.040 A 
ATOM     55  F   UNL A   1      38.808  29.722  27.025  1.00  0.00    -0.206 F 
ATOM     56  C   UNL A   1      35.459  30.062  28.308  1.00  0.00     0.006 A 
ENDBRANCH  28  49
BRANCH  40  57
ATOM     57  C   UNL A   1      42.431  29.144  33.794  1.00  0.00     0.057 A 
ATOM     58  C   UNL A   1      42.786  27.870  33.327  1.00  0.00     0.134 A 
ATOM     59  C   UNL A   1      42.118  29.258  35.153  1.00  0.00     0.134 A 
ATOM     60  F   UNL A   1      43.204  27.687  32.067  1.00  0.00    -0.206 F 
ATOM     61  C   UNL A   1      42.782  26.752  34.164  1.00  0.00     0.040 A 
ATOM     62  C   UNL A   1      42.142  28.154  36.009  1.00  0.00     0.040 A 
ATOM     63  F   UNL A   1      41.832  30.458  35.684  1.00  0.00    -0.206 F 
ATOM     64  C   UNL A   1      42.466  26.893  35.512  1.00  0.00     0.006 A 
ENDBRANCH  40  57
ENDBRANCH  14  15
ENDBRANCH   7   9
ENDBRANCH   4   5
ENDBRANCH   3   4
ENDBRANCH   2   3
ENDBRANCH   1   2
BRANCH   1  65
ATOM     65  N   UNL A   1      42.651  23.028  26.507  1.00  0.00    -0.352 N 
ATOM     66  C   UNL A   1      41.568  22.738  27.300  1.00  0.00     0.251 C 
ATOM     67  H   UNL A   1      43.529  22.895  26.934  1.00  0.00     0.163 HD
ATOM     68  O   UNL A   1      41.736  22.432  28.480  1.00  0.00    -0.269 OA
BRANCH  66  69
ATOM     69  C   UNL A   1      40.196  22.834  26.756  1.00  0.00     0.039 A 
ATOM     70  C   UNL A   1      39.620  21.694  26.176  1.00  0.00     0.016 A 
ATOM     71  C   UNL A   1      39.471  24.026  26.839  1.00  0.00     0.016 A 
ATOM     72  C   UNL A   1      38.281  21.713  25.769  1.00  0.00     0.029 A 
ATOM     73  C   UNL A   1      38.120  24.031  26.510  1.00  0.00     0.029 A 
ATOM     74  C   UNL A   1      37.530  22.869  25.995  1.00  0.00     0.066 A 
BRANCH  74  75
ATOM     75  N   UNL A   1      36.145  22.873  25.764  1.00  0.00    -0.220 N 
ATOM     76  C   UNL A   1      35.181  23.529  26.499  1.00  0.00     0.141 A 
ATOM     77  N   UNL A   1      35.576  21.931  24.989  1.00  0.00    -0.062 NA
ATOM     78  C   UNL A   1      34.018  22.833  26.251  1.00  0.00     0.093 A 
ATOM     79  N   UNL A   1      34.279  21.937  25.232  1.00  0.00    -0.134 NA
BRANCH  78  80
ATOM     80  C   UNL A   1      32.694  22.659  26.896  1.00  0.00     0.138 C 
BRANCH  80  81
ATOM     81  S   UNL A   1      31.278  23.723  26.905  1.00  0.00    -0.081 SA
BRANCH  81  82
ATOM     82  C   UNL A   1      31.496  25.240  26.101  1.00  0.00     0.176 A 
ATOM     83  N   UNL A   1      31.567  26.204  26.972  1.00  0.00    -0.223 NA
ATOM     84  N   UNL A   1      31.613  25.459  24.732  1.00  0.00    -0.255 N 
ATOM     85  C   UNL A   1      31.692  27.517  26.528  1.00  0.00     0.079 A 
ATOM     86  C   UNL A   1      31.131  26.713  24.317  1.00  0.00     0.266 A 
ATOM     87  C   UNL A   1      32.052  28.538  27.407  1.00  0.00     0.029 A 
ATOM     88  C   UNL A   1      31.363  27.842  25.224  1.00  0.00     0.066 A 
ATOM     89  O   UNL A   1      30.471  26.942  23.304  1.00  0.00    -0.268 OA
ATOM     90  C   UNL A   1      32.028  29.871  26.984  1.00  0.00     0.002 A 
ATOM     91  C   UNL A   1      31.286  29.171  24.798  1.00  0.00     0.016 A 
ATOM     92  C   UNL A   1      31.617  30.190  25.689  1.00  0.00     0.001 A 
BRANCH  84  93
ATOM     93  C   UNL A   1      32.058  24.516  23.710  1.00  0.00     0.051 A 
ATOM     94  C   UNL A   1      31.322  23.340  23.456  1.00  0.00     0.027 A 
ATOM     95  C   UNL A   1      33.182  24.697  22.894  1.00  0.00     0.027 A 
ATOM     96  C   UNL A   1      31.778  22.330  22.600  1.00  0.00     0.002 A 
ATOM     97  C   UNL A   1      33.672  23.676  22.065  1.00  0.00     0.002 A 
ATOM     98  C   UNL A   1      32.984  22.480  21.940  1.00  0.00     0.000 A 
ENDBRANCH  84  93
ENDBRANCH  81  82
ENDBRANCH  80  81
ENDBRANCH  78  80
ENDBRANCH  74  75
ENDBRANCH  66  69
ENDBRANCH   1  65
TORSDOF 16
ENDMDL
