MODEL 1
REMARK VINA RESULT:     -11.0      0.000      0.000
REMARK SMILES C[C@@H]1CN(C(=O)NC(=O)CCCCC(=O)NCCCCNC(=O)c2ccc(-c3c4nc(c(-c5c(F)cccc5F)c5ccc([nH]5)c(-c5c(F)cccc5F)c5nc(c(-c6c(F)cccc6F)c6ccc3[nH]6)C=C5)C=C4)cc2)CCO1
REMARK SMILES IDX 17 1 16 2 14 3 15 4 13 6 12 7 11 8 10 9 8 10 5 11 6 12 7 13
REMARK SMILES IDX 9 15 4 16 1 17 2 18 3 19 80 20 79 21 78 22 18 23 19 24 20 25
REMARK SMILES IDX 21 26 22 27 23 29 24 30 25 31 77 32 26 33 76 34 27 35 28 36
REMARK SMILES IDX 29 37 70 38 30 39 75 40 69 41 71 42 31 43 74 44 68 45 67 46
REMARK SMILES IDX 32 48 58 49 41 50 57 51 42 52 45 53 56 54 72 55 43 56 44 57
REMARK SMILES IDX 55 59 73 60 46 61 33 62 34 63 39 64 35 65 36 66 38 67 40 68
REMARK SMILES IDX 37 69 59 70 60 71 65 72 61 73 62 74 64 75 66 76 63 77 47 78
REMARK SMILES IDX 48 79 53 80 49 81 50 82 52 83 54 84 51 85
REMARK H PARENT 16 5 7 14 21 28 71 47 45 58
REMARK Flexibility Score: inf
ROOT
ATOM      1  C   UNL A   1      32.292  29.258  24.258  1.00  0.00     0.116 C 
ENDROOT
BRANCH   1   2
ATOM      2  N   UNL A   1      31.182  29.496  23.371  1.00  0.00    -0.356 N 
ATOM      3  C   UNL A   1      30.472  28.594  22.636  1.00  0.00     0.219 C 
ATOM      4  O   UNL A   1      29.649  29.019  21.827  1.00  0.00    -0.275 OA
ATOM      5  H   UNL A   1      30.899  30.434  23.283  1.00  0.00     0.163 HD
BRANCH   3   6
ATOM      6  C   UNL A   1      30.639  27.107  22.891  1.00  0.00     0.100 C 
BRANCH   6   7
ATOM      7  C   UNL A   1      30.034  26.516  24.160  1.00  0.00     0.010 C 
BRANCH   7   8
ATOM      8  C   UNL A   1      30.371  25.063  24.531  1.00  0.00     0.010 C 
BRANCH   8   9
ATOM      9  C   UNL A   1      31.145  24.790  25.823  1.00  0.00     0.100 C 
BRANCH   9  10
ATOM     10  C   UNL A   1      30.670  23.645  26.685  1.00  0.00     0.227 C 
ATOM     11  C   UNL A   1      32.685  22.503  27.324  1.00  0.00     0.324 C 
ATOM     12  O   UNL A   1      32.767  22.495  28.551  1.00  0.00    -0.248 OA
ATOM     13  N   UNL A   1      31.451  22.512  26.734  1.00  0.00    -0.278 N 
ATOM     14  H   UNL A   1      31.111  21.682  26.330  1.00  0.00     0.174 HD
ATOM     15  O   UNL A   1      29.572  23.669  27.239  1.00  0.00    -0.275 OA
BRANCH  11  16
ATOM     16  N   UNL A   1      33.792  22.332  26.505  1.00  0.00    -0.320 N 
ATOM     17  C   UNL A   1      37.277  23.662  25.629  1.00  0.00     0.040 C 
ATOM     18  C   UNL A   1      35.935  23.003  25.321  1.00  0.00     0.134 C 
ATOM     19  C   UNL A   1      34.958  23.221  26.487  1.00  0.00     0.153 C 
ATOM     20  O   UNL A   1      36.193  21.606  25.129  1.00  0.00    -0.375 OA
ATOM     21  C   UNL A   1      34.985  20.925  24.785  1.00  0.00     0.182 C 
ATOM     22  C   UNL A   1      33.966  20.995  25.919  1.00  0.00     0.150 C 
ENDBRANCH  11  16
ENDBRANCH   9  10
ENDBRANCH   8   9
ENDBRANCH   7   8
ENDBRANCH   6   7
ENDBRANCH   3   6
ENDBRANCH   1   2
BRANCH   1  23
ATOM     23  C   UNL A   1      31.895  29.489  25.710  1.00  0.00     0.023 C 
BRANCH  23  24
ATOM     24  C   UNL A   1      32.413  28.399  26.639  1.00  0.00     0.023 C 
BRANCH  24  25
ATOM     25  C   UNL A   1      33.726  28.750  27.327  1.00  0.00     0.116 C 
BRANCH  25  26
ATOM     26  N   UNL A   1      33.753  30.116  27.839  1.00  0.00    -0.352 N 
ATOM     27  C   UNL A   1      34.806  30.766  28.444  1.00  0.00     0.251 C 
ATOM     28  H   UNL A   1      32.921  30.633  27.741  1.00  0.00     0.163 HD
ATOM     29  O   UNL A   1      34.685  31.875  28.929  1.00  0.00    -0.269 OA
BRANCH  27  30
ATOM     30  C   UNL A   1      36.089  30.043  28.503  1.00  0.00     0.039 A 
ATOM     31  C   UNL A   1      36.978  30.151  27.433  1.00  0.00     0.014 A 
ATOM     32  C   UNL A   1      36.458  29.427  29.701  1.00  0.00     0.014 A 
ATOM     33  C   UNL A   1      38.286  29.695  27.593  1.00  0.00     0.010 A 
ATOM     34  C   UNL A   1      37.779  29.051  29.882  1.00  0.00     0.010 A 
ATOM     35  C   UNL A   1      38.705  29.182  28.832  1.00  0.00    -0.014 A 
BRANCH  35  36
ATOM     36  C   UNL A   1      40.099  28.739  29.065  1.00  0.00     0.031 A 
ATOM     37  C   UNL A   1      41.078  29.708  29.663  1.00  0.00     0.074 A 
ATOM     38  C   UNL A   1      40.510  27.525  28.647  1.00  0.00     0.049 A 
ATOM     39  N   UNL A   1      42.375  29.608  29.787  1.00  0.00    -0.248 NA
ATOM     40  C   UNL A   1      40.521  30.984  30.144  1.00  0.00     0.031 C 
ATOM     41  C   UNL A   1      39.666  26.512  28.011  1.00  0.00     0.029 A 
ATOM     42  N   UNL A   1      41.755  26.949  28.678  1.00  0.00    -0.354 N 
ATOM     43  C   UNL A   1      42.792  30.822  30.316  1.00  0.00     0.074 A 
ATOM     44  C   UNL A   1      41.619  31.658  30.446  1.00  0.00     0.031 C 
ATOM     45  C   UNL A   1      40.415  25.433  27.726  1.00  0.00     0.029 A 
ATOM     46  C   UNL A   1      41.797  25.694  28.122  1.00  0.00     0.049 A 
ATOM     47  H   UNL A   1      42.545  27.394  29.062  1.00  0.00     0.167 HD
ATOM     48  C   UNL A   1      44.039  31.199  30.681  1.00  0.00     0.037 A 
ATOM     49  C   UNL A   1      42.835  24.856  27.945  1.00  0.00     0.037 A 
ATOM     50  C   UNL A   1      45.190  30.343  30.604  1.00  0.00     0.049 A 
ATOM     51  C   UNL A   1      44.205  25.278  28.398  1.00  0.00     0.074 A 
ATOM     52  C   UNL A   1      46.487  30.602  31.012  1.00  0.00     0.029 A 
ATOM     53  N   UNL A   1      45.178  29.054  30.095  1.00  0.00    -0.354 N 
ATOM     54  N   UNL A   1      44.581  26.412  28.939  1.00  0.00    -0.248 NA
ATOM     55  C   UNL A   1      45.294  24.307  28.220  1.00  0.00     0.031 C 
ATOM     56  C   UNL A   1      47.264  29.475  30.727  1.00  0.00     0.029 A 
ATOM     57  C   UNL A   1      46.445  28.503  30.176  1.00  0.00     0.049 A 
ATOM     58  H   UNL A   1      44.385  28.597  29.731  1.00  0.00     0.167 HD
ATOM     59  C   UNL A   1      45.940  26.279  29.197  1.00  0.00     0.074 A 
ATOM     60  C   UNL A   1      46.322  24.953  28.754  1.00  0.00     0.031 C 
ATOM     61  C   UNL A   1      46.794  27.172  29.753  1.00  0.00     0.037 A 
BRANCH  48  62
ATOM     62  C   UNL A   1      44.207  32.595  31.200  1.00  0.00     0.057 A 
ATOM     63  C   UNL A   1      44.077  32.898  32.562  1.00  0.00     0.134 A 
ATOM     64  C   UNL A   1      44.499  33.650  30.327  1.00  0.00     0.134 A 
ATOM     65  F   UNL A   1      43.778  31.935  33.447  1.00  0.00    -0.206 F 
ATOM     66  C   UNL A   1      44.195  34.207  33.032  1.00  0.00     0.040 A 
ATOM     67  C   UNL A   1      44.649  34.959  30.790  1.00  0.00     0.040 A 
ATOM     68  F   UNL A   1      44.639  33.428  29.012  1.00  0.00    -0.206 F 
ATOM     69  C   UNL A   1      44.487  35.241  32.145  1.00  0.00     0.006 A 
ENDBRANCH  48  62
BRANCH  49  70
ATOM     70  C   UNL A   1      42.616  23.518  27.339  1.00  0.00     0.057 A 
ATOM     71  C   UNL A   1      42.243  22.425  28.130  1.00  0.00     0.134 A 
ATOM     72  C   UNL A   1      42.770  23.299  25.965  1.00  0.00     0.134 A 
ATOM     73  F   UNL A   1      42.098  22.571  29.455  1.00  0.00    -0.206 F 
ATOM     74  C   UNL A   1      42.047  21.158  27.580  1.00  0.00     0.040 A 
ATOM     75  C   UNL A   1      42.557  22.041  25.398  1.00  0.00     0.040 A 
ATOM     76  F   UNL A   1      43.118  24.309  25.153  1.00  0.00    -0.206 F 
ATOM     77  C   UNL A   1      42.201  20.965  26.208  1.00  0.00     0.006 A 
ENDBRANCH  49  70
BRANCH  61  78
ATOM     78  C   UNL A   1      48.210  26.732  29.967  1.00  0.00     0.057 A 
ATOM     79  C   UNL A   1      48.591  25.986  31.087  1.00  0.00     0.134 A 
ATOM     80  C   UNL A   1      49.186  27.000  28.998  1.00  0.00     0.134 A 
ATOM     81  F   UNL A   1      47.703  25.707  32.052  1.00  0.00    -0.206 F 
ATOM     82  C   UNL A   1      49.900  25.527  31.242  1.00  0.00     0.040 A 
ATOM     83  C   UNL A   1      50.492  26.530  29.133  1.00  0.00     0.040 A 
ATOM     84  F   UNL A   1      48.879  27.704  27.898  1.00  0.00    -0.206 F 
ATOM     85  C   UNL A   1      50.853  25.792  30.258  1.00  0.00     0.006 A 
ENDBRANCH  61  78
ENDBRANCH  35  36
ENDBRANCH  27  30
ENDBRANCH  25  26
ENDBRANCH  24  25
ENDBRANCH  23  24
ENDBRANCH   1  23
TORSDOF 16
ENDMDL
MODEL 2
REMARK VINA RESULT:     -10.9      2.577      7.240
REMARK SMILES C[C@@H]1CN(C(=O)NC(=O)CCCCC(=O)NCCCCNC(=O)c2ccc(-c3c4nc(c(-c5c(F)cccc5F)c5ccc([nH]5)c(-c5c(F)cccc5F)c5nc(c(-c6c(F)cccc6F)c6ccc3[nH]6)C=C5)C=C4)cc2)CCO1
REMARK SMILES IDX 17 1 16 2 14 3 15 4 13 6 12 7 11 8 10 9 8 10 5 11 6 12 7 13
REMARK SMILES IDX 9 15 4 16 1 17 2 18 3 19 80 20 79 21 78 22 18 23 19 24 20 25
REMARK SMILES IDX 21 26 22 27 23 29 24 30 25 31 77 32 26 33 76 34 27 35 28 36
REMARK SMILES IDX 29 37 70 38 30 39 75 40 69 41 71 42 31 43 74 44 68 45 67 46
REMARK SMILES IDX 32 48 58 49 41 50 57 51 42 52 45 53 56 54 72 55 43 56 44 57
REMARK SMILES IDX 55 59 73 60 46 61 33 62 34 63 39 64 35 65 36 66 38 67 40 68
REMARK SMILES IDX 37 69 59 70 60 71 65 72 61 73 62 74 64 75 66 76 63 77 47 78
REMARK SMILES IDX 48 79 53 80 49 81 50 82 52 83 54 84 51 85
REMARK H PARENT 16 5 7 14 21 28 71 47 45 58
REMARK Flexibility Score: inf
ROOT
ATOM      1  C   UNL A   1      36.807  21.540  25.442  1.00  0.00     0.116 C 
ENDROOT
BRANCH   1   2
ATOM      2  N   UNL A   1      35.839  21.827  26.470  1.00  0.00    -0.356 N 
ATOM      3  C   UNL A   1      34.929  22.841  26.523  1.00  0.00     0.219 C 
ATOM      4  O   UNL A   1      34.286  22.994  27.561  1.00  0.00    -0.275 OA
ATOM      5  H   UNL A   1      35.833  21.210  27.236  1.00  0.00     0.163 HD
BRANCH   3   6
ATOM      6  C   UNL A   1      34.665  23.689  25.293  1.00  0.00     0.100 C 
BRANCH   6   7
ATOM      7  C   UNL A   1      34.753  25.206  25.425  1.00  0.00     0.010 C 
BRANCH   7   8
ATOM      8  C   UNL A   1      33.533  25.972  25.962  1.00  0.00     0.010 C 
BRANCH   8   9
ATOM      9  C   UNL A   1      32.245  25.984  25.135  1.00  0.00     0.100 C 
BRANCH   9  10
ATOM     10  C   UNL A   1      30.966  25.608  25.842  1.00  0.00     0.227 C 
ATOM     11  C   UNL A   1      31.059  23.213  26.012  1.00  0.00     0.324 C 
ATOM     12  O   UNL A   1      31.006  22.895  27.198  1.00  0.00    -0.248 OA
ATOM     13  N   UNL A   1      30.440  24.359  25.596  1.00  0.00    -0.278 N 
ATOM     14  H   UNL A   1      29.591  24.289  25.104  1.00  0.00     0.174 HD
ATOM     15  O   UNL A   1      30.347  26.419  26.529  1.00  0.00    -0.275 OA
BRANCH  11  16
ATOM     16  N   UNL A   1      31.579  22.371  25.039  1.00  0.00    -0.320 N 
ATOM     17  C   UNL A   1      32.775  18.808  24.294  1.00  0.00     0.040 C 
ATOM     18  C   UNL A   1      32.780  20.326  24.134  1.00  0.00     0.134 C 
ATOM     19  C   UNL A   1      31.984  20.980  25.274  1.00  0.00     0.153 C 
ATOM     20  O   UNL A   1      32.178  20.610  22.865  1.00  0.00    -0.375 OA
ATOM     21  C   UNL A   1      32.193  22.018  22.618  1.00  0.00     0.182 C 
ATOM     22  C   UNL A   1      31.348  22.769  23.643  1.00  0.00     0.150 C 
ENDBRANCH  11  16
ENDBRANCH   9  10
ENDBRANCH   8   9
ENDBRANCH   7   8
ENDBRANCH   6   7
ENDBRANCH   3   6
ENDBRANCH   1   2
BRANCH   1  23
ATOM     23  C   UNL A   1      36.554  20.177  24.813  1.00  0.00     0.023 C 
BRANCH  23  24
ATOM     24  C   UNL A   1      37.742  19.235  24.956  1.00  0.00     0.023 C 
BRANCH  24  25
ATOM     25  C   UNL A   1      38.931  19.852  25.682  1.00  0.00     0.116 C 
BRANCH  25  26
ATOM     26  N   UNL A   1      40.096  18.973  25.716  1.00  0.00    -0.352 N 
ATOM     27  C   UNL A   1      41.388  19.303  26.061  1.00  0.00     0.251 C 
ATOM     28  H   UNL A   1      39.939  18.035  25.462  1.00  0.00     0.163 HD
ATOM     29  O   UNL A   1      42.306  18.512  25.954  1.00  0.00    -0.269 OA
BRANCH  27  30
ATOM     30  C   UNL A   1      41.617  20.676  26.545  1.00  0.00     0.039 A 
ATOM     31  C   UNL A   1      41.883  20.883  27.900  1.00  0.00     0.014 A 
ATOM     32  C   UNL A   1      41.749  21.704  25.609  1.00  0.00     0.014 A 
ATOM     33  C   UNL A   1      42.357  22.127  28.313  1.00  0.00     0.010 A 
ATOM     34  C   UNL A   1      42.298  22.912  26.012  1.00  0.00     0.010 A 
ATOM     35  C   UNL A   1      42.608  23.133  27.366  1.00  0.00    -0.014 A 
BRANCH  35  36
ATOM     36  C   UNL A   1      43.166  24.451  27.751  1.00  0.00     0.031 A 
ATOM     37  C   UNL A   1      42.227  25.536  28.192  1.00  0.00     0.074 A 
ATOM     38  C   UNL A   1      44.481  24.706  27.604  1.00  0.00     0.049 A 
ATOM     39  N   UNL A   1      42.461  26.805  28.397  1.00  0.00    -0.248 NA
ATOM     40  C   UNL A   1      40.820  25.143  28.380  1.00  0.00     0.031 C 
ATOM     41  C   UNL A   1      45.489  23.749  27.142  1.00  0.00     0.029 A 
ATOM     42  N   UNL A   1      45.191  25.862  27.811  1.00  0.00    -0.354 N 
ATOM     43  C   UNL A   1      41.227  27.367  28.693  1.00  0.00     0.074 A 
ATOM     44  C   UNL A   1      40.242  26.313  28.595  1.00  0.00     0.031 C 
ATOM     45  C   UNL A   1      46.689  24.354  27.115  1.00  0.00     0.029 A 
ATOM     46  C   UNL A   1      46.529  25.749  27.518  1.00  0.00     0.049 A 
ATOM     47  H   UNL A   1      44.780  26.695  28.137  1.00  0.00     0.167 HD
ATOM     48  C   UNL A   1      40.943  28.645  29.036  1.00  0.00     0.037 A 
ATOM     49  C   UNL A   1      47.509  26.670  27.563  1.00  0.00     0.037 A 
ATOM     50  C   UNL A   1      41.935  29.673  29.188  1.00  0.00     0.049 A 
ATOM     51  C   UNL A   1      47.178  28.074  27.990  1.00  0.00     0.074 A 
ATOM     52  C   UNL A   1      41.763  30.983  29.599  1.00  0.00     0.029 A 
ATOM     53  N   UNL A   1      43.289  29.501  28.947  1.00  0.00    -0.354 N 
ATOM     54  N   UNL A   1      46.015  28.585  28.312  1.00  0.00    -0.248 NA
ATOM     55  C   UNL A   1      48.295  29.027  28.063  1.00  0.00     0.031 C 
ATOM     56  C   UNL A   1      43.013  31.610  29.584  1.00  0.00     0.029 A 
ATOM     57  C   UNL A   1      43.966  30.681  29.197  1.00  0.00     0.049 A 
ATOM     58  H   UNL A   1      43.707  28.663  28.642  1.00  0.00     0.167 HD
ATOM     59  C   UNL A   1      46.262  29.907  28.658  1.00  0.00     0.074 A 
ATOM     60  C   UNL A   1      47.687  30.120  28.508  1.00  0.00     0.031 C 
ATOM     61  C   UNL A   1      45.389  30.860  29.067  1.00  0.00     0.037 A 
BRANCH  48  62
ATOM     62  C   UNL A   1      39.503  28.986  29.274  1.00  0.00     0.057 A 
ATOM     63  C   UNL A   1      38.912  28.858  30.539  1.00  0.00     0.134 A 
ATOM     64  C   UNL A   1      38.696  29.442  28.226  1.00  0.00     0.134 A 
ATOM     65  F   UNL A   1      39.627  28.406  31.581  1.00  0.00    -0.206 F 
ATOM     66  C   UNL A   1      37.561  29.139  30.744  1.00  0.00     0.040 A 
ATOM     67  C   UNL A   1      37.350  29.755  28.425  1.00  0.00     0.040 A 
ATOM     68  F   UNL A   1      39.199  29.589  26.991  1.00  0.00    -0.206 F 
ATOM     69  C   UNL A   1      36.777  29.594  29.686  1.00  0.00     0.006 A 
ENDBRANCH  48  62
BRANCH  49  70
ATOM     70  C   UNL A   1      48.903  26.289  27.225  1.00  0.00     0.057 A 
ATOM     71  C   UNL A   1      49.364  26.355  25.905  1.00  0.00     0.134 A 
ATOM     72  C   UNL A   1      49.805  25.854  28.203  1.00  0.00     0.134 A 
ATOM     73  F   UNL A   1      48.540  26.748  24.923  1.00  0.00    -0.206 F 
ATOM     74  C   UNL A   1      50.667  25.987  25.566  1.00  0.00     0.040 A 
ATOM     75  C   UNL A   1      51.117  25.503  27.881  1.00  0.00     0.040 A 
ATOM     76  F   UNL A   1      49.426  25.777  29.488  1.00  0.00    -0.206 F 
ATOM     77  C   UNL A   1      51.549  25.563  26.558  1.00  0.00     0.006 A 
ENDBRANCH  49  70
BRANCH  61  78
ATOM     78  C   UNL A   1      45.950  32.200  29.433  1.00  0.00     0.057 A 
ATOM     79  C   UNL A   1      46.073  33.230  28.494  1.00  0.00     0.134 A 
ATOM     80  C   UNL A   1      46.301  32.480  30.760  1.00  0.00     0.134 A 
ATOM     81  F   UNL A   1      45.763  33.019  27.207  1.00  0.00    -0.206 F 
ATOM     82  C   UNL A   1      46.537  34.494  28.862  1.00  0.00     0.040 A 
ATOM     83  C   UNL A   1      46.747  33.744  31.142  1.00  0.00     0.040 A 
ATOM     84  F   UNL A   1      46.197  31.534  31.705  1.00  0.00    -0.206 F 
ATOM     85  C   UNL A   1      46.866  34.756  30.192  1.00  0.00     0.006 A 
ENDBRANCH  61  78
ENDBRANCH  35  36
ENDBRANCH  27  30
ENDBRANCH  25  26
ENDBRANCH  24  25
ENDBRANCH  23  24
ENDBRANCH   1  23
TORSDOF 16
ENDMDL
MODEL 3
REMARK VINA RESULT:     -10.6      1.916      7.773
REMARK SMILES C[C@@H]1CN(C(=O)NC(=O)CCCCC(=O)NCCCCNC(=O)c2ccc(-c3c4nc(c(-c5c(F)cccc5F)c5ccc([nH]5)c(-c5c(F)cccc5F)c5nc(c(-c6c(F)cccc6F)c6ccc3[nH]6)C=C5)C=C4)cc2)CCO1
REMARK SMILES IDX 17 1 16 2 14 3 15 4 13 6 12 7 11 8 10 9 8 10 5 11 6 12 7 13
REMARK SMILES IDX 9 15 4 16 1 17 2 18 3 19 80 20 79 21 78 22 18 23 19 24 20 25
REMARK SMILES IDX 21 26 22 27 23 29 24 30 25 31 77 32 26 33 76 34 27 35 28 36
REMARK SMILES IDX 29 37 70 38 30 39 75 40 69 41 71 42 31 43 74 44 68 45 67 46
REMARK SMILES IDX 32 48 58 49 41 50 57 51 42 52 45 53 56 54 72 55 43 56 44 57
REMARK SMILES IDX 55 59 73 60 46 61 33 62 34 63 39 64 35 65 36 66 38 67 40 68
REMARK SMILES IDX 37 69 59 70 60 71 65 72 61 73 62 74 64 75 66 76 63 77 47 78
REMARK SMILES IDX 48 79 53 80 49 81 50 82 52 83 54 84 51 85
REMARK H PARENT 16 5 7 14 21 28 71 47 45 58
REMARK Flexibility Score: inf
ROOT
ATOM      1  C   UNL A   1      36.698  23.132  25.128  1.00  0.00     0.116 C 
ENDROOT
BRANCH   1   2
ATOM      2  N   UNL A   1      35.635  22.794  26.039  1.00  0.00    -0.356 N 
ATOM      3  C   UNL A   1      34.483  23.476  26.294  1.00  0.00     0.219 C 
ATOM      4  O   UNL A   1      33.767  23.090  27.217  1.00  0.00    -0.275 OA
ATOM      5  H   UNL A   1      35.756  21.959  26.546  1.00  0.00     0.163 HD
BRANCH   3   6
ATOM      6  C   UNL A   1      34.064  24.623  25.392  1.00  0.00     0.100 C 
BRANCH   6   7
ATOM      7  C   UNL A   1      33.309  25.794  26.011  1.00  0.00     0.010 C 
BRANCH   7   8
ATOM      8  C   UNL A   1      33.974  27.180  26.018  1.00  0.00     0.010 C 
BRANCH   8   9
ATOM      9  C   UNL A   1      33.274  28.332  26.745  1.00  0.00     0.100 C 
BRANCH   9  10
ATOM     10  C   UNL A   1      33.123  29.632  25.994  1.00  0.00     0.227 C 
ATOM     11  C   UNL A   1      31.407  29.189  24.372  1.00  0.00     0.324 C 
ATOM     12  O   UNL A   1      30.477  29.973  24.550  1.00  0.00    -0.248 OA
ATOM     13  N   UNL A   1      32.680  29.573  24.691  1.00  0.00    -0.278 N 
ATOM     14  H   UNL A   1      33.300  29.814  23.966  1.00  0.00     0.174 HD
ATOM     15  O   UNL A   1      33.486  30.703  26.480  1.00  0.00    -0.275 OA
BRANCH  11  16
ATOM     16  N   UNL A   1      31.244  27.986  23.700  1.00  0.00    -0.320 N 
ATOM     17  C   UNL A   1      32.706  25.673  21.018  1.00  0.00     0.040 C 
ATOM     18  C   UNL A   1      31.577  26.304  21.828  1.00  0.00     0.134 C 
ATOM     19  C   UNL A   1      32.098  27.526  22.600  1.00  0.00     0.153 C 
ATOM     20  O   UNL A   1      31.103  25.297  22.732  1.00  0.00    -0.375 OA
ATOM     21  C   UNL A   1      30.003  25.799  23.495  1.00  0.00     0.182 C 
ATOM     22  C   UNL A   1      30.431  26.967  24.380  1.00  0.00     0.150 C 
ENDBRANCH  11  16
ENDBRANCH   9  10
ENDBRANCH   8   9
ENDBRANCH   7   8
ENDBRANCH   6   7
ENDBRANCH   3   6
ENDBRANCH   1   2
BRANCH   1  23
ATOM     23  C   UNL A   1      37.049  21.954  24.229  1.00  0.00     0.023 C 
BRANCH  23  24
ATOM     24  C   UNL A   1      37.562  20.752  25.012  1.00  0.00     0.023 C 
BRANCH  24  25
ATOM     25  C   UNL A   1      38.893  20.997  25.710  1.00  0.00     0.116 C 
BRANCH  25  26
ATOM     26  N   UNL A   1      39.767  19.828  25.694  1.00  0.00    -0.352 N 
ATOM     27  C   UNL A   1      41.100  19.770  26.038  1.00  0.00     0.251 C 
ATOM     28  H   UNL A   1      39.356  18.982  25.403  1.00  0.00     0.163 HD
ATOM     29  O   UNL A   1      41.761  18.760  25.888  1.00  0.00    -0.269 OA
BRANCH  27  30
ATOM     30  C   UNL A   1      41.702  21.002  26.576  1.00  0.00     0.039 A 
ATOM     31  C   UNL A   1      42.278  21.918  25.695  1.00  0.00     0.014 A 
ATOM     32  C   UNL A   1      41.512  21.307  27.926  1.00  0.00     0.014 A 
ATOM     33  C   UNL A   1      42.606  23.191  26.161  1.00  0.00     0.010 A 
ATOM     34  C   UNL A   1      41.764  22.598  28.364  1.00  0.00     0.010 A 
ATOM     35  C   UNL A   1      42.311  23.551  27.487  1.00  0.00    -0.014 A 
BRANCH  35  36
ATOM     36  C   UNL A   1      42.589  24.909  28.010  1.00  0.00     0.031 A 
ATOM     37  C   UNL A   1      43.982  25.241  28.462  1.00  0.00     0.074 A 
ATOM     38  C   UNL A   1      41.588  25.795  28.180  1.00  0.00     0.049 A 
ATOM     39  N   UNL A   1      44.416  26.285  29.116  1.00  0.00    -0.248 NA
ATOM     40  C   UNL A   1      45.017  24.232  28.179  1.00  0.00     0.031 C 
ATOM     41  C   UNL A   1      40.186  25.575  27.821  1.00  0.00     0.029 A 
ATOM     42  N   UNL A   1      41.600  27.056  28.720  1.00  0.00    -0.354 N 
ATOM     43  C   UNL A   1      45.760  26.038  29.361  1.00  0.00     0.074 A 
ATOM     44  C   UNL A   1      46.059  24.728  28.828  1.00  0.00     0.031 C 
ATOM     45  C   UNL A   1      39.475  26.671  28.139  1.00  0.00     0.029 A 
ATOM     46  C   UNL A   1      40.362  27.652  28.757  1.00  0.00     0.049 A 
ATOM     47  H   UNL A   1      42.418  27.493  29.051  1.00  0.00     0.167 HD
ATOM     48  C   UNL A   1      46.670  26.842  29.959  1.00  0.00     0.037 A 
ATOM     49  C   UNL A   1      39.990  28.850  29.244  1.00  0.00     0.037 A 
ATOM     50  C   UNL A   1      46.381  28.166  30.434  1.00  0.00     0.049 A 
ATOM     51  C   UNL A   1      41.026  29.746  29.865  1.00  0.00     0.074 A 
ATOM     52  C   UNL A   1      47.245  29.091  30.993  1.00  0.00     0.029 A 
ATOM     53  N   UNL A   1      45.128  28.759  30.393  1.00  0.00    -0.354 N 
ATOM     54  N   UNL A   1      42.304  29.521  30.051  1.00  0.00    -0.248 NA
ATOM     55  C   UNL A   1      40.571  31.060  30.341  1.00  0.00     0.031 C 
ATOM     56  C   UNL A   1      46.509  30.236  31.311  1.00  0.00     0.029 A 
ATOM     57  C   UNL A   1      45.195  30.038  30.919  1.00  0.00     0.049 A 
ATOM     58  H   UNL A   1      44.312  28.334  30.042  1.00  0.00     0.167 HD
ATOM     59  C   UNL A   1      42.814  30.675  30.632  1.00  0.00     0.074 A 
ATOM     60  C   UNL A   1      41.706  31.599  30.768  1.00  0.00     0.031 C 
ATOM     61  C   UNL A   1      44.083  30.948  31.017  1.00  0.00     0.037 A 
BRANCH  48  62
ATOM     62  C   UNL A   1      48.059  26.302  30.119  1.00  0.00     0.057 A 
ATOM     63  C   UNL A   1      48.472  25.662  31.295  1.00  0.00     0.134 A 
ATOM     64  C   UNL A   1      48.997  26.427  29.087  1.00  0.00     0.134 A 
ATOM     65  F   UNL A   1      47.627  25.527  32.329  1.00  0.00    -0.206 F 
ATOM     66  C   UNL A   1      49.779  25.197  31.452  1.00  0.00     0.040 A 
ATOM     67  C   UNL A   1      50.298  25.940  29.221  1.00  0.00     0.040 A 
ATOM     68  F   UNL A   1      48.665  27.028  27.934  1.00  0.00    -0.206 F 
ATOM     69  C   UNL A   1      50.695  25.331  30.410  1.00  0.00     0.006 A 
ENDBRANCH  48  62
BRANCH  49  70
ATOM     70  C   UNL A   1      38.575  29.289  29.136  1.00  0.00     0.057 A 
ATOM     71  C   UNL A   1      37.731  29.267  30.253  1.00  0.00     0.134 A 
ATOM     72  C   UNL A   1      38.035  29.739  27.927  1.00  0.00     0.134 A 
ATOM     73  F   UNL A   1      38.189  28.829  31.435  1.00  0.00    -0.206 F 
ATOM     74  C   UNL A   1      36.396  29.662  30.168  1.00  0.00     0.040 A 
ATOM     75  C   UNL A   1      36.706  30.157  27.831  1.00  0.00     0.040 A 
ATOM     76  F   UNL A   1      38.796  29.792  26.823  1.00  0.00    -0.206 F 
ATOM     77  C   UNL A   1      35.881  30.112  28.953  1.00  0.00     0.006 A 
ENDBRANCH  49  70
BRANCH  61  78
ATOM     78  C   UNL A   1      44.360  32.313  31.570  1.00  0.00     0.057 A 
ATOM     79  C   UNL A   1      44.692  33.391  30.742  1.00  0.00     0.134 A 
ATOM     80  C   UNL A   1      44.220  32.562  32.941  1.00  0.00     0.134 A 
ATOM     81  F   UNL A   1      44.851  33.212  29.423  1.00  0.00    -0.206 F 
ATOM     82  C   UNL A   1      44.884  34.672  31.262  1.00  0.00     0.040 A 
ATOM     83  C   UNL A   1      44.390  33.841  33.469  1.00  0.00     0.040 A 
ATOM     84  F   UNL A   1      43.895  31.569  33.783  1.00  0.00    -0.206 F 
ATOM     85  C   UNL A   1      44.724  34.901  32.628  1.00  0.00     0.006 A 
ENDBRANCH  61  78
ENDBRANCH  35  36
ENDBRANCH  27  30
ENDBRANCH  25  26
ENDBRANCH  24  25
ENDBRANCH  23  24
ENDBRANCH   1  23
TORSDOF 16
ENDMDL
