MODEL 1
REMARK VINA RESULT:     -12.1      0.000      0.000
REMARK SMILES COc1ccc(C(=O)c2ccccc2)cc1[C@@H](C)C(=O)NCCCCNC(=O)c1ccc(-c2c3nc(c(-c4c(F)cccc4F)c4ccc([nH]4)c(-c4c(F)cccc4F)c4nc(c(-c5c(F)cccc5F)c5ccc2[nH]5)C=C4)C=C3)cc1
REMARK SMILES IDX 23 1 22 2 21 3 19 4 20 5 17 7 18 8 16 9 3 10 4 11 5 12 15 13
REMARK SMILES IDX 6 14 2 15 1 16 7 17 8 18 9 19 10 20 14 21 11 22 13 23 12 24
REMARK SMILES IDX 24 25 25 26 26 27 27 28 28 30 29 31 30 32 82 33 31 34 81 35
REMARK SMILES IDX 32 36 33 37 34 38 75 39 35 40 80 41 74 42 76 43 36 44 79 45
REMARK SMILES IDX 73 46 72 47 37 49 63 50 46 51 62 52 47 53 50 54 61 55 77 56
REMARK SMILES IDX 48 57 49 58 60 60 78 61 51 62 38 63 39 64 44 65 40 66 41 67
REMARK SMILES IDX 43 68 45 69 42 70 64 71 65 72 70 73 66 74 67 75 69 76 71 77
REMARK SMILES IDX 68 78 52 79 53 80 58 81 54 82 55 83 57 84 59 85 56 86
REMARK H PARENT 21 6 26 29 76 48 50 59
REMARK Flexibility Score: inf
ROOT
ATOM      1  C   UNL A   1      31.719  29.820  26.321  1.00  0.00     0.023 C 
ENDROOT
BRANCH   1   2
ATOM      2  C   UNL A   1      33.077  29.496  25.703  1.00  0.00     0.116 C 
BRANCH   2   3
ATOM      3  N   UNL A   1      33.067  29.703  24.274  1.00  0.00    -0.356 N 
ATOM      4  C   UNL A   1      32.932  28.839  23.234  1.00  0.00     0.227 C 
ATOM      5  O   UNL A   1      33.105  29.326  22.109  1.00  0.00    -0.274 OA
ATOM      6  H   UNL A   1      33.180  30.643  24.003  1.00  0.00     0.163 HD
BRANCH   4   7
ATOM      7  C   UNL A   1      32.608  27.339  23.383  1.00  0.00     0.109 C 
ATOM      8  C   UNL A   1      33.284  26.406  22.380  1.00  0.00     0.023 C 
BRANCH   7   9
ATOM      9  C   UNL A   1      31.126  27.068  23.626  1.00  0.00     0.007 A 
ATOM     10  C   UNL A   1      30.702  25.961  24.378  1.00  0.00     0.122 A 
ATOM     11  C   UNL A   1      29.351  25.764  24.672  1.00  0.00     0.047 A 
ATOM     12  C   UNL A   1      28.397  26.691  24.250  1.00  0.00     0.016 A 
ATOM     13  C   UNL A   1      30.133  27.948  23.148  1.00  0.00     0.020 A 
ATOM     14  C   UNL A   1      28.777  27.793  23.476  1.00  0.00     0.023 A 
BRANCH  10  15
ATOM     15  O   UNL A   1      31.567  24.961  24.731  1.00  0.00    -0.496 OA
ATOM     16  C   UNL A   1      31.885  24.987  26.123  1.00  0.00     0.278 C 
ENDBRANCH  10  15
BRANCH  14  17
ATOM     17  C   UNL A   1      27.720  28.795  23.127  1.00  0.00     0.193 C 
ATOM     18  O   UNL A   1      26.539  28.515  23.324  1.00  0.00    -0.289 OA
BRANCH  17  19
ATOM     19  C   UNL A   1      28.017  30.154  22.617  1.00  0.00     0.022 A 
ATOM     20  C   UNL A   1      28.241  31.172  23.556  1.00  0.00     0.012 A 
ATOM     21  C   UNL A   1      28.029  30.452  21.250  1.00  0.00     0.012 A 
ATOM     22  C   UNL A   1      28.506  32.473  23.129  1.00  0.00     0.001 A 
ATOM     23  C   UNL A   1      28.301  31.756  20.828  1.00  0.00     0.001 A 
ATOM     24  C   UNL A   1      28.532  32.762  21.766  1.00  0.00     0.000 A 
ENDBRANCH  17  19
ENDBRANCH  14  17
ENDBRANCH   7   9
ENDBRANCH   4   7
ENDBRANCH   2   3
ENDBRANCH   1   2
BRANCH   1  25
ATOM     25  C   UNL A   1      31.400  31.295  26.490  1.00  0.00     0.023 C 
BRANCH  25  26
ATOM     26  C   UNL A   1      32.587  32.164  26.875  1.00  0.00     0.116 C 
BRANCH  26  27
ATOM     27  N   UNL A   1      32.231  33.484  27.386  1.00  0.00    -0.352 N 
ATOM     28  C   UNL A   1      32.930  34.258  28.280  1.00  0.00     0.251 C 
ATOM     29  H   UNL A   1      31.389  33.865  27.048  1.00  0.00     0.163 HD
ATOM     30  O   UNL A   1      32.529  35.359  28.639  1.00  0.00    -0.269 OA
BRANCH  28  31
ATOM     31  C   UNL A   1      34.175  33.716  28.833  1.00  0.00     0.039 A 
ATOM     32  C   UNL A   1      35.396  34.237  28.401  1.00  0.00     0.014 A 
ATOM     33  C   UNL A   1      34.109  32.755  29.845  1.00  0.00     0.014 A 
ATOM     34  C   UNL A   1      36.568  33.821  29.025  1.00  0.00     0.010 A 
ATOM     35  C   UNL A   1      35.263  32.416  30.524  1.00  0.00     0.010 A 
ATOM     36  C   UNL A   1      36.501  32.928  30.105  1.00  0.00    -0.014 A 
BRANCH  36  37
ATOM     37  C   UNL A   1      37.714  32.430  30.784  1.00  0.00     0.031 A 
ATOM     38  C   UNL A   1      38.421  31.245  30.193  1.00  0.00     0.074 A 
ATOM     39  C   UNL A   1      38.092  32.963  31.958  1.00  0.00     0.049 A 
ATOM     40  N   UNL A   1      39.369  30.505  30.702  1.00  0.00    -0.248 NA
ATOM     41  C   UNL A   1      37.955  30.799  28.867  1.00  0.00     0.031 C 
ATOM     42  C   UNL A   1      37.440  34.090  32.629  1.00  0.00     0.029 A 
ATOM     43  N   UNL A   1      39.105  32.609  32.808  1.00  0.00    -0.354 N 
ATOM     44  C   UNL A   1      39.580  29.487  29.782  1.00  0.00     0.074 A 
ATOM     45  C   UNL A   1      38.626  29.670  28.711  1.00  0.00     0.031 C 
ATOM     46  C   UNL A   1      38.079  34.343  33.783  1.00  0.00     0.029 A 
ATOM     47  C   UNL A   1      39.154  33.370  33.950  1.00  0.00     0.049 A 
ATOM     48  H   UNL A   1      39.737  31.879  32.619  1.00  0.00     0.167 HD
ATOM     49  C   UNL A   1      40.506  28.503  29.819  1.00  0.00     0.037 A 
ATOM     50  C   UNL A   1      39.975  33.276  35.013  1.00  0.00     0.037 A 
ATOM     51  C   UNL A   1      41.474  28.372  30.874  1.00  0.00     0.049 A 
ATOM     52  C   UNL A   1      41.021  32.196  35.013  1.00  0.00     0.074 A 
ATOM     53  C   UNL A   1      42.500  27.455  30.999  1.00  0.00     0.029 A 
ATOM     54  N   UNL A   1      41.537  29.203  31.985  1.00  0.00    -0.354 N 
ATOM     55  N   UNL A   1      41.243  31.261  34.120  1.00  0.00    -0.248 NA
ATOM     56  C   UNL A   1      41.937  32.164  36.160  1.00  0.00     0.031 C 
ATOM     57  C   UNL A   1      43.165  27.712  32.203  1.00  0.00     0.029 A 
ATOM     58  C   UNL A   1      42.581  28.817  32.804  1.00  0.00     0.049 A 
ATOM     59  H   UNL A   1      40.927  29.955  32.162  1.00  0.00     0.167 HD
ATOM     60  C   UNL A   1      42.340  30.545  34.582  1.00  0.00     0.074 A 
ATOM     61  C   UNL A   1      42.745  31.169  35.827  1.00  0.00     0.031 C 
ATOM     62  C   UNL A   1      42.958  29.471  34.033  1.00  0.00     0.037 A 
BRANCH  49  63
ATOM     63  C   UNL A   1      40.509  27.511  28.691  1.00  0.00     0.057 A 
ATOM     64  C   UNL A   1      41.310  27.682  27.552  1.00  0.00     0.134 A 
ATOM     65  C   UNL A   1      39.698  26.370  28.739  1.00  0.00     0.134 A 
ATOM     66  F   UNL A   1      42.095  28.763  27.431  1.00  0.00    -0.206 F 
ATOM     67  C   UNL A   1      41.277  26.777  26.491  1.00  0.00     0.040 A 
ATOM     68  C   UNL A   1      39.680  25.440  27.697  1.00  0.00     0.040 A 
ATOM     69  F   UNL A   1      38.905  26.141  29.797  1.00  0.00    -0.206 F 
ATOM     70  C   UNL A   1      40.465  25.647  26.564  1.00  0.00     0.006 A 
ENDBRANCH  49  63
BRANCH  50  71
ATOM     71  C   UNL A   1      39.859  34.244  36.133  1.00  0.00     0.057 A 
ATOM     72  C   UNL A   1      40.510  35.482  36.081  1.00  0.00     0.134 A 
ATOM     73  C   UNL A   1      39.091  33.969  37.270  1.00  0.00     0.134 A 
ATOM     74  F   UNL A   1      41.271  35.800  35.024  1.00  0.00    -0.206 F 
ATOM     75  C   UNL A   1      40.417  36.405  37.125  1.00  0.00     0.040 A 
ATOM     76  C   UNL A   1      38.969  34.892  38.312  1.00  0.00     0.040 A 
ATOM     77  F   UNL A   1      38.432  32.806  37.378  1.00  0.00    -0.206 F 
ATOM     78  C   UNL A   1      39.639  36.112  38.243  1.00  0.00     0.006 A 
ENDBRANCH  50  71
BRANCH  62  79
ATOM     79  C   UNL A   1      44.157  28.938  34.756  1.00  0.00     0.057 A 
ATOM     80  C   UNL A   1      45.445  29.430  34.513  1.00  0.00     0.134 A 
ATOM     81  C   UNL A   1      44.012  27.945  35.733  1.00  0.00     0.134 A 
ATOM     82  F   UNL A   1      45.648  30.372  33.580  1.00  0.00    -0.206 F 
ATOM     83  C   UNL A   1      46.554  28.933  35.199  1.00  0.00     0.040 A 
ATOM     84  C   UNL A   1      45.109  27.460  36.445  1.00  0.00     0.040 A 
ATOM     85  F   UNL A   1      42.803  27.442  36.019  1.00  0.00    -0.206 F 
ATOM     86  C   UNL A   1      46.385  27.949  36.172  1.00  0.00     0.006 A 
ENDBRANCH  62  79
ENDBRANCH  36  37
ENDBRANCH  28  31
ENDBRANCH  26  27
ENDBRANCH  25  26
ENDBRANCH   1  25
TORSDOF 15
ENDMDL
MODEL 2
REMARK VINA RESULT:     -11.9      1.023      6.303
REMARK SMILES COc1ccc(C(=O)c2ccccc2)cc1[C@@H](C)C(=O)NCCCCNC(=O)c1ccc(-c2c3nc(c(-c4c(F)cccc4F)c4ccc([nH]4)c(-c4c(F)cccc4F)c4nc(c(-c5c(F)cccc5F)c5ccc2[nH]5)C=C4)C=C3)cc1
REMARK SMILES IDX 23 1 22 2 21 3 19 4 20 5 17 7 18 8 16 9 3 10 4 11 5 12 15 13
REMARK SMILES IDX 6 14 2 15 1 16 7 17 8 18 9 19 10 20 14 21 11 22 13 23 12 24
REMARK SMILES IDX 24 25 25 26 26 27 27 28 28 30 29 31 30 32 82 33 31 34 81 35
REMARK SMILES IDX 32 36 33 37 34 38 75 39 35 40 80 41 74 42 76 43 36 44 79 45
REMARK SMILES IDX 73 46 72 47 37 49 63 50 46 51 62 52 47 53 50 54 61 55 77 56
REMARK SMILES IDX 48 57 49 58 60 60 78 61 51 62 38 63 39 64 44 65 40 66 41 67
REMARK SMILES IDX 43 68 45 69 42 70 64 71 65 72 70 73 66 74 67 75 69 76 71 77
REMARK SMILES IDX 68 78 52 79 53 80 58 81 54 82 55 83 57 84 59 85 56 86
REMARK H PARENT 21 6 26 29 76 48 50 59
REMARK Flexibility Score: inf
ROOT
ATOM      1  C   UNL A   1      31.562  30.778  26.731  1.00  0.00     0.023 C 
ENDROOT
BRANCH   1   2
ATOM      2  C   UNL A   1      32.114  30.160  25.449  1.00  0.00     0.116 C 
BRANCH   2   3
ATOM      3  N   UNL A   1      32.977  29.038  25.736  1.00  0.00    -0.356 N 
ATOM      4  C   UNL A   1      33.222  27.887  25.057  1.00  0.00     0.227 C 
ATOM      5  O   UNL A   1      33.926  27.058  25.649  1.00  0.00    -0.274 OA
ATOM      6  H   UNL A   1      33.481  29.124  26.577  1.00  0.00     0.163 HD
BRANCH   4   7
ATOM      7  C   UNL A   1      32.671  27.569  23.652  1.00  0.00     0.109 C 
ATOM      8  C   UNL A   1      33.085  28.529  22.539  1.00  0.00     0.023 C 
BRANCH   7   9
ATOM      9  C   UNL A   1      31.195  27.182  23.662  1.00  0.00     0.007 A 
ATOM     10  C   UNL A   1      30.775  25.921  24.112  1.00  0.00     0.122 A 
ATOM     11  C   UNL A   1      29.419  25.601  24.201  1.00  0.00     0.047 A 
ATOM     12  C   UNL A   1      28.451  26.551  23.875  1.00  0.00     0.016 A 
ATOM     13  C   UNL A   1      30.197  28.097  23.268  1.00  0.00     0.020 A 
ATOM     14  C   UNL A   1      28.828  27.811  23.398  1.00  0.00     0.023 A 
BRANCH  10  15
ATOM     15  O   UNL A   1      31.668  24.910  24.345  1.00  0.00    -0.496 OA
ATOM     16  C   UNL A   1      31.534  24.361  25.657  1.00  0.00     0.278 C 
ENDBRANCH  10  15
BRANCH  14  17
ATOM     17  C   UNL A   1      27.744  28.813  23.147  1.00  0.00     0.193 C 
ATOM     18  O   UNL A   1      26.584  28.530  23.443  1.00  0.00    -0.289 OA
BRANCH  17  19
ATOM     19  C   UNL A   1      27.995  30.176  22.622  1.00  0.00     0.022 A 
ATOM     20  C   UNL A   1      28.153  31.217  23.549  1.00  0.00     0.012 A 
ATOM     21  C   UNL A   1      28.028  30.452  21.251  1.00  0.00     0.012 A 
ATOM     22  C   UNL A   1      28.373  32.521  23.106  1.00  0.00     0.001 A 
ATOM     23  C   UNL A   1      28.254  31.760  20.813  1.00  0.00     0.001 A 
ATOM     24  C   UNL A   1      28.419  32.790  21.739  1.00  0.00     0.000 A 
ENDBRANCH  17  19
ENDBRANCH  14  17
ENDBRANCH   7   9
ENDBRANCH   4   7
ENDBRANCH   2   3
ENDBRANCH   1   2
BRANCH   1  25
ATOM     25  C   UNL A   1      31.513  32.296  26.770  1.00  0.00     0.023 C 
BRANCH  25  26
ATOM     26  C   UNL A   1      32.792  32.962  27.251  1.00  0.00     0.116 C 
BRANCH  26  27
ATOM     27  N   UNL A   1      32.617  34.328  27.738  1.00  0.00    -0.352 N 
ATOM     28  C   UNL A   1      33.330  34.969  28.721  1.00  0.00     0.251 C 
ATOM     29  H   UNL A   1      31.903  34.851  27.309  1.00  0.00     0.163 HD
ATOM     30  O   UNL A   1      33.091  36.125  29.048  1.00  0.00    -0.269 OA
BRANCH  28  31
ATOM     31  C   UNL A   1      34.385  34.217  29.409  1.00  0.00     0.039 A 
ATOM     32  C   UNL A   1      34.029  33.263  30.364  1.00  0.00     0.014 A 
ATOM     33  C   UNL A   1      35.715  34.409  29.029  1.00  0.00     0.014 A 
ATOM     34  C   UNL A   1      35.018  32.456  30.915  1.00  0.00     0.010 A 
ATOM     35  C   UNL A   1      36.680  33.542  29.507  1.00  0.00     0.010 A 
ATOM     36  C   UNL A   1      36.343  32.578  30.469  1.00  0.00    -0.014 A 
BRANCH  36  37
ATOM     37  C   UNL A   1      37.437  31.768  31.039  1.00  0.00     0.031 A 
ATOM     38  C   UNL A   1      37.897  32.079  32.434  1.00  0.00     0.074 A 
ATOM     39  C   UNL A   1      38.068  30.859  30.276  1.00  0.00     0.049 A 
ATOM     40  N   UNL A   1      38.955  31.658  33.073  1.00  0.00    -0.248 NA
ATOM     41  C   UNL A   1      37.078  33.042  33.193  1.00  0.00     0.031 C 
ATOM     42  C   UNL A   1      37.718  30.519  28.895  1.00  0.00     0.029 A 
ATOM     43  N   UNL A   1      39.156  30.072  30.548  1.00  0.00    -0.354 N 
ATOM     44  C   UNL A   1      38.950  32.336  34.285  1.00  0.00     0.074 A 
ATOM     45  C   UNL A   1      37.819  33.235  34.271  1.00  0.00     0.031 C 
ATOM     46  C   UNL A   1      38.568  29.581  28.445  1.00  0.00     0.029 A 
ATOM     47  C   UNL A   1      39.545  29.290  29.489  1.00  0.00     0.049 A 
ATOM     48  H   UNL A   1      39.614  30.069  31.418  1.00  0.00     0.167 HD
ATOM     49  C   UNL A   1      39.804  32.199  35.325  1.00  0.00     0.037 A 
ATOM     50  C   UNL A   1      40.585  28.442  29.381  1.00  0.00     0.037 A 
ATOM     51  C   UNL A   1      40.895  31.262  35.330  1.00  0.00     0.049 A 
ATOM     52  C   UNL A   1      41.498  28.279  30.565  1.00  0.00     0.074 A 
ATOM     53  C   UNL A   1      41.794  30.986  36.342  1.00  0.00     0.029 A 
ATOM     54  N   UNL A   1      41.220  30.436  34.262  1.00  0.00    -0.354 N 
ATOM     55  N   UNL A   1      41.465  28.893  31.724  1.00  0.00    -0.248 NA
ATOM     56  C   UNL A   1      42.584  27.300  30.432  1.00  0.00     0.031 C 
ATOM     57  C   UNL A   1      42.685  30.013  35.874  1.00  0.00     0.029 A 
ATOM     58  C   UNL A   1      42.311  29.652  34.588  1.00  0.00     0.049 A 
ATOM     59  H   UNL A   1      40.744  30.413  33.401  1.00  0.00     0.167 HD
ATOM     60  C   UNL A   1      42.507  28.357  32.470  1.00  0.00     0.074 A 
ATOM     61  C   UNL A   1      43.141  27.356  31.633  1.00  0.00     0.031 C 
ATOM     62  C   UNL A   1      42.907  28.660  33.729  1.00  0.00     0.037 A 
BRANCH  49  63
ATOM     63  C   UNL A   1      39.580  33.074  36.525  1.00  0.00     0.057 A 
ATOM     64  C   UNL A   1      40.267  34.284  36.701  1.00  0.00     0.134 A 
ATOM     65  C   UNL A   1      38.668  32.703  37.522  1.00  0.00     0.134 A 
ATOM     66  F   UNL A   1      41.170  34.690  35.795  1.00  0.00    -0.206 F 
ATOM     67  C   UNL A   1      40.082  35.073  37.837  1.00  0.00     0.040 A 
ATOM     68  C   UNL A   1      38.452  33.500  38.648  1.00  0.00     0.040 A 
ATOM     69  F   UNL A   1      37.976  31.559  37.421  1.00  0.00    -0.206 F 
ATOM     70  C   UNL A   1      39.167  34.684  38.813  1.00  0.00     0.006 A 
ENDBRANCH  49  63
BRANCH  50  71
ATOM     71  C   UNL A   1      40.792  27.670  28.131  1.00  0.00     0.057 A 
ATOM     72  C   UNL A   1      40.188  26.418  27.953  1.00  0.00     0.134 A 
ATOM     73  C   UNL A   1      41.578  28.159  27.081  1.00  0.00     0.134 A 
ATOM     74  F   UNL A   1      39.433  25.890  28.926  1.00  0.00    -0.206 F 
ATOM     75  C   UNL A   1      40.373  25.674  26.786  1.00  0.00     0.040 A 
ATOM     76  C   UNL A   1      41.752  27.436  25.898  1.00  0.00     0.040 A 
ATOM     77  F   UNL A   1      42.174  29.356  27.182  1.00  0.00    -0.206 F 
ATOM     78  C   UNL A   1      41.153  26.187  25.752  1.00  0.00     0.006 A 
ENDBRANCH  50  71
BRANCH  62  79
ATOM     79  C   UNL A   1      44.054  27.869  34.282  1.00  0.00     0.057 A 
ATOM     80  C   UNL A   1      43.861  26.644  34.931  1.00  0.00     0.134 A 
ATOM     81  C   UNL A   1      45.369  28.327  34.129  1.00  0.00     0.134 A 
ATOM     82  F   UNL A   1      42.624  26.161  35.118  1.00  0.00    -0.206 F 
ATOM     83  C   UNL A   1      44.937  25.912  35.434  1.00  0.00     0.040 A 
ATOM     84  C   UNL A   1      46.454  27.590  34.604  1.00  0.00     0.040 A 
ATOM     85  F   UNL A   1      45.619  29.488  33.507  1.00  0.00    -0.206 F 
ATOM     86  C   UNL A   1      46.238  26.383  35.265  1.00  0.00     0.006 A 
ENDBRANCH  62  79
ENDBRANCH  36  37
ENDBRANCH  28  31
ENDBRANCH  26  27
ENDBRANCH  25  26
ENDBRANCH   1  25
TORSDOF 15
ENDMDL
MODEL 3
REMARK VINA RESULT:     -11.9      5.292     10.227
REMARK SMILES COc1ccc(C(=O)c2ccccc2)cc1[C@@H](C)C(=O)NCCCCNC(=O)c1ccc(-c2c3nc(c(-c4c(F)cccc4F)c4ccc([nH]4)c(-c4c(F)cccc4F)c4nc(c(-c5c(F)cccc5F)c5ccc2[nH]5)C=C4)C=C3)cc1
REMARK SMILES IDX 23 1 22 2 21 3 19 4 20 5 17 7 18 8 16 9 3 10 4 11 5 12 15 13
REMARK SMILES IDX 6 14 2 15 1 16 7 17 8 18 9 19 10 20 14 21 11 22 13 23 12 24
REMARK SMILES IDX 24 25 25 26 26 27 27 28 28 30 29 31 30 32 82 33 31 34 81 35
REMARK SMILES IDX 32 36 33 37 34 38 75 39 35 40 80 41 74 42 76 43 36 44 79 45
REMARK SMILES IDX 73 46 72 47 37 49 63 50 46 51 62 52 47 53 50 54 61 55 77 56
REMARK SMILES IDX 48 57 49 58 60 60 78 61 51 62 38 63 39 64 44 65 40 66 41 67
REMARK SMILES IDX 43 68 45 69 42 70 64 71 65 72 70 73 66 74 67 75 69 76 71 77
REMARK SMILES IDX 68 78 52 79 53 80 58 81 54 82 55 83 57 84 59 85 56 86
REMARK H PARENT 21 6 26 29 76 48 50 59
REMARK Flexibility Score: inf
ROOT
ATOM      1  C   UNL A   1      36.769  21.943  24.489  1.00  0.00     0.023 C 
ENDROOT
BRANCH   1   2
ATOM      2  C   UNL A   1      36.136  22.734  25.631  1.00  0.00     0.116 C 
BRANCH   2   3
ATOM      3  N   UNL A   1      35.404  21.871  26.527  1.00  0.00    -0.356 N 
ATOM      4  C   UNL A   1      34.081  21.790  26.828  1.00  0.00     0.227 C 
ATOM      5  O   UNL A   1      33.790  21.019  27.752  1.00  0.00    -0.274 OA
ATOM      6  H   UNL A   1      35.966  21.221  27.009  1.00  0.00     0.163 HD
BRANCH   4   7
ATOM      7  C   UNL A   1      32.974  22.595  26.117  1.00  0.00     0.109 C 
ATOM      8  C   UNL A   1      31.804  23.041  26.993  1.00  0.00     0.023 C 
BRANCH   7   9
ATOM      9  C   UNL A   1      32.586  22.011  24.762  1.00  0.00     0.007 A 
ATOM     10  C   UNL A   1      32.301  22.840  23.666  1.00  0.00     0.122 A 
ATOM     11  C   UNL A   1      32.031  22.303  22.406  1.00  0.00     0.047 A 
ATOM     12  C   UNL A   1      32.076  20.923  22.206  1.00  0.00     0.016 A 
ATOM     13  C   UNL A   1      32.550  20.618  24.549  1.00  0.00     0.020 A 
ATOM     14  C   UNL A   1      32.330  20.061  23.278  1.00  0.00     0.023 A 
BRANCH  10  15
ATOM     15  O   UNL A   1      32.137  24.191  23.814  1.00  0.00    -0.496 OA
ATOM     16  C   UNL A   1      30.837  24.626  23.413  1.00  0.00     0.278 C 
ENDBRANCH  10  15
BRANCH  14  17
ATOM     17  C   UNL A   1      32.448  18.598  22.982  1.00  0.00     0.193 C 
ATOM     18  O   UNL A   1      32.105  18.180  21.878  1.00  0.00    -0.289 OA
BRANCH  17  19
ATOM     19  C   UNL A   1      33.031  17.616  23.927  1.00  0.00     0.022 A 
ATOM     20  C   UNL A   1      34.402  17.337  23.820  1.00  0.00     0.012 A 
ATOM     21  C   UNL A   1      32.253  16.937  24.870  1.00  0.00     0.012 A 
ATOM     22  C   UNL A   1      34.995  16.407  24.673  1.00  0.00     0.001 A 
ATOM     23  C   UNL A   1      32.854  16.010  25.726  1.00  0.00     0.001 A 
ATOM     24  C   UNL A   1      34.219  15.743  25.621  1.00  0.00     0.000 A 
ENDBRANCH  17  19
ENDBRANCH  14  17
ENDBRANCH   7   9
ENDBRANCH   4   7
ENDBRANCH   2   3
ENDBRANCH   1   2
BRANCH   1  25
ATOM     25  C   UNL A   1      37.497  20.670  24.886  1.00  0.00     0.023 C 
BRANCH  25  26
ATOM     26  C   UNL A   1      38.772  20.888  25.683  1.00  0.00     0.116 C 
BRANCH  26  27
ATOM     27  N   UNL A   1      39.722  19.781  25.622  1.00  0.00    -0.352 N 
ATOM     28  C   UNL A   1      41.031  19.769  26.040  1.00  0.00     0.251 C 
ATOM     29  H   UNL A   1      39.383  18.942  25.235  1.00  0.00     0.163 HD
ATOM     30  O   UNL A   1      41.737  18.774  25.936  1.00  0.00    -0.269 OA
BRANCH  28  31
ATOM     31  C   UNL A   1      41.587  21.007  26.595  1.00  0.00     0.039 A 
ATOM     32  C   UNL A   1      42.063  21.990  25.725  1.00  0.00     0.014 A 
ATOM     33  C   UNL A   1      41.546  21.212  27.976  1.00  0.00     0.014 A 
ATOM     34  C   UNL A   1      42.462  23.217  26.245  1.00  0.00     0.010 A 
ATOM     35  C   UNL A   1      41.853  22.462  28.477  1.00  0.00     0.010 A 
ATOM     36  C   UNL A   1      42.335  23.463  27.620  1.00  0.00    -0.014 A 
BRANCH  36  37
ATOM     37  C   UNL A   1      42.771  24.736  28.229  1.00  0.00     0.031 A 
ATOM     38  C   UNL A   1      41.734  25.793  28.481  1.00  0.00     0.074 A 
ATOM     39  C   UNL A   1      44.078  24.967  28.439  1.00  0.00     0.049 A 
ATOM     40  N   UNL A   1      41.891  27.047  28.808  1.00  0.00    -0.248 NA
ATOM     41  C   UNL A   1      40.330  25.392  28.279  1.00  0.00     0.031 C 
ATOM     42  C   UNL A   1      45.161  24.014  28.185  1.00  0.00     0.029 A 
ATOM     43  N   UNL A   1      44.720  26.088  28.892  1.00  0.00    -0.354 N 
ATOM     44  C   UNL A   1      40.613  27.592  28.809  1.00  0.00     0.074 A 
ATOM     45  C   UNL A   1      39.700  26.550  28.397  1.00  0.00     0.031 C 
ATOM     46  C   UNL A   1      46.334  24.588  28.499  1.00  0.00     0.029 A 
ATOM     47  C   UNL A   1      46.087  25.959  28.932  1.00  0.00     0.049 A 
ATOM     48  H   UNL A   1      44.247  26.908  29.161  1.00  0.00     0.167 HD
ATOM     49  C   UNL A   1      40.237  28.846  29.150  1.00  0.00     0.037 A 
ATOM     50  C   UNL A   1      47.027  26.860  29.273  1.00  0.00     0.037 A 
ATOM     51  C   UNL A   1      41.162  29.849  29.602  1.00  0.00     0.049 A 
ATOM     52  C   UNL A   1      46.581  28.236  29.685  1.00  0.00     0.074 A 
ATOM     53  C   UNL A   1      40.901  31.137  30.031  1.00  0.00     0.029 A 
ATOM     54  N   UNL A   1      42.536  29.662  29.694  1.00  0.00    -0.354 N 
ATOM     55  N   UNL A   1      45.367  28.734  29.723  1.00  0.00    -0.248 NA
ATOM     56  C   UNL A   1      47.630  29.171  30.109  1.00  0.00     0.031 C 
ATOM     57  C   UNL A   1      42.122  31.741  30.353  1.00  0.00     0.029 A 
ATOM     58  C   UNL A   1      43.137  30.813  30.168  1.00  0.00     0.049 A 
ATOM     59  H   UNL A   1      43.009  28.833  29.456  1.00  0.00     0.167 HD
ATOM     60  C   UNL A   1      45.502  30.031  30.201  1.00  0.00     0.074 A 
ATOM     61  C   UNL A   1      46.916  30.233  30.453  1.00  0.00     0.031 C 
ATOM     62  C   UNL A   1      44.549  30.971  30.414  1.00  0.00     0.037 A 
BRANCH  49  63
ATOM     63  C   UNL A   1      38.777  29.183  29.047  1.00  0.00     0.057 A 
ATOM     64  C   UNL A   1      37.915  29.095  30.149  1.00  0.00     0.134 A 
ATOM     65  C   UNL A   1      38.223  29.599  27.830  1.00  0.00     0.134 A 
ATOM     66  F   UNL A   1      38.375  28.683  31.341  1.00  0.00    -0.206 F 
ATOM     67  C   UNL A   1      36.552  29.372  30.037  1.00  0.00     0.040 A 
ATOM     68  C   UNL A   1      36.867  29.910  27.712  1.00  0.00     0.040 A 
ATOM     69  F   UNL A   1      38.988  29.706  26.733  1.00  0.00    -0.206 F 
ATOM     70  C   UNL A   1      36.025  29.787  28.816  1.00  0.00     0.006 A 
ENDBRANCH  49  63
BRANCH  50  71
ATOM     71  C   UNL A   1      48.461  26.479  29.272  1.00  0.00     0.057 A 
ATOM     72  C   UNL A   1      49.268  26.724  28.154  1.00  0.00     0.134 A 
ATOM     73  C   UNL A   1      49.066  25.877  30.381  1.00  0.00     0.134 A 
ATOM     74  F   UNL A   1      48.745  27.287  27.056  1.00  0.00    -0.206 F 
ATOM     75  C   UNL A   1      50.618  26.370  28.132  1.00  0.00     0.040 A 
ATOM     76  C   UNL A   1      50.422  25.538  30.383  1.00  0.00     0.040 A 
ATOM     77  F   UNL A   1      48.353  25.625  31.488  1.00  0.00    -0.206 F 
ATOM     78  C   UNL A   1      51.200  25.780  29.251  1.00  0.00     0.006 A 
ENDBRANCH  50  71
BRANCH  62  79
ATOM     79  C   UNL A   1      45.007  32.280  30.982  1.00  0.00     0.057 A 
ATOM     80  C   UNL A   1      45.404  33.343  30.162  1.00  0.00     0.134 A 
ATOM     81  C   UNL A   1      45.015  32.487  32.368  1.00  0.00     0.134 A 
ATOM     82  F   UNL A   1      45.429  33.200  28.829  1.00  0.00    -0.206 F 
ATOM     83  C   UNL A   1      45.819  34.561  30.703  1.00  0.00     0.040 A 
ATOM     84  C   UNL A   1      45.402  33.708  32.918  1.00  0.00     0.040 A 
ATOM     85  F   UNL A   1      44.635  31.511  33.205  1.00  0.00    -0.206 F 
ATOM     86  C   UNL A   1      45.813  34.746  32.084  1.00  0.00     0.006 A 
ENDBRANCH  62  79
ENDBRANCH  36  37
ENDBRANCH  28  31
ENDBRANCH  26  27
ENDBRANCH  25  26
ENDBRANCH   1  25
TORSDOF 15
ENDMDL
