MODEL 1
REMARK VINA RESULT:     -12.1      0.000      0.000
REMARK SMILES Cn1nc(N2CCC(CC(=O)NCCCCNC(=O)c3ccc(-c4c5nc(c(-c6c(F)cccc6F)c6ccc([nH]6)c(-c6c(F)cccc6F)c6nc(c(-c7c(F)cccc7F)c7ccc4[nH]7)C=C6)C=C5)cc3)CC2)c(=O)n(C)c1=O
REMARK SMILES IDX 14 1 13 2 12 3 10 4 11 5 9 7 8 8 5 9 6 10 75 11 7 12 74 13
REMARK SMILES IDX 4 14 1 15 2 16 3 17 80 18 78 19 81 20 76 21 79 22 77 23
REMARK SMILES IDX 15 24 16 25 17 26 18 27 19 29 20 30 21 31 73 32 22 33 72 34
REMARK SMILES IDX 23 35 24 36 25 37 66 38 26 39 71 40 65 41 67 42 27 43 70 44
REMARK SMILES IDX 64 45 63 46 28 48 54 49 37 50 53 51 38 52 41 53 52 54 68 55
REMARK SMILES IDX 39 56 40 57 51 59 69 60 42 61 29 62 30 63 35 64 31 65 32 66
REMARK SMILES IDX 34 67 36 68 33 69 55 70 56 71 61 72 57 73 58 74 60 75 62 76
REMARK SMILES IDX 59 77 43 78 44 79 49 80 45 81 46 82 48 83 50 84 47 85
REMARK H PARENT 12 6 17 28 67 47 41 58
REMARK Flexibility Score: inf
ROOT
ATOM      1  C   UNL A   1      37.345  21.141  24.679  1.00  0.00     0.023 C 
ENDROOT
BRANCH   1   2
ATOM      2  C   UNL A   1      36.057  21.315  25.490  1.00  0.00     0.116 C 
BRANCH   2   3
ATOM      3  N   UNL A   1      35.097  20.262  25.205  1.00  0.00    -0.356 N 
ATOM      4  C   UNL A   1      33.732  20.274  25.238  1.00  0.00     0.220 C 
ATOM      5  O   UNL A   1      33.134  19.219  25.024  1.00  0.00    -0.275 OA
ATOM      6  H   UNL A   1      35.495  19.400  24.945  1.00  0.00     0.163 HD
BRANCH   4   7
ATOM      7  C   UNL A   1      32.967  21.556  25.539  1.00  0.00     0.103 C 
BRANCH   7   8
ATOM      8  C   UNL A   1      32.529  22.340  24.282  1.00  0.00     0.002 C 
ATOM      9  N   UNL A   1      31.751  24.953  23.346  1.00  0.00    -0.351 N 
ATOM     10  C   UNL A   1      30.704  23.967  23.458  1.00  0.00     0.118 C 
ATOM     11  C   UNL A   1      33.040  24.444  22.915  1.00  0.00     0.118 C 
ATOM     12  C   UNL A   1      31.124  22.918  24.467  1.00  0.00     0.025 C 
ATOM     13  C   UNL A   1      33.552  23.451  23.965  1.00  0.00     0.025 C 
BRANCH   9  14
ATOM     14  C   UNL A   1      31.569  26.261  23.757  1.00  0.00     0.215 A 
ATOM     15  C   UNL A   1      31.834  28.272  26.726  1.00  0.00     0.180 C 
ATOM     16  N   UNL A   1      31.524  27.924  25.349  1.00  0.00    -0.216 N 
ATOM     17  N   UNL A   1      31.735  26.614  25.000  1.00  0.00    -0.145 NA
ATOM     18  C   UNL A   1      31.088  28.926  24.484  1.00  0.00     0.346 A 
ATOM     19  N   UNL A   1      30.855  28.545  23.178  1.00  0.00    -0.259 N 
ATOM     20  O   UNL A   1      30.935  30.090  24.862  1.00  0.00    -0.246 OA
ATOM     21  C   UNL A   1      31.121  27.280  22.710  1.00  0.00     0.299 A 
ATOM     22  C   UNL A   1      30.339  29.506  22.228  1.00  0.00     0.159 C 
ATOM     23  O   UNL A   1      31.004  26.921  21.541  1.00  0.00    -0.265 OA
ENDBRANCH   9  14
ENDBRANCH   7   8
ENDBRANCH   4   7
ENDBRANCH   2   3
ENDBRANCH   1   2
BRANCH   1  24
ATOM     24  C   UNL A   1      38.151  19.898  25.008  1.00  0.00     0.023 C 
BRANCH  24  25
ATOM     25  C   UNL A   1      39.401  20.182  25.813  1.00  0.00     0.116 C 
BRANCH  25  26
ATOM     26  N   UNL A   1      40.356  19.079  25.803  1.00  0.00    -0.352 N 
ATOM     27  C   UNL A   1      41.714  19.107  26.037  1.00  0.00     0.251 C 
ATOM     28  H   UNL A   1      39.979  18.193  25.599  1.00  0.00     0.163 HD
ATOM     29  O   UNL A   1      42.402  18.111  25.885  1.00  0.00    -0.269 OA
BRANCH  27  30
ATOM     30  C   UNL A   1      42.324  20.390  26.438  1.00  0.00     0.039 A 
ATOM     31  C   UNL A   1      42.839  21.232  25.453  1.00  0.00     0.014 A 
ATOM     32  C   UNL A   1      42.271  20.795  27.773  1.00  0.00     0.014 A 
ATOM     33  C   UNL A   1      43.221  22.527  25.801  1.00  0.00     0.010 A 
ATOM     34  C   UNL A   1      42.537  22.117  28.092  1.00  0.00     0.010 A 
ATOM     35  C   UNL A   1      43.027  22.992  27.113  1.00  0.00    -0.014 A 
BRANCH  35  36
ATOM     36  C   UNL A   1      43.368  24.382  27.496  1.00  0.00     0.031 A 
ATOM     37  C   UNL A   1      44.801  24.831  27.440  1.00  0.00     0.074 A 
ATOM     38  C   UNL A   1      42.407  25.215  27.942  1.00  0.00     0.049 A 
ATOM     39  N   UNL A   1      45.318  25.985  27.772  1.00  0.00    -0.248 NA
ATOM     40  C   UNL A   1      45.792  23.839  26.987  1.00  0.00     0.031 C 
ATOM     41  C   UNL A   1      40.993  24.871  28.106  1.00  0.00     0.029 A 
ATOM     42  N   UNL A   1      42.477  26.526  28.334  1.00  0.00    -0.354 N 
ATOM     43  C   UNL A   1      46.686  25.848  27.587  1.00  0.00     0.074 A 
ATOM     44  C   UNL A   1      46.932  24.482  27.188  1.00  0.00     0.031 C 
ATOM     45  C   UNL A   1      40.321  25.960  28.514  1.00  0.00     0.029 A 
ATOM     46  C   UNL A   1      41.259  27.068  28.667  1.00  0.00     0.049 A 
ATOM     47  H   UNL A   1      43.320  27.033  28.374  1.00  0.00     0.167 HD
ATOM     48  C   UNL A   1      47.651  26.789  27.691  1.00  0.00     0.037 A 
ATOM     49  C   UNL A   1      40.937  28.322  29.036  1.00  0.00     0.037 A 
ATOM     50  C   UNL A   1      47.399  28.161  28.029  1.00  0.00     0.049 A 
ATOM     51  C   UNL A   1      42.023  29.359  29.122  1.00  0.00     0.074 A 
ATOM     52  C   UNL A   1      48.295  29.211  28.094  1.00  0.00     0.029 A 
ATOM     53  N   UNL A   1      46.149  28.673  28.345  1.00  0.00    -0.354 N 
ATOM     54  N   UNL A   1      43.305  29.232  28.880  1.00  0.00    -0.248 NA
ATOM     55  C   UNL A   1      41.618  30.712  29.528  1.00  0.00     0.031 C 
ATOM     56  C   UNL A   1      47.590  30.359  28.472  1.00  0.00     0.029 A 
ATOM     57  C   UNL A   1      46.251  30.025  28.615  1.00  0.00     0.049 A 
ATOM     58  H   UNL A   1      45.314  28.151  28.371  1.00  0.00     0.167 HD
ATOM     59  C   UNL A   1      43.858  30.489  29.086  1.00  0.00     0.074 A 
ATOM     60  C   UNL A   1      42.769  31.369  29.461  1.00  0.00     0.031 C 
ATOM     61  C   UNL A   1      45.150  30.879  28.977  1.00  0.00     0.037 A 
BRANCH  48  62
ATOM     62  C   UNL A   1      49.058  26.366  27.400  1.00  0.00     0.057 A 
ATOM     63  C   UNL A   1      49.570  26.380  26.094  1.00  0.00     0.134 A 
ATOM     64  C   UNL A   1      49.914  25.952  28.427  1.00  0.00     0.134 A 
ATOM     65  F   UNL A   1      48.793  26.747  25.064  1.00  0.00    -0.206 F 
ATOM     66  C   UNL A   1      50.876  25.974  25.818  1.00  0.00     0.040 A 
ATOM     67  C   UNL A   1      51.229  25.567  28.166  1.00  0.00     0.040 A 
ATOM     68  F   UNL A   1      49.485  25.914  29.697  1.00  0.00    -0.206 F 
ATOM     69  C   UNL A   1      51.712  25.571  26.858  1.00  0.00     0.006 A 
ENDBRANCH  48  62
BRANCH  49  70
ATOM     70  C   UNL A   1      39.520  28.682  29.284  1.00  0.00     0.057 A 
ATOM     71  C   UNL A   1      38.717  29.174  28.249  1.00  0.00     0.134 A 
ATOM     72  C   UNL A   1      38.931  28.529  30.544  1.00  0.00     0.134 A 
ATOM     73  F   UNL A   1      39.230  29.354  27.024  1.00  0.00    -0.206 F 
ATOM     74  C   UNL A   1      37.379  29.512  28.459  1.00  0.00     0.040 A 
ATOM     75  C   UNL A   1      37.589  28.848  30.765  1.00  0.00     0.040 A 
ATOM     76  F   UNL A   1      39.646  28.055  31.574  1.00  0.00    -0.206 F 
ATOM     77  C   UNL A   1      36.809  29.344  29.720  1.00  0.00     0.006 A 
ENDBRANCH  49  70
BRANCH  61  78
ATOM     78  C   UNL A   1      45.464  32.317  29.252  1.00  0.00     0.057 A 
ATOM     79  C   UNL A   1      45.881  32.741  30.519  1.00  0.00     0.134 A 
ATOM     80  C   UNL A   1      45.441  33.263  28.220  1.00  0.00     0.134 A 
ATOM     81  F   UNL A   1      45.914  31.881  31.548  1.00  0.00    -0.206 F 
ATOM     82  C   UNL A   1      46.262  34.062  30.751  1.00  0.00     0.040 A 
ATOM     83  C   UNL A   1      45.840  34.581  28.436  1.00  0.00     0.040 A 
ATOM     84  F   UNL A   1      45.061  32.911  26.983  1.00  0.00    -0.206 F 
ATOM     85  C   UNL A   1      46.253  34.984  29.705  1.00  0.00     0.006 A 
ENDBRANCH  61  78
ENDBRANCH  35  36
ENDBRANCH  27  30
ENDBRANCH  25  26
ENDBRANCH  24  25
ENDBRANCH   1  24
TORSDOF 13
ENDMDL
MODEL 2
REMARK VINA RESULT:     -12.1      4.711     10.389
REMARK SMILES Cn1nc(N2CCC(CC(=O)NCCCCNC(=O)c3ccc(-c4c5nc(c(-c6c(F)cccc6F)c6ccc([nH]6)c(-c6c(F)cccc6F)c6nc(c(-c7c(F)cccc7F)c7ccc4[nH]7)C=C6)C=C5)cc3)CC2)c(=O)n(C)c1=O
REMARK SMILES IDX 14 1 13 2 12 3 10 4 11 5 9 7 8 8 5 9 6 10 75 11 7 12 74 13
REMARK SMILES IDX 4 14 1 15 2 16 3 17 80 18 78 19 81 20 76 21 79 22 77 23
REMARK SMILES IDX 15 24 16 25 17 26 18 27 19 29 20 30 21 31 73 32 22 33 72 34
REMARK SMILES IDX 23 35 24 36 25 37 66 38 26 39 71 40 65 41 67 42 27 43 70 44
REMARK SMILES IDX 64 45 63 46 28 48 54 49 37 50 53 51 38 52 41 53 52 54 68 55
REMARK SMILES IDX 39 56 40 57 51 59 69 60 42 61 29 62 30 63 35 64 31 65 32 66
REMARK SMILES IDX 34 67 36 68 33 69 55 70 56 71 61 72 57 73 58 74 60 75 62 76
REMARK SMILES IDX 59 77 43 78 44 79 49 80 45 81 46 82 48 83 50 84 47 85
REMARK H PARENT 12 6 17 28 67 47 41 58
REMARK Flexibility Score: inf
ROOT
ATOM      1  C   UNL A   1      32.153  30.451  26.675  1.00  0.00     0.023 C 
ENDROOT
BRANCH   1   2
ATOM      2  C   UNL A   1      31.434  29.695  25.553  1.00  0.00     0.116 C 
BRANCH   2   3
ATOM      3  N   UNL A   1      32.211  29.691  24.325  1.00  0.00    -0.356 N 
ATOM      4  C   UNL A   1      33.272  28.917  23.951  1.00  0.00     0.220 C 
ATOM      5  O   UNL A   1      33.818  29.157  22.873  1.00  0.00    -0.275 OA
ATOM      6  H   UNL A   1      31.928  30.353  23.655  1.00  0.00     0.163 HD
BRANCH   4   7
ATOM      7  C   UNL A   1      33.774  27.791  24.844  1.00  0.00     0.103 C 
BRANCH   7   8
ATOM      8  C   UNL A   1      32.953  26.487  24.737  1.00  0.00     0.002 C 
ATOM      9  N   UNL A   1      33.178  23.612  24.712  1.00  0.00    -0.351 N 
ATOM     10  C   UNL A   1      32.884  24.250  23.451  1.00  0.00     0.118 C 
ATOM     11  C   UNL A   1      32.566  24.226  25.876  1.00  0.00     0.118 C 
ATOM     12  C   UNL A   1      33.370  25.684  23.502  1.00  0.00     0.025 C 
ATOM     13  C   UNL A   1      33.113  25.650  26.025  1.00  0.00     0.025 C 
BRANCH   9  14
ATOM     14  C   UNL A   1      34.091  22.579  24.810  1.00  0.00     0.215 A 
ATOM     15  C   UNL A   1      37.620  22.061  25.263  1.00  0.00     0.180 C 
ATOM     16  N   UNL A   1      36.225  21.738  25.012  1.00  0.00    -0.216 N 
ATOM     17  N   UNL A   1      35.368  22.806  24.935  1.00  0.00    -0.145 NA
ATOM     18  C   UNL A   1      35.852  20.399  24.916  1.00  0.00     0.346 A 
ATOM     19  N   UNL A   1      34.508  20.153  24.725  1.00  0.00    -0.259 N 
ATOM     20  O   UNL A   1      36.676  19.486  25.011  1.00  0.00    -0.246 OA
ATOM     21  C   UNL A   1      33.559  21.149  24.724  1.00  0.00     0.299 A 
ATOM     22  C   UNL A   1      34.040  18.795  24.550  1.00  0.00     0.159 C 
ATOM     23  O   UNL A   1      32.347  20.968  24.637  1.00  0.00    -0.265 OA
ENDBRANCH   9  14
ENDBRANCH   7   8
ENDBRANCH   4   7
ENDBRANCH   2   3
ENDBRANCH   1   2
BRANCH   1  24
ATOM     24  C   UNL A   1      31.744  31.903  26.839  1.00  0.00     0.023 C 
BRANCH  24  25
ATOM     25  C   UNL A   1      32.892  32.818  27.211  1.00  0.00     0.116 C 
BRANCH  25  26
ATOM     26  N   UNL A   1      32.456  34.149  27.622  1.00  0.00    -0.352 N 
ATOM     27  C   UNL A   1      32.979  34.966  28.601  1.00  0.00     0.251 C 
ATOM     28  H   UNL A   1      31.683  34.512  27.133  1.00  0.00     0.163 HD
ATOM     29  O   UNL A   1      32.434  36.016  28.904  1.00  0.00    -0.269 OA
BRANCH  27  30
ATOM     30  C   UNL A   1      34.195  34.517  29.306  1.00  0.00     0.039 A 
ATOM     31  C   UNL A   1      34.063  33.800  30.496  1.00  0.00     0.014 A 
ATOM     32  C   UNL A   1      35.447  34.709  28.720  1.00  0.00     0.014 A 
ATOM     33  C   UNL A   1      35.189  33.195  31.050  1.00  0.00     0.010 A 
ATOM     34  C   UNL A   1      36.539  34.008  29.206  1.00  0.00     0.010 A 
ATOM     35  C   UNL A   1      36.424  33.256  30.383  1.00  0.00    -0.014 A 
BRANCH  35  36
ATOM     36  C   UNL A   1      37.624  32.571  30.918  1.00  0.00     0.031 A 
ATOM     37  C   UNL A   1      38.228  33.045  32.210  1.00  0.00     0.074 A 
ATOM     38  C   UNL A   1      38.197  31.569  30.223  1.00  0.00     0.049 A 
ATOM     39  N   UNL A   1      39.297  32.618  32.828  1.00  0.00    -0.248 NA
ATOM     40  C   UNL A   1      37.564  34.180  32.878  1.00  0.00     0.031 C 
ATOM     41  C   UNL A   1      37.743  31.067  28.924  1.00  0.00     0.029 A 
ATOM     42  N   UNL A   1      39.286  30.789  30.517  1.00  0.00    -0.354 N 
ATOM     43  C   UNL A   1      39.440  33.438  33.938  1.00  0.00     0.074 A 
ATOM     44  C   UNL A   1      38.399  34.436  33.872  1.00  0.00     0.031 C 
ATOM     45  C   UNL A   1      38.515  30.029  28.560  1.00  0.00     0.029 A 
ATOM     46  C   UNL A   1      39.532  29.812  29.584  1.00  0.00     0.049 A 
ATOM     47  H   UNL A   1      39.838  30.918  31.322  1.00  0.00     0.167 HD
ATOM     48  C   UNL A   1      40.330  33.341  34.951  1.00  0.00     0.037 A 
ATOM     49  C   UNL A   1      40.465  28.841  29.568  1.00  0.00     0.037 A 
ATOM     50  C   UNL A   1      41.327  32.312  35.045  1.00  0.00     0.049 A 
ATOM     51  C   UNL A   1      41.430  28.736  30.717  1.00  0.00     0.074 A 
ATOM     52  C   UNL A   1      42.232  32.080  36.064  1.00  0.00     0.029 A 
ATOM     53  N   UNL A   1      41.535  31.332  34.087  1.00  0.00    -0.354 N 
ATOM     54  N   UNL A   1      41.513  29.480  31.794  1.00  0.00    -0.248 NA
ATOM     55  C   UNL A   1      42.426  27.659  30.652  1.00  0.00     0.031 C 
ATOM     56  C   UNL A   1      43.006  30.970  35.710  1.00  0.00     0.029 A 
ATOM     57  C   UNL A   1      42.562  30.497  34.486  1.00  0.00     0.049 A 
ATOM     58  H   UNL A   1      41.026  31.244  33.248  1.00  0.00     0.167 HD
ATOM     59  C   UNL A   1      42.555  28.950  32.543  1.00  0.00     0.074 A 
ATOM     60  C   UNL A   1      43.068  27.815  31.802  1.00  0.00     0.031 C 
ATOM     61  C   UNL A   1      43.046  29.368  33.733  1.00  0.00     0.037 A 
BRANCH  48  62
ATOM     62  C   UNL A   1      40.235  34.355  36.049  1.00  0.00     0.057 A 
ATOM     63  C   UNL A   1      39.426  34.140  37.174  1.00  0.00     0.134 A 
ATOM     64  C   UNL A   1      40.962  35.549  35.993  1.00  0.00     0.134 A 
ATOM     65  F   UNL A   1      38.688  33.024  37.276  1.00  0.00    -0.206 F 
ATOM     66  C   UNL A   1      39.324  35.089  38.191  1.00  0.00     0.040 A 
ATOM     67  C   UNL A   1      40.888  36.494  37.017  1.00  0.00     0.040 A 
ATOM     68  F   UNL A   1      41.754  35.816  34.943  1.00  0.00    -0.206 F 
ATOM     69  C   UNL A   1      40.063  36.268  38.117  1.00  0.00     0.006 A 
ENDBRANCH  48  62
BRANCH  49  70
ATOM     70  C   UNL A   1      40.487  27.852  28.463  1.00  0.00     0.057 A 
ATOM     71  C   UNL A   1      41.208  28.107  27.292  1.00  0.00     0.134 A 
ATOM     72  C   UNL A   1      39.810  26.630  28.554  1.00  0.00     0.134 A 
ATOM     73  F   UNL A   1      41.865  29.267  27.143  1.00  0.00    -0.206 F 
ATOM     74  C   UNL A   1      41.249  27.188  26.242  1.00  0.00     0.040 A 
ATOM     75  C   UNL A   1      39.856  25.694  27.519  1.00  0.00     0.040 A 
ATOM     76  F   UNL A   1      39.109  26.324  29.654  1.00  0.00    -0.206 F 
ATOM     77  C   UNL A   1      40.574  25.973  26.356  1.00  0.00     0.006 A 
ENDBRANCH  49  70
BRANCH  61  78
ATOM     78  C   UNL A   1      44.184  28.594  34.322  1.00  0.00     0.057 A 
ATOM     79  C   UNL A   1      45.512  28.995  34.134  1.00  0.00     0.134 A 
ATOM     80  C   UNL A   1      43.945  27.499  35.161  1.00  0.00     0.134 A 
ATOM     81  F   UNL A   1      45.802  30.032  33.334  1.00  0.00    -0.206 F 
ATOM     82  C   UNL A   1      46.565  28.329  34.759  1.00  0.00     0.040 A 
ATOM     83  C   UNL A   1      44.988  26.838  35.807  1.00  0.00     0.040 A 
ATOM     84  F   UNL A   1      42.692  27.076  35.388  1.00  0.00    -0.206 F 
ATOM     85  C   UNL A   1      46.304  27.253  35.607  1.00  0.00     0.006 A 
ENDBRANCH  61  78
ENDBRANCH  35  36
ENDBRANCH  27  30
ENDBRANCH  25  26
ENDBRANCH  24  25
ENDBRANCH   1  24
TORSDOF 13
ENDMDL
MODEL 3
REMARK VINA RESULT:     -12.0      1.293      1.959
REMARK SMILES Cn1nc(N2CCC(CC(=O)NCCCCNC(=O)c3ccc(-c4c5nc(c(-c6c(F)cccc6F)c6ccc([nH]6)c(-c6c(F)cccc6F)c6nc(c(-c7c(F)cccc7F)c7ccc4[nH]7)C=C6)C=C5)cc3)CC2)c(=O)n(C)c1=O
REMARK SMILES IDX 14 1 13 2 12 3 10 4 11 5 9 7 8 8 5 9 6 10 75 11 7 12 74 13
REMARK SMILES IDX 4 14 1 15 2 16 3 17 80 18 78 19 81 20 76 21 79 22 77 23
REMARK SMILES IDX 15 24 16 25 17 26 18 27 19 29 20 30 21 31 73 32 22 33 72 34
REMARK SMILES IDX 23 35 24 36 25 37 66 38 26 39 71 40 65 41 67 42 27 43 70 44
REMARK SMILES IDX 64 45 63 46 28 48 54 49 37 50 53 51 38 52 41 53 52 54 68 55
REMARK SMILES IDX 39 56 40 57 51 59 69 60 42 61 29 62 30 63 35 64 31 65 32 66
REMARK SMILES IDX 34 67 36 68 33 69 55 70 56 71 61 72 57 73 58 74 60 75 62 76
REMARK SMILES IDX 59 77 43 78 44 79 49 80 45 81 46 82 48 83 50 84 47 85
REMARK H PARENT 12 6 17 28 67 47 41 58
REMARK Flexibility Score: inf
ROOT
ATOM      1  C   UNL A   1      36.891  19.899  24.872  1.00  0.00     0.023 C 
ENDROOT
BRANCH   1   2
ATOM      2  C   UNL A   1      35.645  20.663  25.334  1.00  0.00     0.116 C 
BRANCH   2   3
ATOM      3  N   UNL A   1      34.444  19.854  25.210  1.00  0.00    -0.356 N 
ATOM      4  C   UNL A   1      33.129  20.195  25.350  1.00  0.00     0.220 C 
ATOM      5  O   UNL A   1      32.284  19.302  25.270  1.00  0.00    -0.275 OA
ATOM      6  H   UNL A   1      34.604  18.909  24.990  1.00  0.00     0.163 HD
BRANCH   4   7
ATOM      7  C   UNL A   1      32.716  21.637  25.607  1.00  0.00     0.103 C 
BRANCH   7   8
ATOM      8  C   UNL A   1      32.392  22.439  24.326  1.00  0.00     0.002 C 
ATOM      9  N   UNL A   1      31.739  25.074  23.355  1.00  0.00    -0.351 N 
ATOM     10  C   UNL A   1      30.667  24.108  23.377  1.00  0.00     0.118 C 
ATOM     11  C   UNL A   1      33.048  24.542  23.021  1.00  0.00     0.118 C 
ATOM     12  C   UNL A   1      30.988  23.043  24.407  1.00  0.00     0.025 C 
ATOM     13  C   UNL A   1      33.457  23.532  24.099  1.00  0.00     0.025 C 
BRANCH   9  14
ATOM     14  C   UNL A   1      31.550  26.382  23.762  1.00  0.00     0.215 A 
ATOM     15  C   UNL A   1      31.811  28.405  26.723  1.00  0.00     0.180 C 
ATOM     16  N   UNL A   1      31.499  28.050  25.348  1.00  0.00    -0.216 N 
ATOM     17  N   UNL A   1      31.717  26.740  25.003  1.00  0.00    -0.145 NA
ATOM     18  C   UNL A   1      31.056  29.047  24.480  1.00  0.00     0.346 A 
ATOM     19  N   UNL A   1      30.821  28.660  23.177  1.00  0.00    -0.259 N 
ATOM     20  O   UNL A   1      30.897  30.211  24.855  1.00  0.00    -0.246 OA
ATOM     21  C   UNL A   1      31.094  27.394  22.712  1.00  0.00     0.299 A 
ATOM     22  C   UNL A   1      30.298  29.614  22.224  1.00  0.00     0.159 C 
ATOM     23  O   UNL A   1      30.976  27.031  21.545  1.00  0.00    -0.265 OA
ENDBRANCH   9  14
ENDBRANCH   7   8
ENDBRANCH   4   7
ENDBRANCH   2   3
ENDBRANCH   1   2
BRANCH   1  24
ATOM     24  C   UNL A   1      38.172  20.710  24.846  1.00  0.00     0.023 C 
BRANCH  24  25
ATOM     25  C   UNL A   1      39.052  20.494  26.060  1.00  0.00     0.116 C 
BRANCH  25  26
ATOM     26  N   UNL A   1      40.090  19.492  25.847  1.00  0.00    -0.352 N 
ATOM     27  C   UNL A   1      41.454  19.611  26.011  1.00  0.00     0.251 C 
ATOM     28  H   UNL A   1      39.774  18.611  25.544  1.00  0.00     0.163 HD
ATOM     29  O   UNL A   1      42.210  18.709  25.687  1.00  0.00    -0.269 OA
BRANCH  27  30
ATOM     30  C   UNL A   1      41.981  20.879  26.550  1.00  0.00     0.039 A 
ATOM     31  C   UNL A   1      42.333  21.898  25.665  1.00  0.00     0.014 A 
ATOM     32  C   UNL A   1      42.012  21.086  27.930  1.00  0.00     0.014 A 
ATOM     33  C   UNL A   1      42.629  23.163  26.171  1.00  0.00     0.010 A 
ATOM     34  C   UNL A   1      42.187  22.370  28.421  1.00  0.00     0.010 A 
ATOM     35  C   UNL A   1      42.511  23.418  27.548  1.00  0.00    -0.014 A 
BRANCH  35  36
ATOM     36  C   UNL A   1      42.761  24.767  28.106  1.00  0.00     0.031 A 
ATOM     37  C   UNL A   1      44.162  25.162  28.480  1.00  0.00     0.074 A 
ATOM     38  C   UNL A   1      41.732  25.609  28.325  1.00  0.00     0.049 A 
ATOM     39  N   UNL A   1      44.590  26.272  29.022  1.00  0.00    -0.248 NA
ATOM     40  C   UNL A   1      45.219  24.160  28.252  1.00  0.00     0.031 C 
ATOM     41  C   UNL A   1      40.321  25.313  28.067  1.00  0.00     0.029 A 
ATOM     42  N   UNL A   1      41.717  26.891  28.811  1.00  0.00    -0.354 N 
ATOM     43  C   UNL A   1      45.952  26.092  29.213  1.00  0.00     0.074 A 
ATOM     44  C   UNL A   1      46.270  24.744  28.804  1.00  0.00     0.031 C 
ATOM     45  C   UNL A   1      39.585  26.401  28.347  1.00  0.00     0.029 A 
ATOM     46  C   UNL A   1      40.467  27.459  28.830  1.00  0.00     0.049 A 
ATOM     47  H   UNL A   1      42.527  27.360  29.118  1.00  0.00     0.167 HD
ATOM     48  C   UNL A   1      46.870  26.986  29.646  1.00  0.00     0.037 A 
ATOM     49  C   UNL A   1      40.082  28.700  29.182  1.00  0.00     0.037 A 
ATOM     50  C   UNL A   1      46.562  28.343  29.995  1.00  0.00     0.049 A 
ATOM     51  C   UNL A   1      41.122  29.686  29.637  1.00  0.00     0.074 A 
ATOM     52  C   UNL A   1      47.427  29.352  30.378  1.00  0.00     0.029 A 
ATOM     53  N   UNL A   1      45.285  28.885  29.987  1.00  0.00    -0.354 N 
ATOM     54  N   UNL A   1      42.418  29.523  29.751  1.00  0.00    -0.248 NA
ATOM     55  C   UNL A   1      40.649  31.027  30.008  1.00  0.00     0.031 C 
ATOM     56  C   UNL A   1      46.669  30.501  30.625  1.00  0.00     0.029 A 
ATOM     57  C   UNL A   1      45.337  30.213  30.368  1.00  0.00     0.049 A 
ATOM     58  H   UNL A   1      44.465  28.396  29.745  1.00  0.00     0.167 HD
ATOM     59  C   UNL A   1      42.918  30.742  30.189  1.00  0.00     0.074 A 
ATOM     60  C   UNL A   1      41.786  31.640  30.308  1.00  0.00     0.031 C 
ATOM     61  C   UNL A   1      44.197  31.086  30.469  1.00  0.00     0.037 A 
BRANCH  48  62
ATOM     62  C   UNL A   1      48.293  26.525  29.726  1.00  0.00     0.057 A 
ATOM     63  C   UNL A   1      49.184  26.715  28.660  1.00  0.00     0.134 A 
ATOM     64  C   UNL A   1      48.784  25.900  30.878  1.00  0.00     0.134 A 
ATOM     65  F   UNL A   1      48.768  27.290  27.522  1.00  0.00    -0.206 F 
ATOM     66  C   UNL A   1      50.506  26.275  28.728  1.00  0.00     0.040 A 
ATOM     67  C   UNL A   1      50.111  25.478  30.966  1.00  0.00     0.040 A 
ATOM     68  F   UNL A   1      47.983  25.687  31.932  1.00  0.00    -0.206 F 
ATOM     69  C   UNL A   1      50.974  25.659  29.887  1.00  0.00     0.006 A 
ENDBRANCH  48  62
BRANCH  49  70
ATOM     70  C   UNL A   1      38.659  29.100  29.052  1.00  0.00     0.057 A 
ATOM     71  C   UNL A   1      37.794  29.024  30.149  1.00  0.00     0.134 A 
ATOM     72  C   UNL A   1      38.135  29.580  27.847  1.00  0.00     0.134 A 
ATOM     73  F   UNL A   1      38.236  28.559  31.327  1.00  0.00    -0.206 F 
ATOM     74  C   UNL A   1      36.454  29.402  30.052  1.00  0.00     0.040 A 
ATOM     75  C   UNL A   1      36.801  29.978  27.739  1.00  0.00     0.040 A 
ATOM     76  F   UNL A   1      38.915  29.684  26.762  1.00  0.00    -0.206 F 
ATOM     77  C   UNL A   1      35.954  29.885  28.844  1.00  0.00     0.006 A 
ENDBRANCH  49  70
BRANCH  61  78
ATOM     78  C   UNL A   1      44.453  32.491  30.919  1.00  0.00     0.057 A 
ATOM     79  C   UNL A   1      44.655  33.526  29.999  1.00  0.00     0.134 A 
ATOM     80  C   UNL A   1      44.401  32.826  32.278  1.00  0.00     0.134 A 
ATOM     81  F   UNL A   1      44.723  33.263  28.685  1.00  0.00    -0.206 F 
ATOM     82  C   UNL A   1      44.800  34.848  30.415  1.00  0.00     0.040 A 
ATOM     83  C   UNL A   1      44.524  34.148  32.705  1.00  0.00     0.040 A 
ATOM     84  F   UNL A   1      44.199  31.878  33.205  1.00  0.00    -0.206 F 
ATOM     85  C   UNL A   1      44.724  35.164  31.772  1.00  0.00     0.006 A 
ENDBRANCH  61  78
ENDBRANCH  35  36
ENDBRANCH  27  30
ENDBRANCH  25  26
ENDBRANCH  24  25
ENDBRANCH   1  24
TORSDOF 13
ENDMDL
