MODEL 1
REMARK VINA RESULT:     -13.2      0.000      0.000
REMARK SMILES Cc1c(C(=O)N[C@H]2C=C[C@@H](C(=O)NCCCCNC(=O)c3ccc(-c4c5nc(c(-c6c(F)cccc6F)c6ccc([nH]6)c(-c6c(F)cccc6F)c6nc(c(-c7c(F)cccc7F)c7ccc4[nH]7)C=C6)C=C5)cc3)C2)oc2ccccc12
REMARK SMILES IDX 15 1 14 2 13 3 11 4 12 5 10 7 7 8 8 9 75 10 9 11 6 12 4 13
REMARK SMILES IDX 5 14 3 16 1 17 2 18 82 19 76 20 77 21 81 22 78 23 80 24
REMARK SMILES IDX 79 25 16 26 17 27 18 28 19 29 20 31 21 32 22 33 74 34 23 35
REMARK SMILES IDX 73 36 24 37 25 38 26 39 67 40 27 41 72 42 66 43 68 44 28 45
REMARK SMILES IDX 71 46 65 47 64 48 29 50 55 51 38 52 54 53 39 54 42 55 53 56
REMARK SMILES IDX 69 57 40 58 41 59 52 61 70 62 43 63 30 64 31 65 36 66 32 67
REMARK SMILES IDX 33 68 35 69 37 70 34 71 56 72 57 73 62 74 58 75 59 76 61 77
REMARK SMILES IDX 63 78 60 79 44 80 45 81 50 82 46 83 47 84 49 85 51 86 48 87
REMARK H PARENT 13 6 6 15 18 30 68 49 42 60
REMARK Flexibility Score: inf
ROOT
ATOM      1  C   UNL A   1      31.881  30.476  26.830  1.00  0.00     0.023 C 
ENDROOT
BRANCH   1   2
ATOM      2  C   UNL A   1      32.332  29.939  25.483  1.00  0.00     0.116 C 
BRANCH   2   3
ATOM      3  N   UNL A   1      31.243  29.917  24.533  1.00  0.00    -0.356 N 
ATOM      4  C   UNL A   1      30.687  28.855  23.894  1.00  0.00     0.227 C 
ATOM      5  O   UNL A   1      29.810  29.070  23.055  1.00  0.00    -0.274 OA
ATOM      6  H   UNL A   1      30.848  30.794  24.319  1.00  0.00     0.163 HD
BRANCH   4   7
ATOM      7  C   UNL A   1      31.152  27.435  24.184  1.00  0.00     0.103 C 
ATOM      8  C   UNL A   1      30.652  25.373  25.234  1.00  0.00     0.106 C 
ATOM      9  C   UNL A   1      30.282  25.270  23.802  1.00  0.00    -0.006 C 
ATOM     10  C   UNL A   1      30.602  26.873  25.496  1.00  0.00     0.047 C 
ATOM     11  C   UNL A   1      30.702  26.388  23.184  1.00  0.00    -0.016 C 
BRANCH   8  12
ATOM     12  N   UNL A   1      29.944  24.600  26.176  1.00  0.00    -0.343 N 
ATOM     13  C   UNL A   1      30.380  23.398  26.706  1.00  0.00     0.287 C 
ATOM     14  O   UNL A   1      29.643  22.955  27.596  1.00  0.00    -0.266 OA
ATOM     15  H   UNL A   1      29.072  24.942  26.478  1.00  0.00     0.164 HD
BRANCH  13  16
ATOM     16  C   UNL A   1      31.596  22.671  26.262  1.00  0.00     0.195 A 
ATOM     17  C   UNL A   1      33.963  23.939  26.391  1.00  0.00     0.049 C 
ATOM     18  C   UNL A   1      32.993  22.840  26.112  1.00  0.00     0.008 A 
ATOM     19  C   UNL A   1      33.500  21.628  25.545  1.00  0.00     0.024 A 
ATOM     20  O   UNL A   1      31.299  21.384  25.830  1.00  0.00    -0.451 OA
ATOM     21  C   UNL A   1      32.428  20.776  25.403  1.00  0.00     0.135 A 
ATOM     22  C   UNL A   1      34.777  21.187  25.144  1.00  0.00     0.012 A 
ATOM     23  C   UNL A   1      32.526  19.487  24.890  1.00  0.00     0.048 A 
ATOM     24  C   UNL A   1      34.915  19.901  24.626  1.00  0.00     0.001 A 
ATOM     25  C   UNL A   1      33.806  19.065  24.502  1.00  0.00     0.004 A 
ENDBRANCH  13  16
ENDBRANCH   8  12
ENDBRANCH   4   7
ENDBRANCH   2   3
ENDBRANCH   1   2
BRANCH   1  26
ATOM     26  C   UNL A   1      31.626  31.976  26.824  1.00  0.00     0.023 C 
BRANCH  26  27
ATOM     27  C   UNL A   1      32.818  32.808  27.277  1.00  0.00     0.116 C 
BRANCH  27  28
ATOM     28  N   UNL A   1      32.455  34.177  27.626  1.00  0.00    -0.352 N 
ATOM     29  C   UNL A   1      33.015  34.998  28.575  1.00  0.00     0.251 C 
ATOM     30  H   UNL A   1      31.710  34.564  27.112  1.00  0.00     0.163 HD
ATOM     31  O   UNL A   1      32.520  36.076  28.841  1.00  0.00    -0.269 OA
BRANCH  29  32
ATOM     32  C   UNL A   1      34.207  34.512  29.290  1.00  0.00     0.039 A 
ATOM     33  C   UNL A   1      34.029  33.814  30.482  1.00  0.00     0.014 A 
ATOM     34  C   UNL A   1      35.478  34.675  28.731  1.00  0.00     0.014 A 
ATOM     35  C   UNL A   1      35.133  33.219  31.089  1.00  0.00     0.010 A 
ATOM     36  C   UNL A   1      36.558  34.004  29.287  1.00  0.00     0.010 A 
ATOM     37  C   UNL A   1      36.397  33.276  30.474  1.00  0.00    -0.014 A 
BRANCH  37  38
ATOM     38  C   UNL A   1      37.554  32.573  31.073  1.00  0.00     0.031 A 
ATOM     39  C   UNL A   1      38.129  33.045  32.379  1.00  0.00     0.074 A 
ATOM     40  C   UNL A   1      38.096  31.522  30.426  1.00  0.00     0.049 A 
ATOM     41  N   UNL A   1      39.133  32.557  33.061  1.00  0.00    -0.248 NA
ATOM     42  C   UNL A   1      37.515  34.238  32.987  1.00  0.00     0.031 C 
ATOM     43  C   UNL A   1      37.662  31.013  29.122  1.00  0.00     0.029 A 
ATOM     44  N   UNL A   1      39.126  30.691  30.778  1.00  0.00    -0.354 N 
ATOM     45  C   UNL A   1      39.259  33.371  34.178  1.00  0.00     0.074 A 
ATOM     46  C   UNL A   1      38.286  34.431  34.046  1.00  0.00     0.031 C 
ATOM     47  C   UNL A   1      38.395  29.933  28.805  1.00  0.00     0.029 A 
ATOM     48  C   UNL A   1      39.373  29.697  29.861  1.00  0.00     0.049 A 
ATOM     49  H   UNL A   1      39.642  30.794  31.611  1.00  0.00     0.167 HD
ATOM     50  C   UNL A   1      40.088  33.227  35.238  1.00  0.00     0.037 A 
ATOM     51  C   UNL A   1      40.285  28.708  29.875  1.00  0.00     0.037 A 
ATOM     52  C   UNL A   1      41.048  32.164  35.371  1.00  0.00     0.049 A 
ATOM     53  C   UNL A   1      41.204  28.585  31.060  1.00  0.00     0.074 A 
ATOM     54  C   UNL A   1      41.916  31.914  36.418  1.00  0.00     0.029 A 
ATOM     55  N   UNL A   1      41.262  31.171  34.426  1.00  0.00    -0.354 N 
ATOM     56  N   UNL A   1      41.265  29.322  32.142  1.00  0.00    -0.248 NA
ATOM     57  C   UNL A   1      42.176  27.483  31.030  1.00  0.00     0.031 C 
ATOM     58  C   UNL A   1      42.685  30.792  36.090  1.00  0.00     0.029 A 
ATOM     59  C   UNL A   1      42.259  30.315  34.861  1.00  0.00     0.049 A 
ATOM     60  H   UNL A   1      40.777  31.089  33.574  1.00  0.00     0.167 HD
ATOM     61  C   UNL A   1      42.257  28.757  32.932  1.00  0.00     0.074 A 
ATOM     62  C   UNL A   1      42.750  27.598  32.217  1.00  0.00     0.031 C 
ATOM     63  C   UNL A   1      42.726  29.161  34.138  1.00  0.00     0.037 A 
BRANCH  50  64
ATOM     64  C   UNL A   1      39.973  34.226  36.351  1.00  0.00     0.057 A 
ATOM     65  C   UNL A   1      40.659  35.448  36.312  1.00  0.00     0.134 A 
ATOM     66  C   UNL A   1      39.128  33.994  37.443  1.00  0.00     0.134 A 
ATOM     67  F   UNL A   1      41.497  35.725  35.303  1.00  0.00    -0.206 F 
ATOM     68  C   UNL A   1      40.515  36.398  37.324  1.00  0.00     0.040 A 
ATOM     69  C   UNL A   1      38.956  34.948  38.448  1.00  0.00     0.040 A 
ATOM     70  F   UNL A   1      38.443  32.845  37.543  1.00  0.00    -0.206 F 
ATOM     71  C   UNL A   1      39.653  36.153  38.390  1.00  0.00     0.006 A 
ENDBRANCH  50  64
BRANCH  51  72
ATOM     72  C   UNL A   1      40.377  27.747  28.745  1.00  0.00     0.057 A 
ATOM     73  C   UNL A   1      41.151  28.028  27.611  1.00  0.00     0.134 A 
ATOM     74  C   UNL A   1      39.653  26.549  28.746  1.00  0.00     0.134 A 
ATOM     75  F   UNL A   1      41.856  29.166  27.542  1.00  0.00    -0.206 F 
ATOM     76  C   UNL A   1      41.166  27.176  26.505  1.00  0.00     0.040 A 
ATOM     77  C   UNL A   1      39.684  25.672  27.660  1.00  0.00     0.040 A 
ATOM     78  F   UNL A   1      38.901  26.212  29.805  1.00  0.00    -0.206 F 
ATOM     79  C   UNL A   1      40.431  25.994  26.529  1.00  0.00     0.006 A 
ENDBRANCH  51  72
BRANCH  63  80
ATOM     80  C   UNL A   1      43.798  28.320  34.769  1.00  0.00     0.057 A 
ATOM     81  C   UNL A   1      43.494  27.230  35.593  1.00  0.00     0.134 A 
ATOM     82  C   UNL A   1      45.150  28.597  34.536  1.00  0.00     0.134 A 
ATOM     83  F   UNL A   1      42.218  26.918  35.867  1.00  0.00    -0.206 F 
ATOM     84  C   UNL A   1      44.498  26.469  36.196  1.00  0.00     0.040 A 
ATOM     85  C   UNL A   1      46.162  27.825  35.105  1.00  0.00     0.040 A 
ATOM     86  F   UNL A   1      45.511  29.620  33.745  1.00  0.00    -0.206 F 
ATOM     87  C   UNL A   1      45.837  26.763  35.946  1.00  0.00     0.006 A 
ENDBRANCH  63  80
ENDBRANCH  37  38
ENDBRANCH  29  32
ENDBRANCH  27  28
ENDBRANCH  26  27
ENDBRANCH   1  26
TORSDOF 13
ENDMDL
MODEL 2
REMARK VINA RESULT:     -13.2      0.243      1.312
REMARK SMILES Cc1c(C(=O)N[C@H]2C=C[C@@H](C(=O)NCCCCNC(=O)c3ccc(-c4c5nc(c(-c6c(F)cccc6F)c6ccc([nH]6)c(-c6c(F)cccc6F)c6nc(c(-c7c(F)cccc7F)c7ccc4[nH]7)C=C6)C=C5)cc3)C2)oc2ccccc12
REMARK SMILES IDX 15 1 14 2 13 3 11 4 12 5 10 7 7 8 8 9 75 10 9 11 6 12 4 13
REMARK SMILES IDX 5 14 3 16 1 17 2 18 82 19 76 20 77 21 81 22 78 23 80 24
REMARK SMILES IDX 79 25 16 26 17 27 18 28 19 29 20 31 21 32 22 33 74 34 23 35
REMARK SMILES IDX 73 36 24 37 25 38 26 39 67 40 27 41 72 42 66 43 68 44 28 45
REMARK SMILES IDX 71 46 65 47 64 48 29 50 55 51 38 52 54 53 39 54 42 55 53 56
REMARK SMILES IDX 69 57 40 58 41 59 52 61 70 62 43 63 30 64 31 65 36 66 32 67
REMARK SMILES IDX 33 68 35 69 37 70 34 71 56 72 57 73 62 74 58 75 59 76 61 77
REMARK SMILES IDX 63 78 60 79 44 80 45 81 50 82 46 83 47 84 49 85 51 86 48 87
REMARK H PARENT 13 6 6 15 18 30 68 49 42 60
REMARK Flexibility Score: inf
ROOT
ATOM      1  C   UNL A   1      31.814  30.503  26.879  1.00  0.00     0.023 C 
ENDROOT
BRANCH   1   2
ATOM      2  C   UNL A   1      32.293  29.906  25.567  1.00  0.00     0.116 C 
BRANCH   2   3
ATOM      3  N   UNL A   1      31.240  29.900  24.576  1.00  0.00    -0.356 N 
ATOM      4  C   UNL A   1      30.711  28.848  23.898  1.00  0.00     0.227 C 
ATOM      5  O   UNL A   1      29.865  29.076  23.031  1.00  0.00    -0.274 OA
ATOM      6  H   UNL A   1      30.852  30.780  24.363  1.00  0.00     0.163 HD
BRANCH   4   7
ATOM      7  C   UNL A   1      31.167  27.423  24.182  1.00  0.00     0.103 C 
ATOM      8  C   UNL A   1      30.660  25.364  25.234  1.00  0.00     0.106 C 
ATOM      9  C   UNL A   1      30.275  25.267  23.805  1.00  0.00    -0.006 C 
ATOM     10  C   UNL A   1      30.625  26.864  25.499  1.00  0.00     0.047 C 
ATOM     11  C   UNL A   1      30.698  26.382  23.185  1.00  0.00    -0.016 C 
BRANCH   8  12
ATOM     12  N   UNL A   1      29.955  24.596  26.181  1.00  0.00    -0.343 N 
ATOM     13  C   UNL A   1      30.394  23.397  26.718  1.00  0.00     0.287 C 
ATOM     14  O   UNL A   1      29.659  22.958  27.612  1.00  0.00    -0.266 OA
ATOM     15  H   UNL A   1      29.083  24.938  26.483  1.00  0.00     0.164 HD
BRANCH  13  16
ATOM     16  C   UNL A   1      31.610  22.670  26.276  1.00  0.00     0.195 A 
ATOM     17  C   UNL A   1      33.985  23.914  26.467  1.00  0.00     0.049 C 
ATOM     18  C   UNL A   1      33.010  22.830  26.150  1.00  0.00     0.008 A 
ATOM     19  C   UNL A   1      33.516  21.626  25.564  1.00  0.00     0.024 A 
ATOM     20  O   UNL A   1      31.309  21.395  25.812  1.00  0.00    -0.451 OA
ATOM     21  C   UNL A   1      32.438  20.787  25.388  1.00  0.00     0.135 A 
ATOM     22  C   UNL A   1      34.795  21.183  25.173  1.00  0.00     0.012 A 
ATOM     23  C   UNL A   1      32.534  19.508  24.848  1.00  0.00     0.048 A 
ATOM     24  C   UNL A   1      34.930  19.908  24.628  1.00  0.00     0.001 A 
ATOM     25  C   UNL A   1      33.816  19.084  24.470  1.00  0.00     0.004 A 
ENDBRANCH  13  16
ENDBRANCH   8  12
ENDBRANCH   4   7
ENDBRANCH   2   3
ENDBRANCH   1   2
BRANCH   1  26
ATOM     26  C   UNL A   1      31.561  32.002  26.800  1.00  0.00     0.023 C 
BRANCH  26  27
ATOM     27  C   UNL A   1      32.742  32.852  27.251  1.00  0.00     0.116 C 
BRANCH  27  28
ATOM     28  N   UNL A   1      32.354  34.204  27.633  1.00  0.00    -0.352 N 
ATOM     29  C   UNL A   1      32.912  35.020  28.587  1.00  0.00     0.251 C 
ATOM     30  H   UNL A   1      31.590  34.583  27.142  1.00  0.00     0.163 HD
ATOM     31  O   UNL A   1      32.398  36.081  28.884  1.00  0.00    -0.269 OA
BRANCH  29  32
ATOM     32  C   UNL A   1      34.130  34.549  29.270  1.00  0.00     0.039 A 
ATOM     33  C   UNL A   1      33.991  33.828  30.454  1.00  0.00     0.014 A 
ATOM     34  C   UNL A   1      35.385  34.748  28.688  1.00  0.00     0.014 A 
ATOM     35  C   UNL A   1      35.120  33.249  31.028  1.00  0.00     0.010 A 
ATOM     36  C   UNL A   1      36.491  34.093  29.210  1.00  0.00     0.010 A 
ATOM     37  C   UNL A   1      36.370  33.343  30.388  1.00  0.00    -0.014 A 
BRANCH  37  38
ATOM     38  C   UNL A   1      37.554  32.656  30.951  1.00  0.00     0.031 A 
ATOM     39  C   UNL A   1      38.175  33.149  32.229  1.00  0.00     0.074 A 
ATOM     40  C   UNL A   1      38.080  31.601  30.298  1.00  0.00     0.049 A 
ATOM     41  N   UNL A   1      39.207  32.677  32.879  1.00  0.00    -0.248 NA
ATOM     42  C   UNL A   1      37.574  34.345  32.845  1.00  0.00     0.031 C 
ATOM     43  C   UNL A   1      37.601  31.072  29.018  1.00  0.00     0.029 A 
ATOM     44  N   UNL A   1      39.129  30.781  30.621  1.00  0.00    -0.354 N 
ATOM     45  C   UNL A   1      39.369  33.506  33.980  1.00  0.00     0.074 A 
ATOM     46  C   UNL A   1      38.383  34.557  33.872  1.00  0.00     0.031 C 
ATOM     47  C   UNL A   1      38.329  29.994  28.686  1.00  0.00     0.029 A 
ATOM     48  C   UNL A   1      39.348  29.778  29.707  1.00  0.00     0.049 A 
ATOM     49  H   UNL A   1      39.675  30.899  31.432  1.00  0.00     0.167 HD
ATOM     50  C   UNL A   1      40.239  33.382  35.010  1.00  0.00     0.037 A 
ATOM     51  C   UNL A   1      40.268  28.796  29.699  1.00  0.00     0.037 A 
ATOM     52  C   UNL A   1      41.211  32.327  35.120  1.00  0.00     0.049 A 
ATOM     53  C   UNL A   1      41.232  28.695  30.850  1.00  0.00     0.074 A 
ATOM     54  C   UNL A   1      42.120  32.096  36.136  1.00  0.00     0.029 A 
ATOM     55  N   UNL A   1      41.397  31.324  34.179  1.00  0.00    -0.354 N 
ATOM     56  N   UNL A   1      41.328  29.446  31.920  1.00  0.00    -0.248 NA
ATOM     57  C   UNL A   1      42.211  27.599  30.797  1.00  0.00     0.031 C 
ATOM     58  C   UNL A   1      42.884  30.977  35.793  1.00  0.00     0.029 A 
ATOM     59  C   UNL A   1      42.416  30.481  34.587  1.00  0.00     0.049 A 
ATOM     60  H   UNL A   1      40.881  31.227  33.347  1.00  0.00     0.167 HD
ATOM     61  C   UNL A   1      42.354  28.899  32.679  1.00  0.00     0.074 A 
ATOM     62  C   UNL A   1      42.828  27.734  31.960  1.00  0.00     0.031 C 
ATOM     63  C   UNL A   1      42.865  29.322  33.861  1.00  0.00     0.037 A 
BRANCH  50  64
ATOM     64  C   UNL A   1      40.158  34.393  36.114  1.00  0.00     0.057 A 
ATOM     65  C   UNL A   1      39.323  34.201  37.224  1.00  0.00     0.134 A 
ATOM     66  C   UNL A   1      40.961  35.541  36.101  1.00  0.00     0.134 A 
ATOM     67  F   UNL A   1      38.517  33.131  37.290  1.00  0.00    -0.206 F 
ATOM     68  C   UNL A   1      39.283  35.117  38.275  1.00  0.00     0.040 A 
ATOM     69  C   UNL A   1      40.948  36.451  37.159  1.00  0.00     0.040 A 
ATOM     70  F   UNL A   1      41.782  35.786  35.069  1.00  0.00    -0.206 F 
ATOM     71  C   UNL A   1      40.106  36.241  38.249  1.00  0.00     0.006 A 
ENDBRANCH  50  64
BRANCH  51  72
ATOM     72  C   UNL A   1      40.325  27.821  28.579  1.00  0.00     0.057 A 
ATOM     73  C   UNL A   1      39.657  26.592  28.649  1.00  0.00     0.134 A 
ATOM     74  C   UNL A   1      41.091  28.070  27.434  1.00  0.00     0.134 A 
ATOM     75  F   UNL A   1      38.919  26.286  29.726  1.00  0.00    -0.206 F 
ATOM     76  C   UNL A   1      39.784  25.630  27.644  1.00  0.00     0.040 A 
ATOM     77  C   UNL A   1      41.201  27.131  26.407  1.00  0.00     0.040 A 
ATOM     78  F   UNL A   1      41.748  29.232  27.297  1.00  0.00    -0.206 F 
ATOM     79  C   UNL A   1      40.558  25.900  26.519  1.00  0.00     0.006 A 
ENDBRANCH  51  72
BRANCH  63  80
ATOM     80  C   UNL A   1      43.966  28.496  34.461  1.00  0.00     0.057 A 
ATOM     81  C   UNL A   1      43.701  27.401  35.293  1.00  0.00     0.134 A 
ATOM     82  C   UNL A   1      45.307  28.793  34.191  1.00  0.00     0.134 A 
ATOM     83  F   UNL A   1      42.438  27.070  35.602  1.00  0.00    -0.206 F 
ATOM     84  C   UNL A   1      44.733  26.655  35.867  1.00  0.00     0.040 A 
ATOM     85  C   UNL A   1      46.346  28.036  34.731  1.00  0.00     0.040 A 
ATOM     86  F   UNL A   1      45.630  29.822  33.391  1.00  0.00    -0.206 F 
ATOM     87  C   UNL A   1      46.060  26.969  35.581  1.00  0.00     0.006 A 
ENDBRANCH  63  80
ENDBRANCH  37  38
ENDBRANCH  29  32
ENDBRANCH  27  28
ENDBRANCH  26  27
ENDBRANCH   1  26
TORSDOF 13
ENDMDL
MODEL 3
REMARK VINA RESULT:     -13.1      5.104     10.458
REMARK SMILES Cc1c(C(=O)N[C@H]2C=C[C@@H](C(=O)NCCCCNC(=O)c3ccc(-c4c5nc(c(-c6c(F)cccc6F)c6ccc([nH]6)c(-c6c(F)cccc6F)c6nc(c(-c7c(F)cccc7F)c7ccc4[nH]7)C=C6)C=C5)cc3)C2)oc2ccccc12
REMARK SMILES IDX 15 1 14 2 13 3 11 4 12 5 10 7 7 8 8 9 75 10 9 11 6 12 4 13
REMARK SMILES IDX 5 14 3 16 1 17 2 18 82 19 76 20 77 21 81 22 78 23 80 24
REMARK SMILES IDX 79 25 16 26 17 27 18 28 19 29 20 31 21 32 22 33 74 34 23 35
REMARK SMILES IDX 73 36 24 37 25 38 26 39 67 40 27 41 72 42 66 43 68 44 28 45
REMARK SMILES IDX 71 46 65 47 64 48 29 50 55 51 38 52 54 53 39 54 42 55 53 56
REMARK SMILES IDX 69 57 40 58 41 59 52 61 70 62 43 63 30 64 31 65 36 66 32 67
REMARK SMILES IDX 33 68 35 69 37 70 34 71 56 72 57 73 62 74 58 75 59 76 61 77
REMARK SMILES IDX 63 78 60 79 44 80 45 81 50 82 46 83 47 84 49 85 51 86 48 87
REMARK H PARENT 13 6 6 15 18 30 68 49 42 60
REMARK Flexibility Score: inf
ROOT
ATOM      1  C   UNL A   1      37.142  21.215  24.703  1.00  0.00     0.023 C 
ENDROOT
BRANCH   1   2
ATOM      2  C   UNL A   1      36.040  21.449  25.722  1.00  0.00     0.116 C 
BRANCH   2   3
ATOM      3  N   UNL A   1      34.931  20.544  25.515  1.00  0.00    -0.356 N 
ATOM      4  C   UNL A   1      33.665  20.824  25.110  1.00  0.00     0.227 C 
ATOM      5  O   UNL A   1      32.845  19.904  25.074  1.00  0.00    -0.274 OA
ATOM      6  H   UNL A   1      35.120  19.594  25.692  1.00  0.00     0.163 HD
BRANCH   4   7
ATOM      7  C   UNL A   1      33.258  22.242  24.734  1.00  0.00     0.103 C 
ATOM      8  C   UNL A   1      32.776  23.754  22.977  1.00  0.00     0.106 C 
ATOM      9  C   UNL A   1      31.495  23.210  23.491  1.00  0.00    -0.006 C 
ATOM     10  C   UNL A   1      33.786  22.683  23.368  1.00  0.00     0.047 C 
ATOM     11  C   UNL A   1      31.767  22.468  24.579  1.00  0.00    -0.016 C 
BRANCH   8  12
ATOM     12  N   UNL A   1      32.852  24.153  21.628  1.00  0.00    -0.343 N 
ATOM     13  C   UNL A   1      32.683  25.449  21.171  1.00  0.00     0.287 C 
ATOM     14  O   UNL A   1      32.903  25.578  19.960  1.00  0.00    -0.266 OA
ATOM     15  H   UNL A   1      33.038  23.455  20.959  1.00  0.00     0.164 HD
BRANCH  13  16
ATOM     16  C   UNL A   1      32.262  26.593  22.018  1.00  0.00     0.195 A 
ATOM     17  C   UNL A   1      33.892  27.386  24.003  1.00  0.00     0.049 C 
ATOM     18  C   UNL A   1      32.687  27.367  23.123  1.00  0.00     0.008 A 
ATOM     19  C   UNL A   1      31.649  28.315  23.391  1.00  0.00     0.024 A 
ATOM     20  O   UNL A   1      31.028  27.098  21.626  1.00  0.00    -0.451 OA
ATOM     21  C   UNL A   1      30.670  28.111  22.445  1.00  0.00     0.135 A 
ATOM     22  C   UNL A   1      31.464  29.327  24.354  1.00  0.00     0.012 A 
ATOM     23  C   UNL A   1      29.497  28.855  22.372  1.00  0.00     0.048 A 
ATOM     24  C   UNL A   1      30.301  30.093  24.314  1.00  0.00     0.001 A 
ATOM     25  C   UNL A   1      29.334  29.860  23.337  1.00  0.00     0.004 A 
ENDBRANCH  13  16
ENDBRANCH   8  12
ENDBRANCH   4   7
ENDBRANCH   2   3
ENDBRANCH   1   2
BRANCH   1  26
ATOM     26  C   UNL A   1      37.965  19.965  24.983  1.00  0.00     0.023 C 
BRANCH  26  27
ATOM     27  C   UNL A   1      39.186  20.213  25.858  1.00  0.00     0.116 C 
BRANCH  27  28
ATOM     28  N   UNL A   1      40.160  19.130  25.791  1.00  0.00    -0.352 N 
ATOM     29  C   UNL A   1      41.522  19.188  25.963  1.00  0.00     0.251 C 
ATOM     30  H   UNL A   1      39.793  18.237  25.597  1.00  0.00     0.163 HD
ATOM     31  O   UNL A   1      42.223  18.218  25.751  1.00  0.00    -0.269 OA
BRANCH  29  32
ATOM     32  C   UNL A   1      42.110  20.476  26.371  1.00  0.00     0.039 A 
ATOM     33  C   UNL A   1      42.483  21.380  25.379  1.00  0.00     0.014 A 
ATOM     34  C   UNL A   1      42.205  20.809  27.725  1.00  0.00     0.014 A 
ATOM     35  C   UNL A   1      42.899  22.656  25.751  1.00  0.00     0.010 A 
ATOM     36  C   UNL A   1      42.529  22.108  28.087  1.00  0.00     0.010 A 
ATOM     37  C   UNL A   1      42.885  23.042  27.104  1.00  0.00    -0.014 A 
BRANCH  37  38
ATOM     38  C   UNL A   1      43.244  24.425  27.493  1.00  0.00     0.031 A 
ATOM     39  C   UNL A   1      44.680  24.868  27.458  1.00  0.00     0.074 A 
ATOM     40  C   UNL A   1      42.276  25.270  27.898  1.00  0.00     0.049 A 
ATOM     41  N   UNL A   1      45.188  26.037  27.755  1.00  0.00    -0.248 NA
ATOM     42  C   UNL A   1      45.681  23.863  27.062  1.00  0.00     0.031 C 
ATOM     43  C   UNL A   1      40.856  24.932  28.032  1.00  0.00     0.029 A 
ATOM     44  N   UNL A   1      42.337  26.589  28.266  1.00  0.00    -0.354 N 
ATOM     45  C   UNL A   1      46.558  25.909  27.570  1.00  0.00     0.074 A 
ATOM     46  C   UNL A   1      46.814  24.531  27.213  1.00  0.00     0.031 C 
ATOM     47  C   UNL A   1      40.177  26.025  28.414  1.00  0.00     0.029 A 
ATOM     48  C   UNL A   1      41.115  27.129  28.588  1.00  0.00     0.049 A 
ATOM     49  H   UNL A   1      43.177  27.102  28.296  1.00  0.00     0.167 HD
ATOM     50  C   UNL A   1      47.514  26.863  27.654  1.00  0.00     0.037 A 
ATOM     51  C   UNL A   1      40.792  28.376  28.979  1.00  0.00     0.037 A 
ATOM     52  C   UNL A   1      47.254  28.235  27.998  1.00  0.00     0.049 A 
ATOM     53  C   UNL A   1      41.880  29.410  29.079  1.00  0.00     0.074 A 
ATOM     54  C   UNL A   1      48.149  29.286  28.084  1.00  0.00     0.029 A 
ATOM     55  N   UNL A   1      46.003  28.747  28.309  1.00  0.00    -0.354 N 
ATOM     56  N   UNL A   1      43.163  29.290  28.833  1.00  0.00    -0.248 NA
ATOM     57  C   UNL A   1      41.473  30.758  29.502  1.00  0.00     0.031 C 
ATOM     58  C   UNL A   1      47.447  30.426  28.486  1.00  0.00     0.029 A 
ATOM     59  C   UNL A   1      46.106  30.097  28.600  1.00  0.00     0.049 A 
ATOM     60  H   UNL A   1      45.167  28.228  28.320  1.00  0.00     0.167 HD
ATOM     61  C   UNL A   1      43.709  30.550  29.042  1.00  0.00     0.074 A 
ATOM     62  C   UNL A   1      42.613  31.425  29.405  1.00  0.00     0.031 C 
ATOM     63  C   UNL A   1      45.001  30.950  28.949  1.00  0.00     0.037 A 
BRANCH  50  64
ATOM     64  C   UNL A   1      48.925  26.463  27.340  1.00  0.00     0.057 A 
ATOM     65  C   UNL A   1      49.803  26.029  28.343  1.00  0.00     0.134 A 
ATOM     66  C   UNL A   1      49.395  26.453  26.021  1.00  0.00     0.134 A 
ATOM     67  F   UNL A   1      49.421  26.029  29.628  1.00  0.00    -0.206 F 
ATOM     68  C   UNL A   1      51.101  25.611  28.046  1.00  0.00     0.040 A 
ATOM     69  C   UNL A   1      50.682  26.013  25.709  1.00  0.00     0.040 A 
ATOM     70  F   UNL A   1      48.607  26.857  25.013  1.00  0.00    -0.206 F 
ATOM     71  C   UNL A   1      51.540  25.592  26.724  1.00  0.00     0.006 A 
ENDBRANCH  50  64
BRANCH  51  72
ATOM     72  C   UNL A   1      39.383  28.729  29.295  1.00  0.00     0.057 A 
ATOM     73  C   UNL A   1      38.539  29.292  28.329  1.00  0.00     0.134 A 
ATOM     74  C   UNL A   1      38.863  28.564  30.584  1.00  0.00     0.134 A 
ATOM     75  F   UNL A   1      38.984  29.490  27.079  1.00  0.00    -0.206 F 
ATOM     76  C   UNL A   1      37.247  29.716  28.642  1.00  0.00     0.040 A 
ATOM     77  C   UNL A   1      37.561  28.954  30.904  1.00  0.00     0.040 A 
ATOM     78  F   UNL A   1      39.613  28.021  31.554  1.00  0.00    -0.206 F 
ATOM     79  C   UNL A   1      36.755  29.546  29.934  1.00  0.00     0.006 A 
ENDBRANCH  51  72
BRANCH  63  80
ATOM     80  C   UNL A   1      45.284  32.402  29.208  1.00  0.00     0.057 A 
ATOM     81  C   UNL A   1      45.612  32.877  30.484  1.00  0.00     0.134 A 
ATOM     82  C   UNL A   1      45.241  33.332  28.162  1.00  0.00     0.134 A 
ATOM     83  F   UNL A   1      45.658  32.039  31.531  1.00  0.00    -0.206 F 
ATOM     84  C   UNL A   1      45.848  34.233  30.718  1.00  0.00     0.040 A 
ATOM     85  C   UNL A   1      45.507  34.684  28.378  1.00  0.00     0.040 A 
ATOM     86  F   UNL A   1      44.946  32.942  26.913  1.00  0.00    -0.206 F 
ATOM     87  C   UNL A   1      45.802  35.139  29.661  1.00  0.00     0.006 A 
ENDBRANCH  63  80
ENDBRANCH  37  38
ENDBRANCH  29  32
ENDBRANCH  27  28
ENDBRANCH  26  27
ENDBRANCH   1  26
TORSDOF 13
ENDMDL
