MODEL 1
REMARK VINA RESULT:     -10.1      0.000      0.000
REMARK SMILES Cc1ccc(F)c(NC(=O)[C@H]2[C@@H](C(=O)NCCCCNC(=O)c3ccc(-c4c5nc(c(-c6c(F)cccc6F)c6ccc([nH]6)c(-c6c(F)cccc6F)c6nc(c(-c7c(F)cccc7F)c7ccc4[nH]7)C=C6)C=C5)cc3)[C@@H]3CC[C@H]2O3)c1
REMARK SMILES IDX 17 1 16 2 15 3 13 4 14 5 12 7 11 8 80 9 77 10 79 11 81 12
REMARK SMILES IDX 78 13 9 14 8 15 10 17 7 18 1 19 2 20 3 21 82 22 4 23 5 24
REMARK SMILES IDX 6 25 18 26 19 27 20 28 21 29 22 31 23 32 24 33 76 34 25 35
REMARK SMILES IDX 75 36 26 37 27 38 28 39 69 40 29 41 74 42 68 43 70 44 30 45
REMARK SMILES IDX 73 46 67 47 66 48 31 50 57 51 40 52 56 53 41 54 44 55 55 56
REMARK SMILES IDX 71 57 42 58 43 59 54 61 72 62 45 63 32 64 33 65 38 66 34 67
REMARK SMILES IDX 35 68 37 69 39 70 36 71 58 72 59 73 64 74 60 75 61 76 63 77
REMARK SMILES IDX 65 78 62 79 46 80 47 81 52 82 48 83 49 84 51 85 53 86 50 87
REMARK H PARENT 15 6 8 16 20 30 70 49 44 60
REMARK Flexibility Score: inf
ROOT
ATOM      1  C   UNL A   1      34.795  33.808  30.422  1.00  0.00     0.023 C 
ENDROOT
BRANCH   1   2
ATOM      2  C   UNL A   1      34.757  32.526  31.243  1.00  0.00     0.116 C 
BRANCH   2   3
ATOM      3  N   UNL A   1      34.691  32.775  32.671  1.00  0.00    -0.356 N 
ATOM      4  C   UNL A   1      35.695  33.112  33.533  1.00  0.00     0.226 C 
ATOM      5  O   UNL A   1      35.390  33.366  34.695  1.00  0.00    -0.275 OA
ATOM      6  H   UNL A   1      33.797  32.688  33.075  1.00  0.00     0.163 HD
BRANCH   4   7
ATOM      7  C   UNL A   1      37.112  33.136  32.983  1.00  0.00     0.122 C 
ATOM      8  C   UNL A   1      38.257  32.711  33.918  1.00  0.00     0.123 C 
ATOM      9  C   UNL A   1      38.928  34.070  34.218  1.00  0.00     0.132 C 
ATOM     10  C   UNL A   1      37.486  34.585  32.680  1.00  0.00     0.132 C 
ATOM     11  C   UNL A   1      39.835  34.442  33.036  1.00  0.00     0.035 C 
ATOM     12  O   UNL A   1      37.877  35.040  33.990  1.00  0.00    -0.373 OA
ATOM     13  C   UNL A   1      38.811  34.626  31.909  1.00  0.00     0.035 C 
BRANCH   8  14
ATOM     14  C   UNL A   1      37.905  31.857  35.123  1.00  0.00     0.231 C 
ATOM     15  N   UNL A   1      38.182  30.508  35.118  1.00  0.00    -0.323 N 
ATOM     16  H   UNL A   1      37.845  30.018  35.902  1.00  0.00     0.170 HD
ATOM     17  O   UNL A   1      37.391  32.343  36.133  1.00  0.00    -0.274 OA
BRANCH  15  18
ATOM     18  C   UNL A   1      38.869  29.711  34.177  1.00  0.00     0.077 A 
ATOM     19  C   UNL A   1      42.513  28.726  33.642  1.00  0.00     0.044 C 
ATOM     20  C   UNL A   1      41.026  28.810  33.464  1.00  0.00    -0.049 A 
ATOM     21  C   UNL A   1      40.372  27.975  32.551  1.00  0.00     0.006 A 
ATOM     22  C   UNL A   1      40.268  29.687  34.262  1.00  0.00     0.032 A 
ATOM     23  C   UNL A   1      38.990  28.047  32.406  1.00  0.00     0.042 A 
ATOM     24  C   UNL A   1      38.256  28.926  33.196  1.00  0.00     0.146 A 
ATOM     25  F   UNL A   1      36.941  29.013  32.957  1.00  0.00    -0.205 F 
ENDBRANCH  15  18
ENDBRANCH   8  14
ENDBRANCH   4   7
ENDBRANCH   2   3
ENDBRANCH   1   2
BRANCH   1  26
ATOM     26  C   UNL A   1      34.008  33.736  29.119  1.00  0.00     0.023 C 
BRANCH  26  27
ATOM     27  C   UNL A   1      34.651  32.850  28.068  1.00  0.00     0.116 C 
BRANCH  27  28
ATOM     28  N   UNL A   1      33.907  31.613  27.868  1.00  0.00    -0.352 N 
ATOM     29  C   UNL A   1      34.379  30.332  27.752  1.00  0.00     0.251 C 
ATOM     30  H   UNL A   1      32.929  31.713  27.807  1.00  0.00     0.163 HD
ATOM     31  O   UNL A   1      33.646  29.435  27.341  1.00  0.00    -0.269 OA
BRANCH  29  32
ATOM     32  C   UNL A   1      35.781  30.044  28.111  1.00  0.00     0.039 A 
ATOM     33  C   UNL A   1      36.083  29.566  29.387  1.00  0.00     0.014 A 
ATOM     34  C   UNL A   1      36.793  30.226  27.168  1.00  0.00     0.014 A 
ATOM     35  C   UNL A   1      37.400  29.223  29.693  1.00  0.00     0.010 A 
ATOM     36  C   UNL A   1      38.067  29.748  27.425  1.00  0.00     0.010 A 
ATOM     37  C   UNL A   1      38.397  29.281  28.704  1.00  0.00    -0.014 A 
BRANCH  37  38
ATOM     38  C   UNL A   1      39.807  28.931  28.994  1.00  0.00     0.031 A 
ATOM     39  C   UNL A   1      40.679  29.919  29.725  1.00  0.00     0.074 A 
ATOM     40  C   UNL A   1      40.316  27.766  28.551  1.00  0.00     0.049 A 
ATOM     41  N   UNL A   1      41.954  29.847  30.010  1.00  0.00    -0.248 NA
ATOM     42  C   UNL A   1      40.045  31.178  30.154  1.00  0.00     0.031 C 
ATOM     43  C   UNL A   1      39.585  26.759  27.777  1.00  0.00     0.029 A 
ATOM     44  N   UNL A   1      41.571  27.231  28.688  1.00  0.00    -0.354 N 
ATOM     45  C   UNL A   1      42.271  31.055  30.620  1.00  0.00     0.074 A 
ATOM     46  C   UNL A   1      41.082  31.874  30.590  1.00  0.00     0.031 C 
ATOM     47  C   UNL A   1      40.393  25.712  27.546  1.00  0.00     0.029 A 
ATOM     48  C   UNL A   1      41.707  25.990  28.115  1.00  0.00     0.049 A 
ATOM     49  H   UNL A   1      42.306  27.694  29.153  1.00  0.00     0.167 HD
ATOM     50  C   UNL A   1      43.437  31.436  31.191  1.00  0.00     0.037 A 
ATOM     51  C   UNL A   1      42.776  25.173  28.058  1.00  0.00     0.037 A 
ATOM     52  C   UNL A   1      44.601  30.595  31.257  1.00  0.00     0.049 A 
ATOM     53  C   UNL A   1      44.056  25.610  28.715  1.00  0.00     0.074 A 
ATOM     54  C   UNL A   1      45.814  30.848  31.870  1.00  0.00     0.029 A 
ATOM     55  N   UNL A   1      44.690  29.332  30.691  1.00  0.00    -0.354 N 
ATOM     56  N   UNL A   1      44.321  26.725  29.352  1.00  0.00    -0.248 NA
ATOM     57  C   UNL A   1      45.185  24.672  28.651  1.00  0.00     0.031 C 
ATOM     58  C   UNL A   1      46.656  29.757  31.632  1.00  0.00     0.029 A 
ATOM     59  C   UNL A   1      45.946  28.801  30.923  1.00  0.00     0.049 A 
ATOM     60  H   UNL A   1      43.967  28.881  30.198  1.00  0.00     0.167 HD
ATOM     61  C   UNL A   1      45.633  26.609  29.794  1.00  0.00     0.074 A 
ATOM     62  C   UNL A   1      46.103  25.308  29.363  1.00  0.00     0.031 C 
ATOM     63  C   UNL A   1      46.384  27.497  30.492  1.00  0.00     0.037 A 
BRANCH  50  64
ATOM     64  C   UNL A   1      43.498  32.810  31.797  1.00  0.00     0.057 A 
ATOM     65  C   UNL A   1      43.256  33.033  33.160  1.00  0.00     0.134 A 
ATOM     66  C   UNL A   1      43.817  33.925  31.011  1.00  0.00     0.134 A 
ATOM     67  F   UNL A   1      42.929  32.013  33.969  1.00  0.00    -0.206 F 
ATOM     68  C   UNL A   1      43.293  34.315  33.711  1.00  0.00     0.040 A 
ATOM     69  C   UNL A   1      43.890  35.207  31.557  1.00  0.00     0.040 A 
ATOM     70  F   UNL A   1      44.064  33.785  29.699  1.00  0.00    -0.206 F 
ATOM     71  C   UNL A   1      43.619  35.406  32.909  1.00  0.00     0.006 A 
ENDBRANCH  50  64
BRANCH  51  72
ATOM     72  C   UNL A   1      42.669  23.850  27.390  1.00  0.00     0.057 A 
ATOM     73  C   UNL A   1      42.338  22.699  28.115  1.00  0.00     0.134 A 
ATOM     74  C   UNL A   1      42.901  23.700  26.018  1.00  0.00     0.134 A 
ATOM     75  F   UNL A   1      42.117  22.774  29.436  1.00  0.00    -0.206 F 
ATOM     76  C   UNL A   1      42.264  21.445  27.507  1.00  0.00     0.040 A 
ATOM     77  C   UNL A   1      42.802  22.457  25.391  1.00  0.00     0.040 A 
ATOM     78  F   UNL A   1      43.209  24.764  25.263  1.00  0.00    -0.206 F 
ATOM     79  C   UNL A   1      42.493  21.323  26.138  1.00  0.00     0.006 A 
ENDBRANCH  51  72
BRANCH  63  80
ATOM     80  C   UNL A   1      47.774  27.072  30.869  1.00  0.00     0.057 A 
ATOM     81  C   UNL A   1      48.037  26.344  32.034  1.00  0.00     0.134 A 
ATOM     82  C   UNL A   1      48.855  27.362  30.026  1.00  0.00     0.134 A 
ATOM     83  F   UNL A   1      47.046  26.044  32.889  1.00  0.00    -0.206 F 
ATOM     84  C   UNL A   1      49.331  25.942  32.365  1.00  0.00     0.040 A 
ATOM     85  C   UNL A   1      50.149  26.938  30.329  1.00  0.00     0.040 A 
ATOM     86  F   UNL A   1      48.669  28.046  28.887  1.00  0.00    -0.206 F 
ATOM     87  C   UNL A   1      50.390  26.232  31.505  1.00  0.00     0.006 A 
ENDBRANCH  63  80
ENDBRANCH  37  38
ENDBRANCH  29  32
ENDBRANCH  27  28
ENDBRANCH  26  27
ENDBRANCH   1  26
TORSDOF 13
ENDMDL
MODEL 2
REMARK VINA RESULT:      -9.9      4.508      8.262
REMARK SMILES Cc1ccc(F)c(NC(=O)[C@H]2[C@@H](C(=O)NCCCCNC(=O)c3ccc(-c4c5nc(c(-c6c(F)cccc6F)c6ccc([nH]6)c(-c6c(F)cccc6F)c6nc(c(-c7c(F)cccc7F)c7ccc4[nH]7)C=C6)C=C5)cc3)[C@@H]3CC[C@H]2O3)c1
REMARK SMILES IDX 17 1 16 2 15 3 13 4 14 5 12 7 11 8 80 9 77 10 79 11 81 12
REMARK SMILES IDX 78 13 9 14 8 15 10 17 7 18 1 19 2 20 3 21 82 22 4 23 5 24
REMARK SMILES IDX 6 25 18 26 19 27 20 28 21 29 22 31 23 32 24 33 76 34 25 35
REMARK SMILES IDX 75 36 26 37 27 38 28 39 69 40 29 41 74 42 68 43 70 44 30 45
REMARK SMILES IDX 73 46 67 47 66 48 31 50 57 51 40 52 56 53 41 54 44 55 55 56
REMARK SMILES IDX 71 57 42 58 43 59 54 61 72 62 45 63 32 64 33 65 38 66 34 67
REMARK SMILES IDX 35 68 37 69 39 70 36 71 58 72 59 73 64 74 60 75 61 76 63 77
REMARK SMILES IDX 65 78 62 79 46 80 47 81 52 82 48 83 49 84 51 85 53 86 50 87
REMARK H PARENT 15 6 8 16 20 30 70 49 44 60
REMARK Flexibility Score: inf
ROOT
ATOM      1  C   UNL A   1      32.033  27.506  27.009  1.00  0.00     0.023 C 
ENDROOT
BRANCH   1   2
ATOM      2  C   UNL A   1      32.271  26.243  26.192  1.00  0.00     0.116 C 
BRANCH   2   3
ATOM      3  N   UNL A   1      31.785  25.046  26.854  1.00  0.00    -0.356 N 
ATOM      4  C   UNL A   1      32.330  23.794  26.876  1.00  0.00     0.226 C 
ATOM      5  O   UNL A   1      31.788  22.948  27.582  1.00  0.00    -0.275 OA
ATOM      6  H   UNL A   1      30.944  25.152  27.355  1.00  0.00     0.163 HD
BRANCH   4   7
ATOM      7  C   UNL A   1      33.559  23.548  26.016  1.00  0.00     0.122 C 
ATOM      8  C   UNL A   1      33.529  22.364  25.035  1.00  0.00     0.123 C 
ATOM      9  C   UNL A   1      34.482  21.367  25.730  1.00  0.00     0.132 C 
ATOM     10  C   UNL A   1      34.717  23.159  26.931  1.00  0.00     0.132 C 
ATOM     11  C   UNL A   1      35.930  21.775  25.423  1.00  0.00     0.035 C 
ATOM     12  O   UNL A   1      34.446  21.757  27.124  1.00  0.00    -0.373 OA
ATOM     13  C   UNL A   1      36.023  23.133  26.129  1.00  0.00     0.035 C 
BRANCH   8  14
ATOM     14  C   UNL A   1      32.172  21.819  24.626  1.00  0.00     0.231 C 
ATOM     15  N   UNL A   1      31.357  22.550  23.790  1.00  0.00    -0.323 N 
ATOM     16  H   UNL A   1      30.464  22.162  23.645  1.00  0.00     0.170 HD
ATOM     17  O   UNL A   1      31.777  20.715  25.005  1.00  0.00    -0.274 OA
BRANCH  15  18
ATOM     18  C   UNL A   1      31.589  23.763  23.106  1.00  0.00     0.077 A 
ATOM     19  C   UNL A   1      30.028  27.241  23.198  1.00  0.00     0.044 C 
ATOM     20  C   UNL A   1      30.936  26.102  22.835  1.00  0.00    -0.049 A 
ATOM     21  C   UNL A   1      32.059  26.320  22.030  1.00  0.00     0.006 A 
ATOM     22  C   UNL A   1      30.699  24.817  23.356  1.00  0.00     0.032 A 
ATOM     23  C   UNL A   1      32.906  25.262  21.713  1.00  0.00     0.042 A 
ATOM     24  C   UNL A   1      32.653  23.995  22.229  1.00  0.00     0.146 A 
ATOM     25  F   UNL A   1      33.452  22.998  21.826  1.00  0.00    -0.205 F 
ENDBRANCH  15  18
ENDBRANCH   8  14
ENDBRANCH   4   7
ENDBRANCH   2   3
ENDBRANCH   1   2
BRANCH   1  26
ATOM     26  C   UNL A   1      31.620  28.715  26.179  1.00  0.00     0.023 C 
BRANCH  26  27
ATOM     27  C   UNL A   1      32.771  29.643  25.841  1.00  0.00     0.116 C 
BRANCH  27  28
ATOM     28  N   UNL A   1      32.476  31.027  26.186  1.00  0.00    -0.352 N 
ATOM     29  C   UNL A   1      33.058  31.821  27.139  1.00  0.00     0.251 C 
ATOM     30  H   UNL A   1      31.757  31.450  25.661  1.00  0.00     0.163 HD
ATOM     31  O   UNL A   1      32.529  32.881  27.471  1.00  0.00    -0.269 OA
BRANCH  29  32
ATOM     32  C   UNL A   1      34.316  31.384  27.773  1.00  0.00     0.039 A 
ATOM     33  C   UNL A   1      35.333  32.312  28.001  1.00  0.00     0.014 A 
ATOM     34  C   UNL A   1      34.474  30.054  28.164  1.00  0.00     0.014 A 
ATOM     35  C   UNL A   1      36.488  31.908  28.671  1.00  0.00     0.010 A 
ATOM     36  C   UNL A   1      35.551  29.692  28.954  1.00  0.00     0.010 A 
ATOM     37  C   UNL A   1      36.592  30.602  29.180  1.00  0.00    -0.014 A 
BRANCH  37  38
ATOM     38  C   UNL A   1      37.806  30.135  29.891  1.00  0.00     0.031 A 
ATOM     39  C   UNL A   1      38.045  30.575  31.313  1.00  0.00     0.074 A 
ATOM     40  C   UNL A   1      38.714  29.378  29.247  1.00  0.00     0.049 A 
ATOM     41  N   UNL A   1      39.074  30.348  32.089  1.00  0.00    -0.248 NA
ATOM     42  C   UNL A   1      37.010  31.421  31.933  1.00  0.00     0.031 C 
ATOM     43  C   UNL A   1      38.622  28.944  27.851  1.00  0.00     0.029 A 
ATOM     44  N   UNL A   1      39.896  28.838  29.684  1.00  0.00    -0.354 N 
ATOM     45  C   UNL A   1      38.819  31.044  33.264  1.00  0.00     0.074 A 
ATOM     46  C   UNL A   1      37.584  31.767  33.073  1.00  0.00     0.031 C 
ATOM     47  C   UNL A   1      39.680  28.171  27.560  1.00  0.00     0.029 A 
ATOM     48  C   UNL A   1      40.545  28.089  28.732  1.00  0.00     0.049 A 
ATOM     49  H   UNL A   1      40.248  28.976  30.594  1.00  0.00     0.167 HD
ATOM     50  C   UNL A   1      39.527  31.051  34.417  1.00  0.00     0.037 A 
ATOM     51  C   UNL A   1      41.709  27.415  28.803  1.00  0.00     0.037 A 
ATOM     52  C   UNL A   1      40.732  30.290  34.612  1.00  0.00     0.049 A 
ATOM     53  C   UNL A   1      42.471  27.423  30.099  1.00  0.00     0.074 A 
ATOM     54  C   UNL A   1      41.496  30.165  35.758  1.00  0.00     0.029 A 
ATOM     55  N   UNL A   1      41.341  29.520  33.634  1.00  0.00    -0.354 N 
ATOM     56  N   UNL A   1      42.181  28.026  31.227  1.00  0.00    -0.248 NA
ATOM     57  C   UNL A   1      43.719  26.649  30.136  1.00  0.00     0.031 C 
ATOM     58  C   UNL A   1      42.598  29.358  35.457  1.00  0.00     0.029 A 
ATOM     59  C   UNL A   1      42.486  28.932  34.143  1.00  0.00     0.049 A 
ATOM     60  H   UNL A   1      41.009  29.407  32.713  1.00  0.00     0.167 HD
ATOM     61  C   UNL A   1      43.190  27.679  32.116  1.00  0.00     0.074 A 
ATOM     62  C   UNL A   1      44.091  26.800  31.399  1.00  0.00     0.031 C 
ATOM     63  C   UNL A   1      43.359  28.052  33.409  1.00  0.00     0.037 A 
BRANCH  50  64
ATOM     64  C   UNL A   1      39.008  31.892  35.548  1.00  0.00     0.057 A 
ATOM     65  C   UNL A   1      38.177  31.364  36.546  1.00  0.00     0.134 A 
ATOM     66  C   UNL A   1      39.352  33.246  35.649  1.00  0.00     0.134 A 
ATOM     67  F   UNL A   1      37.793  30.079  36.503  1.00  0.00    -0.206 F 
ATOM     68  C   UNL A   1      37.681  32.158  37.582  1.00  0.00     0.040 A 
ATOM     69  C   UNL A   1      38.890  34.041  36.698  1.00  0.00     0.040 A 
ATOM     70  F   UNL A   1      40.146  33.817  34.731  1.00  0.00    -0.206 F 
ATOM     71  C   UNL A   1      38.044  33.499  37.664  1.00  0.00     0.006 A 
ENDBRANCH  50  64
BRANCH  51  72
ATOM     72  C   UNL A   1      42.201  26.651  27.629  1.00  0.00     0.057 A 
ATOM     73  C   UNL A   1      42.985  27.265  26.644  1.00  0.00     0.134 A 
ATOM     74  C   UNL A   1      41.899  25.295  27.455  1.00  0.00     0.134 A 
ATOM     75  F   UNL A   1      43.299  28.565  26.745  1.00  0.00    -0.206 F 
ATOM     76  C   UNL A   1      43.429  26.566  25.520  1.00  0.00     0.040 A 
ATOM     77  C   UNL A   1      42.360  24.577  26.351  1.00  0.00     0.040 A 
ATOM     78  F   UNL A   1      41.163  24.644  28.368  1.00  0.00    -0.206 F 
ATOM     79  C   UNL A   1      43.119  25.216  25.373  1.00  0.00     0.006 A 
ENDBRANCH  51  72
BRANCH  63  80
ATOM     80  C   UNL A   1      44.538  27.477  34.140  1.00  0.00     0.057 A 
ATOM     81  C   UNL A   1      45.766  28.144  34.208  1.00  0.00     0.134 A 
ATOM     82  C   UNL A   1      44.422  26.258  34.820  1.00  0.00     0.134 A 
ATOM     83  F   UNL A   1      45.945  29.310  33.568  1.00  0.00    -0.206 F 
ATOM     84  C   UNL A   1      46.849  27.606  34.904  1.00  0.00     0.040 A 
ATOM     85  C   UNL A   1      45.487  25.725  35.546  1.00  0.00     0.040 A 
ATOM     86  F   UNL A   1      43.269  25.574  34.805  1.00  0.00    -0.206 F 
ATOM     87  C   UNL A   1      46.707  26.396  35.583  1.00  0.00     0.006 A 
ENDBRANCH  63  80
ENDBRANCH  37  38
ENDBRANCH  29  32
ENDBRANCH  27  28
ENDBRANCH  26  27
ENDBRANCH   1  26
TORSDOF 13
ENDMDL
MODEL 3
REMARK VINA RESULT:      -9.8      4.359      7.761
REMARK SMILES Cc1ccc(F)c(NC(=O)[C@H]2[C@@H](C(=O)NCCCCNC(=O)c3ccc(-c4c5nc(c(-c6c(F)cccc6F)c6ccc([nH]6)c(-c6c(F)cccc6F)c6nc(c(-c7c(F)cccc7F)c7ccc4[nH]7)C=C6)C=C5)cc3)[C@@H]3CC[C@H]2O3)c1
REMARK SMILES IDX 17 1 16 2 15 3 13 4 14 5 12 7 11 8 80 9 77 10 79 11 81 12
REMARK SMILES IDX 78 13 9 14 8 15 10 17 7 18 1 19 2 20 3 21 82 22 4 23 5 24
REMARK SMILES IDX 6 25 18 26 19 27 20 28 21 29 22 31 23 32 24 33 76 34 25 35
REMARK SMILES IDX 75 36 26 37 27 38 28 39 69 40 29 41 74 42 68 43 70 44 30 45
REMARK SMILES IDX 73 46 67 47 66 48 31 50 57 51 40 52 56 53 41 54 44 55 55 56
REMARK SMILES IDX 71 57 42 58 43 59 54 61 72 62 45 63 32 64 33 65 38 66 34 67
REMARK SMILES IDX 35 68 37 69 39 70 36 71 58 72 59 73 64 74 60 75 61 76 63 77
REMARK SMILES IDX 65 78 62 79 46 80 47 81 52 82 48 83 49 84 51 85 53 86 50 87
REMARK H PARENT 15 6 8 16 20 30 70 49 44 60
REMARK Flexibility Score: inf
ROOT
ATOM      1  C   UNL A   1      31.690  27.379  26.565  1.00  0.00     0.023 C 
ENDROOT
BRANCH   1   2
ATOM      2  C   UNL A   1      32.485  26.115  26.266  1.00  0.00     0.116 C 
BRANCH   2   3
ATOM      3  N   UNL A   1      31.910  24.931  26.878  1.00  0.00    -0.356 N 
ATOM      4  C   UNL A   1      32.379  23.649  26.880  1.00  0.00     0.226 C 
ATOM      5  O   UNL A   1      31.767  22.817  27.545  1.00  0.00    -0.275 OA
ATOM      6  H   UNL A   1      31.062  25.073  27.358  1.00  0.00     0.163 HD
BRANCH   4   7
ATOM      7  C   UNL A   1      33.617  23.354  26.048  1.00  0.00     0.122 C 
ATOM      8  C   UNL A   1      33.572  22.155  25.086  1.00  0.00     0.123 C 
ATOM      9  C   UNL A   1      34.482  21.143  25.816  1.00  0.00     0.132 C 
ATOM     10  C   UNL A   1      34.745  22.947  26.992  1.00  0.00     0.132 C 
ATOM     11  C   UNL A   1      35.948  21.504  25.531  1.00  0.00     0.035 C 
ATOM     12  O   UNL A   1      34.430  21.557  27.203  1.00  0.00    -0.373 OA
ATOM     13  C   UNL A   1      36.066  22.871  26.217  1.00  0.00     0.035 C 
BRANCH   8  14
ATOM     14  C   UNL A   1      32.209  21.642  24.658  1.00  0.00     0.231 C 
ATOM     15  N   UNL A   1      31.408  22.408  23.841  1.00  0.00    -0.323 N 
ATOM     16  H   UNL A   1      30.510  22.038  23.683  1.00  0.00     0.170 HD
ATOM     17  O   UNL A   1      31.796  20.534  25.007  1.00  0.00    -0.274 OA
BRANCH  15  18
ATOM     18  C   UNL A   1      31.661  23.635  23.190  1.00  0.00     0.077 A 
ATOM     19  C   UNL A   1      30.058  27.094  23.261  1.00  0.00     0.044 C 
ATOM     20  C   UNL A   1      30.996  25.972  22.926  1.00  0.00    -0.049 A 
ATOM     21  C   UNL A   1      32.156  26.215  22.182  1.00  0.00     0.006 A 
ATOM     22  C   UNL A   1      30.747  24.675  23.412  1.00  0.00     0.032 A 
ATOM     23  C   UNL A   1      33.030  25.172  21.892  1.00  0.00     0.042 A 
ATOM     24  C   UNL A   1      32.765  23.893  22.372  1.00  0.00     0.146 A 
ATOM     25  F   UNL A   1      33.595  22.912  21.994  1.00  0.00    -0.205 F 
ENDBRANCH  15  18
ENDBRANCH   8  14
ENDBRANCH   4   7
ENDBRANCH   2   3
ENDBRANCH   1   2
BRANCH   1  26
ATOM     26  C   UNL A   1      32.312  28.652  26.004  1.00  0.00     0.023 C 
BRANCH  26  27
ATOM     27  C   UNL A   1      33.575  29.082  26.727  1.00  0.00     0.116 C 
BRANCH  27  28
ATOM     28  N   UNL A   1      33.542  30.492  27.089  1.00  0.00    -0.352 N 
ATOM     29  C   UNL A   1      34.380  31.189  27.920  1.00  0.00     0.251 C 
ATOM     30  H   UNL A   1      32.816  31.017  26.681  1.00  0.00     0.163 HD
ATOM     31  O   UNL A   1      34.071  32.312  28.314  1.00  0.00    -0.269 OA
BRANCH  29  32
ATOM     32  C   UNL A   1      35.649  30.570  28.349  1.00  0.00     0.039 A 
ATOM     33  C   UNL A   1      36.837  30.907  27.699  1.00  0.00     0.014 A 
ATOM     34  C   UNL A   1      35.660  29.672  29.418  1.00  0.00     0.014 A 
ATOM     35  C   UNL A   1      38.042  30.378  28.161  1.00  0.00     0.010 A 
ATOM     36  C   UNL A   1      36.866  29.267  29.963  1.00  0.00     0.010 A 
ATOM     37  C   UNL A   1      38.069  29.579  29.316  1.00  0.00    -0.014 A 
BRANCH  37  38
ATOM     38  C   UNL A   1      39.330  28.994  29.832  1.00  0.00     0.031 A 
ATOM     39  C   UNL A   1      39.962  29.576  31.070  1.00  0.00     0.074 A 
ATOM     40  C   UNL A   1      39.931  27.993  29.161  1.00  0.00     0.049 A 
ATOM     41  N   UNL A   1      41.098  29.269  31.643  1.00  0.00    -0.248 NA
ATOM     42  C   UNL A   1      39.245  30.683  31.728  1.00  0.00     0.031 C 
ATOM     43  C   UNL A   1      39.447  27.392  27.916  1.00  0.00     0.029 A 
ATOM     44  N   UNL A   1      41.086  27.305  29.433  1.00  0.00    -0.354 N 
ATOM     45  C   UNL A   1      41.237  30.160  32.700  1.00  0.00     0.074 A 
ATOM     46  C   UNL A   1      40.119  31.070  32.642  1.00  0.00     0.031 C 
ATOM     47  C   UNL A   1      40.274  26.398  27.557  1.00  0.00     0.029 A 
ATOM     48  C   UNL A   1      41.368  26.319  28.519  1.00  0.00     0.049 A 
ATOM     49  H   UNL A   1      41.659  27.500  30.210  1.00  0.00     0.167 HD
ATOM     50  C   UNL A   1      42.190  30.193  33.660  1.00  0.00     0.037 A 
ATOM     51  C   UNL A   1      42.397  25.452  28.467  1.00  0.00     0.037 A 
ATOM     52  C   UNL A   1      43.274  29.252  33.736  1.00  0.00     0.049 A 
ATOM     53  C   UNL A   1      43.435  25.497  29.554  1.00  0.00     0.074 A 
ATOM     54  C   UNL A   1      44.259  29.146  34.702  1.00  0.00     0.029 A 
ATOM     55  N   UNL A   1      43.509  28.249  32.808  1.00  0.00    -0.354 N 
ATOM     56  N   UNL A   1      43.516  26.298  30.590  1.00  0.00    -0.248 NA
ATOM     57  C   UNL A   1      44.522  24.512  29.470  1.00  0.00     0.031 C 
ATOM     58  C   UNL A   1      45.120  28.109  34.330  1.00  0.00     0.029 A 
ATOM     59  C   UNL A   1      44.637  27.532  33.166  1.00  0.00     0.049 A 
ATOM     60  H   UNL A   1      42.956  28.073  32.012  1.00  0.00     0.167 HD
ATOM     61  C   UNL A   1      44.641  25.893  31.298  1.00  0.00     0.074 A 
ATOM     62  C   UNL A   1      45.201  24.766  30.580  1.00  0.00     0.031 C 
ATOM     63  C   UNL A   1      45.166  26.406  32.438  1.00  0.00     0.037 A 
BRANCH  50  64
ATOM     64  C   UNL A   1      42.088  31.270  34.704  1.00  0.00     0.057 A 
ATOM     65  C   UNL A   1      42.782  32.483  34.590  1.00  0.00     0.134 A 
ATOM     66  C   UNL A   1      41.275  31.098  35.831  1.00  0.00     0.134 A 
ATOM     67  F   UNL A   1      43.592  32.708  33.544  1.00  0.00    -0.206 F 
ATOM     68  C   UNL A   1      42.699  33.469  35.575  1.00  0.00     0.040 A 
ATOM     69  C   UNL A   1      41.158  32.091  36.805  1.00  0.00     0.040 A 
ATOM     70  F   UNL A   1      40.579  29.964  36.004  1.00  0.00    -0.206 F 
ATOM     71  C   UNL A   1      41.879  33.277  36.683  1.00  0.00     0.006 A 
ENDBRANCH  50  64
BRANCH  51  72
ATOM     72  C   UNL A   1      42.475  24.450  27.374  1.00  0.00     0.057 A 
ATOM     73  C   UNL A   1      43.091  24.756  26.154  1.00  0.00     0.134 A 
ATOM     74  C   UNL A   1      41.932  23.167  27.514  1.00  0.00     0.134 A 
ATOM     75  F   UNL A   1      43.618  25.973  25.952  1.00  0.00    -0.206 F 
ATOM     76  C   UNL A   1      43.144  23.835  25.108  1.00  0.00     0.040 A 
ATOM     77  C   UNL A   1      42.004  22.225  26.487  1.00  0.00     0.040 A 
ATOM     78  F   UNL A   1      41.340  22.804  28.662  1.00  0.00    -0.206 F 
ATOM     79  C   UNL A   1      42.602  22.562  25.275  1.00  0.00     0.006 A 
ENDBRANCH  51  72
BRANCH  63  80
ATOM     80  C   UNL A   1      46.380  25.725  33.000  1.00  0.00     0.057 A 
ATOM     81  C   UNL A   1      46.283  24.670  33.915  1.00  0.00     0.134 A 
ATOM     82  C   UNL A   1      47.662  26.108  32.584  1.00  0.00     0.134 A 
ATOM     83  F   UNL A   1      45.084  24.264  34.362  1.00  0.00    -0.206 F 
ATOM     84  C   UNL A   1      47.419  24.035  34.417  1.00  0.00     0.040 A 
ATOM     85  C   UNL A   1      48.804  25.460  33.054  1.00  0.00     0.040 A 
ATOM     86  F   UNL A   1      47.824  27.103  31.700  1.00  0.00    -0.206 F 
ATOM     87  C   UNL A   1      48.685  24.426  33.979  1.00  0.00     0.006 A 
ENDBRANCH  63  80
ENDBRANCH  37  38
ENDBRANCH  29  32
ENDBRANCH  27  28
ENDBRANCH  26  27
ENDBRANCH   1  26
TORSDOF 13
ENDMDL
