MODEL 1
REMARK VINA RESULT:     -11.2      0.000      0.000
REMARK SMILES CC(C)[NH2+][C@]1(C(=O)NCCCCNC(=O)c2ccc(-c3c4nc(c(-c5c(F)cccc5F)c5ccc([nH]5)c(-c5c(F)cccc5F)c5nc(c(-c6c(F)cccc6F)c6ccc3[nH]6)C=C5)C=C4)cc2)CCC[C@@H](Sc2nnnn2C)C1
REMARK SMILES IDX 10 1 9 2 8 3 6 4 7 5 5 7 70 8 81 9 71 10 73 11 72 12 4 13
REMARK SMILES IDX 2 16 1 17 3 18 74 19 75 20 76 21 79 22 77 23 78 24 80 25
REMARK SMILES IDX 11 26 12 27 13 28 14 29 15 31 16 32 17 33 69 34 18 35 68 36
REMARK SMILES IDX 19 37 20 38 21 39 62 40 22 41 67 42 61 43 63 44 23 45 66 46
REMARK SMILES IDX 60 47 59 48 24 50 50 51 33 52 49 53 34 54 37 55 48 56 64 57
REMARK SMILES IDX 35 58 36 59 47 61 65 62 38 63 25 64 26 65 31 66 27 67 28 68
REMARK SMILES IDX 30 69 32 70 29 71 51 72 52 73 57 74 53 75 54 76 56 77 58 78
REMARK SMILES IDX 55 79 39 80 40 81 45 82 41 83 42 84 44 85 46 86 43 87
REMARK H PARENT 8 6 4 14 4 15 13 30 63 49 37 60
REMARK Flexibility Score: inf
ROOT
ATOM      1  C   UNL A   1      36.916  21.689  24.623  1.00  0.00     0.023 C 
ENDROOT
BRANCH   1   2
ATOM      2  C   UNL A   1      36.869  22.836  25.648  1.00  0.00     0.116 C 
BRANCH   2   3
ATOM      3  N   UNL A   1      35.827  22.615  26.628  1.00  0.00    -0.351 N 
ATOM      4  C   UNL A   1      34.484  22.783  26.656  1.00  0.00     0.281 C 
ATOM      5  O   UNL A   1      34.016  22.618  27.798  1.00  0.00    -0.268 OA
ATOM      6  H   UNL A   1      36.177  22.256  27.476  1.00  0.00     0.163 HD
BRANCH   4   7
ATOM      7  C   UNL A   1      33.483  23.044  25.460  1.00  0.00     0.176 C 
ATOM      8  C   UNL A   1      32.029  22.971  26.018  1.00  0.00     0.079 C 
ATOM      9  C   UNL A   1      33.708  24.529  25.035  1.00  0.00     0.094 C 
ATOM     10  C   UNL A   1      30.961  23.554  25.071  1.00  0.00     0.008 C 
ATOM     11  C   UNL A   1      32.700  25.060  24.023  1.00  0.00     0.061 C 
ATOM     12  C   UNL A   1      31.282  24.977  24.591  1.00  0.00     0.015 C 
BRANCH   7  13
ATOM     13  N   UNL A   1      33.512  22.124  24.301  1.00  0.00    -0.332 N 
ATOM     14  H   UNL A   1      33.027  22.611  23.547  1.00  0.00     0.347 HD
ATOM     15  H   UNL A   1      34.510  21.924  24.234  1.00  0.00     0.347 HD
BRANCH  13  16
ATOM     16  C   UNL A   1      32.960  20.782  24.320  1.00  0.00     0.176 C 
ATOM     17  C   UNL A   1      32.199  20.458  23.030  1.00  0.00     0.075 C 
ATOM     18  C   UNL A   1      33.868  19.625  24.713  1.00  0.00     0.075 C 
ENDBRANCH  13  16
ENDBRANCH   7  13
BRANCH  11  19
ATOM     19  S   UNL A   1      33.199  26.716  23.419  1.00  0.00    -0.081 SA
BRANCH  19  20
ATOM     20  C   UNL A   1      31.712  27.538  23.125  1.00  0.00     0.209 A 
ATOM     21  N   UNL A   1      30.981  27.412  22.042  1.00  0.00    -0.102 NA
ATOM     22  N   UNL A   1      31.167  28.517  23.906  1.00  0.00    -0.224 N 
ATOM     23  N   UNL A   1      29.960  28.322  22.168  1.00  0.00    -0.023 NA
ATOM     24  N   UNL A   1      30.060  28.997  23.306  1.00  0.00    -0.045 NA
ATOM     25  C   UNL A   1      31.558  29.048  25.181  1.00  0.00     0.179 C 
ENDBRANCH  19  20
ENDBRANCH  11  19
ENDBRANCH   4   7
ENDBRANCH   2   3
ENDBRANCH   1   2
BRANCH   1  26
ATOM     26  C   UNL A   1      37.714  20.444  24.962  1.00  0.00     0.023 C 
BRANCH  26  27
ATOM     27  C   UNL A   1      39.000  20.703  25.712  1.00  0.00     0.116 C 
BRANCH  27  28
ATOM     28  N   UNL A   1      39.964  19.610  25.660  1.00  0.00    -0.352 N 
ATOM     29  C   UNL A   1      41.293  19.625  26.039  1.00  0.00     0.251 C 
ATOM     30  H   UNL A   1      39.624  18.753  25.312  1.00  0.00     0.163 HD
ATOM     31  O   UNL A   1      42.003  18.652  25.897  1.00  0.00    -0.269 OA
BRANCH  29  32
ATOM     32  C   UNL A   1      41.840  20.893  26.570  1.00  0.00     0.039 A 
ATOM     33  C   UNL A   1      42.301  21.859  25.675  1.00  0.00     0.014 A 
ATOM     34  C   UNL A   1      41.766  21.159  27.938  1.00  0.00     0.014 A 
ATOM     35  C   UNL A   1      42.605  23.134  26.150  1.00  0.00     0.010 A 
ATOM     36  C   UNL A   1      41.944  22.456  28.385  1.00  0.00     0.010 A 
ATOM     37  C   UNL A   1      42.382  23.453  27.500  1.00  0.00    -0.014 A 
BRANCH  37  38
ATOM     38  C   UNL A   1      42.646  24.807  28.036  1.00  0.00     0.031 A 
ATOM     39  C   UNL A   1      44.044  25.163  28.458  1.00  0.00     0.074 A 
ATOM     40  C   UNL A   1      41.628  25.669  28.221  1.00  0.00     0.049 A 
ATOM     41  N   UNL A   1      44.481  26.243  29.050  1.00  0.00    -0.248 NA
ATOM     42  C   UNL A   1      45.083  24.143  28.230  1.00  0.00     0.031 C 
ATOM     43  C   UNL A   1      40.220  25.404  27.915  1.00  0.00     0.029 A 
ATOM     44  N   UNL A   1      41.622  26.945  28.721  1.00  0.00    -0.354 N 
ATOM     45  C   UNL A   1      45.829  26.017  29.291  1.00  0.00     0.074 A 
ATOM     46  C   UNL A   1      46.124  24.673  28.850  1.00  0.00     0.031 C 
ATOM     47  C   UNL A   1      39.494  26.497  28.202  1.00  0.00     0.029 A 
ATOM     48  C   UNL A   1      40.377  27.526  28.741  1.00  0.00     0.049 A 
ATOM     49  H   UNL A   1      42.435  27.403  29.038  1.00  0.00     0.167 HD
ATOM     50  C   UNL A   1      46.750  26.867  29.799  1.00  0.00     0.037 A 
ATOM     51  C   UNL A   1      39.999  28.753  29.144  1.00  0.00     0.037 A 
ATOM     52  C   UNL A   1      46.457  28.221  30.178  1.00  0.00     0.049 A 
ATOM     53  C   UNL A   1      41.049  29.699  29.660  1.00  0.00     0.074 A 
ATOM     54  C   UNL A   1      47.324  29.199  30.631  1.00  0.00     0.029 A 
ATOM     55  N   UNL A   1      45.193  28.791  30.132  1.00  0.00    -0.354 N 
ATOM     56  N   UNL A   1      42.337  29.498  29.817  1.00  0.00    -0.248 NA
ATOM     57  C   UNL A   1      40.599  31.042  30.045  1.00  0.00     0.031 C 
ATOM     58  C   UNL A   1      46.578  30.353  30.887  1.00  0.00     0.029 A 
ATOM     59  C   UNL A   1      45.254  30.106  30.558  1.00  0.00     0.049 A 
ATOM     60  H   UNL A   1      44.374  28.328  29.841  1.00  0.00     0.167 HD
ATOM     61  C   UNL A   1      42.853  30.696  30.293  1.00  0.00     0.074 A 
ATOM     62  C   UNL A   1      41.742  31.621  30.386  1.00  0.00     0.031 C 
ATOM     63  C   UNL A   1      44.130  31.004  30.627  1.00  0.00     0.037 A 
BRANCH  50  64
ATOM     64  C   UNL A   1      48.152  26.354  29.948  1.00  0.00     0.057 A 
ATOM     65  C   UNL A   1      49.093  26.464  28.913  1.00  0.00     0.134 A 
ATOM     66  C   UNL A   1      48.569  25.742  31.136  1.00  0.00     0.134 A 
ATOM     67  F   UNL A   1      48.752  27.021  27.740  1.00  0.00    -0.206 F 
ATOM     68  C   UNL A   1      50.384  25.952  29.042  1.00  0.00     0.040 A 
ATOM     69  C   UNL A   1      49.868  25.253  31.287  1.00  0.00     0.040 A 
ATOM     70  F   UNL A   1      47.721  25.604  32.165  1.00  0.00    -0.206 F 
ATOM     71  C   UNL A   1      50.777  25.349  30.235  1.00  0.00     0.006 A 
ENDBRANCH  50  64
BRANCH  51  72
ATOM     72  C   UNL A   1      38.580  29.173  29.032  1.00  0.00     0.057 A 
ATOM     73  C   UNL A   1      37.725  29.118  30.137  1.00  0.00     0.134 A 
ATOM     74  C   UNL A   1      38.045  29.640  27.825  1.00  0.00     0.134 A 
ATOM     75  F   UNL A   1      38.175  28.665  31.317  1.00  0.00    -0.206 F 
ATOM     76  C   UNL A   1      36.382  29.492  30.045  1.00  0.00     0.040 A 
ATOM     77  C   UNL A   1      36.711  30.039  27.724  1.00  0.00     0.040 A 
ATOM     78  F   UNL A   1      38.816  29.728  26.731  1.00  0.00    -0.206 F 
ATOM     79  C   UNL A   1      35.873  29.959  28.835  1.00  0.00     0.006 A 
ENDBRANCH  51  72
BRANCH  63  80
ATOM     80  C   UNL A   1      44.394  32.405  31.089  1.00  0.00     0.057 A 
ATOM     81  C   UNL A   1      44.370  32.748  32.445  1.00  0.00     0.134 A 
ATOM     82  C   UNL A   1      44.728  33.405  30.169  1.00  0.00     0.134 A 
ATOM     83  F   UNL A   1      44.046  31.835  33.372  1.00  0.00    -0.206 F 
ATOM     84  C   UNL A   1      44.649  34.048  32.869  1.00  0.00     0.040 A 
ATOM     85  C   UNL A   1      45.033  34.702  30.582  1.00  0.00     0.040 A 
ATOM     86  F   UNL A   1      44.777  33.135  28.854  1.00  0.00    -0.206 F 
ATOM     87  C   UNL A   1      44.990  35.026  31.937  1.00  0.00     0.006 A 
ENDBRANCH  63  80
ENDBRANCH  37  38
ENDBRANCH  29  32
ENDBRANCH  27  28
ENDBRANCH  26  27
ENDBRANCH   1  26
TORSDOF 15
ENDMDL
MODEL 2
REMARK VINA RESULT:     -11.2      4.139      9.245
REMARK SMILES CC(C)[NH2+][C@]1(C(=O)NCCCCNC(=O)c2ccc(-c3c4nc(c(-c5c(F)cccc5F)c5ccc([nH]5)c(-c5c(F)cccc5F)c5nc(c(-c6c(F)cccc6F)c6ccc3[nH]6)C=C5)C=C4)cc2)CCC[C@@H](Sc2nnnn2C)C1
REMARK SMILES IDX 10 1 9 2 8 3 6 4 7 5 5 7 70 8 81 9 71 10 73 11 72 12 4 13
REMARK SMILES IDX 2 16 1 17 3 18 74 19 75 20 76 21 79 22 77 23 78 24 80 25
REMARK SMILES IDX 11 26 12 27 13 28 14 29 15 31 16 32 17 33 69 34 18 35 68 36
REMARK SMILES IDX 19 37 20 38 21 39 62 40 22 41 67 42 61 43 63 44 23 45 66 46
REMARK SMILES IDX 60 47 59 48 24 50 50 51 33 52 49 53 34 54 37 55 48 56 64 57
REMARK SMILES IDX 35 58 36 59 47 61 65 62 38 63 25 64 26 65 31 66 27 67 28 68
REMARK SMILES IDX 30 69 32 70 29 71 51 72 52 73 57 74 53 75 54 76 56 77 58 78
REMARK SMILES IDX 55 79 39 80 40 81 45 82 41 83 42 84 44 85 46 86 43 87
REMARK H PARENT 8 6 4 14 4 15 13 30 63 49 37 60
REMARK Flexibility Score: inf
ROOT
ATOM      1  C   UNL A   1      31.843  30.027  26.532  1.00  0.00     0.023 C 
ENDROOT
BRANCH   1   2
ATOM      2  C   UNL A   1      33.243  29.417  26.340  1.00  0.00     0.116 C 
BRANCH   2   3
ATOM      3  N   UNL A   1      33.632  29.437  24.946  1.00  0.00    -0.351 N 
ATOM      4  C   UNL A   1      33.578  28.553  23.921  1.00  0.00     0.281 C 
ATOM      5  O   UNL A   1      34.202  28.956  22.922  1.00  0.00    -0.268 OA
ATOM      6  H   UNL A   1      34.030  30.296  24.678  1.00  0.00     0.163 HD
BRANCH   4   7
ATOM      7  C   UNL A   1      32.774  27.195  23.812  1.00  0.00     0.176 C 
ATOM      8  C   UNL A   1      32.808  26.728  22.326  1.00  0.00     0.079 C 
ATOM      9  C   UNL A   1      33.603  26.145  24.615  1.00  0.00     0.094 C 
ATOM     10  C   UNL A   1      32.389  25.258  22.117  1.00  0.00     0.008 C 
ATOM     11  C   UNL A   1      33.115  24.708  24.476  1.00  0.00     0.061 C 
ATOM     12  C   UNL A   1      33.157  24.273  23.010  1.00  0.00     0.015 C 
BRANCH   7  13
ATOM     13  N   UNL A   1      31.345  27.188  24.200  1.00  0.00    -0.332 N 
ATOM     14  H   UNL A   1      31.089  26.205  24.298  1.00  0.00     0.347 HD
ATOM     15  H   UNL A   1      31.358  27.805  25.011  1.00  0.00     0.347 HD
BRANCH  13  16
ATOM     16  C   UNL A   1      30.290  27.791  23.408  1.00  0.00     0.176 C 
ATOM     17  C   UNL A   1      28.950  27.072  23.596  1.00  0.00     0.075 C 
ATOM     18  C   UNL A   1      30.102  29.301  23.472  1.00  0.00     0.075 C 
ENDBRANCH  13  16
ENDBRANCH   7  13
BRANCH  11  19
ATOM     19  S   UNL A   1      34.003  23.606  25.639  1.00  0.00    -0.081 SA
BRANCH  19  20
ATOM     20  C   UNL A   1      33.401  22.029  25.289  1.00  0.00     0.209 A 
ATOM     21  N   UNL A   1      32.133  21.687  25.288  1.00  0.00    -0.102 NA
ATOM     22  N   UNL A   1      34.154  20.905  25.098  1.00  0.00    -0.224 N 
ATOM     23  N   UNL A   1      32.109  20.330  25.079  1.00  0.00    -0.023 NA
ATOM     24  N   UNL A   1      33.337  19.844  24.955  1.00  0.00    -0.045 NA
ATOM     25  C   UNL A   1      35.574  20.712  25.012  1.00  0.00     0.179 C 
ENDBRANCH  19  20
ENDBRANCH  11  19
ENDBRANCH   4   7
ENDBRANCH   2   3
ENDBRANCH   1   2
BRANCH   1  26
ATOM     26  C   UNL A   1      31.702  31.537  26.534  1.00  0.00     0.023 C 
BRANCH  26  27
ATOM     27  C   UNL A   1      32.812  32.273  27.248  1.00  0.00     0.116 C 
BRANCH  27  28
ATOM     28  N   UNL A   1      32.529  33.676  27.527  1.00  0.00    -0.352 N 
ATOM     29  C   UNL A   1      33.180  34.521  28.406  1.00  0.00     0.251 C 
ATOM     30  H   UNL A   1      31.780  34.072  27.024  1.00  0.00     0.163 HD
ATOM     31  O   UNL A   1      32.810  35.663  28.579  1.00  0.00    -0.269 OA
BRANCH  29  32
ATOM     32  C   UNL A   1      34.314  33.965  29.178  1.00  0.00     0.039 A 
ATOM     33  C   UNL A   1      34.062  32.991  30.144  1.00  0.00     0.014 A 
ATOM     34  C   UNL A   1      35.620  34.321  28.841  1.00  0.00     0.014 A 
ATOM     35  C   UNL A   1      35.135  32.304  30.711  1.00  0.00     0.010 A 
ATOM     36  C   UNL A   1      36.672  33.554  29.308  1.00  0.00     0.010 A 
ATOM     37  C   UNL A   1      36.443  32.550  30.261  1.00  0.00    -0.014 A 
BRANCH  37  38
ATOM     38  C   UNL A   1      37.606  31.810  30.801  1.00  0.00     0.031 A 
ATOM     39  C   UNL A   1      38.097  32.138  32.183  1.00  0.00     0.074 A 
ATOM     40  C   UNL A   1      38.260  30.923  30.028  1.00  0.00     0.049 A 
ATOM     41  N   UNL A   1      39.155  31.698  32.812  1.00  0.00    -0.248 NA
ATOM     42  C   UNL A   1      37.322  33.135  32.942  1.00  0.00     0.031 C 
ATOM     43  C   UNL A   1      37.916  30.580  28.646  1.00  0.00     0.029 A 
ATOM     44  N   UNL A   1      39.362  30.153  30.294  1.00  0.00    -0.354 N 
ATOM     45  C   UNL A   1      39.186  32.387  34.017  1.00  0.00     0.074 A 
ATOM     46  C   UNL A   1      38.088  33.324  34.004  1.00  0.00     0.031 C 
ATOM     47  C   UNL A   1      38.768  29.642  28.199  1.00  0.00     0.029 A 
ATOM     48  C   UNL A   1      39.736  29.343  29.249  1.00  0.00     0.049 A 
ATOM     49  H   UNL A   1      39.841  30.178  31.154  1.00  0.00     0.167 HD
ATOM     50  C   UNL A   1      40.031  32.225  35.061  1.00  0.00     0.037 A 
ATOM     51  C   UNL A   1      40.744  28.456  29.158  1.00  0.00     0.037 A 
ATOM     52  C   UNL A   1      41.083  31.247  35.086  1.00  0.00     0.049 A 
ATOM     53  C   UNL A   1      41.642  28.257  30.348  1.00  0.00     0.074 A 
ATOM     54  C   UNL A   1      41.952  30.939  36.117  1.00  0.00     0.029 A 
ATOM     55  N   UNL A   1      41.396  30.406  34.028  1.00  0.00    -0.354 N 
ATOM     56  N   UNL A   1      41.617  28.865  31.512  1.00  0.00    -0.248 NA
ATOM     57  C   UNL A   1      42.699  27.247  30.220  1.00  0.00     0.031 C 
ATOM     58  C   UNL A   1      42.812  29.930  35.671  1.00  0.00     0.029 A 
ATOM     59  C   UNL A   1      42.453  29.584  34.377  1.00  0.00     0.049 A 
ATOM     60  H   UNL A   1      40.936  30.396  33.158  1.00  0.00     0.167 HD
ATOM     61  C   UNL A   1      42.636  28.293  32.261  1.00  0.00     0.074 A 
ATOM     62  C   UNL A   1      43.250  27.280  31.425  1.00  0.00     0.031 C 
ATOM     63  C   UNL A   1      43.033  28.578  33.525  1.00  0.00     0.037 A 
BRANCH  50  64
ATOM     64  C   UNL A   1      39.830  33.112  36.254  1.00  0.00     0.057 A 
ATOM     65  C   UNL A   1      40.515  34.328  36.394  1.00  0.00     0.134 A 
ATOM     66  C   UNL A   1      38.946  32.748  37.276  1.00  0.00     0.134 A 
ATOM     67  F   UNL A   1      41.393  34.725  35.460  1.00  0.00    -0.206 F 
ATOM     68  C   UNL A   1      40.354  35.132  37.523  1.00  0.00     0.040 A 
ATOM     69  C   UNL A   1      38.753  33.559  38.397  1.00  0.00     0.040 A 
ATOM     70  F   UNL A   1      38.259  31.599  37.207  1.00  0.00    -0.206 F 
ATOM     71  C   UNL A   1      39.465  34.750  38.527  1.00  0.00     0.006 A 
ENDBRANCH  50  64
BRANCH  51  72
ATOM     72  C   UNL A   1      40.927  27.657  27.921  1.00  0.00     0.057 A 
ATOM     73  C   UNL A   1      40.314  26.408  27.775  1.00  0.00     0.134 A 
ATOM     74  C   UNL A   1      41.713  28.117  26.857  1.00  0.00     0.134 A 
ATOM     75  F   UNL A   1      39.562  25.905  28.765  1.00  0.00    -0.206 F 
ATOM     76  C   UNL A   1      40.491  25.634  26.626  1.00  0.00     0.040 A 
ATOM     77  C   UNL A   1      41.880  27.365  25.693  1.00  0.00     0.040 A 
ATOM     78  F   UNL A   1      42.319  29.312  26.930  1.00  0.00    -0.206 F 
ATOM     79  C   UNL A   1      41.272  26.115  25.578  1.00  0.00     0.006 A 
ENDBRANCH  51  72
BRANCH  63  80
ATOM     80  C   UNL A   1      44.158  27.763  34.087  1.00  0.00     0.057 A 
ATOM     81  C   UNL A   1      45.483  28.207  34.035  1.00  0.00     0.134 A 
ATOM     82  C   UNL A   1      43.901  26.548  34.733  1.00  0.00     0.134 A 
ATOM     83  F   UNL A   1      45.793  29.358  33.420  1.00  0.00    -0.206 F 
ATOM     84  C   UNL A   1      46.521  27.456  34.590  1.00  0.00     0.040 A 
ATOM     85  C   UNL A   1      44.926  25.802  35.313  1.00  0.00     0.040 A 
ATOM     86  F   UNL A   1      42.648  26.075  34.824  1.00  0.00    -0.206 F 
ATOM     87  C   UNL A   1      46.242  26.255  35.238  1.00  0.00     0.006 A 
ENDBRANCH  63  80
ENDBRANCH  37  38
ENDBRANCH  29  32
ENDBRANCH  27  28
ENDBRANCH  26  27
ENDBRANCH   1  26
TORSDOF 15
ENDMDL
MODEL 3
REMARK VINA RESULT:     -11.1      1.198      1.685
REMARK SMILES CC(C)[NH2+][C@]1(C(=O)NCCCCNC(=O)c2ccc(-c3c4nc(c(-c5c(F)cccc5F)c5ccc([nH]5)c(-c5c(F)cccc5F)c5nc(c(-c6c(F)cccc6F)c6ccc3[nH]6)C=C5)C=C4)cc2)CCC[C@@H](Sc2nnnn2C)C1
REMARK SMILES IDX 10 1 9 2 8 3 6 4 7 5 5 7 70 8 81 9 71 10 73 11 72 12 4 13
REMARK SMILES IDX 2 16 1 17 3 18 74 19 75 20 76 21 79 22 77 23 78 24 80 25
REMARK SMILES IDX 11 26 12 27 13 28 14 29 15 31 16 32 17 33 69 34 18 35 68 36
REMARK SMILES IDX 19 37 20 38 21 39 62 40 22 41 67 42 61 43 63 44 23 45 66 46
REMARK SMILES IDX 60 47 59 48 24 50 50 51 33 52 49 53 34 54 37 55 48 56 64 57
REMARK SMILES IDX 35 58 36 59 47 61 65 62 38 63 25 64 26 65 31 66 27 67 28 68
REMARK SMILES IDX 30 69 32 70 29 71 51 72 52 73 57 74 53 75 54 76 56 77 58 78
REMARK SMILES IDX 55 79 39 80 40 81 45 82 41 83 42 84 44 85 46 86 43 87
REMARK H PARENT 8 6 4 14 4 15 13 30 63 49 37 60
REMARK Flexibility Score: inf
ROOT
ATOM      1  C   UNL A   1      38.905  22.756  26.246  1.00  0.00     0.023 C 
ENDROOT
BRANCH   1   2
ATOM      2  C   UNL A   1      37.686  23.622  25.879  1.00  0.00     0.116 C 
BRANCH   2   3
ATOM      3  N   UNL A   1      37.358  23.488  24.475  1.00  0.00    -0.351 N 
ATOM      4  C   UNL A   1      36.233  23.206  23.776  1.00  0.00     0.281 C 
ATOM      5  O   UNL A   1      36.468  23.023  22.566  1.00  0.00    -0.268 OA
ATOM      6  H   UNL A   1      38.135  23.638  23.891  1.00  0.00     0.163 HD
BRANCH   4   7
ATOM      7  C   UNL A   1      34.729  23.187  24.263  1.00  0.00     0.176 C 
ATOM      8  C   UNL A   1      34.681  23.754  25.714  1.00  0.00     0.079 C 
ATOM      9  C   UNL A   1      33.981  24.225  23.369  1.00  0.00     0.094 C 
ATOM     10  C   UNL A   1      33.266  24.138  26.194  1.00  0.00     0.008 C 
ATOM     11  C   UNL A   1      32.549  24.521  23.800  1.00  0.00     0.061 C 
ATOM     12  C   UNL A   1      32.527  25.073  25.226  1.00  0.00     0.015 C 
BRANCH   7  13
ATOM     13  N   UNL A   1      34.020  21.888  24.318  1.00  0.00    -0.332 N 
ATOM     14  H   UNL A   1      33.046  22.113  24.524  1.00  0.00     0.347 HD
ATOM     15  H   UNL A   1      34.281  21.484  23.419  1.00  0.00     0.347 HD
BRANCH  13  16
ATOM     16  C   UNL A   1      34.376  20.812  25.223  1.00  0.00     0.176 C 
ATOM     17  C   UNL A   1      33.207  19.847  25.451  1.00  0.00     0.075 C 
ATOM     18  C   UNL A   1      35.665  20.043  24.970  1.00  0.00     0.075 C 
ENDBRANCH  13  16
ENDBRANCH   7  13
BRANCH  11  19
ATOM     19  S   UNL A   1      31.697  25.556  22.552  1.00  0.00    -0.081 SA
BRANCH  19  20
ATOM     20  C   UNL A   1      32.692  26.956  22.396  1.00  0.00     0.209 A 
ATOM     21  N   UNL A   1      33.747  27.050  21.621  1.00  0.00    -0.102 NA
ATOM     22  N   UNL A   1      32.599  28.095  23.145  1.00  0.00    -0.224 N 
ATOM     23  N   UNL A   1      34.304  28.277  21.889  1.00  0.00    -0.023 NA
ATOM     24  N   UNL A   1      33.608  28.925  22.814  1.00  0.00    -0.045 NA
ATOM     25  C   UNL A   1      31.648  28.510  24.136  1.00  0.00     0.179 C 
ENDBRANCH  19  20
ENDBRANCH  11  19
ENDBRANCH   4   7
ENDBRANCH   2   3
ENDBRANCH   1   2
BRANCH   1  26
ATOM     26  C   UNL A   1      39.037  21.382  25.619  1.00  0.00     0.023 C 
BRANCH  26  27
ATOM     27  C   UNL A   1      39.523  20.303  26.558  1.00  0.00     0.116 C 
BRANCH  27  28
ATOM     28  N   UNL A   1      40.568  19.446  26.009  1.00  0.00    -0.352 N 
ATOM     29  C   UNL A   1      41.924  19.697  25.930  1.00  0.00     0.251 C 
ATOM     30  H   UNL A   1      40.269  18.579  25.650  1.00  0.00     0.163 HD
ATOM     31  O   UNL A   1      42.684  18.913  25.401  1.00  0.00    -0.269 OA
BRANCH  29  32
ATOM     32  C   UNL A   1      42.415  20.988  26.462  1.00  0.00     0.039 A 
ATOM     33  C   UNL A   1      42.733  22.011  25.568  1.00  0.00     0.014 A 
ATOM     34  C   UNL A   1      42.426  21.209  27.839  1.00  0.00     0.014 A 
ATOM     35  C   UNL A   1      42.976  23.292  26.062  1.00  0.00     0.010 A 
ATOM     36  C   UNL A   1      42.540  22.503  28.315  1.00  0.00     0.010 A 
ATOM     37  C   UNL A   1      42.834  23.555  27.434  1.00  0.00    -0.014 A 
BRANCH  37  38
ATOM     38  C   UNL A   1      43.036  24.910  27.995  1.00  0.00     0.031 A 
ATOM     39  C   UNL A   1      44.415  25.316  28.435  1.00  0.00     0.074 A 
ATOM     40  C   UNL A   1      41.982  25.726  28.184  1.00  0.00     0.049 A 
ATOM     41  N   UNL A   1      44.801  26.404  29.049  1.00  0.00    -0.248 NA
ATOM     42  C   UNL A   1      45.498  24.345  28.200  1.00  0.00     0.031 C 
ATOM     43  C   UNL A   1      40.589  25.407  27.861  1.00  0.00     0.029 A 
ATOM     44  N   UNL A   1      41.919  26.992  28.704  1.00  0.00    -0.354 N 
ATOM     45  C   UNL A   1      46.156  26.230  29.299  1.00  0.00     0.074 A 
ATOM     46  C   UNL A   1      46.510  24.908  28.839  1.00  0.00     0.031 C 
ATOM     47  C   UNL A   1      39.815  26.464  28.158  1.00  0.00     0.029 A 
ATOM     48  C   UNL A   1      40.651  27.520  28.722  1.00  0.00     0.049 A 
ATOM     49  H   UNL A   1      42.709  27.478  29.036  1.00  0.00     0.167 HD
ATOM     50  C   UNL A   1      47.036  27.110  29.828  1.00  0.00     0.037 A 
ATOM     51  C   UNL A   1      40.218  28.723  29.142  1.00  0.00     0.037 A 
ATOM     52  C   UNL A   1      46.683  28.444  30.226  1.00  0.00     0.049 A 
ATOM     53  C   UNL A   1      41.223  29.704  29.682  1.00  0.00     0.074 A 
ATOM     54  C   UNL A   1      47.505  29.449  30.703  1.00  0.00     0.029 A 
ATOM     55  N   UNL A   1      45.397  28.961  30.178  1.00  0.00    -0.354 N 
ATOM     56  N   UNL A   1      42.516  29.554  29.848  1.00  0.00    -0.248 NA
ATOM     57  C   UNL A   1      40.714  31.021  30.085  1.00  0.00     0.031 C 
ATOM     58  C   UNL A   1      46.709  30.567  30.971  1.00  0.00     0.029 A 
ATOM     59  C   UNL A   1      45.399  30.270  30.625  1.00  0.00     0.049 A 
ATOM     60  H   UNL A   1      44.601  28.470  29.871  1.00  0.00     0.167 HD
ATOM     61  C   UNL A   1      42.978  30.764  30.348  1.00  0.00     0.074 A 
ATOM     62  C   UNL A   1      41.829  31.640  30.445  1.00  0.00     0.031 C 
ATOM     63  C   UNL A   1      44.238  31.120  30.698  1.00  0.00     0.037 A 
BRANCH  50  64
ATOM     64  C   UNL A   1      48.457  26.653  29.982  1.00  0.00     0.057 A 
ATOM     65  C   UNL A   1      49.419  26.885  28.987  1.00  0.00     0.134 A 
ATOM     66  C   UNL A   1      48.870  25.973  31.133  1.00  0.00     0.134 A 
ATOM     67  F   UNL A   1      49.083  27.512  27.849  1.00  0.00    -0.206 F 
ATOM     68  C   UNL A   1      50.729  26.425  29.117  1.00  0.00     0.040 A 
ATOM     69  C   UNL A   1      50.187  25.535  31.288  1.00  0.00     0.040 A 
ATOM     70  F   UNL A   1      48.002  25.718  32.123  1.00  0.00    -0.206 F 
ATOM     71  C   UNL A   1      51.119  25.753  30.275  1.00  0.00     0.006 A 
ENDBRANCH  50  64
BRANCH  51  72
ATOM     72  C   UNL A   1      38.784  29.086  29.022  1.00  0.00     0.057 A 
ATOM     73  C   UNL A   1      37.927  28.999  30.125  1.00  0.00     0.134 A 
ATOM     74  C   UNL A   1      38.235  29.528  27.813  1.00  0.00     0.134 A 
ATOM     75  F   UNL A   1      38.390  28.568  31.307  1.00  0.00    -0.206 F 
ATOM     76  C   UNL A   1      36.571  29.319  30.027  1.00  0.00     0.040 A 
ATOM     77  C   UNL A   1      36.886  29.873  27.705  1.00  0.00     0.040 A 
ATOM     78  F   UNL A   1      39.006  29.645  26.721  1.00  0.00    -0.206 F 
ATOM     79  C   UNL A   1      36.048  29.762  28.814  1.00  0.00     0.006 A 
ENDBRANCH  51  72
BRANCH  63  80
ATOM     80  C   UNL A   1      44.440  32.523  31.185  1.00  0.00     0.057 A 
ATOM     81  C   UNL A   1      44.706  33.575  30.303  1.00  0.00     0.134 A 
ATOM     82  C   UNL A   1      44.313  32.827  32.546  1.00  0.00     0.134 A 
ATOM     83  F   UNL A   1      44.850  33.343  28.990  1.00  0.00    -0.206 F 
ATOM     84  C   UNL A   1      44.861  34.884  30.763  1.00  0.00     0.040 A 
ATOM     85  C   UNL A   1      44.440  34.135  33.013  1.00  0.00     0.040 A 
ATOM     86  F   UNL A   1      44.048  31.861  33.440  1.00  0.00    -0.206 F 
ATOM     87  C   UNL A   1      44.719  35.167  32.120  1.00  0.00     0.006 A 
ENDBRANCH  63  80
ENDBRANCH  37  38
ENDBRANCH  29  32
ENDBRANCH  27  28
ENDBRANCH  26  27
ENDBRANCH   1  26
TORSDOF 15
ENDMDL
