MODEL 1
REMARK VINA RESULT:     -12.7      0.000      0.000
REMARK SMILES O=C(NCCCCNC(=O)[C@H]1[C@H]2CC[C@H](CC2)[C@H]1C(=O)Nc1ccc(C(=O)N2CCCC2)cc1)c1ccc(-c2c3nc(c(-c4c(F)cccc4F)c4ccc([nH]4)c(-c4c(F)cccc4F)c4nc(c(-c5c(F)cccc5F)c5ccc2[nH]5)C=C4)C=C3)cc1
REMARK SMILES IDX 6 1 5 2 4 3 3 4 1 5 2 6 35 8 36 9 88 10 37 11 87 12 38 13
REMARK SMILES IDX 39 14 40 15 81 16 41 17 86 18 80 19 82 20 42 21 85 22 79 23
REMARK SMILES IDX 78 24 43 26 69 27 52 28 68 29 53 30 56 31 67 32 83 33 54 34
REMARK SMILES IDX 55 35 66 37 84 38 57 39 44 40 45 41 50 42 46 43 47 44 49 45
REMARK SMILES IDX 51 46 48 47 70 48 71 49 76 50 72 51 73 52 75 53 77 54 74 55
REMARK SMILES IDX 58 56 59 57 64 58 60 59 61 60 63 61 65 62 62 63 7 64 8 65
REMARK SMILES IDX 9 66 10 68 11 69 12 70 18 71 17 72 13 73 15 74 16 75 14 76
REMARK SMILES IDX 19 77 20 78 21 79 22 81 23 82 34 83 24 84 33 85 25 86 26 87
REMARK SMILES IDX 27 88 28 89 29 90 32 91 30 92 31 93
REMARK H PARENT 3 7 82 25 56 36 8 67 21 80
REMARK Flexibility Score: inf
ROOT
ATOM      1  C   UNL A   1      36.821  20.870  24.623  1.00  0.00     0.023 C 
ENDROOT
BRANCH   1   2
ATOM      2  C   UNL A   1      37.849  19.759  24.875  1.00  0.00     0.023 C 
BRANCH   2   3
ATOM      3  C   UNL A   1      38.909  20.067  25.925  1.00  0.00     0.116 C 
BRANCH   3   4
ATOM      4  N   UNL A   1      40.083  19.218  25.810  1.00  0.00    -0.352 N 
ATOM      5  O   UNL A   1      42.273  18.700  25.753  1.00  0.00    -0.269 OA
ATOM      6  C   UNL A   1      41.404  19.531  26.009  1.00  0.00     0.251 C 
ATOM      7  H   UNL A   1      39.905  18.285  25.553  1.00  0.00     0.163 HD
BRANCH   6   8
ATOM      8  C   UNL A   1      41.790  20.869  26.506  1.00  0.00     0.039 A 
ATOM      9  C   UNL A   1      42.137  21.894  25.622  1.00  0.00     0.014 A 
ATOM     10  C   UNL A   1      41.771  21.111  27.884  1.00  0.00     0.014 A 
ATOM     11  C   UNL A   1      42.570  23.120  26.118  1.00  0.00     0.010 A 
ATOM     12  C   UNL A   1      42.137  22.365  28.378  1.00  0.00     0.010 A 
ATOM     13  C   UNL A   1      42.558  23.375  27.499  1.00  0.00    -0.014 A 
BRANCH  13  14
ATOM     14  C   UNL A   1      42.903  24.732  27.991  1.00  0.00     0.031 A 
ATOM     15  C   UNL A   1      44.328  25.133  28.246  1.00  0.00     0.074 A 
ATOM     16  C   UNL A   1      41.903  25.612  28.195  1.00  0.00     0.049 A 
ATOM     17  N   UNL A   1      44.793  26.283  28.667  1.00  0.00    -0.248 NA
ATOM     18  C   UNL A   1      45.363  24.117  28.006  1.00  0.00     0.031 C 
ATOM     19  C   UNL A   1      40.478  25.327  28.003  1.00  0.00     0.029 A 
ATOM     20  N   UNL A   1      41.926  26.923  28.597  1.00  0.00    -0.354 N 
ATOM     21  C   UNL A   1      46.171  26.126  28.757  1.00  0.00     0.074 A 
ATOM     22  C   UNL A   1      46.466  24.764  28.366  1.00  0.00     0.031 C 
ATOM     23  C   UNL A   1      39.769  26.437  28.250  1.00  0.00     0.029 A 
ATOM     24  C   UNL A   1      40.680  27.495  28.672  1.00  0.00     0.049 A 
ATOM     25  H   UNL A   1      42.756  27.407  28.810  1.00  0.00     0.167 HD
ATOM     26  C   UNL A   1      47.100  27.041  29.125  1.00  0.00     0.037 A 
ATOM     27  C   UNL A   1      40.307  28.730  29.057  1.00  0.00     0.037 A 
ATOM     28  C   UNL A   1      46.802  28.402  29.494  1.00  0.00     0.049 A 
ATOM     29  C   UNL A   1      41.360  29.713  29.474  1.00  0.00     0.074 A 
ATOM     30  C   UNL A   1      47.683  29.415  29.832  1.00  0.00     0.029 A 
ATOM     31  N   UNL A   1      45.526  28.938  29.578  1.00  0.00    -0.354 N 
ATOM     32  N   UNL A   1      42.662  29.563  29.506  1.00  0.00    -0.248 NA
ATOM     33  C   UNL A   1      40.893  31.034  29.913  1.00  0.00     0.031 C 
ATOM     34  C   UNL A   1      46.938  30.552  30.163  1.00  0.00     0.029 A 
ATOM     35  C   UNL A   1      45.596  30.260  29.987  1.00  0.00     0.049 A 
ATOM     36  H   UNL A   1      44.695  28.452  29.376  1.00  0.00     0.167 HD
ATOM     37  C   UNL A   1      43.170  30.773  29.956  1.00  0.00     0.074 A 
ATOM     38  C   UNL A   1      42.039  31.654  30.158  1.00  0.00     0.031 C 
ATOM     39  C   UNL A   1      44.459  31.122  30.185  1.00  0.00     0.037 A 
BRANCH  26  40
ATOM     40  C   UNL A   1      48.537  26.608  29.161  1.00  0.00     0.057 A 
ATOM     41  C   UNL A   1      49.393  26.798  28.069  1.00  0.00     0.134 A 
ATOM     42  C   UNL A   1      49.091  26.074  30.332  1.00  0.00     0.134 A 
ATOM     43  F   UNL A   1      48.925  27.298  26.917  1.00  0.00    -0.206 F 
ATOM     44  C   UNL A   1      50.748  26.464  28.139  1.00  0.00     0.040 A 
ATOM     45  C   UNL A   1      50.447  25.756  30.420  1.00  0.00     0.040 A 
ATOM     46  F   UNL A   1      48.327  25.876  31.417  1.00  0.00    -0.206 F 
ATOM     47  C   UNL A   1      51.280  25.951  29.320  1.00  0.00     0.006 A 
ENDBRANCH  26  40
BRANCH  27  48
ATOM     48  C   UNL A   1      38.869  29.096  29.081  1.00  0.00     0.057 A 
ATOM     49  C   UNL A   1      38.221  29.564  27.933  1.00  0.00     0.134 A 
ATOM     50  C   UNL A   1      38.112  28.989  30.253  1.00  0.00     0.134 A 
ATOM     51  F   UNL A   1      38.898  29.702  26.784  1.00  0.00    -0.206 F 
ATOM     52  C   UNL A   1      36.875  29.932  27.955  1.00  0.00     0.040 A 
ATOM     53  C   UNL A   1      36.759  29.328  30.283  1.00  0.00     0.040 A 
ATOM     54  F   UNL A   1      38.674  28.539  31.385  1.00  0.00    -0.206 F 
ATOM     55  C   UNL A   1      36.139  29.810  29.132  1.00  0.00     0.006 A 
ENDBRANCH  27  48
BRANCH  39  56
ATOM     56  C   UNL A   1      44.708  32.521  30.661  1.00  0.00     0.057 A 
ATOM     57  C   UNL A   1      44.772  32.834  32.025  1.00  0.00     0.134 A 
ATOM     58  C   UNL A   1      44.903  33.564  29.746  1.00  0.00     0.134 A 
ATOM     59  F   UNL A   1      44.577  31.882  32.950  1.00  0.00    -0.206 F 
ATOM     60  C   UNL A   1      44.997  34.139  32.463  1.00  0.00     0.040 A 
ATOM     61  C   UNL A   1      45.153  34.868  30.172  1.00  0.00     0.040 A 
ATOM     62  F   UNL A   1      44.860  33.328  28.426  1.00  0.00    -0.206 F 
ATOM     63  C   UNL A   1      45.195  35.160  31.534  1.00  0.00     0.006 A 
ENDBRANCH  39  56
ENDBRANCH  13  14
ENDBRANCH   6   8
ENDBRANCH   3   4
ENDBRANCH   2   3
ENDBRANCH   1   2
BRANCH   1  64
ATOM     64  C   UNL A   1      37.388  22.299  24.590  1.00  0.00     0.116 C 
BRANCH  64  65
ATOM     65  N   UNL A   1      36.553  23.185  23.798  1.00  0.00    -0.356 N 
ATOM     66  C   UNL A   1      35.198  23.032  23.676  1.00  0.00     0.224 C 
ATOM     67  H   UNL A   1      36.983  23.932  23.324  1.00  0.00     0.163 HD
ATOM     68  O   UNL A   1      34.759  22.962  22.532  1.00  0.00    -0.275 OA
BRANCH  66  69
ATOM     69  C   UNL A   1      34.364  22.819  24.931  1.00  0.00     0.094 C 
ATOM     70  C   UNL A   1      34.140  23.991  25.946  1.00  0.00     0.002 C 
ATOM     71  C   UNL A   1      33.076  22.009  24.782  1.00  0.00     0.094 C 
ATOM     72  C   UNL A   1      32.741  24.660  25.906  1.00  0.00     0.005 C 
ATOM     73  C   UNL A   1      34.151  23.328  27.341  1.00  0.00     0.005 C 
ATOM     74  C   UNL A   1      32.208  22.238  26.059  1.00  0.00     0.002 C 
ATOM     75  C   UNL A   1      31.607  23.637  26.033  1.00  0.00     0.005 C 
ATOM     76  C   UNL A   1      33.111  22.180  27.338  1.00  0.00     0.005 C 
BRANCH  71  77
ATOM     77  C   UNL A   1      32.310  21.852  23.440  1.00  0.00     0.228 C 
ATOM     78  O   UNL A   1      32.154  20.686  23.028  1.00  0.00    -0.274 OA
ATOM     79  N   UNL A   1      31.624  22.786  22.722  1.00  0.00    -0.326 N 
ATOM     80  H   UNL A   1      31.080  22.380  22.010  1.00  0.00     0.169 HD
BRANCH  79  81
ATOM     81  C   UNL A   1      31.505  24.179  22.751  1.00  0.00     0.041 A 
ATOM     82  C   UNL A   1      30.302  24.718  23.203  1.00  0.00     0.027 A 
ATOM     83  C   UNL A   1      32.486  25.057  22.321  1.00  0.00     0.027 A 
ATOM     84  C   UNL A   1      30.219  26.085  23.504  1.00  0.00     0.016 A 
ATOM     85  C   UNL A   1      32.408  26.427  22.607  1.00  0.00     0.016 A 
ATOM     86  C   UNL A   1      31.318  26.937  23.306  1.00  0.00     0.040 A 
BRANCH  86  87
ATOM     87  C   UNL A   1      31.336  28.220  24.092  1.00  0.00     0.253 C 
ATOM     88  O   UNL A   1      30.376  28.984  23.981  1.00  0.00    -0.269 OA
ATOM     89  N   UNL A   1      32.238  28.360  25.132  1.00  0.00    -0.339 N 
ATOM     90  C   UNL A   1      33.686  28.397  25.092  1.00  0.00     0.120 C 
ATOM     91  C   UNL A   1      31.774  28.812  26.433  1.00  0.00     0.120 C 
ATOM     92  C   UNL A   1      34.050  27.999  26.510  1.00  0.00     0.023 C 
ATOM     93  C   UNL A   1      33.005  28.747  27.339  1.00  0.00     0.023 C 
ENDBRANCH  86  87
ENDBRANCH  79  81
ENDBRANCH  71  77
ENDBRANCH  66  69
ENDBRANCH  64  65
ENDBRANCH   1  64
TORSDOF 14
ENDMDL
MODEL 2
REMARK VINA RESULT:     -12.7      0.228      5.984
REMARK SMILES O=C(NCCCCNC(=O)[C@H]1[C@H]2CC[C@H](CC2)[C@H]1C(=O)Nc1ccc(C(=O)N2CCCC2)cc1)c1ccc(-c2c3nc(c(-c4c(F)cccc4F)c4ccc([nH]4)c(-c4c(F)cccc4F)c4nc(c(-c5c(F)cccc5F)c5ccc2[nH]5)C=C4)C=C3)cc1
REMARK SMILES IDX 6 1 5 2 4 3 3 4 1 5 2 6 35 8 36 9 88 10 37 11 87 12 38 13
REMARK SMILES IDX 39 14 40 15 81 16 41 17 86 18 80 19 82 20 42 21 85 22 79 23
REMARK SMILES IDX 78 24 43 26 69 27 52 28 68 29 53 30 56 31 67 32 83 33 54 34
REMARK SMILES IDX 55 35 66 37 84 38 57 39 44 40 45 41 50 42 46 43 47 44 49 45
REMARK SMILES IDX 51 46 48 47 70 48 71 49 76 50 72 51 73 52 75 53 77 54 74 55
REMARK SMILES IDX 58 56 59 57 64 58 60 59 61 60 63 61 65 62 62 63 7 64 8 65
REMARK SMILES IDX 9 66 10 68 11 69 12 70 18 71 17 72 13 73 15 74 16 75 14 76
REMARK SMILES IDX 19 77 20 78 21 79 22 81 23 82 34 83 24 84 33 85 25 86 26 87
REMARK SMILES IDX 27 88 28 89 29 90 32 91 30 92 31 93
REMARK H PARENT 3 7 82 25 56 36 8 67 21 80
REMARK Flexibility Score: inf
ROOT
ATOM      1  C   UNL A   1      36.945  20.690  24.555  1.00  0.00     0.023 C 
ENDROOT
BRANCH   1   2
ATOM      2  C   UNL A   1      37.958  19.600  24.932  1.00  0.00     0.023 C 
BRANCH   2   3
ATOM      3  C   UNL A   1      39.059  20.028  25.893  1.00  0.00     0.116 C 
BRANCH   3   4
ATOM      4  N   UNL A   1      40.243  19.190  25.807  1.00  0.00    -0.352 N 
ATOM      5  O   UNL A   1      42.439  18.693  25.798  1.00  0.00    -0.269 OA
ATOM      6  C   UNL A   1      41.557  19.516  26.033  1.00  0.00     0.251 C 
ATOM      7  H   UNL A   1      40.080  18.255  25.550  1.00  0.00     0.163 HD
BRANCH   6   8
ATOM      8  C   UNL A   1      41.920  20.860  26.532  1.00  0.00     0.039 A 
ATOM      9  C   UNL A   1      42.259  21.889  25.651  1.00  0.00     0.014 A 
ATOM     10  C   UNL A   1      41.888  21.101  27.910  1.00  0.00     0.014 A 
ATOM     11  C   UNL A   1      42.671  23.122  26.150  1.00  0.00     0.010 A 
ATOM     12  C   UNL A   1      42.232  22.360  28.407  1.00  0.00     0.010 A 
ATOM     13  C   UNL A   1      42.644  23.376  27.530  1.00  0.00    -0.014 A 
BRANCH  13  14
ATOM     14  C   UNL A   1      42.966  24.738  28.026  1.00  0.00     0.031 A 
ATOM     15  C   UNL A   1      41.889  25.755  28.276  1.00  0.00     0.074 A 
ATOM     16  C   UNL A   1      44.257  25.044  28.263  1.00  0.00     0.049 A 
ATOM     17  N   UNL A   1      42.007  26.983  28.717  1.00  0.00    -0.248 NA
ATOM     18  C   UNL A   1      40.505  25.350  27.989  1.00  0.00     0.031 C 
ATOM     19  C   UNL A   1      45.391  24.144  28.036  1.00  0.00     0.029 A 
ATOM     20  N   UNL A   1      44.835  26.186  28.756  1.00  0.00    -0.354 N 
ATOM     21  C   UNL A   1      40.719  27.502  28.748  1.00  0.00     0.074 A 
ATOM     22  C   UNL A   1      39.835  26.463  28.261  1.00  0.00     0.031 C 
ATOM     23  C   UNL A   1      46.521  24.753  28.422  1.00  0.00     0.029 A 
ATOM     24  C   UNL A   1      46.201  26.103  28.869  1.00  0.00     0.049 A 
ATOM     25  H   UNL A   1      44.320  26.987  29.004  1.00  0.00     0.167 HD
ATOM     26  C   UNL A   1      40.315  28.730  29.152  1.00  0.00     0.037 A 
ATOM     27  C   UNL A   1      47.101  27.019  29.272  1.00  0.00     0.037 A 
ATOM     28  C   UNL A   1      41.197  29.753  29.655  1.00  0.00     0.049 A 
ATOM     29  C   UNL A   1      46.622  28.375  29.698  1.00  0.00     0.074 A 
ATOM     30  C   UNL A   1      40.872  31.010  30.136  1.00  0.00     0.029 A 
ATOM     31  N   UNL A   1      42.576  29.639  29.736  1.00  0.00    -0.354 N 
ATOM     32  N   UNL A   1      45.396  28.832  29.766  1.00  0.00    -0.248 NA
ATOM     33  C   UNL A   1      47.651  29.343  30.098  1.00  0.00     0.031 C 
ATOM     34  C   UNL A   1      42.059  31.673  30.469  1.00  0.00     0.029 A 
ATOM     35  C   UNL A   1      43.118  30.812  30.236  1.00  0.00     0.049 A 
ATOM     36  H   UNL A   1      43.093  28.842  29.478  1.00  0.00     0.167 HD
ATOM     37  C   UNL A   1      45.504  30.136  30.229  1.00  0.00     0.074 A 
ATOM     38  C   UNL A   1      46.913  30.387  30.449  1.00  0.00     0.031 C 
ATOM     39  C   UNL A   1      44.524  31.045  30.447  1.00  0.00     0.037 A 
BRANCH  26  40
ATOM     40  C   UNL A   1      38.851  29.054  29.064  1.00  0.00     0.057 A 
ATOM     41  C   UNL A   1      38.006  28.962  30.177  1.00  0.00     0.134 A 
ATOM     42  C   UNL A   1      38.301  29.546  27.873  1.00  0.00     0.134 A 
ATOM     43  F   UNL A   1      38.468  28.493  31.345  1.00  0.00    -0.206 F 
ATOM     44  C   UNL A   1      36.663  29.340  30.105  1.00  0.00     0.040 A 
ATOM     45  C   UNL A   1      36.966  29.946  27.794  1.00  0.00     0.040 A 
ATOM     46  F   UNL A   1      39.060  29.667  26.773  1.00  0.00    -0.206 F 
ATOM     47  C   UNL A   1      36.143  29.843  28.913  1.00  0.00     0.006 A 
ENDBRANCH  26  40
BRANCH  27  48
ATOM     48  C   UNL A   1      48.548  26.686  29.273  1.00  0.00     0.057 A 
ATOM     49  C   UNL A   1      49.359  26.972  28.170  1.00  0.00     0.134 A 
ATOM     50  C   UNL A   1      49.149  26.069  30.376  1.00  0.00     0.134 A 
ATOM     51  F   UNL A   1      48.836  27.548  27.078  1.00  0.00    -0.206 F 
ATOM     52  C   UNL A   1      50.714  26.639  28.156  1.00  0.00     0.040 A 
ATOM     53  C   UNL A   1      50.509  25.755  30.387  1.00  0.00     0.040 A 
ATOM     54  F   UNL A   1      48.427  25.776  31.467  1.00  0.00    -0.206 F 
ATOM     55  C   UNL A   1      51.293  26.033  29.270  1.00  0.00     0.006 A 
ENDBRANCH  27  48
BRANCH  39  56
ATOM     56  C   UNL A   1      44.947  32.386  30.967  1.00  0.00     0.057 A 
ATOM     57  C   UNL A   1      45.236  33.451  30.106  1.00  0.00     0.134 A 
ATOM     58  C   UNL A   1      45.049  32.618  32.345  1.00  0.00     0.134 A 
ATOM     59  F   UNL A   1      45.173  33.287  28.776  1.00  0.00    -0.206 F 
ATOM     60  C   UNL A   1      45.636  34.695  30.596  1.00  0.00     0.040 A 
ATOM     61  C   UNL A   1      45.424  33.864  32.847  1.00  0.00     0.040 A 
ATOM     62  F   UNL A   1      44.779  31.640  33.223  1.00  0.00    -0.206 F 
ATOM     63  C   UNL A   1      45.725  34.906  31.971  1.00  0.00     0.006 A 
ENDBRANCH  39  56
ENDBRANCH  13  14
ENDBRANCH   6   8
ENDBRANCH   3   4
ENDBRANCH   2   3
ENDBRANCH   1   2
BRANCH   1  64
ATOM     64  C   UNL A   1      37.407  22.135  24.803  1.00  0.00     0.116 C 
BRANCH  64  65
ATOM     65  N   UNL A   1      36.644  23.081  24.009  1.00  0.00    -0.356 N 
ATOM     66  C   UNL A   1      35.290  22.992  23.828  1.00  0.00     0.224 C 
ATOM     67  H   UNL A   1      37.124  23.824  23.578  1.00  0.00     0.163 HD
ATOM     68  O   UNL A   1      34.895  22.978  22.666  1.00  0.00    -0.275 OA
BRANCH  66  69
ATOM     69  C   UNL A   1      34.396  22.776  25.041  1.00  0.00     0.094 C 
ATOM     70  C   UNL A   1      34.121  23.946  26.046  1.00  0.00     0.002 C 
ATOM     71  C   UNL A   1      33.119  21.963  24.830  1.00  0.00     0.094 C 
ATOM     72  C   UNL A   1      32.724  24.612  25.939  1.00  0.00     0.005 C 
ATOM     73  C   UNL A   1      34.066  23.281  27.439  1.00  0.00     0.005 C 
ATOM     74  C   UNL A   1      32.190  22.189  26.064  1.00  0.00     0.002 C 
ATOM     75  C   UNL A   1      31.587  23.586  26.011  1.00  0.00     0.005 C 
ATOM     76  C   UNL A   1      33.030  22.131  27.385  1.00  0.00     0.005 C 
BRANCH  71  77
ATOM     77  C   UNL A   1      32.419  21.806  23.453  1.00  0.00     0.228 C 
ATOM     78  O   UNL A   1      32.305  20.641  23.023  1.00  0.00    -0.274 OA
ATOM     79  N   UNL A   1      31.749  22.734  22.713  1.00  0.00    -0.326 N 
ATOM     80  H   UNL A   1      31.246  22.326  21.972  1.00  0.00     0.169 HD
BRANCH  79  81
ATOM     81  C   UNL A   1      31.602  24.124  22.749  1.00  0.00     0.041 A 
ATOM     82  C   UNL A   1      30.388  24.637  23.203  1.00  0.00     0.027 A 
ATOM     83  C   UNL A   1      32.565  25.025  22.325  1.00  0.00     0.027 A 
ATOM     84  C   UNL A   1      30.277  26.001  23.512  1.00  0.00     0.016 A 
ATOM     85  C   UNL A   1      32.460  26.391  22.619  1.00  0.00     0.016 A 
ATOM     86  C   UNL A   1      31.360  26.876  23.320  1.00  0.00     0.040 A 
BRANCH  86  87
ATOM     87  C   UNL A   1      31.351  28.154  24.113  1.00  0.00     0.253 C 
ATOM     88  O   UNL A   1      30.380  28.902  24.000  1.00  0.00    -0.269 OA
ATOM     89  N   UNL A   1      32.244  28.303  25.160  1.00  0.00    -0.339 N 
ATOM     90  C   UNL A   1      33.691  28.364  25.130  1.00  0.00     0.120 C 
ATOM     91  C   UNL A   1      31.765  28.740  26.460  1.00  0.00     0.120 C 
ATOM     92  C   UNL A   1      34.053  27.963  26.548  1.00  0.00     0.023 C 
ATOM     93  C   UNL A   1      32.991  28.690  27.374  1.00  0.00     0.023 C 
ENDBRANCH  86  87
ENDBRANCH  79  81
ENDBRANCH  71  77
ENDBRANCH  66  69
ENDBRANCH  64  65
ENDBRANCH   1  64
TORSDOF 14
ENDMDL
MODEL 3
REMARK VINA RESULT:     -12.5      3.531      8.719
REMARK SMILES O=C(NCCCCNC(=O)[C@H]1[C@H]2CC[C@H](CC2)[C@H]1C(=O)Nc1ccc(C(=O)N2CCCC2)cc1)c1ccc(-c2c3nc(c(-c4c(F)cccc4F)c4ccc([nH]4)c(-c4c(F)cccc4F)c4nc(c(-c5c(F)cccc5F)c5ccc2[nH]5)C=C4)C=C3)cc1
REMARK SMILES IDX 6 1 5 2 4 3 3 4 1 5 2 6 35 8 36 9 88 10 37 11 87 12 38 13
REMARK SMILES IDX 39 14 40 15 81 16 41 17 86 18 80 19 82 20 42 21 85 22 79 23
REMARK SMILES IDX 78 24 43 26 69 27 52 28 68 29 53 30 56 31 67 32 83 33 54 34
REMARK SMILES IDX 55 35 66 37 84 38 57 39 44 40 45 41 50 42 46 43 47 44 49 45
REMARK SMILES IDX 51 46 48 47 70 48 71 49 76 50 72 51 73 52 75 53 77 54 74 55
REMARK SMILES IDX 58 56 59 57 64 58 60 59 61 60 63 61 65 62 62 63 7 64 8 65
REMARK SMILES IDX 9 66 10 68 11 69 12 70 18 71 17 72 13 73 15 74 16 75 14 76
REMARK SMILES IDX 19 77 20 78 21 79 22 81 23 82 34 83 24 84 33 85 25 86 26 87
REMARK SMILES IDX 27 88 28 89 29 90 32 91 30 92 31 93
REMARK H PARENT 3 7 82 25 56 36 8 67 21 80
REMARK Flexibility Score: inf
ROOT
ATOM      1  C   UNL A   1      31.381  30.670  26.492  1.00  0.00     0.023 C 
ENDROOT
BRANCH   1   2
ATOM      2  C   UNL A   1      31.365  32.204  26.504  1.00  0.00     0.023 C 
BRANCH   2   3
ATOM      3  C   UNL A   1      32.647  32.874  26.980  1.00  0.00     0.116 C 
BRANCH   3   4
ATOM      4  N   UNL A   1      32.411  34.149  27.636  1.00  0.00    -0.352 N 
ATOM      5  O   UNL A   1      32.671  35.774  29.173  1.00  0.00    -0.269 OA
ATOM      6  C   UNL A   1      33.092  34.732  28.675  1.00  0.00     0.251 C 
ATOM      7  H   UNL A   1      31.653  34.669  27.284  1.00  0.00     0.163 HD
BRANCH   6   8
ATOM      8  C   UNL A   1      34.316  34.101  29.215  1.00  0.00     0.039 A 
ATOM      9  C   UNL A   1      34.250  33.188  30.271  1.00  0.00     0.014 A 
ATOM     10  C   UNL A   1      35.549  34.406  28.630  1.00  0.00     0.014 A 
ATOM     11  C   UNL A   1      35.423  32.668  30.811  1.00  0.00     0.010 A 
ATOM     12  C   UNL A   1      36.720  33.828  29.126  1.00  0.00     0.010 A 
ATOM     13  C   UNL A   1      36.667  32.967  30.234  1.00  0.00    -0.014 A 
BRANCH  13  14
ATOM     14  C   UNL A   1      37.889  32.299  30.749  1.00  0.00     0.031 A 
ATOM     15  C   UNL A   1      38.433  31.056  30.104  1.00  0.00     0.074 A 
ATOM     16  C   UNL A   1      38.515  32.842  31.812  1.00  0.00     0.049 A 
ATOM     17  N   UNL A   1      39.494  30.361  30.429  1.00  0.00    -0.248 NA
ATOM     18  C   UNL A   1      37.692  30.520  28.952  1.00  0.00     0.031 C 
ATOM     19  C   UNL A   1      38.066  34.035  32.535  1.00  0.00     0.029 A 
ATOM     20  N   UNL A   1      39.664  32.475  32.463  1.00  0.00    -0.354 N 
ATOM     21  C   UNL A   1      39.542  29.299  29.535  1.00  0.00     0.074 A 
ATOM     22  C   UNL A   1      38.392  29.429  28.665  1.00  0.00     0.031 C 
ATOM     23  C   UNL A   1      38.946  34.321  33.504  1.00  0.00     0.029 A 
ATOM     24  C   UNL A   1      39.991  33.304  33.508  1.00  0.00     0.049 A 
ATOM     25  H   UNL A   1      40.203  31.692  32.206  1.00  0.00     0.167 HD
ATOM     26  C   UNL A   1      40.467  28.312  29.447  1.00  0.00     0.037 A 
ATOM     27  C   UNL A   1      41.008  33.243  34.387  1.00  0.00     0.037 A 
ATOM     28  C   UNL A   1      41.620  28.200  30.304  1.00  0.00     0.049 A 
ATOM     29  C   UNL A   1      42.005  32.129  34.272  1.00  0.00     0.074 A 
ATOM     30  C   UNL A   1      42.639  27.263  30.257  1.00  0.00     0.029 A 
ATOM     31  N   UNL A   1      41.906  29.047  31.363  1.00  0.00    -0.354 N 
ATOM     32  N   UNL A   1      42.062  31.161  33.391  1.00  0.00    -0.248 NA
ATOM     33  C   UNL A   1      43.077  32.095  35.276  1.00  0.00     0.031 C 
ATOM     34  C   UNL A   1      43.519  27.518  31.315  1.00  0.00     0.029 A 
ATOM     35  C   UNL A   1      43.071  28.640  31.992  1.00  0.00     0.049 A 
ATOM     36  H   UNL A   1      41.362  29.823  31.628  1.00  0.00     0.167 HD
ATOM     37  C   UNL A   1      43.181  30.411  33.725  1.00  0.00     0.074 A 
ATOM     38  C   UNL A   1      43.787  31.051  34.873  1.00  0.00     0.031 C 
ATOM     39  C   UNL A   1      43.660  29.289  33.136  1.00  0.00     0.037 A 
BRANCH  26  40
ATOM     40  C   UNL A   1      40.274  27.259  28.395  1.00  0.00     0.057 A 
ATOM     41  C   UNL A   1      40.900  27.342  27.144  1.00  0.00     0.134 A 
ATOM     42  C   UNL A   1      39.525  26.107  28.668  1.00  0.00     0.134 A 
ATOM     43  F   UNL A   1      41.626  28.421  26.818  1.00  0.00    -0.206 F 
ATOM     44  C   UNL A   1      40.778  26.320  26.200  1.00  0.00     0.040 A 
ATOM     45  C   UNL A   1      39.413  25.070  27.741  1.00  0.00     0.040 A 
ATOM     46  F   UNL A   1      38.908  25.962  29.850  1.00  0.00    -0.206 F 
ATOM     47  C   UNL A   1      40.041  25.176  26.501  1.00  0.00     0.006 A 
ENDBRANCH  26  40
BRANCH  27  48
ATOM     48  C   UNL A   1      41.121  34.260  35.461  1.00  0.00     0.057 A 
ATOM     49  C   UNL A   1      41.857  35.435  35.273  1.00  0.00     0.134 A 
ATOM     50  C   UNL A   1      40.499  34.078  36.702  1.00  0.00     0.134 A 
ATOM     51  F   UNL A   1      42.489  35.658  34.112  1.00  0.00    -0.206 F 
ATOM     52  C   UNL A   1      41.987  36.384  36.288  1.00  0.00     0.040 A 
ATOM     53  C   UNL A   1      40.597  35.032  37.716  1.00  0.00     0.040 A 
ATOM     54  F   UNL A   1      39.772  32.977  36.941  1.00  0.00    -0.206 F 
ATOM     55  C   UNL A   1      41.351  36.185  37.513  1.00  0.00     0.006 A 
ENDBRANCH  27  48
BRANCH  39  56
ATOM     56  C   UNL A   1      44.910  28.699  33.716  1.00  0.00     0.057 A 
ATOM     57  C   UNL A   1      44.866  27.716  34.712  1.00  0.00     0.134 A 
ATOM     58  C   UNL A   1      46.170  29.108  33.262  1.00  0.00     0.134 A 
ATOM     59  F   UNL A   1      43.690  27.295  35.200  1.00  0.00    -0.206 F 
ATOM     60  C   UNL A   1      46.033  27.176  35.253  1.00  0.00     0.040 A 
ATOM     61  C   UNL A   1      47.344  28.558  33.778  1.00  0.00     0.040 A 
ATOM     62  F   UNL A   1      46.280  30.042  32.305  1.00  0.00    -0.206 F 
ATOM     63  C   UNL A   1      47.277  27.593  34.782  1.00  0.00     0.006 A 
ENDBRANCH  39  56
ENDBRANCH  13  14
ENDBRANCH   6   8
ENDBRANCH   3   4
ENDBRANCH   2   3
ENDBRANCH   1   2
BRANCH   1  64
ATOM     64  C   UNL A   1      32.553  30.017  27.244  1.00  0.00     0.116 C 
BRANCH  64  65
ATOM     65  N   UNL A   1      32.338  28.592  27.429  1.00  0.00    -0.356 N 
ATOM     66  C   UNL A   1      31.804  27.780  26.465  1.00  0.00     0.224 C 
ATOM     67  H   UNL A   1      32.587  28.190  28.292  1.00  0.00     0.163 HD
ATOM     68  O   UNL A   1      30.822  27.120  26.792  1.00  0.00    -0.275 OA
BRANCH  66  69
ATOM     69  C   UNL A   1      32.357  27.853  25.049  1.00  0.00     0.094 C 
ATOM     70  C   UNL A   1      33.705  27.142  24.684  1.00  0.00     0.002 C 
ATOM     71  C   UNL A   1      31.360  27.693  23.902  1.00  0.00     0.094 C 
ATOM     72  C   UNL A   1      33.576  25.824  23.877  1.00  0.00     0.005 C 
ATOM     73  C   UNL A   1      34.400  28.083  23.675  1.00  0.00     0.005 C 
ATOM     74  C   UNL A   1      32.165  27.416  22.594  1.00  0.00     0.002 C 
ATOM     75  C   UNL A   1      32.722  25.999  22.617  1.00  0.00     0.005 C 
ATOM     76  C   UNL A   1      33.408  28.367  22.518  1.00  0.00     0.005 C 
BRANCH  71  77
ATOM     77  C   UNL A   1      29.995  26.966  24.045  1.00  0.00     0.228 C 
ATOM     78  O   UNL A   1      28.979  27.651  23.818  1.00  0.00    -0.274 OA
ATOM     79  N   UNL A   1      29.738  25.638  24.214  1.00  0.00    -0.326 N 
ATOM     80  H   UNL A   1      28.785  25.426  24.089  1.00  0.00     0.169 HD
BRANCH  79  81
ATOM     81  C   UNL A   1      30.496  24.503  24.519  1.00  0.00     0.041 A 
ATOM     82  C   UNL A   1      30.723  23.580  23.500  1.00  0.00     0.027 A 
ATOM     83  C   UNL A   1      31.000  24.215  25.777  1.00  0.00     0.027 A 
ATOM     84  C   UNL A   1      31.685  22.574  23.671  1.00  0.00     0.016 A 
ATOM     85  C   UNL A   1      31.954  23.204  25.962  1.00  0.00     0.016 A 
ATOM     86  C   UNL A   1      32.391  22.446  24.879  1.00  0.00     0.040 A 
BRANCH  86  87
ATOM     87  C   UNL A   1      33.706  21.717  24.826  1.00  0.00     0.253 C 
ATOM     88  O   UNL A   1      33.735  20.607  24.295  1.00  0.00    -0.269 OA
ATOM     89  N   UNL A   1      34.875  22.418  25.070  1.00  0.00    -0.339 N 
ATOM     90  C   UNL A   1      35.316  23.070  26.287  1.00  0.00     0.120 C 
ATOM     91  C   UNL A   1      35.989  22.310  24.144  1.00  0.00     0.120 C 
ATOM     92  C   UNL A   1      36.317  24.080  25.757  1.00  0.00     0.023 C 
ATOM     93  C   UNL A   1      37.044  23.283  24.673  1.00  0.00     0.023 C 
ENDBRANCH  86  87
ENDBRANCH  79  81
ENDBRANCH  71  77
ENDBRANCH  66  69
ENDBRANCH  64  65
ENDBRANCH   1  64
TORSDOF 14
ENDMDL
