MODEL 1
REMARK VINA RESULT:     -10.7      0.000      0.000
REMARK SMILES CC(C)(C)OC(=O)NC[C@H]1CC[C@@H](C(=O)NCCCCNC(=O)c2ccc(-c3c4nc(c(-c5c(F)cccc5F)c5ccc([nH]5)c(-c5c(F)cccc5F)c5nc(c(-c6c(F)cccc6F)c6ccc3[nH]6)C=C5)C=C4)cc2)CC1
REMARK SMILES IDX 17 1 16 2 14 3 15 4 13 6 10 7 11 8 79 9 12 10 78 11 9 12
REMARK SMILES IDX 8 13 6 14 7 15 5 17 2 18 1 19 3 20 4 21 18 22 19 23 20 24
REMARK SMILES IDX 21 25 22 26 23 28 24 29 25 30 77 31 26 32 76 33 27 34 28 35
REMARK SMILES IDX 29 36 70 37 30 38 75 39 69 40 71 41 31 42 74 43 68 44 67 45
REMARK SMILES IDX 32 47 58 48 41 49 57 50 42 51 45 52 56 53 72 54 43 55 44 56
REMARK SMILES IDX 55 58 73 59 46 60 33 61 34 62 39 63 35 64 36 65 38 66 40 67
REMARK SMILES IDX 37 68 59 69 60 70 65 71 61 72 62 73 64 74 66 75 63 76 47 77
REMARK SMILES IDX 48 78 53 79 49 80 50 81 52 82 54 83 51 84
REMARK H PARENT 16 5 8 16 21 27 71 46 45 57
REMARK Flexibility Score: inf
ROOT
ATOM      1  C   UNL A   1      33.076  28.999  23.418  1.00  0.00     0.116 C 
ENDROOT
BRANCH   1   2
ATOM      2  N   UNL A   1      31.928  29.263  22.592  1.00  0.00    -0.356 N 
ATOM      3  C   UNL A   1      30.840  28.498  22.324  1.00  0.00     0.223 C 
ATOM      4  O   UNL A   1      29.878  29.093  21.822  1.00  0.00    -0.275 OA
ATOM      5  H   UNL A   1      31.935  30.142  22.148  1.00  0.00     0.163 HD
BRANCH   3   6
ATOM      6  C   UNL A   1      30.738  26.980  22.580  1.00  0.00     0.078 C 
ATOM      7  C   UNL A   1      32.915  25.259  23.816  1.00  0.00     0.008 C 
ATOM      8  C   UNL A   1      31.954  26.086  24.694  1.00  0.00     0.006 C 
ATOM      9  C   UNL A   1      32.932  25.627  22.321  1.00  0.00     0.006 C 
ATOM     10  C   UNL A   1      30.648  26.506  24.030  1.00  0.00     0.014 C 
ATOM     11  C   UNL A   1      31.614  26.084  21.711  1.00  0.00     0.014 C 
BRANCH   7  12
ATOM     12  C   UNL A   1      34.363  25.226  24.397  1.00  0.00     0.123 C 
BRANCH  12  13
ATOM     13  N   UNL A   1      34.439  24.610  25.711  1.00  0.00    -0.321 N 
ATOM     14  C   UNL A   1      34.655  23.302  26.024  1.00  0.00     0.407 C 
ATOM     15  O   UNL A   1      34.434  22.895  27.156  1.00  0.00    -0.225 OA
ATOM     16  H   UNL A   1      34.319  25.219  26.477  1.00  0.00     0.167 HD
BRANCH  14  17
ATOM     17  O   UNL A   1      35.124  22.581  24.986  1.00  0.00    -0.444 OA
BRANCH  17  18
ATOM     18  C   UNL A   1      36.550  22.384  24.820  1.00  0.00     0.106 C 
ATOM     19  C   UNL A   1      36.808  22.702  23.340  1.00  0.00     0.056 C 
ATOM     20  C   UNL A   1      36.931  20.926  25.092  1.00  0.00     0.056 C 
ATOM     21  C   UNL A   1      37.375  23.358  25.674  1.00  0.00     0.056 C 
ENDBRANCH  17  18
ENDBRANCH  14  17
ENDBRANCH  12  13
ENDBRANCH   7  12
ENDBRANCH   3   6
ENDBRANCH   1   2
BRANCH   1  22
ATOM     22  C   UNL A   1      32.966  29.535  24.848  1.00  0.00     0.023 C 
BRANCH  22  23
ATOM     23  C   UNL A   1      33.950  28.925  25.837  1.00  0.00     0.023 C 
BRANCH  23  24
ATOM     24  C   UNL A   1      33.556  29.032  27.308  1.00  0.00     0.116 C 
BRANCH  24  25
ATOM     25  N   UNL A   1      33.691  30.355  27.904  1.00  0.00    -0.352 N 
ATOM     26  C   UNL A   1      34.850  30.948  28.366  1.00  0.00     0.251 C 
ATOM     27  H   UNL A   1      32.866  30.885  27.985  1.00  0.00     0.163 HD
ATOM     28  O   UNL A   1      34.846  32.096  28.796  1.00  0.00    -0.269 OA
BRANCH  26  29
ATOM     29  C   UNL A   1      36.075  30.123  28.450  1.00  0.00     0.039 A 
ATOM     30  C   UNL A   1      36.971  30.172  27.381  1.00  0.00     0.014 A 
ATOM     31  C   UNL A   1      36.417  29.468  29.635  1.00  0.00     0.014 A 
ATOM     32  C   UNL A   1      38.259  29.665  27.543  1.00  0.00     0.010 A 
ATOM     33  C   UNL A   1      37.732  29.057  29.828  1.00  0.00     0.010 A 
ATOM     34  C   UNL A   1      38.674  29.168  28.791  1.00  0.00    -0.014 A 
BRANCH  34  35
ATOM     35  C   UNL A   1      40.090  28.781  29.024  1.00  0.00     0.031 A 
ATOM     36  C   UNL A   1      41.034  29.744  29.688  1.00  0.00     0.074 A 
ATOM     37  C   UNL A   1      40.541  27.583  28.597  1.00  0.00     0.049 A 
ATOM     38  N   UNL A   1      42.311  29.608  29.942  1.00  0.00    -0.248 NA
ATOM     39  C   UNL A   1      40.474  31.042  30.098  1.00  0.00     0.031 C 
ATOM     40  C   UNL A   1      39.743  26.578  27.889  1.00  0.00     0.029 A 
ATOM     41  N   UNL A   1      41.785  27.006  28.692  1.00  0.00    -0.354 N 
ATOM     42  C   UNL A   1      42.704  30.799  30.536  1.00  0.00     0.074 A 
ATOM     43  C   UNL A   1      41.552  31.673  30.538  1.00  0.00     0.031 C 
ATOM     44  C   UNL A   1      40.506  25.501  27.645  1.00  0.00     0.029 A 
ATOM     45  C   UNL A   1      41.857  25.749  28.138  1.00  0.00     0.049 A 
ATOM     46  H   UNL A   1      42.552  27.451  29.118  1.00  0.00     0.167 HD
ATOM     47  C   UNL A   1      43.908  31.127  31.063  1.00  0.00     0.037 A 
ATOM     48  C   UNL A   1      42.894  24.895  28.034  1.00  0.00     0.037 A 
ATOM     49  C   UNL A   1      45.051  30.254  31.070  1.00  0.00     0.049 A 
ATOM     50  C   UNL A   1      44.228  25.291  28.608  1.00  0.00     0.074 A 
ATOM     51  C   UNL A   1      46.303  30.479  31.611  1.00  0.00     0.029 A 
ATOM     52  N   UNL A   1      45.080  28.986  30.507  1.00  0.00    -0.354 N 
ATOM     53  N   UNL A   1      44.568  26.399  29.223  1.00  0.00    -0.248 NA
ATOM     54  C   UNL A   1      45.320  24.316  28.483  1.00  0.00     0.031 C 
ATOM     55  C   UNL A   1      47.106  29.369  31.334  1.00  0.00     0.029 A 
ATOM     56  C   UNL A   1      46.336  28.425  30.672  1.00  0.00     0.049 A 
ATOM     57  H   UNL A   1      44.321  28.549  30.058  1.00  0.00     0.167 HD
ATOM     58  C   UNL A   1      45.901  26.242  29.581  1.00  0.00     0.074 A 
ATOM     59  C   UNL A   1      46.303  24.926  29.130  1.00  0.00     0.031 C 
ATOM     60  C   UNL A   1      46.719  27.111  30.225  1.00  0.00     0.037 A 
BRANCH  47  61
ATOM     61  C   UNL A   1      44.040  32.487  31.684  1.00  0.00     0.057 A 
ATOM     62  C   UNL A   1      43.765  32.708  33.041  1.00  0.00     0.134 A 
ATOM     63  C   UNL A   1      44.474  33.584  30.928  1.00  0.00     0.134 A 
ATOM     64  F   UNL A   1      43.331  31.704  33.819  1.00  0.00    -0.206 F 
ATOM     65  C   UNL A   1      43.888  33.973  33.615  1.00  0.00     0.040 A 
ATOM     66  C   UNL A   1      44.631  34.847  31.499  1.00  0.00     0.040 A 
ATOM     67  F   UNL A   1      44.759  33.443  29.625  1.00  0.00    -0.206 F 
ATOM     68  C   UNL A   1      44.331  35.046  32.845  1.00  0.00     0.006 A 
ENDBRANCH  47  61
BRANCH  48  69
ATOM     69  C   UNL A   1      42.715  23.576  27.372  1.00  0.00     0.057 A 
ATOM     70  C   UNL A   1      42.881  23.429  25.989  1.00  0.00     0.134 A 
ATOM     71  C   UNL A   1      42.358  22.435  28.101  1.00  0.00     0.134 A 
ATOM     72  F   UNL A   1      43.203  24.488  25.231  1.00  0.00    -0.206 F 
ATOM     73  C   UNL A   1      42.676  22.203  25.352  1.00  0.00     0.040 A 
ATOM     74  C   UNL A   1      42.178  21.197  27.481  1.00  0.00     0.040 A 
ATOM     75  F   UNL A   1      42.190  22.505  29.430  1.00  0.00    -0.206 F 
ATOM     76  C   UNL A   1      42.328  21.081  26.101  1.00  0.00     0.006 A 
ENDBRANCH  48  69
BRANCH  60  77
ATOM     77  C   UNL A   1      48.120  26.654  30.517  1.00  0.00     0.057 A 
ATOM     78  C   UNL A   1      49.192  26.960  29.670  1.00  0.00     0.134 A 
ATOM     79  C   UNL A   1      48.403  25.937  31.687  1.00  0.00     0.134 A 
ATOM     80  F   UNL A   1      48.987  27.633  28.528  1.00  0.00    -0.206 F 
ATOM     81  C   UNL A   1      50.493  26.548  29.965  1.00  0.00     0.040 A 
ATOM     82  C   UNL A   1      49.704  25.546  32.007  1.00  0.00     0.040 A 
ATOM     83  F   UNL A   1      47.423  25.621  32.547  1.00  0.00    -0.206 F 
ATOM     84  C   UNL A   1      50.753  25.847  31.141  1.00  0.00     0.006 A 
ENDBRANCH  60  77
ENDBRANCH  34  35
ENDBRANCH  26  29
ENDBRANCH  24  25
ENDBRANCH  23  24
ENDBRANCH  22  23
ENDBRANCH   1  22
TORSDOF 15
ENDMDL
MODEL 2
REMARK VINA RESULT:     -10.6      2.057      6.925
REMARK SMILES CC(C)(C)OC(=O)NC[C@H]1CC[C@@H](C(=O)NCCCCNC(=O)c2ccc(-c3c4nc(c(-c5c(F)cccc5F)c5ccc([nH]5)c(-c5c(F)cccc5F)c5nc(c(-c6c(F)cccc6F)c6ccc3[nH]6)C=C5)C=C4)cc2)CC1
REMARK SMILES IDX 17 1 16 2 14 3 15 4 13 6 10 7 11 8 79 9 12 10 78 11 9 12
REMARK SMILES IDX 8 13 6 14 7 15 5 17 2 18 1 19 3 20 4 21 18 22 19 23 20 24
REMARK SMILES IDX 21 25 22 26 23 28 24 29 25 30 77 31 26 32 76 33 27 34 28 35
REMARK SMILES IDX 29 36 70 37 30 38 75 39 69 40 71 41 31 42 74 43 68 44 67 45
REMARK SMILES IDX 32 47 58 48 41 49 57 50 42 51 45 52 56 53 72 54 43 55 44 56
REMARK SMILES IDX 55 58 73 59 46 60 33 61 34 62 39 63 35 64 36 65 38 66 40 67
REMARK SMILES IDX 37 68 59 69 60 70 65 71 61 72 62 73 64 74 66 75 63 76 47 77
REMARK SMILES IDX 48 78 53 79 49 80 50 81 52 82 54 83 51 84
REMARK H PARENT 16 5 8 16 21 27 71 46 45 57
REMARK Flexibility Score: inf
ROOT
ATOM      1  C   UNL A   1      31.137  27.002  25.898  1.00  0.00     0.116 C 
ENDROOT
BRANCH   1   2
ATOM      2  N   UNL A   1      31.042  25.697  26.493  1.00  0.00    -0.356 N 
ATOM      3  C   UNL A   1      31.898  24.644  26.452  1.00  0.00     0.223 C 
ATOM      4  O   UNL A   1      31.698  23.759  27.293  1.00  0.00    -0.275 OA
ATOM      5  H   UNL A   1      30.221  25.541  27.014  1.00  0.00     0.163 HD
BRANCH   3   6
ATOM      6  C   UNL A   1      33.052  24.478  25.441  1.00  0.00     0.078 C 
ATOM      7  C   UNL A   1      34.413  21.853  24.747  1.00  0.00     0.008 C 
ATOM      8  C   UNL A   1      33.084  22.265  24.084  1.00  0.00     0.006 C 
ATOM      9  C   UNL A   1      34.808  22.657  26.000  1.00  0.00     0.006 C 
ATOM     10  C   UNL A   1      32.753  23.752  24.131  1.00  0.00     0.014 C 
ATOM     11  C   UNL A   1      34.418  24.129  26.022  1.00  0.00     0.014 C 
BRANCH   7  12
ATOM     12  C   UNL A   1      34.484  20.320  25.027  1.00  0.00     0.123 C 
BRANCH  12  13
ATOM     13  N   UNL A   1      33.176  19.691  25.108  1.00  0.00    -0.321 N 
ATOM     14  C   UNL A   1      32.876  18.363  25.167  1.00  0.00     0.407 C 
ATOM     15  O   UNL A   1      31.730  17.982  24.971  1.00  0.00    -0.225 OA
ATOM     16  H   UNL A   1      32.406  20.305  25.122  1.00  0.00     0.167 HD
BRANCH  14  17
ATOM     17  O   UNL A   1      33.941  17.593  25.465  1.00  0.00    -0.444 OA
BRANCH  17  18
ATOM     18  C   UNL A   1      34.132  16.322  24.796  1.00  0.00     0.106 C 
ATOM     19  C   UNL A   1      35.478  15.809  25.328  1.00  0.00     0.056 C 
ATOM     20  C   UNL A   1      34.236  16.519  23.280  1.00  0.00     0.056 C 
ATOM     21  C   UNL A   1      33.045  15.301  25.164  1.00  0.00     0.056 C 
ENDBRANCH  17  18
ENDBRANCH  14  17
ENDBRANCH  12  13
ENDBRANCH   7  12
ENDBRANCH   3   6
ENDBRANCH   1   2
BRANCH   1  22
ATOM     22  C   UNL A   1      31.620  28.100  26.849  1.00  0.00     0.023 C 
BRANCH  22  23
ATOM     23  C   UNL A   1      32.749  28.966  26.307  1.00  0.00     0.023 C 
BRANCH  23  24
ATOM     24  C   UNL A   1      33.975  29.089  27.206  1.00  0.00     0.116 C 
BRANCH  24  25
ATOM     25  N   UNL A   1      34.018  30.271  28.059  1.00  0.00    -0.352 N 
ATOM     26  C   UNL A   1      35.123  30.803  28.695  1.00  0.00     0.251 C 
ATOM     27  H   UNL A   1      33.164  30.741  28.197  1.00  0.00     0.163 HD
ATOM     28  O   UNL A   1      35.043  31.841  29.342  1.00  0.00    -0.269 OA
BRANCH  26  29
ATOM     29  C   UNL A   1      36.381  30.025  28.683  1.00  0.00     0.039 A 
ATOM     30  C   UNL A   1      37.200  30.124  27.557  1.00  0.00     0.014 A 
ATOM     31  C   UNL A   1      36.827  29.368  29.831  1.00  0.00     0.014 A 
ATOM     32  C   UNL A   1      38.515  29.666  27.624  1.00  0.00     0.010 A 
ATOM     33  C   UNL A   1      38.167  29.005  29.928  1.00  0.00     0.010 A 
ATOM     34  C   UNL A   1      39.032  29.167  28.832  1.00  0.00    -0.014 A 
BRANCH  34  35
ATOM     35  C   UNL A   1      40.474  28.833  28.963  1.00  0.00     0.031 A 
ATOM     36  C   UNL A   1      40.971  27.473  28.560  1.00  0.00     0.074 A 
ATOM     37  C   UNL A   1      41.330  29.734  29.489  1.00  0.00     0.049 A 
ATOM     38  N   UNL A   1      42.180  26.978  28.636  1.00  0.00    -0.248 NA
ATOM     39  C   UNL A   1      39.971  26.536  28.024  1.00  0.00     0.031 C 
ATOM     40  C   UNL A   1      40.968  31.070  29.971  1.00  0.00     0.029 A 
ATOM     41  N   UNL A   1      42.685  29.663  29.709  1.00  0.00    -0.354 N 
ATOM     42  C   UNL A   1      42.084  25.677  28.162  1.00  0.00     0.074 A 
ATOM     43  C   UNL A   1      40.689  25.433  27.871  1.00  0.00     0.031 C 
ATOM     44  C   UNL A   1      42.074  31.700  30.398  1.00  0.00     0.029 A 
ATOM     45  C   UNL A   1      43.217  30.804  30.262  1.00  0.00     0.049 A 
ATOM     46  H   UNL A   1      43.223  28.868  29.492  1.00  0.00     0.167 HD
ATOM     47  C   UNL A   1      43.073  24.775  27.957  1.00  0.00     0.037 A 
ATOM     48  C   UNL A   1      44.483  31.094  30.622  1.00  0.00     0.037 A 
ATOM     49  C   UNL A   1      44.462  25.021  28.237  1.00  0.00     0.049 A 
ATOM     50  C   UNL A   1      45.561  30.067  30.404  1.00  0.00     0.074 A 
ATOM     51  C   UNL A   1      45.544  24.184  28.030  1.00  0.00     0.029 A 
ATOM     52  N   UNL A   1      44.961  26.192  28.787  1.00  0.00    -0.354 N 
ATOM     53  N   UNL A   1      45.463  28.861  29.897  1.00  0.00    -0.248 NA
ATOM     54  C   UNL A   1      46.925  30.442  30.800  1.00  0.00     0.031 C 
ATOM     55  C   UNL A   1      46.692  24.829  28.499  1.00  0.00     0.029 A 
ATOM     56  C   UNL A   1      46.334  26.093  28.944  1.00  0.00     0.049 A 
ATOM     57  H   UNL A   1      44.421  26.979  29.030  1.00  0.00     0.167 HD
ATOM     58  C   UNL A   1      46.754  28.347  29.886  1.00  0.00     0.074 A 
ATOM     59  C   UNL A   1      47.619  29.377  30.422  1.00  0.00     0.031 C 
ATOM     60  C   UNL A   1      47.183  27.130  29.471  1.00  0.00     0.037 A 
BRANCH  47  61
ATOM     61  C   UNL A   1      42.680  23.441  27.391  1.00  0.00     0.057 A 
ATOM     62  C   UNL A   1      42.710  23.187  26.013  1.00  0.00     0.134 A 
ATOM     63  C   UNL A   1      42.296  22.388  28.232  1.00  0.00     0.134 A 
ATOM     64  F   UNL A   1      43.055  24.156  25.150  1.00  0.00    -0.206 F 
ATOM     65  C   UNL A   1      42.344  21.947  25.490  1.00  0.00     0.040 A 
ATOM     66  C   UNL A   1      41.958  21.134  27.723  1.00  0.00     0.040 A 
ATOM     67  F   UNL A   1      42.250  22.560  29.562  1.00  0.00    -0.206 F 
ATOM     68  C   UNL A   1      41.975  20.912  26.347  1.00  0.00     0.006 A 
ENDBRANCH  47  61
BRANCH  48  69
ATOM     69  C   UNL A   1      44.807  32.419  31.216  1.00  0.00     0.057 A 
ATOM     70  C   UNL A   1      45.206  33.496  30.415  1.00  0.00     0.134 A 
ATOM     71  C   UNL A   1      44.743  32.635  32.598  1.00  0.00     0.134 A 
ATOM     72  F   UNL A   1      45.308  33.348  29.086  1.00  0.00    -0.206 F 
ATOM     73  C   UNL A   1      45.552  34.731  30.967  1.00  0.00     0.040 A 
ATOM     74  C   UNL A   1      45.059  33.874  33.161  1.00  0.00     0.040 A 
ATOM     75  F   UNL A   1      44.361  31.648  33.422  1.00  0.00    -0.206 F 
ATOM     76  C   UNL A   1      45.473  34.923  32.345  1.00  0.00     0.006 A 
ENDBRANCH  48  69
BRANCH  60  77
ATOM     77  C   UNL A   1      48.659  26.857  29.541  1.00  0.00     0.057 A 
ATOM     78  C   UNL A   1      49.239  26.187  30.626  1.00  0.00     0.134 A 
ATOM     79  C   UNL A   1      49.501  27.230  28.485  1.00  0.00     0.134 A 
ATOM     80  F   UNL A   1      48.491  25.813  31.674  1.00  0.00    -0.206 F 
ATOM     81  C   UNL A   1      50.609  25.921  30.668  1.00  0.00     0.040 A 
ATOM     82  C   UNL A   1      50.866  26.942  28.503  1.00  0.00     0.040 A 
ATOM     83  F   UNL A   1      49.007  27.865  27.412  1.00  0.00    -0.206 F 
ATOM     84  C   UNL A   1      51.424  26.290  29.601  1.00  0.00     0.006 A 
ENDBRANCH  60  77
ENDBRANCH  34  35
ENDBRANCH  26  29
ENDBRANCH  24  25
ENDBRANCH  23  24
ENDBRANCH  22  23
ENDBRANCH   1  22
TORSDOF 15
ENDMDL
MODEL 3
REMARK VINA RESULT:     -10.6      2.146      7.797
REMARK SMILES CC(C)(C)OC(=O)NC[C@H]1CC[C@@H](C(=O)NCCCCNC(=O)c2ccc(-c3c4nc(c(-c5c(F)cccc5F)c5ccc([nH]5)c(-c5c(F)cccc5F)c5nc(c(-c6c(F)cccc6F)c6ccc3[nH]6)C=C5)C=C4)cc2)CC1
REMARK SMILES IDX 17 1 16 2 14 3 15 4 13 6 10 7 11 8 79 9 12 10 78 11 9 12
REMARK SMILES IDX 8 13 6 14 7 15 5 17 2 18 1 19 3 20 4 21 18 22 19 23 20 24
REMARK SMILES IDX 21 25 22 26 23 28 24 29 25 30 77 31 26 32 76 33 27 34 28 35
REMARK SMILES IDX 29 36 70 37 30 38 75 39 69 40 71 41 31 42 74 43 68 44 67 45
REMARK SMILES IDX 32 47 58 48 41 49 57 50 42 51 45 52 56 53 72 54 43 55 44 56
REMARK SMILES IDX 55 58 73 59 46 60 33 61 34 62 39 63 35 64 36 65 38 66 40 67
REMARK SMILES IDX 37 68 59 69 60 70 65 71 61 72 62 73 64 74 66 75 63 76 47 77
REMARK SMILES IDX 48 78 53 79 49 80 50 81 52 82 54 83 51 84
REMARK H PARENT 16 5 8 16 21 27 71 46 45 57
REMARK Flexibility Score: inf
ROOT
ATOM      1  C   UNL A   1      35.190  21.841  25.999  1.00  0.00     0.116 C 
ENDROOT
BRANCH   1   2
ATOM      2  N   UNL A   1      34.929  20.477  25.626  1.00  0.00    -0.356 N 
ATOM      3  C   UNL A   1      34.002  19.955  24.782  1.00  0.00     0.223 C 
ATOM      4  O   UNL A   1      34.200  18.785  24.428  1.00  0.00    -0.275 OA
ATOM      5  H   UNL A   1      35.518  19.814  26.053  1.00  0.00     0.163 HD
BRANCH   3   6
ATOM      6  C   UNL A   1      32.749  20.697  24.272  1.00  0.00     0.078 C 
ATOM      7  C   UNL A   1      32.205  23.665  24.621  1.00  0.00     0.008 C 
ATOM      8  C   UNL A   1      33.105  23.145  23.482  1.00  0.00     0.006 C 
ATOM      9  C   UNL A   1      31.902  22.654  25.743  1.00  0.00     0.006 C 
ATOM     10  C   UNL A   1      32.925  21.677  23.113  1.00  0.00     0.014 C 
ATOM     11  C   UNL A   1      31.774  21.193  25.333  1.00  0.00     0.014 C 
BRANCH   7  12
ATOM     12  C   UNL A   1      32.721  25.013  25.212  1.00  0.00     0.123 C 
BRANCH  12  13
ATOM     13  N   UNL A   1      32.891  26.052  24.210  1.00  0.00    -0.321 N 
ATOM     14  C   UNL A   1      32.286  27.271  24.141  1.00  0.00     0.407 C 
ATOM     15  O   UNL A   1      32.333  27.924  23.107  1.00  0.00    -0.225 OA
ATOM     16  H   UNL A   1      33.526  25.848  23.485  1.00  0.00     0.167 HD
BRANCH  14  17
ATOM     17  O   UNL A   1      31.687  27.630  25.294  1.00  0.00    -0.444 OA
BRANCH  17  18
ATOM     18  C   UNL A   1      32.257  28.680  26.115  1.00  0.00     0.106 C 
ATOM     19  C   UNL A   1      31.750  28.371  27.532  1.00  0.00     0.056 C 
ATOM     20  C   UNL A   1      31.728  30.051  25.684  1.00  0.00     0.056 C 
ATOM     21  C   UNL A   1      33.791  28.639  26.130  1.00  0.00     0.056 C 
ENDBRANCH  17  18
ENDBRANCH  14  17
ENDBRANCH  12  13
ENDBRANCH   7  12
ENDBRANCH   3   6
ENDBRANCH   1   2
BRANCH   1  22
ATOM     22  C   UNL A   1      36.347  22.497  25.240  1.00  0.00     0.023 C 
BRANCH  22  23
ATOM     23  C   UNL A   1      37.432  21.536  24.774  1.00  0.00     0.023 C 
BRANCH  23  24
ATOM     24  C   UNL A   1      38.576  21.307  25.758  1.00  0.00     0.116 C 
BRANCH  24  25
ATOM     25  N   UNL A   1      39.381  20.115  25.524  1.00  0.00    -0.352 N 
ATOM     26  C   UNL A   1      40.669  19.877  25.965  1.00  0.00     0.251 C 
ATOM     27  H   UNL A   1      38.961  19.400  24.993  1.00  0.00     0.163 HD
ATOM     28  O   UNL A   1      41.224  18.805  25.751  1.00  0.00    -0.269 OA
BRANCH  26  29
ATOM     29  C   UNL A   1      41.413  20.992  26.590  1.00  0.00     0.039 A 
ATOM     30  C   UNL A   1      42.016  21.929  25.750  1.00  0.00     0.014 A 
ATOM     31  C   UNL A   1      41.355  21.206  27.969  1.00  0.00     0.014 A 
ATOM     32  C   UNL A   1      42.455  23.141  26.280  1.00  0.00     0.010 A 
ATOM     33  C   UNL A   1      41.701  22.455  28.477  1.00  0.00     0.010 A 
ATOM     34  C   UNL A   1      42.237  23.444  27.635  1.00  0.00    -0.014 A 
BRANCH  34  35
ATOM     35  C   UNL A   1      42.548  24.794  28.173  1.00  0.00     0.031 A 
ATOM     36  C   UNL A   1      43.951  25.132  28.594  1.00  0.00     0.074 A 
ATOM     37  C   UNL A   1      41.562  25.702  28.328  1.00  0.00     0.049 A 
ATOM     38  N   UNL A   1      44.412  26.237  29.123  1.00  0.00    -0.248 NA
ATOM     39  C   UNL A   1      44.965  24.079  28.422  1.00  0.00     0.031 C 
ATOM     40  C   UNL A   1      40.148  25.483  28.011  1.00  0.00     0.029 A 
ATOM     41  N   UNL A   1      41.596  26.994  28.796  1.00  0.00    -0.354 N 
ATOM     42  C   UNL A   1      45.763  26.010  29.347  1.00  0.00     0.074 A 
ATOM     43  C   UNL A   1      46.033  24.641  28.968  1.00  0.00     0.031 C 
ATOM     44  C   UNL A   1      39.460  26.608  28.261  1.00  0.00     0.029 A 
ATOM     45  C   UNL A   1      40.370  27.616  28.797  1.00  0.00     0.049 A 
ATOM     46  H   UNL A   1      42.422  27.432  29.102  1.00  0.00     0.167 HD
ATOM     47  C   UNL A   1      46.704  26.873  29.799  1.00  0.00     0.037 A 
ATOM     48  C   UNL A   1      40.016  28.856  29.189  1.00  0.00     0.037 A 
ATOM     49  C   UNL A   1      46.438  28.237  30.167  1.00  0.00     0.049 A 
ATOM     50  C   UNL A   1      41.076  29.789  29.708  1.00  0.00     0.074 A 
ATOM     51  C   UNL A   1      47.329  29.202  30.601  1.00  0.00     0.029 A 
ATOM     52  N   UNL A   1      45.185  28.832  30.144  1.00  0.00    -0.354 N 
ATOM     53  N   UNL A   1      42.362  29.579  29.856  1.00  0.00    -0.248 NA
ATOM     54  C   UNL A   1      40.640  31.135  30.106  1.00  0.00     0.031 C 
ATOM     55  C   UNL A   1      46.610  30.365  30.888  1.00  0.00     0.029 A 
ATOM     56  C   UNL A   1      45.277  30.145  30.576  1.00  0.00     0.049 A 
ATOM     57  H   UNL A   1      44.353  28.387  29.863  1.00  0.00     0.167 HD
ATOM     58  C   UNL A   1      42.891  30.772  30.336  1.00  0.00     0.074 A 
ATOM     59  C   UNL A   1      41.789  31.706  30.438  1.00  0.00     0.031 C 
ATOM     60  C   UNL A   1      44.173  31.065  30.664  1.00  0.00     0.037 A 
BRANCH  47  61
ATOM     61  C   UNL A   1      48.111  26.361  29.908  1.00  0.00     0.057 A 
ATOM     62  C   UNL A   1      49.015  26.457  28.841  1.00  0.00     0.134 A 
ATOM     63  C   UNL A   1      48.579  25.793  31.100  1.00  0.00     0.134 A 
ATOM     64  F   UNL A   1      48.628  26.978  27.666  1.00  0.00    -0.206 F 
ATOM     65  C   UNL A   1      50.322  25.980  28.945  1.00  0.00     0.040 A 
ATOM     66  C   UNL A   1      49.893  25.341  31.226  1.00  0.00     0.040 A 
ATOM     67  F   UNL A   1      47.769  25.674  32.162  1.00  0.00    -0.206 F 
ATOM     68  C   UNL A   1      50.767  25.428  30.144  1.00  0.00     0.006 A 
ENDBRANCH  47  61
BRANCH  48  69
ATOM     69  C   UNL A   1      38.599  29.295  29.096  1.00  0.00     0.057 A 
ATOM     70  C   UNL A   1      37.760  29.283  30.217  1.00  0.00     0.134 A 
ATOM     71  C   UNL A   1      38.043  29.721  27.883  1.00  0.00     0.134 A 
ATOM     72  F   UNL A   1      38.225  28.866  31.404  1.00  0.00    -0.206 F 
ATOM     73  C   UNL A   1      36.416  29.656  30.132  1.00  0.00     0.040 A 
ATOM     74  C   UNL A   1      36.709  30.123  27.790  1.00  0.00     0.040 A 
ATOM     75  F   UNL A   1      38.794  29.764  26.772  1.00  0.00    -0.206 F 
ATOM     76  C   UNL A   1      35.890  30.083  28.915  1.00  0.00     0.006 A 
ENDBRANCH  48  69
BRANCH  60  77
ATOM     77  C   UNL A   1      44.464  32.465  31.126  1.00  0.00     0.057 A 
ATOM     78  C   UNL A   1      44.781  33.492  30.229  1.00  0.00     0.134 A 
ATOM     79  C   UNL A   1      44.381  32.795  32.485  1.00  0.00     0.134 A 
ATOM     80  F   UNL A   1      44.888  33.240  28.915  1.00  0.00    -0.206 F 
ATOM     81  C   UNL A   1      45.028  34.794  30.670  1.00  0.00     0.040 A 
ATOM     82  C   UNL A   1      44.596  34.098  32.934  1.00  0.00     0.040 A 
ATOM     83  F   UNL A   1      44.072  31.860  33.396  1.00  0.00    -0.206 F 
ATOM     84  C   UNL A   1      44.927  35.101  32.025  1.00  0.00     0.006 A 
ENDBRANCH  60  77
ENDBRANCH  34  35
ENDBRANCH  26  29
ENDBRANCH  24  25
ENDBRANCH  23  24
ENDBRANCH  22  23
ENDBRANCH   1  22
TORSDOF 15
ENDMDL
