MODEL 1
REMARK VINA RESULT:     -11.9      0.000      0.000
REMARK SMILES CC(C)c1nc(N2C[C@H](C)OC(C)(C)C2)sc1C(=O)NCCCCNC(=O)c1ccc(-c2c3nc(c(-c4c(F)cccc4F)c4ccc([nH]4)c(-c4c(F)cccc4F)c4nc(c(-c5c(F)cccc5F)c5ccc2[nH]5)C=C4)C=C3)cc1
REMARK SMILES IDX 23 1 22 2 21 3 20 4 18 5 19 6 17 8 4 9 5 10 6 11 16 12 2 13
REMARK SMILES IDX 1 14 3 15 7 16 8 17 15 18 9 19 12 20 11 21 10 22 13 23 14 24
REMARK SMILES IDX 24 25 25 26 26 27 27 29 28 30 29 31 81 32 30 33 80 34 31 35
REMARK SMILES IDX 32 36 33 37 74 38 34 39 79 40 73 41 75 42 35 43 78 44 72 45
REMARK SMILES IDX 71 46 36 48 62 49 45 50 61 51 46 52 49 53 60 54 76 55 47 56
REMARK SMILES IDX 48 57 59 59 77 60 50 61 37 62 38 63 43 64 39 65 40 66 42 67
REMARK SMILES IDX 44 68 41 69 63 70 64 71 69 72 65 73 66 74 68 75 70 76 67 77
REMARK SMILES IDX 51 78 52 79 57 80 53 81 54 82 56 83 58 84 55 85
REMARK H PARENT 20 7 25 28 75 47 49 58
REMARK Flexibility Score: inf
ROOT
ATOM      1  C   UNL A   1      37.720  20.442  24.991  1.00  0.00     0.023 C 
ENDROOT
BRANCH   1   2
ATOM      2  C   UNL A   1      36.781  21.644  24.914  1.00  0.00     0.023 C 
BRANCH   2   3
ATOM      3  C   UNL A   1      35.359  21.381  25.418  1.00  0.00     0.116 C 
BRANCH   3   4
ATOM      4  N   UNL A   1      34.422  21.561  24.340  1.00  0.00    -0.351 N 
ATOM      5  C   UNL A   1      33.510  22.526  24.006  1.00  0.00     0.263 C 
ATOM      6  O   UNL A   1      32.889  22.228  22.975  1.00  0.00    -0.268 OA
ATOM      7  H   UNL A   1      34.442  20.820  23.693  1.00  0.00     0.163 HD
BRANCH   5   8
ATOM      8  C   UNL A   1      33.284  23.787  24.708  1.00  0.00     0.117 A 
ATOM      9  C   UNL A   1      32.699  24.260  25.886  1.00  0.00     0.069 A 
ATOM     10  N   UNL A   1      32.725  25.653  26.029  1.00  0.00    -0.224 NA
ATOM     11  C   UNL A   1      33.154  26.248  24.949  1.00  0.00     0.186 A 
ATOM     12  S   UNL A   1      33.777  25.180  23.775  1.00  0.00    -0.091 S 
BRANCH   9  13
ATOM     13  C   UNL A   1      31.939  23.551  26.980  1.00  0.00     0.034 C 
ATOM     14  C   UNL A   1      30.691  22.809  26.477  1.00  0.00     0.014 C 
ATOM     15  C   UNL A   1      32.841  22.561  27.720  1.00  0.00     0.014 C 
ENDBRANCH   9  13
BRANCH  11  16
ATOM     16  N   UNL A   1      33.137  27.588  24.755  1.00  0.00    -0.343 N 
ATOM     17  C   UNL A   1      32.239  28.172  23.758  1.00  0.00     0.150 C 
ATOM     18  C   UNL A   1      33.581  28.500  25.806  1.00  0.00     0.153 C 
ATOM     19  C   UNL A   1      31.061  28.862  24.473  1.00  0.00     0.135 C 
ATOM     20  C   UNL A   1      32.420  29.340  26.406  1.00  0.00     0.081 C 
ATOM     21  O   UNL A   1      31.538  29.866  25.387  1.00  0.00    -0.369 OA
ATOM     22  C   UNL A   1      30.145  29.555  23.472  1.00  0.00     0.040 C 
ATOM     23  C   UNL A   1      31.618  28.553  27.451  1.00  0.00     0.044 C 
ATOM     24  C   UNL A   1      33.020  30.579  27.094  1.00  0.00     0.044 C 
ENDBRANCH  11  16
ENDBRANCH   5   8
ENDBRANCH   3   4
ENDBRANCH   2   3
ENDBRANCH   1   2
BRANCH   1  25
ATOM     25  C   UNL A   1      39.004  20.704  25.763  1.00  0.00     0.116 C 
BRANCH  25  26
ATOM     26  N   UNL A   1      39.953  19.598  25.719  1.00  0.00    -0.352 N 
ATOM     27  C   UNL A   1      41.283  19.608  26.071  1.00  0.00     0.251 C 
ATOM     28  H   UNL A   1      39.599  18.738  25.398  1.00  0.00     0.163 HD
ATOM     29  O   UNL A   1      41.982  18.613  25.918  1.00  0.00    -0.269 OA
BRANCH  27  30
ATOM     30  C   UNL A   1      41.866  20.861  26.584  1.00  0.00     0.039 A 
ATOM     31  C   UNL A   1      42.326  21.813  25.673  1.00  0.00     0.014 A 
ATOM     32  C   UNL A   1      41.854  21.132  27.954  1.00  0.00     0.014 A 
ATOM     33  C   UNL A   1      42.691  23.079  26.132  1.00  0.00     0.010 A 
ATOM     34  C   UNL A   1      42.134  22.417  28.398  1.00  0.00     0.010 A 
ATOM     35  C   UNL A   1      42.548  23.405  27.491  1.00  0.00    -0.014 A 
BRANCH  35  36
ATOM     36  C   UNL A   1      42.819  24.776  27.991  1.00  0.00     0.031 A 
ATOM     37  C   UNL A   1      44.217  25.167  28.375  1.00  0.00     0.074 A 
ATOM     38  C   UNL A   1      41.797  25.631  28.186  1.00  0.00     0.049 A 
ATOM     39  N   UNL A   1      44.643  26.271  28.932  1.00  0.00    -0.248 NA
ATOM     40  C   UNL A   1      45.271  24.167  28.140  1.00  0.00     0.031 C 
ATOM     41  C   UNL A   1      40.386  25.347  27.916  1.00  0.00     0.029 A 
ATOM     42  N   UNL A   1      41.789  26.915  28.669  1.00  0.00    -0.354 N 
ATOM     43  C   UNL A   1      46.003  26.086  29.141  1.00  0.00     0.074 A 
ATOM     44  C   UNL A   1      46.322  24.746  28.699  1.00  0.00     0.031 C 
ATOM     45  C   UNL A   1      39.654  26.434  28.210  1.00  0.00     0.029 A 
ATOM     46  C   UNL A   1      40.537  27.478  28.719  1.00  0.00     0.049 A 
ATOM     47  H   UNL A   1      42.605  27.388  28.953  1.00  0.00     0.167 HD
ATOM     48  C   UNL A   1      46.911  26.962  29.631  1.00  0.00     0.037 A 
ATOM     49  C   UNL A   1      40.147  28.699  29.130  1.00  0.00     0.037 A 
ATOM     50  C   UNL A   1      46.602  28.311  30.019  1.00  0.00     0.049 A 
ATOM     51  C   UNL A   1      41.180  29.670  29.626  1.00  0.00     0.074 A 
ATOM     52  C   UNL A   1      47.463  29.303  30.452  1.00  0.00     0.029 A 
ATOM     53  N   UNL A   1      45.328  28.860  30.008  1.00  0.00    -0.354 N 
ATOM     54  N   UNL A   1      42.474  29.504  29.757  1.00  0.00    -0.248 NA
ATOM     55  C   UNL A   1      40.700  31.000  30.029  1.00  0.00     0.031 C 
ATOM     56  C   UNL A   1      46.707  30.448  30.728  1.00  0.00     0.029 A 
ATOM     57  C   UNL A   1      45.379  30.176  30.436  1.00  0.00     0.049 A 
ATOM     58  H   UNL A   1      44.511  28.385  29.738  1.00  0.00     0.167 HD
ATOM     59  C   UNL A   1      42.966  30.712  30.233  1.00  0.00     0.074 A 
ATOM     60  C   UNL A   1      41.833  31.606  30.357  1.00  0.00     0.031 C 
ATOM     61  C   UNL A   1      44.240  31.050  30.543  1.00  0.00     0.037 A 
BRANCH  48  62
ATOM     62  C   UNL A   1      48.326  26.483  29.758  1.00  0.00     0.057 A 
ATOM     63  C   UNL A   1      48.785  25.839  30.915  1.00  0.00     0.134 A 
ATOM     64  C   UNL A   1      49.238  26.660  28.711  1.00  0.00     0.134 A 
ATOM     65  F   UNL A   1      47.965  25.655  31.960  1.00  0.00    -0.206 F 
ATOM     66  C   UNL A   1      50.108  25.416  31.037  1.00  0.00     0.040 A 
ATOM     67  C   UNL A   1      50.558  26.217  28.812  1.00  0.00     0.040 A 
ATOM     68  F   UNL A   1      48.863  27.267  27.575  1.00  0.00    -0.206 F 
ATOM     69  C   UNL A   1      50.998  25.600  29.981  1.00  0.00     0.006 A 
ENDBRANCH  48  62
BRANCH  49  70
ATOM     70  C   UNL A   1      38.718  29.089  29.052  1.00  0.00     0.057 A 
ATOM     71  C   UNL A   1      37.892  29.008  30.180  1.00  0.00     0.134 A 
ATOM     72  C   UNL A   1      38.143  29.544  27.861  1.00  0.00     0.134 A 
ATOM     73  F   UNL A   1      38.384  28.563  31.346  1.00  0.00    -0.206 F 
ATOM     74  C   UNL A   1      36.541  29.351  30.122  1.00  0.00     0.040 A 
ATOM     75  C   UNL A   1      36.797  29.908  27.793  1.00  0.00     0.040 A 
ATOM     76  F   UNL A   1      38.884  29.651  26.749  1.00  0.00    -0.206 F 
ATOM     77  C   UNL A   1      35.990  29.806  28.926  1.00  0.00     0.006 A 
ENDBRANCH  49  70
BRANCH  61  78
ATOM     78  C   UNL A   1      44.480  32.452  31.017  1.00  0.00     0.057 A 
ATOM     79  C   UNL A   1      44.468  32.779  32.378  1.00  0.00     0.134 A 
ATOM     80  C   UNL A   1      44.767  33.474  30.103  1.00  0.00     0.134 A 
ATOM     81  F   UNL A   1      44.187  31.846  33.299  1.00  0.00    -0.206 F 
ATOM     82  C   UNL A   1      44.719  34.081  32.813  1.00  0.00     0.040 A 
ATOM     83  C   UNL A   1      45.039  34.774  30.528  1.00  0.00     0.040 A 
ATOM     84  F   UNL A   1      44.798  33.221  28.786  1.00  0.00    -0.206 F 
ATOM     85  C   UNL A   1      45.012  35.081  31.887  1.00  0.00     0.006 A 
ENDBRANCH  61  78
ENDBRANCH  35  36
ENDBRANCH  27  30
ENDBRANCH  25  26
ENDBRANCH   1  25
TORSDOF 13
ENDMDL
MODEL 2
REMARK VINA RESULT:     -11.9      1.099      2.419
REMARK SMILES CC(C)c1nc(N2C[C@H](C)OC(C)(C)C2)sc1C(=O)NCCCCNC(=O)c1ccc(-c2c3nc(c(-c4c(F)cccc4F)c4ccc([nH]4)c(-c4c(F)cccc4F)c4nc(c(-c5c(F)cccc5F)c5ccc2[nH]5)C=C4)C=C3)cc1
REMARK SMILES IDX 23 1 22 2 21 3 20 4 18 5 19 6 17 8 4 9 5 10 6 11 16 12 2 13
REMARK SMILES IDX 1 14 3 15 7 16 8 17 15 18 9 19 12 20 11 21 10 22 13 23 14 24
REMARK SMILES IDX 24 25 25 26 26 27 27 29 28 30 29 31 81 32 30 33 80 34 31 35
REMARK SMILES IDX 32 36 33 37 74 38 34 39 79 40 73 41 75 42 35 43 78 44 72 45
REMARK SMILES IDX 71 46 36 48 62 49 45 50 61 51 46 52 49 53 60 54 76 55 47 56
REMARK SMILES IDX 48 57 59 59 77 60 50 61 37 62 38 63 43 64 39 65 40 66 42 67
REMARK SMILES IDX 44 68 41 69 63 70 64 71 69 72 65 73 66 74 68 75 70 76 67 77
REMARK SMILES IDX 51 78 52 79 57 80 53 81 54 82 56 83 58 84 55 85
REMARK H PARENT 20 7 25 28 75 47 49 58
REMARK Flexibility Score: inf
ROOT
ATOM      1  C   UNL A   1      37.600  20.487  24.977  1.00  0.00     0.023 C 
ENDROOT
BRANCH   1   2
ATOM      2  C   UNL A   1      36.916  21.740  24.436  1.00  0.00     0.023 C 
BRANCH   2   3
ATOM      3  C   UNL A   1      36.437  22.723  25.509  1.00  0.00     0.116 C 
BRANCH   3   4
ATOM      4  N   UNL A   1      35.533  22.055  26.409  1.00  0.00    -0.351 N 
ATOM      5  C   UNL A   1      34.178  22.075  26.606  1.00  0.00     0.263 C 
ATOM      6  O   UNL A   1      33.844  21.335  27.543  1.00  0.00    -0.268 OA
ATOM      7  H   UNL A   1      35.995  21.441  27.023  1.00  0.00     0.163 HD
BRANCH   5   8
ATOM      8  C   UNL A   1      33.197  22.816  25.817  1.00  0.00     0.117 A 
ATOM      9  C   UNL A   1      32.730  22.896  24.501  1.00  0.00     0.069 A 
ATOM     10  N   UNL A   1      31.758  23.882  24.290  1.00  0.00    -0.224 NA
ATOM     11  C   UNL A   1      31.594  24.641  25.339  1.00  0.00     0.186 A 
ATOM     12  S   UNL A   1      32.417  24.087  26.726  1.00  0.00    -0.091 S 
BRANCH   9  13
ATOM     13  C   UNL A   1      33.166  22.192  23.240  1.00  0.00     0.034 C 
ATOM     14  C   UNL A   1      32.199  21.084  22.791  1.00  0.00     0.014 C 
ATOM     15  C   UNL A   1      33.350  23.186  22.093  1.00  0.00     0.014 C 
ENDBRANCH   9  13
BRANCH  11  16
ATOM     16  N   UNL A   1      30.834  25.761  25.362  1.00  0.00    -0.343 N 
ATOM     17  C   UNL A   1      31.009  26.744  26.432  1.00  0.00     0.150 C 
ATOM     18  C   UNL A   1      30.223  26.274  24.138  1.00  0.00     0.153 C 
ATOM     19  C   UNL A   1      31.750  27.977  25.879  1.00  0.00     0.135 C 
ATOM     20  C   UNL A   1      30.842  27.621  23.673  1.00  0.00     0.081 C 
ATOM     21  O   UNL A   1      31.031  28.546  24.770  1.00  0.00    -0.369 OA
ATOM     22  C   UNL A   1      31.879  29.058  26.943  1.00  0.00     0.040 C 
ATOM     23  C   UNL A   1      32.160  27.420  22.913  1.00  0.00     0.044 C 
ATOM     24  C   UNL A   1      29.845  28.317  22.731  1.00  0.00     0.044 C 
ENDBRANCH  11  16
ENDBRANCH   5   8
ENDBRANCH   3   4
ENDBRANCH   2   3
ENDBRANCH   1   2
BRANCH   1  25
ATOM     25  C   UNL A   1      38.900  20.758  25.717  1.00  0.00     0.116 C 
BRANCH  25  26
ATOM     26  N   UNL A   1      39.850  19.652  25.666  1.00  0.00    -0.352 N 
ATOM     27  C   UNL A   1      41.174  19.654  26.036  1.00  0.00     0.251 C 
ATOM     28  H   UNL A   1      39.499  18.799  25.324  1.00  0.00     0.163 HD
ATOM     29  O   UNL A   1      41.875  18.662  25.874  1.00  0.00    -0.269 OA
BRANCH  27  30
ATOM     30  C   UNL A   1      41.751  20.897  26.581  1.00  0.00     0.039 A 
ATOM     31  C   UNL A   1      42.262  21.847  25.696  1.00  0.00     0.014 A 
ATOM     32  C   UNL A   1      41.683  21.162  27.951  1.00  0.00     0.014 A 
ATOM     33  C   UNL A   1      42.624  23.106  26.177  1.00  0.00     0.010 A 
ATOM     34  C   UNL A   1      41.960  22.441  28.414  1.00  0.00     0.010 A 
ATOM     35  C   UNL A   1      42.427  23.428  27.531  1.00  0.00    -0.014 A 
BRANCH  35  36
ATOM     36  C   UNL A   1      42.694  24.791  28.049  1.00  0.00     0.031 A 
ATOM     37  C   UNL A   1      44.083  25.168  28.479  1.00  0.00     0.074 A 
ATOM     38  C   UNL A   1      41.674  25.654  28.219  1.00  0.00     0.049 A 
ATOM     39  N   UNL A   1      44.501  26.264  29.057  1.00  0.00    -0.248 NA
ATOM     40  C   UNL A   1      45.135  24.160  28.269  1.00  0.00     0.031 C 
ATOM     41  C   UNL A   1      40.269  25.385  27.905  1.00  0.00     0.029 A 
ATOM     42  N   UNL A   1      41.662  26.935  28.712  1.00  0.00    -0.354 N 
ATOM     43  C   UNL A   1      45.852  26.066  29.306  1.00  0.00     0.074 A 
ATOM     44  C   UNL A   1      46.173  24.726  28.864  1.00  0.00     0.031 C 
ATOM     45  C   UNL A   1      39.537  26.476  28.184  1.00  0.00     0.029 A 
ATOM     46  C   UNL A   1      40.413  27.508  28.728  1.00  0.00     0.049 A 
ATOM     47  H   UNL A   1      42.472  27.399  29.024  1.00  0.00     0.167 HD
ATOM     48  C   UNL A   1      46.751  26.929  29.831  1.00  0.00     0.037 A 
ATOM     49  C   UNL A   1      40.021  28.730  29.136  1.00  0.00     0.037 A 
ATOM     50  C   UNL A   1      46.443  28.278  30.219  1.00  0.00     0.049 A 
ATOM     51  C   UNL A   1      41.047  29.688  29.672  1.00  0.00     0.074 A 
ATOM     52  C   UNL A   1      47.299  29.260  30.686  1.00  0.00     0.029 A 
ATOM     53  N   UNL A   1      45.175  28.839  30.174  1.00  0.00    -0.354 N 
ATOM     54  N   UNL A   1      42.335  29.510  29.841  1.00  0.00    -0.248 NA
ATOM     55  C   UNL A   1      40.566  31.019  30.069  1.00  0.00     0.031 C 
ATOM     56  C   UNL A   1      46.544  30.409  30.948  1.00  0.00     0.029 A 
ATOM     57  C   UNL A   1      45.224  30.150  30.614  1.00  0.00     0.049 A 
ATOM     58  H   UNL A   1      44.362  28.373  29.875  1.00  0.00     0.167 HD
ATOM     59  C   UNL A   1      42.822  30.709  30.341  1.00  0.00     0.074 A 
ATOM     60  C   UNL A   1      41.694  31.613  30.437  1.00  0.00     0.031 C 
ATOM     61  C   UNL A   1      44.089  31.034  30.692  1.00  0.00     0.037 A 
BRANCH  48  62
ATOM     62  C   UNL A   1      48.158  26.438  29.997  1.00  0.00     0.057 A 
ATOM     63  C   UNL A   1      49.118  26.594  28.989  1.00  0.00     0.134 A 
ATOM     64  C   UNL A   1      48.562  25.810  31.182  1.00  0.00     0.134 A 
ATOM     65  F   UNL A   1      48.790  27.172  27.824  1.00  0.00    -0.206 F 
ATOM     66  C   UNL A   1      50.419  26.115  29.139  1.00  0.00     0.040 A 
ATOM     67  C   UNL A   1      49.868  25.350  31.355  1.00  0.00     0.040 A 
ATOM     68  F   UNL A   1      47.693  25.631  32.189  1.00  0.00    -0.206 F 
ATOM     69  C   UNL A   1      50.799  25.495  30.328  1.00  0.00     0.006 A 
ENDBRANCH  48  62
BRANCH  49  70
ATOM     70  C   UNL A   1      38.599  29.132  29.018  1.00  0.00     0.057 A 
ATOM     71  C   UNL A   1      38.086  29.604  27.804  1.00  0.00     0.134 A 
ATOM     72  C   UNL A   1      37.722  29.060  30.106  1.00  0.00     0.134 A 
ATOM     73  F   UNL A   1      38.884  29.710  26.731  1.00  0.00    -0.206 F 
ATOM     74  C   UNL A   1      36.756  30.006  27.679  1.00  0.00     0.040 A 
ATOM     75  C   UNL A   1      36.384  29.441  29.991  1.00  0.00     0.040 A 
ATOM     76  F   UNL A   1      38.151  28.609  31.293  1.00  0.00    -0.206 F 
ATOM     77  C   UNL A   1      35.899  29.921  28.775  1.00  0.00     0.006 A 
ENDBRANCH  49  70
BRANCH  61  78
ATOM     78  C   UNL A   1      44.326  32.430  31.184  1.00  0.00     0.057 A 
ATOM     79  C   UNL A   1      44.617  33.480  30.305  1.00  0.00     0.134 A 
ATOM     80  C   UNL A   1      44.219  32.732  32.547  1.00  0.00     0.134 A 
ATOM     81  F   UNL A   1      44.746  33.249  28.990  1.00  0.00    -0.206 F 
ATOM     82  C   UNL A   1      44.810  34.782  30.768  1.00  0.00     0.040 A 
ATOM     83  C   UNL A   1      44.388  34.034  33.019  1.00  0.00     0.040 A 
ATOM     84  F   UNL A   1      43.936  31.770  33.438  1.00  0.00    -0.206 F 
ATOM     85  C   UNL A   1      44.688  35.062  32.128  1.00  0.00     0.006 A 
ENDBRANCH  61  78
ENDBRANCH  35  36
ENDBRANCH  27  30
ENDBRANCH  25  26
ENDBRANCH   1  25
TORSDOF 13
ENDMDL
MODEL 3
REMARK VINA RESULT:     -11.7      0.767      6.205
REMARK SMILES CC(C)c1nc(N2C[C@H](C)OC(C)(C)C2)sc1C(=O)NCCCCNC(=O)c1ccc(-c2c3nc(c(-c4c(F)cccc4F)c4ccc([nH]4)c(-c4c(F)cccc4F)c4nc(c(-c5c(F)cccc5F)c5ccc2[nH]5)C=C4)C=C3)cc1
REMARK SMILES IDX 23 1 22 2 21 3 20 4 18 5 19 6 17 8 4 9 5 10 6 11 16 12 2 13
REMARK SMILES IDX 1 14 3 15 7 16 8 17 15 18 9 19 12 20 11 21 10 22 13 23 14 24
REMARK SMILES IDX 24 25 25 26 26 27 27 29 28 30 29 31 81 32 30 33 80 34 31 35
REMARK SMILES IDX 32 36 33 37 74 38 34 39 79 40 73 41 75 42 35 43 78 44 72 45
REMARK SMILES IDX 71 46 36 48 62 49 45 50 61 51 46 52 49 53 60 54 76 55 47 56
REMARK SMILES IDX 48 57 59 59 77 60 50 61 37 62 38 63 43 64 39 65 40 66 42 67
REMARK SMILES IDX 44 68 41 69 63 70 64 71 69 72 65 73 66 74 68 75 70 76 67 77
REMARK SMILES IDX 51 78 52 79 57 80 53 81 54 82 56 83 58 84 55 85
REMARK H PARENT 20 7 25 28 75 47 49 58
REMARK Flexibility Score: inf
ROOT
ATOM      1  C   UNL A   1      37.988  20.012  24.624  1.00  0.00     0.023 C 
ENDROOT
BRANCH   1   2
ATOM      2  C   UNL A   1      37.350  21.400  24.635  1.00  0.00     0.023 C 
BRANCH   2   3
ATOM      3  C   UNL A   1      36.028  21.492  25.402  1.00  0.00     0.116 C 
BRANCH   3   4
ATOM      4  N   UNL A   1      34.927  21.469  24.473  1.00  0.00    -0.351 N 
ATOM      5  C   UNL A   1      33.853  22.281  24.230  1.00  0.00     0.263 C 
ATOM      6  O   UNL A   1      33.135  21.829  23.327  1.00  0.00    -0.268 OA
ATOM      7  H   UNL A   1      34.954  20.688  23.874  1.00  0.00     0.163 HD
BRANCH   5   8
ATOM      8  C   UNL A   1      33.562  23.554  24.886  1.00  0.00     0.117 A 
ATOM      9  C   UNL A   1      32.911  24.042  26.023  1.00  0.00     0.069 A 
ATOM     10  N   UNL A   1      32.894  25.438  26.127  1.00  0.00    -0.224 NA
ATOM     11  C   UNL A   1      33.355  26.016  25.051  1.00  0.00     0.186 A 
ATOM     12  S   UNL A   1      34.059  24.934  23.937  1.00  0.00    -0.091 S 
BRANCH   9  13
ATOM     13  C   UNL A   1      32.123  23.342  27.102  1.00  0.00     0.034 C 
ATOM     14  C   UNL A   1      30.826  22.694  26.589  1.00  0.00     0.014 C 
ATOM     15  C   UNL A   1      32.971  22.274  27.795  1.00  0.00     0.014 C 
ENDBRANCH   9  13
BRANCH  11  16
ATOM     16  N   UNL A   1      33.310  27.349  24.818  1.00  0.00    -0.343 N 
ATOM     17  C   UNL A   1      32.399  27.886  23.807  1.00  0.00     0.150 C 
ATOM     18  C   UNL A   1      33.738  28.300  25.842  1.00  0.00     0.153 C 
ATOM     19  C   UNL A   1      31.208  28.573  24.504  1.00  0.00     0.135 C 
ATOM     20  C   UNL A   1      32.561  29.133  26.420  1.00  0.00     0.081 C 
ATOM     21  O   UNL A   1      31.667  29.611  25.388  1.00  0.00    -0.369 OA
ATOM     22  C   UNL A   1      30.278  29.218  23.485  1.00  0.00     0.040 C 
ATOM     23  C   UNL A   1      31.776  28.361  27.489  1.00  0.00     0.044 C 
ATOM     24  C   UNL A   1      33.136  30.403  27.070  1.00  0.00     0.044 C 
ENDBRANCH  11  16
ENDBRANCH   5   8
ENDBRANCH   3   4
ENDBRANCH   2   3
ENDBRANCH   1   2
BRANCH   1  25
ATOM     25  C   UNL A   1      38.654  19.622  25.935  1.00  0.00     0.116 C 
BRANCH  25  26
ATOM     26  N   UNL A   1      39.916  18.912  25.766  1.00  0.00    -0.352 N 
ATOM     27  C   UNL A   1      41.187  19.374  26.015  1.00  0.00     0.251 C 
ATOM     28  H   UNL A   1      39.849  17.988  25.435  1.00  0.00     0.163 HD
ATOM     29  O   UNL A   1      42.169  18.683  25.762  1.00  0.00    -0.269 OA
BRANCH  27  30
ATOM     30  C   UNL A   1      41.351  20.742  26.538  1.00  0.00     0.039 A 
ATOM     31  C   UNL A   1      41.585  20.918  27.903  1.00  0.00     0.014 A 
ATOM     32  C   UNL A   1      41.381  21.830  25.663  1.00  0.00     0.014 A 
ATOM     33  C   UNL A   1      41.941  22.181  28.378  1.00  0.00     0.010 A 
ATOM     34  C   UNL A   1      41.820  23.065  26.123  1.00  0.00     0.010 A 
ATOM     35  C   UNL A   1      42.111  23.250  27.483  1.00  0.00    -0.014 A 
BRANCH  35  36
ATOM     36  C   UNL A   1      42.599  24.574  27.942  1.00  0.00     0.031 A 
ATOM     37  C   UNL A   1      41.615  25.659  28.274  1.00  0.00     0.074 A 
ATOM     38  C   UNL A   1      43.922  24.827  27.970  1.00  0.00     0.049 A 
ATOM     39  N   UNL A   1      41.836  26.909  28.585  1.00  0.00    -0.248 NA
ATOM     40  C   UNL A   1      40.189  25.299  28.205  1.00  0.00     0.031 C 
ATOM     41  C   UNL A   1      44.978  23.879  27.606  1.00  0.00     0.029 A 
ATOM     42  N   UNL A   1      44.605  25.966  28.312  1.00  0.00    -0.354 N 
ATOM     43  C   UNL A   1      40.582  27.491  28.719  1.00  0.00     0.074 A 
ATOM     44  C   UNL A   1      39.605  26.471  28.405  1.00  0.00     0.031 C 
ATOM     45  C   UNL A   1      46.173  24.467  27.772  1.00  0.00     0.029 A 
ATOM     46  C   UNL A   1      45.970  25.840  28.221  1.00  0.00     0.049 A 
ATOM     47  H   UNL A   1      44.158  26.796  28.596  1.00  0.00     0.167 HD
ATOM     48  C   UNL A   1      40.271  28.752  29.095  1.00  0.00     0.037 A 
ATOM     49  C   UNL A   1      46.945  26.733  28.472  1.00  0.00     0.037 A 
ATOM     50  C   UNL A   1      41.241  29.749  29.459  1.00  0.00     0.049 A 
ATOM     51  C   UNL A   1      46.575  28.114  28.933  1.00  0.00     0.074 A 
ATOM     52  C   UNL A   1      41.026  31.031  29.931  1.00  0.00     0.029 A 
ATOM     53  N   UNL A   1      42.615  29.566  29.401  1.00  0.00    -0.354 N 
ATOM     54  N   UNL A   1      45.384  28.631  29.119  1.00  0.00    -0.248 NA
ATOM     55  C   UNL A   1      47.683  29.034  29.225  1.00  0.00     0.031 C 
ATOM     56  C   UNL A   1      42.272  31.635  30.136  1.00  0.00     0.029 A 
ATOM     57  C   UNL A   1      43.261  30.716  29.820  1.00  0.00     0.049 A 
ATOM     58  H   UNL A   1      43.063  28.742  29.105  1.00  0.00     0.167 HD
ATOM     59  C   UNL A   1      45.599  29.926  29.570  1.00  0.00     0.074 A 
ATOM     60  C   UNL A   1      47.033  30.113  29.642  1.00  0.00     0.031 C 
ATOM     61  C   UNL A   1      44.690  30.877  29.893  1.00  0.00     0.037 A 
BRANCH  48  62
ATOM     62  C   UNL A   1      38.816  29.114  29.144  1.00  0.00     0.057 A 
ATOM     63  C   UNL A   1      38.071  29.012  30.326  1.00  0.00     0.134 A 
ATOM     64  C   UNL A   1      38.155  29.579  28.000  1.00  0.00     0.134 A 
ATOM     65  F   UNL A   1      38.642  28.557  31.451  1.00  0.00    -0.206 F 
ATOM     66  C   UNL A   1      36.713  29.328  30.361  1.00  0.00     0.040 A 
ATOM     67  C   UNL A   1      36.803  29.923  28.030  1.00  0.00     0.040 A 
ATOM     68  F   UNL A   1      38.811  29.703  26.837  1.00  0.00    -0.206 F 
ATOM     69  C   UNL A   1      36.076  29.791  29.212  1.00  0.00     0.006 A 
ENDBRANCH  48  62
BRANCH  49  70
ATOM     70  C   UNL A   1      48.368  26.339  28.330  1.00  0.00     0.057 A 
ATOM     71  C   UNL A   1      49.041  26.508  27.114  1.00  0.00     0.134 A 
ATOM     72  C   UNL A   1      49.087  25.784  29.395  1.00  0.00     0.134 A 
ATOM     73  F   UNL A   1      48.397  27.020  26.054  1.00  0.00    -0.206 F 
ATOM     74  C   UNL A   1      50.373  26.125  26.956  1.00  0.00     0.040 A 
ATOM     75  C   UNL A   1      50.426  25.413  29.256  1.00  0.00     0.040 A 
ATOM     76  F   UNL A   1      48.501  25.604  30.586  1.00  0.00    -0.206 F 
ATOM     77  C   UNL A   1      51.071  25.579  28.031  1.00  0.00     0.006 A 
ENDBRANCH  49  70
BRANCH  61  78
ATOM     78  C   UNL A   1      45.220  32.191  30.380  1.00  0.00     0.057 A 
ATOM     79  C   UNL A   1      45.439  32.436  31.741  1.00  0.00     0.134 A 
ATOM     80  C   UNL A   1      45.554  33.205  29.473  1.00  0.00     0.134 A 
ATOM     81  F   UNL A   1      45.126  31.509  32.658  1.00  0.00    -0.206 F 
ATOM     82  C   UNL A   1      45.958  33.653  32.185  1.00  0.00     0.040 A 
ATOM     83  C   UNL A   1      46.093  34.417  29.903  1.00  0.00     0.040 A 
ATOM     84  F   UNL A   1      45.372  33.027  28.156  1.00  0.00    -0.206 F 
ATOM     85  C   UNL A   1      46.293  34.645  31.264  1.00  0.00     0.006 A 
ENDBRANCH  61  78
ENDBRANCH  35  36
ENDBRANCH  27  30
ENDBRANCH  25  26
ENDBRANCH   1  25
TORSDOF 13
ENDMDL
