MODEL 1
REMARK VINA RESULT:     -14.3      0.000      0.000
REMARK SMILES CN(C(=O)C[C@@H]1SC(=O)N(c2ccccc2)C1=O)c1ccccc1C(=O)NCCCCNC(=O)c1ccc(-c2c3nc(c(-c4c(F)cccc4F)c4ccc([nH]4)c(-c4c(F)cccc4F)c4nc(c(-c5c(F)cccc5F)c5ccc2[nH]5)C=C4)C=C3)cc1
REMARK SMILES IDX 28 1 27 2 25 3 26 4 24 6 19 7 20 8 21 9 23 10 22 11 2 12
REMARK SMILES IDX 1 13 3 14 4 15 5 16 6 17 7 18 17 19 8 20 10 21 18 22 9 23
REMARK SMILES IDX 11 24 12 25 16 26 13 27 15 28 14 29 29 30 30 31 31 32 32 33
REMARK SMILES IDX 33 34 34 36 35 37 36 38 88 39 37 40 87 41 38 42 39 43 40 44
REMARK SMILES IDX 81 45 41 46 86 47 80 48 82 49 42 50 85 51 79 52 78 53 43 55
REMARK SMILES IDX 69 56 52 57 68 58 53 59 56 60 67 61 83 62 54 63 55 64 66 66
REMARK SMILES IDX 84 67 57 68 44 69 45 70 50 71 46 72 47 73 49 74 51 75 48 76
REMARK SMILES IDX 70 77 71 78 76 79 72 80 73 81 75 82 77 83 74 84 58 85 59 86
REMARK SMILES IDX 64 87 60 88 61 89 63 90 65 91 62 92
REMARK H PARENT 27 5 32 35 82 54 56 65
REMARK Flexibility Score: inf
ROOT
ATOM      1  C   UNL A   1      31.699  27.650  26.526  1.00  0.00     0.116 C 
ENDROOT
BRANCH   1   2
ATOM      2  N   UNL A   1      30.959  26.461  26.475  1.00  0.00    -0.352 N 
ATOM      3  C   UNL A   1      30.590  26.047  25.188  1.00  0.00     0.253 C 
ATOM      4  O   UNL A   1      30.137  24.918  25.019  1.00  0.00    -0.269 OA
ATOM      5  H   UNL A   1      30.716  25.955  27.284  1.00  0.00     0.163 HD
BRANCH   3   6
ATOM      6  C   UNL A   1      30.594  27.058  24.020  1.00  0.00     0.063 A 
ATOM      7  C   UNL A   1      31.666  27.552  23.181  1.00  0.00     0.056 A 
ATOM      8  C   UNL A   1      31.415  28.667  22.362  1.00  0.00     0.027 A 
ATOM      9  C   UNL A   1      30.170  29.290  22.333  1.00  0.00     0.002 A 
ATOM     10  C   UNL A   1      29.342  27.711  23.953  1.00  0.00     0.016 A 
ATOM     11  C   UNL A   1      29.135  28.812  23.123  1.00  0.00     0.001 A 
BRANCH   7  12
ATOM     12  N   UNL A   1      33.047  27.067  23.133  1.00  0.00    -0.315 N 
ATOM     13  C   UNL A   1      34.029  27.859  23.881  1.00  0.00     0.153 C 
BRANCH  12  14
ATOM     14  C   UNL A   1      33.353  25.977  22.280  1.00  0.00     0.228 C 
ATOM     15  O   UNL A   1      33.277  26.051  21.049  1.00  0.00    -0.274 OA
BRANCH  14  16
ATOM     16  C   UNL A   1      33.985  24.690  22.846  1.00  0.00     0.125 C 
BRANCH  16  17
ATOM     17  C   UNL A   1      33.189  23.783  23.858  1.00  0.00     0.156 C 
ATOM     18  S   UNL A   1      33.911  24.100  26.147  1.00  0.00    -0.050 SA
ATOM     19  C   UNL A   1      32.794  21.806  23.622  1.00  0.00     0.248 C 
ATOM     20  C   UNL A   1      33.700  21.852  26.593  1.00  0.00     0.293 C 
ATOM     21  N   UNL A   1      33.060  20.966  25.179  1.00  0.00    -0.240 N 
ATOM     22  O   UNL A   1      32.447  21.277  22.574  1.00  0.00    -0.273 OA
ATOM     23  O   UNL A   1      34.212  21.454  27.626  1.00  0.00    -0.261 OA
BRANCH  21  24
ATOM     24  C   UNL A   1      33.379  19.557  25.142  1.00  0.00     0.053 A 
ATOM     25  C   UNL A   1      32.357  18.620  25.375  1.00  0.00     0.027 A 
ATOM     26  C   UNL A   1      34.593  19.108  24.622  1.00  0.00     0.027 A 
ATOM     27  C   UNL A   1      32.531  17.274  25.060  1.00  0.00     0.002 A 
ATOM     28  C   UNL A   1      34.783  17.748  24.352  1.00  0.00     0.002 A 
ATOM     29  C   UNL A   1      33.749  16.835  24.558  1.00  0.00     0.000 A 
ENDBRANCH  21  24
ENDBRANCH  16  17
ENDBRANCH  14  16
ENDBRANCH  12  14
ENDBRANCH   7  12
ENDBRANCH   3   6
ENDBRANCH   1   2
BRANCH   1  30
ATOM     30  C   UNL A   1      31.506  29.081  27.209  1.00  0.00     0.023 C 
BRANCH  30  31
ATOM     31  C   UNL A   1      31.826  31.225  26.889  1.00  0.00     0.023 C 
BRANCH  31  32
ATOM     32  C   UNL A   1      33.039  32.449  27.255  1.00  0.00     0.116 C 
BRANCH  32  33
ATOM     33  N   UNL A   1      32.656  33.844  27.474  1.00  0.00    -0.352 N 
ATOM     34  C   UNL A   1      33.043  34.642  28.527  1.00  0.00     0.251 C 
ATOM     35  H   UNL A   1      32.065  34.253  26.803  1.00  0.00     0.163 HD
ATOM     36  O   UNL A   1      32.524  35.726  28.746  1.00  0.00    -0.269 OA
BRANCH  34  37
ATOM     37  C   UNL A   1      34.196  34.176  29.305  1.00  0.00     0.039 A 
ATOM     38  C   UNL A   1      34.030  33.453  30.484  1.00  0.00     0.014 A 
ATOM     39  C   UNL A   1      35.456  34.382  28.736  1.00  0.00     0.014 A 
ATOM     40  C   UNL A   1      35.154  32.873  31.069  1.00  0.00     0.010 A 
ATOM     41  C   UNL A   1      36.556  33.745  29.279  1.00  0.00     0.010 A 
ATOM     42  C   UNL A   1      36.413  32.987  30.450  1.00  0.00    -0.014 A 
BRANCH  42  43
ATOM     43  C   UNL A   1      37.604  32.309  31.006  1.00  0.00     0.031 A 
ATOM     44  C   UNL A   1      38.252  32.849  32.247  1.00  0.00     0.074 A 
ATOM     45  C   UNL A   1      38.132  31.260  30.349  1.00  0.00     0.049 A 
ATOM     46  N   UNL A   1      39.314  32.419  32.875  1.00  0.00    -0.248 NA
ATOM     47  C   UNL A   1      37.642  34.048  32.846  1.00  0.00     0.031 C 
ATOM     48  C   UNL A   1      37.618  30.699  29.097  1.00  0.00     0.029 A 
ATOM     49  N   UNL A   1      39.220  30.480  30.639  1.00  0.00    -0.354 N 
ATOM     50  C   UNL A   1      39.498  33.291  33.939  1.00  0.00     0.074 A 
ATOM     51  C   UNL A   1      38.484  34.316  33.831  1.00  0.00     0.031 C 
ATOM     52  C   UNL A   1      38.368  29.642  28.748  1.00  0.00     0.029 A 
ATOM     53  C   UNL A   1      39.434  29.474  29.729  1.00  0.00     0.049 A 
ATOM     54  H   UNL A   1      39.793  30.626  31.427  1.00  0.00     0.167 HD
ATOM     55  C   UNL A   1      40.412  33.223  34.935  1.00  0.00     0.037 A 
ATOM     56  C   UNL A   1      40.388  28.524  29.697  1.00  0.00     0.037 A 
ATOM     57  C   UNL A   1      41.408  32.192  35.033  1.00  0.00     0.049 A 
ATOM     58  C   UNL A   1      41.404  28.483  30.805  1.00  0.00     0.074 A 
ATOM     59  C   UNL A   1      42.351  31.996  36.025  1.00  0.00     0.029 A 
ATOM     60  N   UNL A   1      41.595  31.186  34.095  1.00  0.00    -0.354 N 
ATOM     61  N   UNL A   1      41.514  29.259  31.855  1.00  0.00    -0.248 NA
ATOM     62  C   UNL A   1      42.424  27.429  30.728  1.00  0.00     0.031 C 
ATOM     63  C   UNL A   1      43.143  30.902  35.662  1.00  0.00     0.029 A 
ATOM     64  C   UNL A   1      42.656  30.382  34.471  1.00  0.00     0.049 A 
ATOM     65  H   UNL A   1      41.053  31.063  33.282  1.00  0.00     0.167 HD
ATOM     66  C   UNL A   1      42.596  28.775  32.578  1.00  0.00     0.074 A 
ATOM     67  C   UNL A   1      43.096  27.624  31.853  1.00  0.00     0.031 C 
ATOM     68  C   UNL A   1      43.131  29.238  33.735  1.00  0.00     0.037 A 
BRANCH  55  69
ATOM     69  C   UNL A   1      40.362  34.288  35.990  1.00  0.00     0.057 A 
ATOM     70  C   UNL A   1      39.580  34.149  37.145  1.00  0.00     0.134 A 
ATOM     71  C   UNL A   1      41.118  35.460  35.862  1.00  0.00     0.134 A 
ATOM     72  F   UNL A   1      38.819  33.057  37.323  1.00  0.00    -0.206 F 
ATOM     73  C   UNL A   1      39.529  35.147  38.120  1.00  0.00     0.040 A 
ATOM     74  C   UNL A   1      41.098  36.452  36.844  1.00  0.00     0.040 A 
ATOM     75  F   UNL A   1      41.890  35.660  34.784  1.00  0.00    -0.206 F 
ATOM     76  C   UNL A   1      40.294  36.301  37.973  1.00  0.00     0.006 A 
ENDBRANCH  55  69
BRANCH  56  77
ATOM     77  C   UNL A   1      40.409  27.521  28.601  1.00  0.00     0.057 A 
ATOM     78  C   UNL A   1      41.156  27.736  27.438  1.00  0.00     0.134 A 
ATOM     79  C   UNL A   1      39.677  26.330  28.684  1.00  0.00     0.134 A 
ATOM     80  F   UNL A   1      41.867  28.864  27.292  1.00  0.00    -0.206 F 
ATOM     81  C   UNL A   1      41.157  26.819  26.386  1.00  0.00     0.040 A 
ATOM     82  C   UNL A   1      39.690  25.390  27.652  1.00  0.00     0.040 A 
ATOM     83  F   UNL A   1      38.950  26.055  29.777  1.00  0.00    -0.206 F 
ATOM     84  C   UNL A   1      40.424  25.638  26.494  1.00  0.00     0.006 A 
ENDBRANCH  56  77
BRANCH  68  85
ATOM     85  C   UNL A   1      44.297  28.482  34.301  1.00  0.00     0.057 A 
ATOM     86  C   UNL A   1      45.620  28.846  34.023  1.00  0.00     0.134 A 
ATOM     87  C   UNL A   1      44.090  27.411  35.180  1.00  0.00     0.134 A 
ATOM     88  F   UNL A   1      45.884  29.855  33.179  1.00  0.00    -0.206 F 
ATOM     89  C   UNL A   1      46.697  28.157  34.581  1.00  0.00     0.040 A 
ATOM     90  C   UNL A   1      45.158  26.735  35.769  1.00  0.00     0.040 A 
ATOM     91  F   UNL A   1      42.847  27.019  35.498  1.00  0.00    -0.206 F 
ATOM     92  C   UNL A   1      46.467  27.104  35.465  1.00  0.00     0.006 A 
ENDBRANCH  68  85
ENDBRANCH  42  43
ENDBRANCH  34  37
ENDBRANCH  32  33
ENDBRANCH  31  32
ENDBRANCH  30  31
ENDBRANCH   1  30
TORSDOF 16
ENDMDL
MODEL 2
REMARK VINA RESULT:     -14.1      0.351      6.006
REMARK SMILES CN(C(=O)C[C@@H]1SC(=O)N(c2ccccc2)C1=O)c1ccccc1C(=O)NCCCCNC(=O)c1ccc(-c2c3nc(c(-c4c(F)cccc4F)c4ccc([nH]4)c(-c4c(F)cccc4F)c4nc(c(-c5c(F)cccc5F)c5ccc2[nH]5)C=C4)C=C3)cc1
REMARK SMILES IDX 28 1 27 2 25 3 26 4 24 6 19 7 20 8 21 9 23 10 22 11 2 12
REMARK SMILES IDX 1 13 3 14 4 15 5 16 6 17 7 18 17 19 8 20 10 21 18 22 9 23
REMARK SMILES IDX 11 24 12 25 16 26 13 27 15 28 14 29 29 30 30 31 31 32 32 33
REMARK SMILES IDX 33 34 34 36 35 37 36 38 88 39 37 40 87 41 38 42 39 43 40 44
REMARK SMILES IDX 81 45 41 46 86 47 80 48 82 49 42 50 85 51 79 52 78 53 43 55
REMARK SMILES IDX 69 56 52 57 68 58 53 59 56 60 67 61 83 62 54 63 55 64 66 66
REMARK SMILES IDX 84 67 57 68 44 69 45 70 50 71 46 72 47 73 49 74 51 75 48 76
REMARK SMILES IDX 70 77 71 78 76 79 72 80 73 81 75 82 77 83 74 84 58 85 59 86
REMARK SMILES IDX 64 87 60 88 61 89 63 90 65 91 62 92
REMARK H PARENT 27 5 32 35 82 54 56 65
REMARK Flexibility Score: inf
ROOT
ATOM      1  C   UNL A   1      31.767  27.554  26.496  1.00  0.00     0.116 C 
ENDROOT
BRANCH   1   2
ATOM      2  N   UNL A   1      31.049  26.351  26.505  1.00  0.00    -0.352 N 
ATOM      3  C   UNL A   1      30.636  25.896  25.246  1.00  0.00     0.253 C 
ATOM      4  O   UNL A   1      30.199  24.755  25.124  1.00  0.00    -0.269 OA
ATOM      5  H   UNL A   1      30.849  25.862  27.336  1.00  0.00     0.163 HD
BRANCH   3   6
ATOM      6  C   UNL A   1      30.575  26.876  24.052  1.00  0.00     0.063 A 
ATOM      7  C   UNL A   1      31.608  27.396  23.182  1.00  0.00     0.056 A 
ATOM      8  C   UNL A   1      31.292  28.477  22.340  1.00  0.00     0.027 A 
ATOM      9  C   UNL A   1      30.020  29.042  22.318  1.00  0.00     0.002 A 
ATOM     10  C   UNL A   1      29.293  27.469  23.992  1.00  0.00     0.016 A 
ATOM     11  C   UNL A   1      29.021  28.539  23.139  1.00  0.00     0.001 A 
BRANCH   7  12
ATOM     12  N   UNL A   1      33.009  26.973  23.121  1.00  0.00    -0.315 N 
ATOM     13  C   UNL A   1      33.958  27.795  23.878  1.00  0.00     0.153 C 
BRANCH  12  14
ATOM     14  C   UNL A   1      33.359  25.911  22.250  1.00  0.00     0.228 C 
ATOM     15  O   UNL A   1      33.324  26.019  21.018  1.00  0.00    -0.274 OA
BRANCH  14  16
ATOM     16  C   UNL A   1      33.987  24.616  22.801  1.00  0.00     0.125 C 
BRANCH  16  17
ATOM     17  C   UNL A   1      33.200  23.716  23.827  1.00  0.00     0.156 C 
ATOM     18  S   UNL A   1      33.952  24.039  26.105  1.00  0.00    -0.050 SA
ATOM     19  C   UNL A   1      32.794  21.740  23.603  1.00  0.00     0.248 C 
ATOM     20  C   UNL A   1      33.737  21.793  26.562  1.00  0.00     0.293 C 
ATOM     21  N   UNL A   1      33.076  20.904  25.159  1.00  0.00    -0.240 N 
ATOM     22  O   UNL A   1      32.431  21.208  22.561  1.00  0.00    -0.273 OA
ATOM     23  O   UNL A   1      34.261  21.397  27.590  1.00  0.00    -0.261 OA
BRANCH  21  24
ATOM     24  C   UNL A   1      33.388  19.495  25.124  1.00  0.00     0.053 A 
ATOM     25  C   UNL A   1      32.359  18.562  25.344  1.00  0.00     0.027 A 
ATOM     26  C   UNL A   1      34.606  19.041  24.617  1.00  0.00     0.027 A 
ATOM     27  C   UNL A   1      32.530  17.215  25.028  1.00  0.00     0.002 A 
ATOM     28  C   UNL A   1      34.793  17.680  24.348  1.00  0.00     0.002 A 
ATOM     29  C   UNL A   1      33.753  16.772  24.540  1.00  0.00     0.000 A 
ENDBRANCH  21  24
ENDBRANCH  16  17
ENDBRANCH  14  16
ENDBRANCH  12  14
ENDBRANCH   7  12
ENDBRANCH   3   6
ENDBRANCH   1   2
BRANCH   1  30
ATOM     30  C   UNL A   1      31.590  28.990  27.173  1.00  0.00     0.023 C 
BRANCH  30  31
ATOM     31  C   UNL A   1      32.017  31.120  26.886  1.00  0.00     0.023 C 
BRANCH  31  32
ATOM     32  C   UNL A   1      33.141  32.335  27.488  1.00  0.00     0.116 C 
BRANCH  32  33
ATOM     33  N   UNL A   1      32.743  33.738  27.599  1.00  0.00    -0.352 N 
ATOM     34  C   UNL A   1      33.136  34.624  28.577  1.00  0.00     0.251 C 
ATOM     35  H   UNL A   1      32.135  34.083  26.907  1.00  0.00     0.163 HD
ATOM     36  O   UNL A   1      32.605  35.716  28.716  1.00  0.00    -0.269 OA
BRANCH  34  37
ATOM     37  C   UNL A   1      34.308  34.238  29.369  1.00  0.00     0.039 A 
ATOM     38  C   UNL A   1      34.173  33.647  30.622  1.00  0.00     0.014 A 
ATOM     39  C   UNL A   1      35.553  34.376  28.748  1.00  0.00     0.014 A 
ATOM     40  C   UNL A   1      35.311  33.128  31.236  1.00  0.00     0.010 A 
ATOM     41  C   UNL A   1      36.666  33.795  29.327  1.00  0.00     0.010 A 
ATOM     42  C   UNL A   1      36.553  33.167  30.575  1.00  0.00    -0.014 A 
BRANCH  42  43
ATOM     43  C   UNL A   1      37.757  32.547  31.169  1.00  0.00     0.031 A 
ATOM     44  C   UNL A   1      38.356  31.330  30.528  1.00  0.00     0.074 A 
ATOM     45  C   UNL A   1      38.254  33.042  32.317  1.00  0.00     0.049 A 
ATOM     46  N   UNL A   1      39.390  30.625  30.907  1.00  0.00    -0.248 NA
ATOM     47  C   UNL A   1      37.691  30.822  29.317  1.00  0.00     0.031 C 
ATOM     48  C   UNL A   1      37.704  34.181  33.057  1.00  0.00     0.029 A 
ATOM     49  N   UNL A   1      39.331  32.650  33.067  1.00  0.00    -0.354 N 
ATOM     50  C   UNL A   1      39.496  29.594  29.983  1.00  0.00     0.074 A 
ATOM     51  C   UNL A   1      38.383  29.721  29.071  1.00  0.00     0.031 C 
ATOM     52  C   UNL A   1      38.471  34.417  34.134  1.00  0.00     0.029 A 
ATOM     53  C   UNL A   1      39.541  33.427  34.179  1.00  0.00     0.049 A 
ATOM     54  H   UNL A   1      39.903  31.883  32.829  1.00  0.00     0.167 HD
ATOM     55  C   UNL A   1      40.457  28.646  29.889  1.00  0.00     0.037 A 
ATOM     56  C   UNL A   1      40.494  33.345  35.127  1.00  0.00     0.037 A 
ATOM     57  C   UNL A   1      41.563  28.538  30.800  1.00  0.00     0.049 A 
ATOM     58  C   UNL A   1      41.539  32.269  35.009  1.00  0.00     0.074 A 
ATOM     59  C   UNL A   1      42.622  27.649  30.769  1.00  0.00     0.029 A 
ATOM     60  N   UNL A   1      41.746  29.344  31.915  1.00  0.00    -0.354 N 
ATOM     61  N   UNL A   1      41.682  31.353  34.081  1.00  0.00    -0.248 NA
ATOM     62  C   UNL A   1      42.558  32.218  36.065  1.00  0.00     0.031 C 
ATOM     63  C   UNL A   1      43.418  27.883  31.895  1.00  0.00     0.029 A 
ATOM     64  C   UNL A   1      42.887  28.956  32.596  1.00  0.00     0.049 A 
ATOM     65  H   UNL A   1      41.153  30.083  32.181  1.00  0.00     0.167 HD
ATOM     66  C   UNL A   1      42.819  30.635  34.425  1.00  0.00     0.074 A 
ATOM     67  C   UNL A   1      43.337  31.236  35.637  1.00  0.00     0.031 C 
ATOM     68  C   UNL A   1      43.385  29.575  33.798  1.00  0.00     0.037 A 
BRANCH  55  69
ATOM     69  C   UNL A   1      40.348  27.665  28.759  1.00  0.00     0.057 A 
ATOM     70  C   UNL A   1      41.031  27.853  27.548  1.00  0.00     0.134 A 
ATOM     71  C   UNL A   1      39.568  26.509  28.885  1.00  0.00     0.134 A 
ATOM     72  F   UNL A   1      41.783  28.947  27.355  1.00  0.00    -0.206 F 
ATOM     73  C   UNL A   1      40.919  26.943  26.496  1.00  0.00     0.040 A 
ATOM     74  C   UNL A   1      39.472  25.576  27.850  1.00  0.00     0.040 A 
ATOM     75  F   UNL A   1      38.890  26.264  30.016  1.00  0.00    -0.206 F 
ATOM     76  C   UNL A   1      40.142  25.797  26.648  1.00  0.00     0.006 A 
ENDBRANCH  55  69
BRANCH  56  77
ATOM     77  C   UNL A   1      40.524  34.322  36.245  1.00  0.00     0.057 A 
ATOM     78  C   UNL A   1      39.910  34.037  37.470  1.00  0.00     0.134 A 
ATOM     79  C   UNL A   1      41.156  35.564  36.116  1.00  0.00     0.134 A 
ATOM     80  F   UNL A   1      39.276  32.869  37.652  1.00  0.00    -0.206 F 
ATOM     81  C   UNL A   1      39.901  34.960  38.518  1.00  0.00     0.040 A 
ATOM     82  C   UNL A   1      41.178  36.486  37.164  1.00  0.00     0.040 A 
ATOM     83  F   UNL A   1      41.774  35.895  34.973  1.00  0.00    -0.206 F 
ATOM     84  C   UNL A   1      40.540  36.189  38.367  1.00  0.00     0.006 A 
ENDBRANCH  56  77
BRANCH  68  85
ATOM     85  C   UNL A   1      44.643  29.016  34.395  1.00  0.00     0.057 A 
ATOM     86  C   UNL A   1      45.907  29.519  34.063  1.00  0.00     0.134 A 
ATOM     87  C   UNL A   1      44.581  27.998  35.356  1.00  0.00     0.134 A 
ATOM     88  F   UNL A   1      46.033  30.485  33.142  1.00  0.00    -0.206 F 
ATOM     89  C   UNL A   1      47.068  29.014  34.650  1.00  0.00     0.040 A 
ATOM     90  C   UNL A   1      45.732  27.507  35.972  1.00  0.00     0.040 A 
ATOM     91  F   UNL A   1      43.401  27.480  35.727  1.00  0.00    -0.206 F 
ATOM     92  C   UNL A   1      46.981  28.011  35.614  1.00  0.00     0.006 A 
ENDBRANCH  68  85
ENDBRANCH  42  43
ENDBRANCH  34  37
ENDBRANCH  32  33
ENDBRANCH  31  32
ENDBRANCH  30  31
ENDBRANCH   1  30
TORSDOF 16
ENDMDL
MODEL 3
REMARK VINA RESULT:     -14.1      1.524      2.394
REMARK SMILES CN(C(=O)C[C@@H]1SC(=O)N(c2ccccc2)C1=O)c1ccccc1C(=O)NCCCCNC(=O)c1ccc(-c2c3nc(c(-c4c(F)cccc4F)c4ccc([nH]4)c(-c4c(F)cccc4F)c4nc(c(-c5c(F)cccc5F)c5ccc2[nH]5)C=C4)C=C3)cc1
REMARK SMILES IDX 28 1 27 2 25 3 26 4 24 6 19 7 20 8 21 9 23 10 22 11 2 12
REMARK SMILES IDX 1 13 3 14 4 15 5 16 6 17 7 18 17 19 8 20 10 21 18 22 9 23
REMARK SMILES IDX 11 24 12 25 16 26 13 27 15 28 14 29 29 30 30 31 31 32 32 33
REMARK SMILES IDX 33 34 34 36 35 37 36 38 88 39 37 40 87 41 38 42 39 43 40 44
REMARK SMILES IDX 81 45 41 46 86 47 80 48 82 49 42 50 85 51 79 52 78 53 43 55
REMARK SMILES IDX 69 56 52 57 68 58 53 59 56 60 67 61 83 62 54 63 55 64 66 66
REMARK SMILES IDX 84 67 57 68 44 69 45 70 50 71 46 72 47 73 49 74 51 75 48 76
REMARK SMILES IDX 70 77 71 78 76 79 72 80 73 81 75 82 77 83 74 84 58 85 59 86
REMARK SMILES IDX 64 87 60 88 61 89 63 90 65 91 62 92
REMARK H PARENT 27 5 32 35 82 54 56 65
REMARK Flexibility Score: inf
ROOT
ATOM      1  C   UNL A   1      32.352  28.592  25.774  1.00  0.00     0.116 C 
ENDROOT
BRANCH   1   2
ATOM      2  N   UNL A   1      33.058  28.550  24.566  1.00  0.00    -0.352 N 
ATOM      3  C   UNL A   1      32.282  28.753  23.417  1.00  0.00     0.253 C 
ATOM      4  O   UNL A   1      32.832  28.953  22.338  1.00  0.00    -0.269 OA
ATOM      5  H   UNL A   1      34.029  28.390  24.526  1.00  0.00     0.163 HD
BRANCH   3   6
ATOM      6  C   UNL A   1      30.749  28.559  23.476  1.00  0.00     0.063 A 
ATOM      7  C   UNL A   1      29.940  27.400  23.786  1.00  0.00     0.056 A 
ATOM      8  C   UNL A   1      28.562  27.453  23.509  1.00  0.00     0.027 A 
ATOM      9  C   UNL A   1      27.967  28.586  22.961  1.00  0.00     0.002 A 
ATOM     10  C   UNL A   1      30.106  29.694  22.931  1.00  0.00     0.016 A 
ATOM     11  C   UNL A   1      28.736  29.705  22.675  1.00  0.00     0.001 A 
BRANCH   7  12
ATOM     12  N   UNL A   1      30.402  26.109  24.300  1.00  0.00    -0.315 N 
ATOM     13  C   UNL A   1      30.020  25.797  25.681  1.00  0.00     0.153 C 
BRANCH  12  14
ATOM     14  C   UNL A   1      31.277  25.334  23.497  1.00  0.00     0.228 C 
ATOM     15  O   UNL A   1      32.411  25.715  23.187  1.00  0.00    -0.274 OA
BRANCH  14  16
ATOM     16  C   UNL A   1      30.923  23.881  23.126  1.00  0.00     0.125 C 
BRANCH  16  17
ATOM     17  C   UNL A   1      31.856  22.690  23.566  1.00  0.00     0.156 C 
ATOM     18  S   UNL A   1      31.392  21.936  25.819  1.00  0.00    -0.050 SA
ATOM     19  C   UNL A   1      33.867  22.602  23.305  1.00  0.00     0.248 C 
ATOM     20  C   UNL A   1      33.632  21.616  26.241  1.00  0.00     0.293 C 
ATOM     21  N   UNL A   1      34.623  21.958  24.794  1.00  0.00    -0.240 N 
ATOM     22  O   UNL A   1      34.464  22.953  22.295  1.00  0.00    -0.273 OA
ATOM     23  O   UNL A   1      33.946  21.453  27.409  1.00  0.00    -0.261 OA
BRANCH  21  24
ATOM     24  C   UNL A   1      35.999  22.307  25.060  1.00  0.00     0.053 A 
ATOM     25  C   UNL A   1      36.292  23.582  25.575  1.00  0.00     0.027 A 
ATOM     26  C   UNL A   1      36.997  21.333  25.076  1.00  0.00     0.027 A 
ATOM     27  C   UNL A   1      37.540  23.865  26.127  1.00  0.00     0.002 A 
ATOM     28  C   UNL A   1      38.266  21.634  25.586  1.00  0.00     0.002 A 
ATOM     29  C   UNL A   1      38.532  22.892  26.123  1.00  0.00     0.000 A 
ENDBRANCH  21  24
ENDBRANCH  16  17
ENDBRANCH  14  16
ENDBRANCH  12  14
ENDBRANCH   7  12
ENDBRANCH   3   6
ENDBRANCH   1   2
BRANCH   1  30
ATOM     30  C   UNL A   1      31.757  29.746  26.705  1.00  0.00     0.023 C 
BRANCH  30  31
ATOM     31  C   UNL A   1      31.867  31.899  27.102  1.00  0.00     0.023 C 
BRANCH  31  32
ATOM     32  C   UNL A   1      33.077  33.102  27.538  1.00  0.00     0.116 C 
BRANCH  32  33
ATOM     33  N   UNL A   1      32.697  34.491  27.794  1.00  0.00    -0.352 N 
ATOM     34  C   UNL A   1      33.048  35.245  28.891  1.00  0.00     0.251 C 
ATOM     35  H   UNL A   1      32.137  34.931  27.115  1.00  0.00     0.163 HD
ATOM     36  O   UNL A   1      32.529  36.326  29.130  1.00  0.00    -0.269 OA
BRANCH  34  37
ATOM     37  C   UNL A   1      34.164  34.739  29.696  1.00  0.00     0.039 A 
ATOM     38  C   UNL A   1      33.950  34.125  30.927  1.00  0.00     0.014 A 
ATOM     39  C   UNL A   1      35.431  34.790  29.107  1.00  0.00     0.014 A 
ATOM     40  C   UNL A   1      35.026  33.495  31.549  1.00  0.00     0.010 A 
ATOM     41  C   UNL A   1      36.477  34.102  29.691  1.00  0.00     0.010 A 
ATOM     42  C   UNL A   1      36.282  33.450  30.917  1.00  0.00    -0.014 A 
BRANCH  42  43
ATOM     43  C   UNL A   1      37.416  32.714  31.517  1.00  0.00     0.031 A 
ATOM     44  C   UNL A   1      37.976  33.162  32.834  1.00  0.00     0.074 A 
ATOM     45  C   UNL A   1      37.974  31.696  30.836  1.00  0.00     0.049 A 
ATOM     46  N   UNL A   1      38.980  32.670  33.512  1.00  0.00    -0.248 NA
ATOM     47  C   UNL A   1      37.342  34.334  33.460  1.00  0.00     0.031 C 
ATOM     48  C   UNL A   1      37.548  31.224  29.517  1.00  0.00     0.029 A 
ATOM     49  N   UNL A   1      39.023  30.876  31.158  1.00  0.00    -0.354 N 
ATOM     50  C   UNL A   1      39.097  33.472  34.640  1.00  0.00     0.074 A 
ATOM     51  C   UNL A   1      38.112  34.523  34.521  1.00  0.00     0.031 C 
ATOM     52  C   UNL A   1      38.304  30.174  29.159  1.00  0.00     0.029 A 
ATOM     53  C   UNL A   1      39.290  29.923  30.204  1.00  0.00     0.049 A 
ATOM     54  H   UNL A   1      39.538  30.960  31.994  1.00  0.00     0.167 HD
ATOM     55  C   UNL A   1      39.931  33.323  35.695  1.00  0.00     0.037 A 
ATOM     56  C   UNL A   1      40.227  28.957  30.184  1.00  0.00     0.037 A 
ATOM     57  C   UNL A   1      40.900  32.267  35.802  1.00  0.00     0.049 A 
ATOM     58  C   UNL A   1      41.155  28.825  31.361  1.00  0.00     0.074 A 
ATOM     59  C   UNL A   1      41.761  31.989  36.848  1.00  0.00     0.029 A 
ATOM     60  N   UNL A   1      41.141  31.317  34.819  1.00  0.00    -0.354 N 
ATOM     61  N   UNL A   1      41.198  29.533  32.463  1.00  0.00    -0.248 NA
ATOM     62  C   UNL A   1      42.160  27.756  31.294  1.00  0.00     0.031 C 
ATOM     63  C   UNL A   1      42.559  30.903  36.477  1.00  0.00     0.029 A 
ATOM     64  C   UNL A   1      42.157  30.468  35.223  1.00  0.00     0.049 A 
ATOM     65  H   UNL A   1      40.660  31.256  33.962  1.00  0.00     0.167 HD
ATOM     66  C   UNL A   1      42.213  28.982  33.233  1.00  0.00     0.074 A 
ATOM     67  C   UNL A   1      42.747  27.867  32.477  1.00  0.00     0.031 C 
ATOM     68  C   UNL A   1      42.666  29.361  34.453  1.00  0.00     0.037 A 
BRANCH  55  69
ATOM     69  C   UNL A   1      39.820  34.322  36.808  1.00  0.00     0.057 A 
ATOM     70  C   UNL A   1      39.011  34.091  37.931  1.00  0.00     0.134 A 
ATOM     71  C   UNL A   1      40.540  35.522  36.771  1.00  0.00     0.134 A 
ATOM     72  F   UNL A   1      38.282  32.968  38.023  1.00  0.00    -0.206 F 
ATOM     73  C   UNL A   1      38.902  35.027  38.960  1.00  0.00     0.040 A 
ATOM     74  C   UNL A   1      40.462  36.453  37.808  1.00  0.00     0.040 A 
ATOM     75  F   UNL A   1      41.334  35.808  35.728  1.00  0.00    -0.206 F 
ATOM     76  C   UNL A   1      39.634  36.211  38.903  1.00  0.00     0.006 A 
ENDBRANCH  55  69
BRANCH  56  77
ATOM     77  C   UNL A   1      40.314  28.023  29.032  1.00  0.00     0.057 A 
ATOM     78  C   UNL A   1      39.641  26.796  29.043  1.00  0.00     0.134 A 
ATOM     79  C   UNL A   1      41.078  28.327  27.899  1.00  0.00     0.134 A 
ATOM     80  F   UNL A   1      38.903  26.442  30.106  1.00  0.00    -0.206 F 
ATOM     81  C   UNL A   1      39.742  25.894  27.983  1.00  0.00     0.040 A 
ATOM     82  C   UNL A   1      41.167  27.447  26.819  1.00  0.00     0.040 A 
ATOM     83  F   UNL A   1      41.739  29.491  27.818  1.00  0.00    -0.206 F 
ATOM     84  C   UNL A   1      40.505  26.221  26.863  1.00  0.00     0.006 A 
ENDBRANCH  56  77
BRANCH  68  85
ATOM     85  C   UNL A   1      43.773  28.548  35.057  1.00  0.00     0.057 A 
ATOM     86  C   UNL A   1      45.121  28.875  34.867  1.00  0.00     0.134 A 
ATOM     87  C   UNL A   1      43.481  27.454  35.883  1.00  0.00     0.134 A 
ATOM     88  F   UNL A   1      45.466  29.903  34.077  1.00  0.00    -0.206 F 
ATOM     89  C   UNL A   1      46.141  28.131  35.460  1.00  0.00     0.040 A 
ATOM     90  C   UNL A   1      44.492  26.722  36.506  1.00  0.00     0.040 A 
ATOM     91  F   UNL A   1      42.210  27.094  36.115  1.00  0.00    -0.206 F 
ATOM     92  C   UNL A   1      45.827  27.057  36.290  1.00  0.00     0.006 A 
ENDBRANCH  68  85
ENDBRANCH  42  43
ENDBRANCH  34  37
ENDBRANCH  32  33
ENDBRANCH  31  32
ENDBRANCH  30  31
ENDBRANCH   1  30
TORSDOF 16
ENDMDL
