MODEL 1
REMARK VINA RESULT:     -12.7      0.000      0.000
REMARK SMILES COc1cccc(-c2c(C(=O)NCCCCNC(=O)c3ccc(-c4c5nc(c(-c6c(F)cccc6F)c6ccc([nH]6)c(-c6c(F)cccc6F)c6nc(c(-c7c(F)cccc7F)c7ccc4[nH]7)C=C6)C=C5)cc3)nnn2-c2ccc(OC(F)(F)F)cc2)c1
REMARK SMILES IDX 14 1 13 2 12 3 10 4 11 5 9 7 8 8 76 9 74 10 75 11 7 12 3 13
REMARK SMILES IDX 4 14 88 15 5 16 6 17 2 18 1 19 77 20 78 21 87 22 79 23 86 24
REMARK SMILES IDX 80 25 81 26 82 27 83 28 84 29 85 30 15 31 16 32 17 33 18 34
REMARK SMILES IDX 19 36 20 37 21 38 73 39 22 40 72 41 23 42 24 43 25 44 66 45
REMARK SMILES IDX 26 46 71 47 65 48 67 49 27 50 70 51 64 52 63 53 28 55 54 56
REMARK SMILES IDX 37 57 53 58 38 59 41 60 52 61 68 62 39 63 40 64 51 66 69 67
REMARK SMILES IDX 42 68 29 69 30 70 35 71 31 72 32 73 34 74 36 75 33 76 55 77
REMARK SMILES IDX 56 78 61 79 57 80 58 81 60 82 62 83 59 84 43 85 44 86 49 87
REMARK SMILES IDX 45 88 46 89 48 90 50 91 47 92
REMARK H PARENT 12 6 17 35 67 54 41 65
REMARK Flexibility Score: inf
ROOT
ATOM      1  C   UNL A   1      36.419  23.068  24.303  1.00  0.00     0.023 C 
ENDROOT
BRANCH   1   2
ATOM      2  C   UNL A   1      34.911  23.080  24.116  1.00  0.00     0.116 C 
BRANCH   2   3
ATOM      3  N   UNL A   1      34.081  22.776  25.245  1.00  0.00    -0.351 N 
ATOM      4  C   UNL A   1      32.785  23.168  25.530  1.00  0.00     0.274 C 
ATOM      5  O   UNL A   1      32.314  22.659  26.553  1.00  0.00    -0.267 OA
ATOM      6  H   UNL A   1      34.498  22.196  25.923  1.00  0.00     0.163 HD
BRANCH   4   7
ATOM      7  C   UNL A   1      31.989  24.147  24.758  1.00  0.00     0.178 A 
ATOM      8  C   UNL A   1      31.754  25.529  24.801  1.00  0.00     0.108 A 
ATOM      9  N   UNL A   1      30.872  25.751  23.740  1.00  0.00    -0.212 N 
ATOM     10  N   UNL A   1      31.225  23.629  23.721  1.00  0.00    -0.124 NA
ATOM     11  N   UNL A   1      30.483  24.585  23.198  1.00  0.00    -0.061 NA
BRANCH   8  12
ATOM     12  C   UNL A   1      32.066  26.591  25.763  1.00  0.00     0.006 A 
ATOM     13  C   UNL A   1      33.635  28.310  26.500  1.00  0.00     0.119 A 
ATOM     14  C   UNL A   1      32.666  28.793  27.378  1.00  0.00     0.046 A 
ATOM     15  C   UNL A   1      33.344  27.198  25.713  1.00  0.00     0.056 A 
ATOM     16  C   UNL A   1      31.410  28.184  27.457  1.00  0.00     0.005 A 
ATOM     17  C   UNL A   1      31.107  27.082  26.654  1.00  0.00     0.011 A 
BRANCH  13  18
ATOM     18  O   UNL A   1      34.837  28.961  26.520  1.00  0.00    -0.497 OA
ATOM     19  C   UNL A   1      35.084  29.772  27.666  1.00  0.00     0.278 C 
ENDBRANCH  13  18
ENDBRANCH   8  12
BRANCH   9  20
ATOM     20  C   UNL A   1      30.332  26.983  23.293  1.00  0.00     0.067 A 
ATOM     21  C   UNL A   1      28.976  27.259  23.493  1.00  0.00     0.032 A 
ATOM     22  C   UNL A   1      31.160  27.946  22.706  1.00  0.00     0.032 A 
ATOM     23  C   UNL A   1      28.484  28.529  23.179  1.00  0.00     0.049 A 
ATOM     24  C   UNL A   1      30.653  29.202  22.371  1.00  0.00     0.049 A 
ATOM     25  C   UNL A   1      29.317  29.510  22.624  1.00  0.00     0.129 A 
BRANCH  25  26
ATOM     26  O   UNL A   1      28.711  30.709  22.383  1.00  0.00    -0.406 OA
BRANCH  26  27
ATOM     27  C   UNL A   1      28.469  31.553  23.498  1.00  0.00     0.573 C 
ATOM     28  F   UNL A   1      27.285  31.268  24.080  1.00  0.00    -0.132 F 
ATOM     29  F   UNL A   1      29.457  31.447  24.411  1.00  0.00    -0.132 F 
ATOM     30  F   UNL A   1      28.428  32.835  23.070  1.00  0.00    -0.132 F 
ENDBRANCH  26  27
ENDBRANCH  25  26
ENDBRANCH   9  20
ENDBRANCH   4   7
ENDBRANCH   2   3
ENDBRANCH   1   2
BRANCH   1  31
ATOM     31  C   UNL A   1      36.959  22.584  25.640  1.00  0.00     0.023 C 
BRANCH  31  32
ATOM     32  C   UNL A   1      38.222  23.284  26.120  1.00  0.00     0.116 C 
BRANCH  32  33
ATOM     33  N   UNL A   1      39.378  22.407  26.277  1.00  0.00    -0.352 N 
ATOM     34  C   UNL A   1      40.699  22.799  26.430  1.00  0.00     0.251 C 
ATOM     35  H   UNL A   1      39.202  21.438  26.275  1.00  0.00     0.163 HD
ATOM     36  O   UNL A   1      41.622  22.037  26.211  1.00  0.00    -0.269 OA
BRANCH  34  37
ATOM     37  C   UNL A   1      40.960  24.182  26.881  1.00  0.00     0.039 A 
ATOM     38  C   UNL A   1      40.559  25.279  26.116  1.00  0.00     0.014 A 
ATOM     39  C   UNL A   1      41.586  24.359  28.115  1.00  0.00     0.014 A 
ATOM     40  C   UNL A   1      40.715  26.557  26.648  1.00  0.00     0.010 A 
ATOM     41  C   UNL A   1      41.638  25.610  28.687  1.00  0.00     0.010 A 
ATOM     42  C   UNL A   1      41.230  26.716  27.948  1.00  0.00    -0.014 A 
BRANCH  42  43
ATOM     43  C   UNL A   1      41.184  28.022  28.601  1.00  0.00     0.031 A 
ATOM     44  C   UNL A   1      42.272  28.947  28.172  1.00  0.00     0.074 A 
ATOM     45  C   UNL A   1      40.156  28.453  29.366  1.00  0.00     0.049 A 
ATOM     46  N   UNL A   1      43.268  29.365  28.879  1.00  0.00    -0.248 NA
ATOM     47  C   UNL A   1      42.354  29.328  26.751  1.00  0.00     0.031 C 
ATOM     48  C   UNL A   1      38.872  27.794  29.623  1.00  0.00     0.029 A 
ATOM     49  N   UNL A   1      40.013  29.639  30.023  1.00  0.00    -0.354 N 
ATOM     50  C   UNL A   1      43.987  30.236  28.061  1.00  0.00     0.074 A 
ATOM     51  C   UNL A   1      43.491  30.028  26.728  1.00  0.00     0.031 C 
ATOM     52  C   UNL A   1      38.010  28.674  30.182  1.00  0.00     0.029 A 
ATOM     53  C   UNL A   1      38.724  29.903  30.479  1.00  0.00     0.049 A 
ATOM     54  H   UNL A   1      40.763  30.262  30.163  1.00  0.00     0.167 HD
ATOM     55  C   UNL A   1      44.754  31.222  28.606  1.00  0.00     0.037 A 
ATOM     56  C   UNL A   1      38.277  31.052  31.049  1.00  0.00     0.037 A 
ATOM     57  C   UNL A   1      45.001  30.955  30.004  1.00  0.00     0.049 A 
ATOM     58  C   UNL A   1      39.465  31.794  31.533  1.00  0.00     0.074 A 
ATOM     59  C   UNL A   1      45.597  29.928  30.710  1.00  0.00     0.029 A 
ATOM     60  N   UNL A   1      44.252  31.651  30.920  1.00  0.00    -0.354 N 
ATOM     61  N   UNL A   1      40.209  31.401  32.528  1.00  0.00    -0.248 NA
ATOM     62  C   UNL A   1      40.090  32.731  30.613  1.00  0.00     0.031 C 
ATOM     63  C   UNL A   1      44.790  29.769  31.876  1.00  0.00     0.029 A 
ATOM     64  C   UNL A   1      43.808  30.761  31.859  1.00  0.00     0.049 A 
ATOM     65  H   UNL A   1      44.067  32.618  30.904  1.00  0.00     0.167 HD
ATOM     66  C   UNL A   1      41.505  31.660  32.113  1.00  0.00     0.074 A 
ATOM     67  C   UNL A   1      41.366  32.559  30.967  1.00  0.00     0.031 C 
ATOM     68  C   UNL A   1      42.546  30.892  32.548  1.00  0.00     0.037 A 
BRANCH  55  69
ATOM     69  C   UNL A   1      44.927  32.610  28.024  1.00  0.00     0.057 A 
ATOM     70  C   UNL A   1      43.808  33.467  27.977  1.00  0.00     0.134 A 
ATOM     71  C   UNL A   1      46.020  33.025  27.236  1.00  0.00     0.134 A 
ATOM     72  F   UNL A   1      42.704  33.202  28.692  1.00  0.00    -0.206 F 
ATOM     73  C   UNL A   1      43.738  34.575  27.122  1.00  0.00     0.040 A 
ATOM     74  C   UNL A   1      45.977  34.157  26.415  1.00  0.00     0.040 A 
ATOM     75  F   UNL A   1      47.150  32.322  27.136  1.00  0.00    -0.206 F 
ATOM     76  C   UNL A   1      44.820  34.913  26.324  1.00  0.00     0.006 A 
ENDBRANCH  55  69
BRANCH  56  77
ATOM     77  C   UNL A   1      36.945  31.699  30.976  1.00  0.00     0.057 A 
ATOM     78  C   UNL A   1      36.147  31.851  32.122  1.00  0.00     0.134 A 
ATOM     79  C   UNL A   1      36.560  32.453  29.855  1.00  0.00     0.134 A 
ATOM     80  F   UNL A   1      36.452  31.202  33.255  1.00  0.00    -0.206 F 
ATOM     81  C   UNL A   1      35.056  32.731  32.163  1.00  0.00     0.040 A 
ATOM     82  C   UNL A   1      35.471  33.333  29.882  1.00  0.00     0.040 A 
ATOM     83  F   UNL A   1      37.286  32.434  28.728  1.00  0.00    -0.206 F 
ATOM     84  C   UNL A   1      34.725  33.488  31.044  1.00  0.00     0.006 A 
ENDBRANCH  56  77
BRANCH  68  85
ATOM     85  C   UNL A   1      42.302  29.948  33.695  1.00  0.00     0.057 A 
ATOM     86  C   UNL A   1      42.299  30.317  35.049  1.00  0.00     0.134 A 
ATOM     87  C   UNL A   1      41.904  28.640  33.398  1.00  0.00     0.134 A 
ATOM     88  F   UNL A   1      42.575  31.570  35.431  1.00  0.00    -0.206 F 
ATOM     89  C   UNL A   1      41.950  29.412  36.058  1.00  0.00     0.040 A 
ATOM     90  C   UNL A   1      41.518  27.740  34.391  1.00  0.00     0.040 A 
ATOM     91  F   UNL A   1      41.834  28.229  32.121  1.00  0.00    -0.206 F 
ATOM     92  C   UNL A   1      41.550  28.121  35.730  1.00  0.00     0.006 A 
ENDBRANCH  68  85
ENDBRANCH  42  43
ENDBRANCH  34  37
ENDBRANCH  32  33
ENDBRANCH  31  32
ENDBRANCH   1  31
TORSDOF 16
ENDMDL
MODEL 2
REMARK VINA RESULT:     -12.2      3.289      8.272
REMARK SMILES COc1cccc(-c2c(C(=O)NCCCCNC(=O)c3ccc(-c4c5nc(c(-c6c(F)cccc6F)c6ccc([nH]6)c(-c6c(F)cccc6F)c6nc(c(-c7c(F)cccc7F)c7ccc4[nH]7)C=C6)C=C5)cc3)nnn2-c2ccc(OC(F)(F)F)cc2)c1
REMARK SMILES IDX 14 1 13 2 12 3 10 4 11 5 9 7 8 8 76 9 74 10 75 11 7 12 3 13
REMARK SMILES IDX 4 14 88 15 5 16 6 17 2 18 1 19 77 20 78 21 87 22 79 23 86 24
REMARK SMILES IDX 80 25 81 26 82 27 83 28 84 29 85 30 15 31 16 32 17 33 18 34
REMARK SMILES IDX 19 36 20 37 21 38 73 39 22 40 72 41 23 42 24 43 25 44 66 45
REMARK SMILES IDX 26 46 71 47 65 48 67 49 27 50 70 51 64 52 63 53 28 55 54 56
REMARK SMILES IDX 37 57 53 58 38 59 41 60 52 61 68 62 39 63 40 64 51 66 69 67
REMARK SMILES IDX 42 68 29 69 30 70 35 71 31 72 32 73 34 74 36 75 33 76 55 77
REMARK SMILES IDX 56 78 61 79 57 80 58 81 60 82 62 83 59 84 43 85 44 86 49 87
REMARK SMILES IDX 45 88 46 89 48 90 50 91 47 92
REMARK H PARENT 12 6 17 35 67 54 41 65
REMARK Flexibility Score: inf
ROOT
ATOM      1  C   UNL A   1      34.902  33.679  28.028  1.00  0.00     0.023 C 
ENDROOT
BRANCH   1   2
ATOM      2  C   UNL A   1      34.095  32.392  28.049  1.00  0.00     0.116 C 
BRANCH   2   3
ATOM      3  N   UNL A   1      32.823  32.373  27.386  1.00  0.00    -0.351 N 
ATOM      4  C   UNL A   1      32.211  31.366  26.661  1.00  0.00     0.274 C 
ATOM      5  O   UNL A   1      31.065  31.634  26.287  1.00  0.00    -0.267 OA
ATOM      6  H   UNL A   1      32.304  33.206  27.458  1.00  0.00     0.163 HD
BRANCH   4   7
ATOM      7  C   UNL A   1      32.830  30.077  26.281  1.00  0.00     0.178 A 
ATOM      8  C   UNL A   1      32.503  28.997  25.447  1.00  0.00     0.108 A 
ATOM      9  N   UNL A   1      33.582  28.121  25.597  1.00  0.00    -0.212 N 
ATOM     10  N   UNL A   1      34.039  29.777  26.893  1.00  0.00    -0.124 NA
ATOM     11  N   UNL A   1      34.415  28.558  26.556  1.00  0.00    -0.061 NA
BRANCH   8  12
ATOM     12  C   UNL A   1      31.297  28.595  24.717  1.00  0.00     0.006 A 
ATOM     13  C   UNL A   1      29.870  28.909  22.761  1.00  0.00     0.119 A 
ATOM     14  C   UNL A   1      29.166  27.759  23.112  1.00  0.00     0.046 A 
ATOM     15  C   UNL A   1      30.916  29.340  23.574  1.00  0.00     0.056 A 
ATOM     16  C   UNL A   1      29.514  27.031  24.254  1.00  0.00     0.005 A 
ATOM     17  C   UNL A   1      30.576  27.447  25.060  1.00  0.00     0.011 A 
BRANCH  13  18
ATOM     18  O   UNL A   1      29.432  29.561  21.642  1.00  0.00    -0.497 OA
ATOM     19  C   UNL A   1      28.157  30.189  21.749  1.00  0.00     0.278 C 
ENDBRANCH  13  18
ENDBRANCH   8  12
BRANCH   9  20
ATOM     20  C   UNL A   1      33.799  26.879  24.949  1.00  0.00     0.067 A 
ATOM     21  C   UNL A   1      34.000  25.725  25.711  1.00  0.00     0.032 A 
ATOM     22  C   UNL A   1      33.755  26.794  23.553  1.00  0.00     0.032 A 
ATOM     23  C   UNL A   1      34.070  24.486  25.069  1.00  0.00     0.049 A 
ATOM     24  C   UNL A   1      33.854  25.555  22.919  1.00  0.00     0.049 A 
ATOM     25  C   UNL A   1      33.991  24.391  23.672  1.00  0.00     0.129 A 
BRANCH  25  26
ATOM     26  O   UNL A   1      34.057  23.119  23.179  1.00  0.00    -0.406 OA
BRANCH  26  27
ATOM     27  C   UNL A   1      32.851  22.371  23.142  1.00  0.00     0.573 C 
ATOM     28  F   UNL A   1      31.791  23.135  23.479  1.00  0.00    -0.132 F 
ATOM     29  F   UNL A   1      32.650  21.835  21.920  1.00  0.00    -0.132 F 
ATOM     30  F   UNL A   1      32.940  21.360  24.035  1.00  0.00    -0.132 F 
ENDBRANCH  26  27
ENDBRANCH  25  26
ENDBRANCH   9  20
ENDBRANCH   4   7
ENDBRANCH   2   3
ENDBRANCH   1   2
BRANCH   1  31
ATOM     31  C   UNL A   1      34.328  34.883  28.762  1.00  0.00     0.023 C 
BRANCH  31  32
ATOM     32  C   UNL A   1      33.068  34.608  29.569  1.00  0.00     0.116 C 
BRANCH  32  33
ATOM     33  N   UNL A   1      32.882  35.488  30.719  1.00  0.00    -0.352 N 
ATOM     34  C   UNL A   1      33.424  35.321  31.983  1.00  0.00     0.251 C 
ATOM     35  H   UNL A   1      32.313  36.280  30.582  1.00  0.00     0.163 HD
ATOM     36  O   UNL A   1      32.960  35.883  32.957  1.00  0.00    -0.269 OA
BRANCH  34  37
ATOM     37  C   UNL A   1      34.602  34.440  32.118  1.00  0.00     0.039 A 
ATOM     38  C   UNL A   1      34.487  33.055  31.980  1.00  0.00     0.014 A 
ATOM     39  C   UNL A   1      35.843  35.036  32.348  1.00  0.00     0.014 A 
ATOM     40  C   UNL A   1      35.649  32.284  31.989  1.00  0.00     0.010 A 
ATOM     41  C   UNL A   1      36.994  34.291  32.245  1.00  0.00     0.010 A 
ATOM     42  C   UNL A   1      36.903  32.911  32.094  1.00  0.00    -0.014 A 
BRANCH  42  43
ATOM     43  C   UNL A   1      38.128  32.144  31.873  1.00  0.00     0.031 A 
ATOM     44  C   UNL A   1      38.867  31.820  33.128  1.00  0.00     0.074 A 
ATOM     45  C   UNL A   1      38.476  31.592  30.690  1.00  0.00     0.049 A 
ATOM     46  N   UNL A   1      40.012  32.284  33.503  1.00  0.00    -0.248 NA
ATOM     47  C   UNL A   1      38.191  31.011  34.156  1.00  0.00     0.031 C 
ATOM     48  C   UNL A   1      37.704  31.545  29.444  1.00  0.00     0.029 A 
ATOM     49  N   UNL A   1      39.587  30.868  30.373  1.00  0.00    -0.354 N 
ATOM     50  C   UNL A   1      40.305  31.662  34.715  1.00  0.00     0.074 A 
ATOM     51  C   UNL A   1      39.082  31.044  35.150  1.00  0.00     0.031 C 
ATOM     52  C   UNL A   1      38.261  30.652  28.594  1.00  0.00     0.029 A 
ATOM     53  C   UNL A   1      39.517  30.190  29.159  1.00  0.00     0.049 A 
ATOM     54  H   UNL A   1      40.378  30.828  30.958  1.00  0.00     0.167 HD
ATOM     55  C   UNL A   1      41.598  31.510  35.121  1.00  0.00     0.037 A 
ATOM     56  C   UNL A   1      40.422  29.307  28.662  1.00  0.00     0.037 A 
ATOM     57  C   UNL A   1      42.467  32.391  34.374  1.00  0.00     0.049 A 
ATOM     58  C   UNL A   1      41.698  29.533  29.380  1.00  0.00     0.074 A 
ATOM     59  C   UNL A   1      42.550  33.758  34.195  1.00  0.00     0.029 A 
ATOM     60  N   UNL A   1      43.195  31.837  33.351  1.00  0.00    -0.354 N 
ATOM     61  N   UNL A   1      42.427  30.604  29.241  1.00  0.00    -0.248 NA
ATOM     62  C   UNL A   1      41.925  28.772  30.598  1.00  0.00     0.031 C 
ATOM     63  C   UNL A   1      42.892  33.928  32.820  1.00  0.00     0.029 A 
ATOM     64  C   UNL A   1      43.085  32.662  32.265  1.00  0.00     0.049 A 
ATOM     65  H   UNL A   1      43.706  30.995  33.390  1.00  0.00     0.167 HD
ATOM     66  C   UNL A   1      42.851  30.902  30.526  1.00  0.00     0.074 A 
ATOM     67  C   UNL A   1      42.586  29.692  31.305  1.00  0.00     0.031 C 
ATOM     68  C   UNL A   1      43.100  32.191  30.900  1.00  0.00     0.037 A 
BRANCH  55  69
ATOM     69  C   UNL A   1      42.141  30.306  35.862  1.00  0.00     0.057 A 
ATOM     70  C   UNL A   1      43.093  30.513  36.883  1.00  0.00     0.134 A 
ATOM     71  C   UNL A   1      42.025  28.970  35.428  1.00  0.00     0.134 A 
ATOM     72  F   UNL A   1      43.295  31.734  37.401  1.00  0.00    -0.206 F 
ATOM     73  C   UNL A   1      43.943  29.499  37.340  1.00  0.00     0.040 A 
ATOM     74  C   UNL A   1      42.837  27.941  35.915  1.00  0.00     0.040 A 
ATOM     75  F   UNL A   1      41.195  28.595  34.451  1.00  0.00    -0.206 F 
ATOM     76  C   UNL A   1      43.828  28.210  36.844  1.00  0.00     0.006 A 
ENDBRANCH  55  69
BRANCH  56  77
ATOM     77  C   UNL A   1      40.218  28.106  27.818  1.00  0.00     0.057 A 
ATOM     78  C   UNL A   1      40.905  27.946  26.603  1.00  0.00     0.134 A 
ATOM     79  C   UNL A   1      39.590  26.956  28.324  1.00  0.00     0.134 A 
ATOM     80  F   UNL A   1      41.568  28.975  26.056  1.00  0.00    -0.206 F 
ATOM     81  C   UNL A   1      40.997  26.708  25.952  1.00  0.00     0.040 A 
ATOM     82  C   UNL A   1      39.671  25.713  27.682  1.00  0.00     0.040 A 
ATOM     83  F   UNL A   1      38.960  26.977  29.507  1.00  0.00    -0.206 F 
ATOM     84  C   UNL A   1      40.391  25.582  26.500  1.00  0.00     0.006 A 
ENDBRANCH  56  77
BRANCH  68  85
ATOM     85  C   UNL A   1      43.178  33.241  29.824  1.00  0.00     0.057 A 
ATOM     86  C   UNL A   1      44.273  33.428  28.966  1.00  0.00     0.134 A 
ATOM     87  C   UNL A   1      42.029  33.992  29.553  1.00  0.00     0.134 A 
ATOM     88  F   UNL A   1      45.385  32.692  29.084  1.00  0.00    -0.206 F 
ATOM     89  C   UNL A   1      44.233  34.347  27.912  1.00  0.00     0.040 A 
ATOM     90  C   UNL A   1      41.964  34.884  28.482  1.00  0.00     0.040 A 
ATOM     91  F   UNL A   1      40.925  33.832  30.301  1.00  0.00    -0.206 F 
ATOM     92  C   UNL A   1      43.073  35.072  27.662  1.00  0.00     0.006 A 
ENDBRANCH  68  85
ENDBRANCH  42  43
ENDBRANCH  34  37
ENDBRANCH  32  33
ENDBRANCH  31  32
ENDBRANCH   1  31
TORSDOF 16
ENDMDL
MODEL 3
REMARK VINA RESULT:     -11.7      3.192      8.116
REMARK SMILES COc1cccc(-c2c(C(=O)NCCCCNC(=O)c3ccc(-c4c5nc(c(-c6c(F)cccc6F)c6ccc([nH]6)c(-c6c(F)cccc6F)c6nc(c(-c7c(F)cccc7F)c7ccc4[nH]7)C=C6)C=C5)cc3)nnn2-c2ccc(OC(F)(F)F)cc2)c1
REMARK SMILES IDX 14 1 13 2 12 3 10 4 11 5 9 7 8 8 76 9 74 10 75 11 7 12 3 13
REMARK SMILES IDX 4 14 88 15 5 16 6 17 2 18 1 19 77 20 78 21 87 22 79 23 86 24
REMARK SMILES IDX 80 25 81 26 82 27 83 28 84 29 85 30 15 31 16 32 17 33 18 34
REMARK SMILES IDX 19 36 20 37 21 38 73 39 22 40 72 41 23 42 24 43 25 44 66 45
REMARK SMILES IDX 26 46 71 47 65 48 67 49 27 50 70 51 64 52 63 53 28 55 54 56
REMARK SMILES IDX 37 57 53 58 38 59 41 60 52 61 68 62 39 63 40 64 51 66 69 67
REMARK SMILES IDX 42 68 29 69 30 70 35 71 31 72 32 73 34 74 36 75 33 76 55 77
REMARK SMILES IDX 56 78 61 79 57 80 58 81 60 82 62 83 59 84 43 85 44 86 49 87
REMARK SMILES IDX 45 88 46 89 48 90 50 91 47 92
REMARK H PARENT 12 6 17 35 67 54 41 65
REMARK Flexibility Score: inf
ROOT
ATOM      1  C   UNL A   1      35.394  33.031  28.152  1.00  0.00     0.023 C 
ENDROOT
BRANCH   1   2
ATOM      2  C   UNL A   1      34.403  31.884  28.261  1.00  0.00     0.116 C 
BRANCH   2   3
ATOM      3  N   UNL A   1      33.153  31.993  27.565  1.00  0.00    -0.351 N 
ATOM      4  C   UNL A   1      32.469  31.057  26.811  1.00  0.00     0.274 C 
ATOM      5  O   UNL A   1      31.363  31.436  26.412  1.00  0.00    -0.267 OA
ATOM      6  H   UNL A   1      32.713  32.871  27.636  1.00  0.00     0.163 HD
BRANCH   4   7
ATOM      7  C   UNL A   1      32.974  29.719  26.428  1.00  0.00     0.178 A 
ATOM      8  C   UNL A   1      32.592  28.702  25.542  1.00  0.00     0.108 A 
ATOM      9  N   UNL A   1      33.561  27.713  25.730  1.00  0.00    -0.212 N 
ATOM     10  N   UNL A   1      34.103  29.278  27.105  1.00  0.00    -0.124 NA
ATOM     11  N   UNL A   1      34.371  28.035  26.752  1.00  0.00    -0.061 NA
BRANCH   8  12
ATOM     12  C   UNL A   1      31.400  28.449  24.725  1.00  0.00     0.006 A 
ATOM     13  C   UNL A   1      30.173  28.916  22.667  1.00  0.00     0.119 A 
ATOM     14  C   UNL A   1      29.302  27.872  22.970  1.00  0.00     0.046 A 
ATOM     15  C   UNL A   1      31.204  29.219  23.553  1.00  0.00     0.056 A 
ATOM     16  C   UNL A   1      29.467  27.123  24.139  1.00  0.00     0.005 A 
ATOM     17  C   UNL A   1      30.512  27.410  25.020  1.00  0.00     0.011 A 
BRANCH  13  18
ATOM     18  O   UNL A   1      29.908  29.601  21.514  1.00  0.00    -0.497 OA
ATOM     19  C   UNL A   1      28.827  30.529  21.580  1.00  0.00     0.278 C 
ENDBRANCH  13  18
ENDBRANCH   8  12
BRANCH   9  20
ATOM     20  C   UNL A   1      33.689  26.472  25.057  1.00  0.00     0.067 A 
ATOM     21  C   UNL A   1      33.648  25.280  25.786  1.00  0.00     0.032 A 
ATOM     22  C   UNL A   1      33.799  26.434  23.662  1.00  0.00     0.032 A 
ATOM     23  C   UNL A   1      33.631  24.062  25.101  1.00  0.00     0.049 A 
ATOM     24  C   UNL A   1      33.810  25.211  22.990  1.00  0.00     0.049 A 
ATOM     25  C   UNL A   1      33.705  24.018  23.702  1.00  0.00     0.129 A 
BRANCH  25  26
ATOM     26  O   UNL A   1      33.662  22.763  23.165  1.00  0.00    -0.406 OA
BRANCH  26  27
ATOM     27  C   UNL A   1      32.424  22.071  23.222  1.00  0.00     0.573 C 
ATOM     28  F   UNL A   1      32.355  21.283  24.317  1.00  0.00    -0.132 F 
ATOM     29  F   UNL A   1      31.386  22.933  23.220  1.00  0.00    -0.132 F 
ATOM     30  F   UNL A   1      32.318  21.282  22.130  1.00  0.00    -0.132 F 
ENDBRANCH  26  27
ENDBRANCH  25  26
ENDBRANCH   9  20
ENDBRANCH   4   7
ENDBRANCH   2   3
ENDBRANCH   1   2
BRANCH   1  31
ATOM     31  C   UNL A   1      35.131  34.271  28.994  1.00  0.00     0.023 C 
BRANCH  31  32
ATOM     32  C   UNL A   1      34.351  34.028  30.278  1.00  0.00     0.116 C 
BRANCH  32  33
ATOM     33  N   UNL A   1      34.484  35.085  31.276  1.00  0.00    -0.352 N 
ATOM     34  C   UNL A   1      35.280  35.055  32.410  1.00  0.00     0.251 C 
ATOM     35  H   UNL A   1      33.955  35.902  31.128  1.00  0.00     0.163 HD
ATOM     36  O   UNL A   1      35.082  35.802  33.350  1.00  0.00    -0.269 OA
BRANCH  34  37
ATOM     37  C   UNL A   1      36.396  34.088  32.445  1.00  0.00     0.039 A 
ATOM     38  C   UNL A   1      36.181  32.750  32.783  1.00  0.00     0.014 A 
ATOM     39  C   UNL A   1      37.667  34.542  32.091  1.00  0.00     0.014 A 
ATOM     40  C   UNL A   1      37.244  31.855  32.675  1.00  0.00     0.010 A 
ATOM     41  C   UNL A   1      38.685  33.641  31.877  1.00  0.00     0.010 A 
ATOM     42  C   UNL A   1      38.488  32.301  32.194  1.00  0.00    -0.014 A 
BRANCH  42  43
ATOM     43  C   UNL A   1      39.534  31.337  31.860  1.00  0.00     0.031 A 
ATOM     44  C   UNL A   1      40.347  30.902  33.032  1.00  0.00     0.074 A 
ATOM     45  C   UNL A   1      39.648  30.726  30.659  1.00  0.00     0.049 A 
ATOM     46  N   UNL A   1      41.588  31.169  33.266  1.00  0.00    -0.248 NA
ATOM     47  C   UNL A   1      39.666  30.226  34.150  1.00  0.00     0.031 C 
ATOM     48  C   UNL A   1      38.743  30.800  29.509  1.00  0.00     0.029 A 
ATOM     49  N   UNL A   1      40.580  29.822  30.241  1.00  0.00    -0.354 N 
ATOM     50  C   UNL A   1      41.909  30.515  34.454  1.00  0.00     0.074 A 
ATOM     51  C   UNL A   1      40.658  30.115  35.038  1.00  0.00     0.031 C 
ATOM     52  C   UNL A   1      39.043  29.820  28.626  1.00  0.00     0.029 A 
ATOM     53  C   UNL A   1      40.260  29.157  29.060  1.00  0.00     0.049 A 
ATOM     54  H   UNL A   1      41.415  29.654  30.735  1.00  0.00     0.167 HD
ATOM     55  C   UNL A   1      43.197  30.150  34.718  1.00  0.00     0.037 A 
ATOM     56  C   UNL A   1      40.942  28.130  28.489  1.00  0.00     0.037 A 
ATOM     57  C   UNL A   1      44.109  30.866  33.856  1.00  0.00     0.049 A 
ATOM     58  C   UNL A   1      42.312  28.143  29.055  1.00  0.00     0.074 A 
ATOM     59  C   UNL A   1      44.399  32.198  33.634  1.00  0.00     0.029 A 
ATOM     60  N   UNL A   1      44.614  30.190  32.773  1.00  0.00    -0.354 N 
ATOM     61  N   UNL A   1      43.189  29.074  28.808  1.00  0.00    -0.248 NA
ATOM     62  C   UNL A   1      42.546  27.364  30.260  1.00  0.00     0.031 C 
ATOM     63  C   UNL A   1      44.606  32.298  32.225  1.00  0.00     0.029 A 
ATOM     64  C   UNL A   1      44.520  31.014  31.686  1.00  0.00     0.049 A 
ATOM     65  H   UNL A   1      44.978  29.274  32.779  1.00  0.00     0.167 HD
ATOM     66  C   UNL A   1      43.800  29.306  30.030  1.00  0.00     0.074 A 
ATOM     67  C   UNL A   1      43.427  28.164  30.865  1.00  0.00     0.031 C 
ATOM     68  C   UNL A   1      44.301  30.537  30.341  1.00  0.00     0.037 A 
BRANCH  55  69
ATOM     69  C   UNL A   1      43.611  28.877  35.426  1.00  0.00     0.057 A 
ATOM     70  C   UNL A   1      43.059  27.653  34.995  1.00  0.00     0.134 A 
ATOM     71  C   UNL A   1      44.257  28.823  36.678  1.00  0.00     0.134 A 
ATOM     72  F   UNL A   1      42.430  27.557  33.814  1.00  0.00    -0.206 F 
ATOM     73  C   UNL A   1      43.042  26.506  35.799  1.00  0.00     0.040 A 
ATOM     74  C   UNL A   1      44.287  27.668  37.467  1.00  0.00     0.040 A 
ATOM     75  F   UNL A   1      44.811  29.893  37.255  1.00  0.00    -0.206 F 
ATOM     76  C   UNL A   1      43.643  26.516  37.048  1.00  0.00     0.006 A 
ENDBRANCH  55  69
BRANCH  56  77
ATOM     77  C   UNL A   1      40.447  26.974  27.705  1.00  0.00     0.057 A 
ATOM     78  C   UNL A   1      40.992  26.661  26.449  1.00  0.00     0.134 A 
ATOM     79  C   UNL A   1      39.652  25.978  28.296  1.00  0.00     0.134 A 
ATOM     80  F   UNL A   1      41.795  27.531  25.819  1.00  0.00    -0.206 F 
ATOM     81  C   UNL A   1      40.793  25.415  25.836  1.00  0.00     0.040 A 
ATOM     82  C   UNL A   1      39.443  24.731  27.693  1.00  0.00     0.040 A 
ATOM     83  F   UNL A   1      39.134  26.144  29.520  1.00  0.00    -0.206 F 
ATOM     84  C   UNL A   1      40.028  24.439  26.467  1.00  0.00     0.006 A 
ENDBRANCH  56  77
BRANCH  68  85
ATOM     85  C   UNL A   1      44.430  31.551  29.235  1.00  0.00     0.057 A 
ATOM     86  C   UNL A   1      43.475  32.535  28.935  1.00  0.00     0.134 A 
ATOM     87  C   UNL A   1      45.647  31.623  28.548  1.00  0.00     0.134 A 
ATOM     88  F   UNL A   1      42.317  32.609  29.602  1.00  0.00    -0.206 F 
ATOM     89  C   UNL A   1      43.711  33.519  27.969  1.00  0.00     0.040 A 
ATOM     90  C   UNL A   1      45.908  32.622  27.609  1.00  0.00     0.040 A 
ATOM     91  F   UNL A   1      46.628  30.746  28.816  1.00  0.00    -0.206 F 
ATOM     92  C   UNL A   1      44.934  33.570  27.309  1.00  0.00     0.006 A 
ENDBRANCH  68  85
ENDBRANCH  42  43
ENDBRANCH  34  37
ENDBRANCH  32  33
ENDBRANCH  31  32
ENDBRANCH   1  31
TORSDOF 16
ENDMDL
