MODEL 1
REMARK VINA RESULT:     -11.5      0.000      0.000
REMARK SMILES O=C(NC[C@@H]1CCOC1)NC[C@@H]1CC[C@H](C(=O)NCCCCNC(=O)c2ccc(-c3c4nc(c(-c5c(F)cccc5F)c5ccc([nH]5)c(-c5c(F)cccc5F)c5nc(c(-c6c(F)cccc6F)c6ccc3[nH]6)C=C5)C=C4)cc2)O1
REMARK SMILES IDX 19 1 18 2 16 3 17 4 15 6 12 7 13 8 80 9 14 10 11 11 10 12
REMARK SMILES IDX 1 13 2 14 3 15 4 18 5 19 6 20 9 21 7 22 8 23 20 24 21 25
REMARK SMILES IDX 22 26 23 27 24 28 25 30 26 31 27 32 79 33 28 34 78 35 29 36
REMARK SMILES IDX 30 37 31 38 72 39 32 40 77 41 71 42 73 43 33 44 76 45 70 46
REMARK SMILES IDX 69 47 34 49 60 50 43 51 59 52 44 53 47 54 58 55 74 56 45 57
REMARK SMILES IDX 46 58 57 60 75 61 48 62 35 63 36 64 41 65 37 66 38 67 40 68
REMARK SMILES IDX 42 69 39 70 61 71 62 72 67 73 63 74 64 75 66 76 68 77 65 78
REMARK SMILES IDX 49 79 50 80 55 81 51 82 52 83 54 84 56 85 53 86
REMARK H PARENT 18 5 3 16 10 17 23 29 73 48 47 59
REMARK Flexibility Score: inf
ROOT
ATOM      1  C   UNL A   1      35.626  21.401  25.284  1.00  0.00     0.116 C 
ENDROOT
BRANCH   1   2
ATOM      2  N   UNL A   1      34.924  20.137  25.282  1.00  0.00    -0.354 N 
ATOM      3  C   UNL A   1      33.670  19.841  24.834  1.00  0.00     0.249 C 
ATOM      4  O   UNL A   1      33.286  18.673  24.958  1.00  0.00    -0.272 OA
ATOM      5  H   UNL A   1      35.425  19.378  25.659  1.00  0.00     0.163 HD
BRANCH   3   6
ATOM      6  C   UNL A   1      32.720  20.924  24.270  1.00  0.00     0.207 C 
ATOM      7  C   UNL A   1      32.865  23.180  23.662  1.00  0.00     0.138 C 
ATOM      8  C   UNL A   1      32.563  23.142  25.150  1.00  0.00     0.037 C 
ATOM      9  O   UNL A   1      33.266  21.838  23.317  1.00  0.00    -0.363 OA
ATOM     10  C   UNL A   1      32.059  21.739  25.373  1.00  0.00     0.045 C 
BRANCH   7  11
ATOM     11  C   UNL A   1      33.941  24.189  23.202  1.00  0.00     0.149 C 
BRANCH  11  12
ATOM     12  N   UNL A   1      33.465  25.557  23.055  1.00  0.00    -0.336 N 
ATOM     13  O   UNL A   1      33.278  25.537  20.776  1.00  0.00    -0.249 OA
ATOM     14  C   UNL A   1      33.210  26.130  21.848  1.00  0.00     0.314 C 
ATOM     15  N   UNL A   1      32.923  27.457  21.853  1.00  0.00    -0.338 N 
ATOM     16  H   UNL A   1      32.600  27.816  20.995  1.00  0.00     0.165 HD
ATOM     17  H   UNL A   1      33.321  26.093  23.868  1.00  0.00     0.165 HD
BRANCH  15  18
ATOM     18  C   UNL A   1      33.020  28.428  22.930  1.00  0.00     0.123 C 
BRANCH  18  19
ATOM     19  C   UNL A   1      31.637  28.908  23.402  1.00  0.00     0.036 C 
ATOM     20  C   UNL A   1      31.403  28.723  24.890  1.00  0.00     0.036 C 
ATOM     21  C   UNL A   1      30.547  28.008  22.841  1.00  0.00     0.165 C 
ATOM     22  C   UNL A   1      31.028  27.261  24.995  1.00  0.00     0.160 C 
ATOM     23  O   UNL A   1      30.428  26.896  23.744  1.00  0.00    -0.381 OA
ENDBRANCH  18  19
ENDBRANCH  15  18
ENDBRANCH  11  12
ENDBRANCH   7  11
ENDBRANCH   3   6
ENDBRANCH   1   2
BRANCH   1  24
ATOM     24  C   UNL A   1      36.989  21.284  24.608  1.00  0.00     0.023 C 
BRANCH  24  25
ATOM     25  C   UNL A   1      37.789  20.049  25.002  1.00  0.00     0.023 C 
BRANCH  25  26
ATOM     26  C   UNL A   1      39.088  20.333  25.750  1.00  0.00     0.116 C 
BRANCH  26  27
ATOM     27  N   UNL A   1      39.974  19.183  25.879  1.00  0.00    -0.352 N 
ATOM     28  C   UNL A   1      41.335  19.199  26.104  1.00  0.00     0.251 C 
ATOM     29  H   UNL A   1      39.555  18.296  25.797  1.00  0.00     0.163 HD
ATOM     30  O   UNL A   1      42.010  18.179  26.025  1.00  0.00    -0.269 OA
BRANCH  28  31
ATOM     31  C   UNL A   1      41.978  20.497  26.415  1.00  0.00     0.039 A 
ATOM     32  C   UNL A   1      42.449  21.302  25.376  1.00  0.00     0.014 A 
ATOM     33  C   UNL A   1      42.043  20.942  27.738  1.00  0.00     0.014 A 
ATOM     34  C   UNL A   1      42.897  22.596  25.659  1.00  0.00     0.010 A 
ATOM     35  C   UNL A   1      42.412  22.255  28.007  1.00  0.00     0.010 A 
ATOM     36  C   UNL A   1      42.834  23.099  26.970  1.00  0.00    -0.014 A 
BRANCH  36  37
ATOM     37  C   UNL A   1      43.188  24.506  27.286  1.00  0.00     0.031 A 
ATOM     38  C   UNL A   1      44.624  24.949  27.251  1.00  0.00     0.074 A 
ATOM     39  C   UNL A   1      42.230  25.361  27.695  1.00  0.00     0.049 A 
ATOM     40  N   UNL A   1      45.144  26.101  27.591  1.00  0.00    -0.248 NA
ATOM     41  C   UNL A   1      45.609  23.951  26.806  1.00  0.00     0.031 C 
ATOM     42  C   UNL A   1      40.808  25.043  27.826  1.00  0.00     0.029 A 
ATOM     43  N   UNL A   1      42.314  26.673  28.090  1.00  0.00    -0.354 N 
ATOM     44  C   UNL A   1      46.515  25.959  27.422  1.00  0.00     0.074 A 
ATOM     45  C   UNL A   1      46.750  24.595  27.000  1.00  0.00     0.031 C 
ATOM     46  C   UNL A   1      40.149  26.138  28.241  1.00  0.00     0.029 A 
ATOM     47  C   UNL A   1      41.106  27.222  28.441  1.00  0.00     0.049 A 
ATOM     48  H   UNL A   1      43.163  27.173  28.119  1.00  0.00     0.167 HD
ATOM     49  C   UNL A   1      47.489  26.887  27.579  1.00  0.00     0.037 A 
ATOM     50  C   UNL A   1      40.802  28.460  28.876  1.00  0.00     0.037 A 
ATOM     51  C   UNL A   1      47.254  28.251  27.969  1.00  0.00     0.049 A 
ATOM     52  C   UNL A   1      41.899  29.473  29.040  1.00  0.00     0.074 A 
ATOM     53  C   UNL A   1      48.167  29.283  28.094  1.00  0.00     0.029 A 
ATOM     54  N   UNL A   1      46.012  28.773  28.296  1.00  0.00    -0.354 N 
ATOM     55  N   UNL A   1      43.184  29.344  28.819  1.00  0.00    -0.248 NA
ATOM     56  C   UNL A   1      41.501  30.807  29.516  1.00  0.00     0.031 C 
ATOM     57  C   UNL A   1      47.480  30.424  28.527  1.00  0.00     0.029 A 
ATOM     58  C   UNL A   1      46.136  30.110  28.636  1.00  0.00     0.049 A 
ATOM     59  H   UNL A   1      45.166  28.268  28.286  1.00  0.00     0.167 HD
ATOM     60  C   UNL A   1      43.746  30.582  29.098  1.00  0.00     0.074 A 
ATOM     61  C   UNL A   1      42.659  31.454  29.501  1.00  0.00     0.031 C 
ATOM     62  C   UNL A   1      45.044  30.965  29.025  1.00  0.00     0.037 A 
BRANCH  49  63
ATOM     63  C   UNL A   1      48.899  26.446  27.316  1.00  0.00     0.057 A 
ATOM     64  C   UNL A   1      49.720  25.956  28.340  1.00  0.00     0.134 A 
ATOM     65  C   UNL A   1      49.441  26.509  26.027  1.00  0.00     0.134 A 
ATOM     66  F   UNL A   1      49.265  25.884  29.600  1.00  0.00    -0.206 F 
ATOM     67  C   UNL A   1      51.042  25.579  28.099  1.00  0.00     0.040 A 
ATOM     68  C   UNL A   1      50.754  26.109  25.767  1.00  0.00     0.040 A 
ATOM     69  F   UNL A   1      48.707  26.962  24.999  1.00  0.00    -0.206 F 
ATOM     70  C   UNL A   1      51.561  25.652  26.808  1.00  0.00     0.006 A 
ENDBRANCH  49  63
BRANCH  50  71
ATOM     71  C   UNL A   1      39.390  28.824  29.145  1.00  0.00     0.057 A 
ATOM     72  C   UNL A   1      38.589  29.369  28.135  1.00  0.00     0.134 A 
ATOM     73  C   UNL A   1      38.806  28.632  30.402  1.00  0.00     0.134 A 
ATOM     74  F   UNL A   1      39.100  29.592  26.916  1.00  0.00    -0.206 F 
ATOM     75  C   UNL A   1      37.260  29.724  28.368  1.00  0.00     0.040 A 
ATOM     76  C   UNL A   1      37.471  28.965  30.644  1.00  0.00     0.040 A 
ATOM     77  F   UNL A   1      39.520  28.108  31.408  1.00  0.00    -0.206 F 
ATOM     78  C   UNL A   1      36.696  29.517  29.625  1.00  0.00     0.006 A 
ENDBRANCH  50  71
BRANCH  62  79
ATOM     79  C   UNL A   1      45.356  32.394  29.352  1.00  0.00     0.057 A 
ATOM     80  C   UNL A   1      45.773  32.784  30.630  1.00  0.00     0.134 A 
ATOM     81  C   UNL A   1      45.279  33.383  28.363  1.00  0.00     0.134 A 
ATOM     82  F   UNL A   1      45.853  31.886  31.623  1.00  0.00    -0.206 F 
ATOM     83  C   UNL A   1      46.089  34.113  30.918  1.00  0.00     0.040 A 
ATOM     84  C   UNL A   1      45.614  34.710  28.633  1.00  0.00     0.040 A 
ATOM     85  F   UNL A   1      44.891  33.072  27.117  1.00  0.00    -0.206 F 
ATOM     86  C   UNL A   1      46.016  35.078  29.915  1.00  0.00     0.006 A 
ENDBRANCH  62  79
ENDBRANCH  36  37
ENDBRANCH  28  31
ENDBRANCH  26  27
ENDBRANCH  25  26
ENDBRANCH  24  25
ENDBRANCH   1  24
TORSDOF 15
ENDMDL
MODEL 2
REMARK VINA RESULT:     -11.5      4.352      8.593
REMARK SMILES O=C(NC[C@@H]1CCOC1)NC[C@@H]1CC[C@H](C(=O)NCCCCNC(=O)c2ccc(-c3c4nc(c(-c5c(F)cccc5F)c5ccc([nH]5)c(-c5c(F)cccc5F)c5nc(c(-c6c(F)cccc6F)c6ccc3[nH]6)C=C5)C=C4)cc2)O1
REMARK SMILES IDX 19 1 18 2 16 3 17 4 15 6 12 7 13 8 80 9 14 10 11 11 10 12
REMARK SMILES IDX 1 13 2 14 3 15 4 18 5 19 6 20 9 21 7 22 8 23 20 24 21 25
REMARK SMILES IDX 22 26 23 27 24 28 25 30 26 31 27 32 79 33 28 34 78 35 29 36
REMARK SMILES IDX 30 37 31 38 72 39 32 40 77 41 71 42 73 43 33 44 76 45 70 46
REMARK SMILES IDX 69 47 34 49 60 50 43 51 59 52 44 53 47 54 58 55 74 56 45 57
REMARK SMILES IDX 46 58 57 60 75 61 48 62 35 63 36 64 41 65 37 66 38 67 40 68
REMARK SMILES IDX 42 69 39 70 61 71 62 72 67 73 63 74 64 75 66 76 68 77 65 78
REMARK SMILES IDX 49 79 50 80 55 81 51 82 52 83 54 84 56 85 53 86
REMARK H PARENT 18 5 3 16 10 17 23 29 73 48 47 59
REMARK Flexibility Score: inf
ROOT
ATOM      1  C   UNL A   1      31.986  27.732  26.435  1.00  0.00     0.116 C 
ENDROOT
BRANCH   1   2
ATOM      2  N   UNL A   1      30.951  26.760  26.705  1.00  0.00    -0.354 N 
ATOM      3  C   UNL A   1      30.803  25.494  26.221  1.00  0.00     0.249 C 
ATOM      4  O   UNL A   1      29.811  24.858  26.595  1.00  0.00    -0.272 OA
ATOM      5  H   UNL A   1      30.250  27.056  27.330  1.00  0.00     0.163 HD
BRANCH   3   6
ATOM      6  C   UNL A   1      31.775  24.889  25.181  1.00  0.00     0.207 C 
ATOM      7  C   UNL A   1      32.136  25.060  22.874  1.00  0.00     0.138 C 
ATOM      8  C   UNL A   1      31.077  23.991  23.076  1.00  0.00     0.037 C 
ATOM      9  O   UNL A   1      32.232  25.752  24.137  1.00  0.00    -0.363 OA
ATOM     10  C   UNL A   1      31.213  23.630  24.534  1.00  0.00     0.045 C 
BRANCH   7  11
ATOM     11  C   UNL A   1      31.885  26.073  21.734  1.00  0.00     0.149 C 
BRANCH  11  12
ATOM     12  N   UNL A   1      31.319  27.343  22.165  1.00  0.00    -0.336 N 
ATOM     13  O   UNL A   1      33.302  28.454  22.419  1.00  0.00    -0.249 OA
ATOM     14  C   UNL A   1      32.079  28.417  22.510  1.00  0.00     0.314 C 
ATOM     15  N   UNL A   1      31.424  29.481  23.041  1.00  0.00    -0.338 N 
ATOM     16  H   UNL A   1      31.968  30.295  23.145  1.00  0.00     0.165 HD
ATOM     17  H   UNL A   1      30.340  27.428  22.210  1.00  0.00     0.165 HD
BRANCH  15  18
ATOM     18  C   UNL A   1      30.044  29.602  23.480  1.00  0.00     0.123 C 
BRANCH  18  19
ATOM     19  C   UNL A   1      29.160  30.289  22.425  1.00  0.00     0.036 C 
ATOM     20  C   UNL A   1      28.714  31.685  22.818  1.00  0.00     0.036 C 
ATOM     21  C   UNL A   1      27.813  29.589  22.330  1.00  0.00     0.165 C 
ATOM     22  C   UNL A   1      27.550  31.420  23.746  1.00  0.00     0.160 C 
ATOM     23  O   UNL A   1      26.979  30.166  23.348  1.00  0.00    -0.381 OA
ENDBRANCH  18  19
ENDBRANCH  15  18
ENDBRANCH  11  12
ENDBRANCH   7  11
ENDBRANCH   3   6
ENDBRANCH   1   2
BRANCH   1  24
ATOM     24  C   UNL A   1      31.899  28.921  27.387  1.00  0.00     0.023 C 
BRANCH  24  25
ATOM     25  C   UNL A   1      31.890  30.283  26.704  1.00  0.00     0.023 C 
BRANCH  25  26
ATOM     26  C   UNL A   1      32.942  31.265  27.210  1.00  0.00     0.116 C 
BRANCH  26  27
ATOM     27  N   UNL A   1      32.461  32.630  27.382  1.00  0.00    -0.352 N 
ATOM     28  C   UNL A   1      33.038  33.630  28.135  1.00  0.00     0.251 C 
ATOM     29  H   UNL A   1      31.631  32.864  26.907  1.00  0.00     0.163 HD
ATOM     30  O   UNL A   1      32.459  34.690  28.346  1.00  0.00    -0.269 OA
BRANCH  28  31
ATOM     31  C   UNL A   1      34.377  33.384  28.718  1.00  0.00     0.039 A 
ATOM     32  C   UNL A   1      34.487  32.735  29.949  1.00  0.00     0.014 A 
ATOM     33  C   UNL A   1      35.524  33.733  28.000  1.00  0.00     0.014 A 
ATOM     34  C   UNL A   1      35.748  32.351  30.413  1.00  0.00     0.010 A 
ATOM     35  C   UNL A   1      36.768  33.280  28.423  1.00  0.00     0.010 A 
ATOM     36  C   UNL A   1      36.893  32.576  29.630  1.00  0.00    -0.014 A 
BRANCH  36  37
ATOM     37  C   UNL A   1      38.230  32.075  30.036  1.00  0.00     0.031 A 
ATOM     38  C   UNL A   1      38.730  30.755  29.518  1.00  0.00     0.074 A 
ATOM     39  C   UNL A   1      38.955  32.760  30.943  1.00  0.00     0.049 A 
ATOM     40  N   UNL A   1      39.820  30.102  29.833  1.00  0.00    -0.248 NA
ATOM     41  C   UNL A   1      37.874  30.065  28.542  1.00  0.00     0.031 C 
ATOM     42  C   UNL A   1      38.560  34.025  31.565  1.00  0.00     0.029 A 
ATOM     43  N   UNL A   1      40.173  32.478  31.509  1.00  0.00    -0.354 N 
ATOM     44  C   UNL A   1      39.768  28.916  29.111  1.00  0.00     0.074 A 
ATOM     45  C   UNL A   1      38.517  28.918  28.385  1.00  0.00     0.031 C 
ATOM     46  C   UNL A   1      39.531  34.424  32.402  1.00  0.00     0.029 A 
ATOM     47  C   UNL A   1      40.597  33.428  32.406  1.00  0.00     0.049 A 
ATOM     48  H   UNL A   1      40.693  31.670  31.292  1.00  0.00     0.167 HD
ATOM     49  C   UNL A   1      40.690  27.926  29.039  1.00  0.00     0.037 A 
ATOM     50  C   UNL A   1      41.719  33.488  33.148  1.00  0.00     0.037 A 
ATOM     51  C   UNL A   1      41.947  27.938  29.737  1.00  0.00     0.049 A 
ATOM     52  C   UNL A   1      42.729  32.380  33.049  1.00  0.00     0.074 A 
ATOM     53  C   UNL A   1      42.975  27.013  29.681  1.00  0.00     0.029 A 
ATOM     54  N   UNL A   1      42.348  28.928  30.621  1.00  0.00    -0.354 N 
ATOM     55  N   UNL A   1      42.695  31.294  32.317  1.00  0.00    -0.248 NA
ATOM     56  C   UNL A   1      43.934  32.507  33.883  1.00  0.00     0.031 C 
ATOM     57  C   UNL A   1      43.986  27.429  30.555  1.00  0.00     0.029 A 
ATOM     58  C   UNL A   1      43.602  28.631  31.126  1.00  0.00     0.049 A 
ATOM     59  H   UNL A   1      41.820  29.726  30.853  1.00  0.00     0.167 HD
ATOM     60  C   UNL A   1      43.883  30.623  32.577  1.00  0.00     0.074 A 
ATOM     61  C   UNL A   1      44.619  31.427  33.532  1.00  0.00     0.031 C 
ATOM     62  C   UNL A   1      44.325  29.447  32.068  1.00  0.00     0.037 A 
BRANCH  49  63
ATOM     63  C   UNL A   1      40.363  26.754  28.162  1.00  0.00     0.057 A 
ATOM     64  C   UNL A   1      40.909  26.620  26.879  1.00  0.00     0.134 A 
ATOM     65  C   UNL A   1      39.497  25.747  28.604  1.00  0.00     0.134 A 
ATOM     66  F   UNL A   1      41.736  27.557  26.390  1.00  0.00    -0.206 F 
ATOM     67  C   UNL A   1      40.577  25.546  26.051  1.00  0.00     0.040 A 
ATOM     68  C   UNL A   1      39.177  24.654  27.796  1.00  0.00     0.040 A 
ATOM     69  F   UNL A   1      38.944  25.810  29.825  1.00  0.00    -0.206 F 
ATOM     70  C   UNL A   1      39.711  24.556  26.512  1.00  0.00     0.006 A 
ENDBRANCH  49  63
BRANCH  50  71
ATOM     71  C   UNL A   1      41.969  34.663  34.017  1.00  0.00     0.057 A 
ATOM     72  C   UNL A   1      41.600  34.642  35.367  1.00  0.00     0.134 A 
ATOM     73  C   UNL A   1      42.581  35.824  33.531  1.00  0.00     0.134 A 
ATOM     74  F   UNL A   1      40.994  33.564  35.884  1.00  0.00    -0.206 F 
ATOM     75  C   UNL A   1      41.820  35.738  36.202  1.00  0.00     0.040 A 
ATOM     76  C   UNL A   1      42.825  36.921  34.360  1.00  0.00     0.040 A 
ATOM     77  F   UNL A   1      42.962  35.903  32.248  1.00  0.00    -0.206 F 
ATOM     78  C   UNL A   1      42.440  36.881  35.699  1.00  0.00     0.006 A 
ENDBRANCH  50  71
BRANCH  62  79
ATOM     79  C   UNL A   1      45.680  28.979  32.504  1.00  0.00     0.057 A 
ATOM     80  C   UNL A   1      46.845  29.363  31.830  1.00  0.00     0.134 A 
ATOM     81  C   UNL A   1      45.823  28.170  33.639  1.00  0.00     0.134 A 
ATOM     82  F   UNL A   1      46.774  30.124  30.728  1.00  0.00    -0.206 F 
ATOM     83  C   UNL A   1      48.106  28.945  32.260  1.00  0.00     0.040 A 
ATOM     84  C   UNL A   1      47.079  27.765  34.092  1.00  0.00     0.040 A 
ATOM     85  F   UNL A   1      44.745  27.773  34.332  1.00  0.00    -0.206 F 
ATOM     86  C   UNL A   1      48.224  28.150  33.399  1.00  0.00     0.006 A 
ENDBRANCH  62  79
ENDBRANCH  36  37
ENDBRANCH  28  31
ENDBRANCH  26  27
ENDBRANCH  25  26
ENDBRANCH  24  25
ENDBRANCH   1  24
TORSDOF 15
ENDMDL
MODEL 3
REMARK VINA RESULT:     -11.5      4.096      8.197
REMARK SMILES O=C(NC[C@@H]1CCOC1)NC[C@@H]1CC[C@H](C(=O)NCCCCNC(=O)c2ccc(-c3c4nc(c(-c5c(F)cccc5F)c5ccc([nH]5)c(-c5c(F)cccc5F)c5nc(c(-c6c(F)cccc6F)c6ccc3[nH]6)C=C5)C=C4)cc2)O1
REMARK SMILES IDX 19 1 18 2 16 3 17 4 15 6 12 7 13 8 80 9 14 10 11 11 10 12
REMARK SMILES IDX 1 13 2 14 3 15 4 18 5 19 6 20 9 21 7 22 8 23 20 24 21 25
REMARK SMILES IDX 22 26 23 27 24 28 25 30 26 31 27 32 79 33 28 34 78 35 29 36
REMARK SMILES IDX 30 37 31 38 72 39 32 40 77 41 71 42 73 43 33 44 76 45 70 46
REMARK SMILES IDX 69 47 34 49 60 50 43 51 59 52 44 53 47 54 58 55 74 56 45 57
REMARK SMILES IDX 46 58 57 60 75 61 48 62 35 63 36 64 41 65 37 66 38 67 40 68
REMARK SMILES IDX 42 69 39 70 61 71 62 72 67 73 63 74 64 75 66 76 68 77 65 78
REMARK SMILES IDX 49 79 50 80 55 81 51 82 52 83 54 84 56 85 53 86
REMARK H PARENT 18 5 3 16 10 17 23 29 73 48 47 59
REMARK Flexibility Score: inf
ROOT
ATOM      1  C   UNL A   1      31.068  27.110  25.641  1.00  0.00     0.116 C 
ENDROOT
BRANCH   1   2
ATOM      2  N   UNL A   1      30.997  25.993  26.556  1.00  0.00    -0.354 N 
ATOM      3  C   UNL A   1      31.395  24.700  26.380  1.00  0.00     0.249 C 
ATOM      4  O   UNL A   1      31.211  23.919  27.319  1.00  0.00    -0.272 OA
ATOM      5  H   UNL A   1      30.604  26.195  27.435  1.00  0.00     0.163 HD
BRANCH   3   6
ATOM      6  C   UNL A   1      31.976  24.191  25.039  1.00  0.00     0.207 C 
ATOM      7  C   UNL A   1      32.724  25.134  23.031  1.00  0.00     0.138 C 
ATOM      8  C   UNL A   1      31.224  24.942  22.896  1.00  0.00     0.037 C 
ATOM      9  O   UNL A   1      33.008  24.976  24.437  1.00  0.00    -0.363 OA
ATOM     10  C   UNL A   1      30.893  23.964  23.994  1.00  0.00     0.045 C 
BRANCH   7  11
ATOM     11  C   UNL A   1      33.296  26.477  22.523  1.00  0.00     0.149 C 
BRANCH  11  12
ATOM     12  N   UNL A   1      32.292  27.489  22.228  1.00  0.00    -0.336 N 
ATOM     13  O   UNL A   1      33.426  29.266  23.114  1.00  0.00    -0.249 OA
ATOM     14  C   UNL A   1      32.425  28.796  22.584  1.00  0.00     0.314 C 
ATOM     15  N   UNL A   1      31.346  29.594  22.383  1.00  0.00    -0.338 N 
ATOM     16  H   UNL A   1      31.512  30.557  22.508  1.00  0.00     0.165 HD
ATOM     17  H   UNL A   1      31.478  27.215  21.747  1.00  0.00     0.165 HD
BRANCH  15  18
ATOM     18  C   UNL A   1      29.984  29.246  22.012  1.00  0.00     0.123 C 
BRANCH  18  19
ATOM     19  C   UNL A   1      28.974  29.614  23.112  1.00  0.00     0.036 C 
ATOM     20  C   UNL A   1      27.660  30.152  22.577  1.00  0.00     0.036 C 
ATOM     21  C   UNL A   1      29.465  30.822  23.895  1.00  0.00     0.165 C 
ATOM     22  C   UNL A   1      27.984  31.597  22.271  1.00  0.00     0.160 C 
ATOM     23  O   UNL A   1      29.037  31.985  23.166  1.00  0.00    -0.381 OA
ENDBRANCH  18  19
ENDBRANCH  15  18
ENDBRANCH  11  12
ENDBRANCH   7  11
ENDBRANCH   3   6
ENDBRANCH   1   2
BRANCH   1  24
ATOM     24  C   UNL A   1      31.962  28.221  26.183  1.00  0.00     0.023 C 
BRANCH  24  25
ATOM     25  C   UNL A   1      33.335  27.758  26.655  1.00  0.00     0.023 C 
BRANCH  25  26
ATOM     26  C   UNL A   1      34.452  28.785  26.495  1.00  0.00     0.116 C 
BRANCH  26  27
ATOM     27  N   UNL A   1      34.041  30.165  26.722  1.00  0.00    -0.352 N 
ATOM     28  C   UNL A   1      34.571  31.055  27.631  1.00  0.00     0.251 C 
ATOM     29  H   UNL A   1      33.302  30.499  26.163  1.00  0.00     0.163 HD
ATOM     30  O   UNL A   1      34.038  32.136  27.857  1.00  0.00    -0.269 OA
BRANCH  28  31
ATOM     31  C   UNL A   1      35.797  30.661  28.365  1.00  0.00     0.039 A 
ATOM     32  C   UNL A   1      35.710  29.752  29.419  1.00  0.00     0.014 A 
ATOM     33  C   UNL A   1      37.042  31.143  27.948  1.00  0.00     0.014 A 
ATOM     34  C   UNL A   1      36.883  29.253  29.994  1.00  0.00     0.010 A 
ATOM     35  C   UNL A   1      38.205  30.586  28.465  1.00  0.00     0.010 A 
ATOM     36  C   UNL A   1      38.138  29.628  29.487  1.00  0.00    -0.014 A 
BRANCH  36  37
ATOM     37  C   UNL A   1      39.398  29.026  29.992  1.00  0.00     0.031 A 
ATOM     38  C   UNL A   1      40.071  29.596  31.210  1.00  0.00     0.074 A 
ATOM     39  C   UNL A   1      39.987  28.029  29.304  1.00  0.00     0.049 A 
ATOM     40  N   UNL A   1      41.223  29.278  31.745  1.00  0.00    -0.248 NA
ATOM     41  C   UNL A   1      39.369  30.692  31.897  1.00  0.00     0.031 C 
ATOM     42  C   UNL A   1      39.468  27.422  28.077  1.00  0.00     0.029 A 
ATOM     43  N   UNL A   1      41.163  27.358  29.533  1.00  0.00    -0.354 N 
ATOM     44  C   UNL A   1      41.392  30.148  32.815  1.00  0.00     0.074 A 
ATOM     45  C   UNL A   1      40.252  31.038  32.821  1.00  0.00     0.031 C 
ATOM     46  C   UNL A   1      40.305  26.450  27.680  1.00  0.00     0.029 A 
ATOM     47  C   UNL A   1      41.436  26.389  28.600  1.00  0.00     0.049 A 
ATOM     48  H   UNL A   1      41.754  27.554  30.296  1.00  0.00     0.167 HD
ATOM     49  C   UNL A   1      42.394  30.185  33.726  1.00  0.00     0.037 A 
ATOM     50  C   UNL A   1      42.481  25.546  28.497  1.00  0.00     0.037 A 
ATOM     51  C   UNL A   1      43.512  29.281  33.739  1.00  0.00     0.049 A 
ATOM     52  C   UNL A   1      43.579  25.605  29.521  1.00  0.00     0.074 A 
ATOM     53  C   UNL A   1      44.545  29.198  34.656  1.00  0.00     0.029 A 
ATOM     54  N   UNL A   1      43.742  28.299  32.787  1.00  0.00    -0.354 N 
ATOM     55  N   UNL A   1      43.697  26.391  30.562  1.00  0.00    -0.248 NA
ATOM     56  C   UNL A   1      44.690  24.656  29.353  1.00  0.00     0.031 C 
ATOM     57  C   UNL A   1      45.417  28.184  34.241  1.00  0.00     0.029 A 
ATOM     58  C   UNL A   1      44.906  27.614  33.087  1.00  0.00     0.049 A 
ATOM     59  H   UNL A   1      43.161  28.116  32.013  1.00  0.00     0.167 HD
ATOM     60  C   UNL A   1      44.877  26.015  31.191  1.00  0.00     0.074 A 
ATOM     61  C   UNL A   1      45.436  24.926  30.416  1.00  0.00     0.031 C 
ATOM     62  C   UNL A   1      45.444  26.526  32.311  1.00  0.00     0.037 A 
BRANCH  49  63
ATOM     63  C   UNL A   1      42.309  31.241  34.788  1.00  0.00     0.057 A 
ATOM     64  C   UNL A   1      41.646  31.014  36.002  1.00  0.00     0.134 A 
ATOM     65  C   UNL A   1      42.897  32.498  34.599  1.00  0.00     0.134 A 
ATOM     66  F   UNL A   1      41.050  29.835  36.239  1.00  0.00    -0.206 F 
ATOM     67  C   UNL A   1      41.539  32.008  36.974  1.00  0.00     0.040 A 
ATOM     68  C   UNL A   1      42.820  33.493  35.575  1.00  0.00     0.040 A 
ATOM     69  F   UNL A   1      43.552  32.780  33.463  1.00  0.00    -0.206 F 
ATOM     70  C   UNL A   1      42.131  33.252  36.763  1.00  0.00     0.006 A 
ENDBRANCH  49  63
BRANCH  50  71
ATOM     71  C   UNL A   1      42.518  24.544  27.405  1.00  0.00     0.057 A 
ATOM     72  C   UNL A   1      43.097  24.856  26.169  1.00  0.00     0.134 A 
ATOM     73  C   UNL A   1      41.989  23.258  27.566  1.00  0.00     0.134 A 
ATOM     74  F   UNL A   1      43.604  26.078  25.952  1.00  0.00    -0.206 F 
ATOM     75  C   UNL A   1      43.137  23.930  25.127  1.00  0.00     0.040 A 
ATOM     76  C   UNL A   1      42.040  22.315  26.537  1.00  0.00     0.040 A 
ATOM     77  F   UNL A   1      41.426  22.898  28.728  1.00  0.00    -0.206 F 
ATOM     78  C   UNL A   1      42.612  22.652  25.311  1.00  0.00     0.006 A 
ENDBRANCH  50  71
BRANCH  62  79
ATOM     79  C   UNL A   1      46.715  25.888  32.786  1.00  0.00     0.057 A 
ATOM     80  C   UNL A   1      47.969  26.315  32.332  1.00  0.00     0.134 A 
ATOM     81  C   UNL A   1      46.683  24.864  33.741  1.00  0.00     0.134 A 
ATOM     82  F   UNL A   1      48.065  27.281  31.408  1.00  0.00    -0.206 F 
ATOM     83  C   UNL A   1      49.148  25.734  32.802  1.00  0.00     0.040 A 
ATOM     84  C   UNL A   1      47.856  24.292  34.234  1.00  0.00     0.040 A 
ATOM     85  F   UNL A   1      45.513  24.415  34.219  1.00  0.00    -0.206 F 
ATOM     86  C   UNL A   1      49.093  24.724  33.761  1.00  0.00     0.006 A 
ENDBRANCH  62  79
ENDBRANCH  36  37
ENDBRANCH  28  31
ENDBRANCH  26  27
ENDBRANCH  25  26
ENDBRANCH  24  25
ENDBRANCH   1  24
TORSDOF 15
ENDMDL
