MODEL 1
REMARK VINA RESULT:     -11.2      0.000      0.000
REMARK SMILES CCC(CC)(Nc1cc2ccccc2c(=O)[nH]1)C(=O)NCCCCNC(=O)c1ccc(-c2c3nc(c(-c4c(F)cccc4F)c4ccc([nH]4)c(-c4c(F)cccc4F)c4nc(c(-c5c(F)cccc5F)c5ccc2[nH]5)C=C4)C=C3)cc1
REMARK SMILES IDX 22 1 21 2 20 3 18 4 19 5 3 7 2 8 1 9 4 10 5 11 6 12 7 14
REMARK SMILES IDX 8 15 17 16 9 17 15 18 10 20 14 21 16 22 11 23 13 24 12 25
REMARK SMILES IDX 23 26 24 27 25 28 26 29 27 31 28 32 29 33 81 34 30 35 80 36
REMARK SMILES IDX 31 37 32 38 33 39 74 40 34 41 79 42 73 43 75 44 35 45 78 46
REMARK SMILES IDX 72 47 71 48 36 50 62 51 45 52 61 53 46 54 49 55 60 56 76 57
REMARK SMILES IDX 47 58 48 59 59 61 77 62 50 63 37 64 38 65 43 66 39 67 40 68
REMARK SMILES IDX 42 69 44 70 41 71 63 72 64 73 69 74 65 75 66 76 68 77 70 78
REMARK SMILES IDX 67 79 51 80 52 81 57 82 53 83 54 84 56 85 58 86 55 87
REMARK H PARENT 20 6 6 13 17 19 25 30 75 49 49 60
REMARK Flexibility Score: inf
ROOT
ATOM      1  C   UNL A   1      38.874  22.293  26.237  1.00  0.00     0.023 C 
ENDROOT
BRANCH   1   2
ATOM      2  C   UNL A   1      37.647  23.071  25.768  1.00  0.00     0.116 C 
BRANCH   2   3
ATOM      3  N   UNL A   1      37.424  23.110  24.326  1.00  0.00    -0.354 N 
ATOM      4  C   UNL A   1      36.268  22.996  23.590  1.00  0.00     0.245 C 
ATOM      5  O   UNL A   1      36.392  23.068  22.365  1.00  0.00    -0.272 OA
ATOM      6  H   UNL A   1      38.239  23.239  23.789  1.00  0.00     0.163 HD
BRANCH   4   7
ATOM      7  C   UNL A   1      34.902  22.691  24.281  1.00  0.00     0.117 C 
BRANCH   7   8
ATOM      8  C   UNL A   1      34.829  21.246  24.863  1.00  0.00     0.035 C 
ATOM      9  C   UNL A   1      34.340  21.085  26.299  1.00  0.00     0.007 C 
ENDBRANCH   7   8
BRANCH   7  10
ATOM     10  C   UNL A   1      33.824  22.871  23.162  1.00  0.00     0.035 C 
ATOM     11  C   UNL A   1      32.595  21.984  23.212  1.00  0.00     0.007 C 
ENDBRANCH   7  10
BRANCH   7  12
ATOM     12  N   UNL A   1      34.696  23.590  25.462  1.00  0.00    -0.357 N 
ATOM     13  H   UNL A   1      35.252  23.375  26.246  1.00  0.00     0.163 HD
BRANCH  12  14
ATOM     14  C   UNL A   1      33.842  24.687  25.633  1.00  0.00     0.107 A 
ATOM     15  C   UNL A   1      34.318  25.952  25.614  1.00  0.00     0.053 A 
ATOM     16  N   UNL A   1      32.502  24.545  25.910  1.00  0.00    -0.308 N 
ATOM     17  C   UNL A   1      33.471  27.102  25.990  1.00  0.00    -0.009 A 
ATOM     18  C   UNL A   1      31.651  25.507  26.392  1.00  0.00     0.257 A 
ATOM     19  H   UNL A   1      32.111  23.655  25.747  1.00  0.00     0.171 HD
ATOM     20  C   UNL A   1      33.922  28.424  25.933  1.00  0.00     0.009 A 
ATOM     21  C   UNL A   1      32.196  26.865  26.511  1.00  0.00     0.047 A 
ATOM     22  O   UNL A   1      30.495  25.249  26.724  1.00  0.00    -0.269 OA
ATOM     23  C   UNL A   1      33.138  29.461  26.461  1.00  0.00     0.001 A 
ATOM     24  C   UNL A   1      31.434  27.883  27.094  1.00  0.00     0.014 A 
ATOM     25  C   UNL A   1      31.916  29.187  27.077  1.00  0.00     0.001 A 
ENDBRANCH  12  14
ENDBRANCH   7  12
ENDBRANCH   4   7
ENDBRANCH   2   3
ENDBRANCH   1   2
BRANCH   1  26
ATOM     26  C   UNL A   1      39.146  20.997  25.493  1.00  0.00     0.023 C 
BRANCH  26  27
ATOM     27  C   UNL A   1      39.555  19.853  26.397  1.00  0.00     0.116 C 
BRANCH  27  28
ATOM     28  N   UNL A   1      40.769  19.197  25.935  1.00  0.00    -0.352 N 
ATOM     29  C   UNL A   1      42.031  19.713  25.779  1.00  0.00     0.251 C 
ATOM     30  H   UNL A   1      40.672  18.245  25.701  1.00  0.00     0.163 HD
ATOM     31  O   UNL A   1      42.883  19.085  25.159  1.00  0.00    -0.269 OA
BRANCH  29  32
ATOM     32  C   UNL A   1      42.353  21.035  26.353  1.00  0.00     0.039 A 
ATOM     33  C   UNL A   1      42.700  22.084  25.500  1.00  0.00     0.014 A 
ATOM     34  C   UNL A   1      42.302  21.239  27.735  1.00  0.00     0.014 A 
ATOM     35  C   UNL A   1      42.942  23.350  26.032  1.00  0.00     0.010 A 
ATOM     36  C   UNL A   1      42.423  22.522  28.248  1.00  0.00     0.010 A 
ATOM     37  C   UNL A   1      42.772  23.587  27.406  1.00  0.00    -0.014 A 
BRANCH  37  38
ATOM     38  C   UNL A   1      42.993  24.929  27.995  1.00  0.00     0.031 A 
ATOM     39  C   UNL A   1      44.370  25.323  28.459  1.00  0.00     0.074 A 
ATOM     40  C   UNL A   1      41.952  25.765  28.167  1.00  0.00     0.049 A 
ATOM     41  N   UNL A   1      44.761  26.418  29.058  1.00  0.00    -0.248 NA
ATOM     42  C   UNL A   1      45.447  24.340  28.251  1.00  0.00     0.031 C 
ATOM     43  C   UNL A   1      40.562  25.472  27.813  1.00  0.00     0.029 A 
ATOM     44  N   UNL A   1      41.900  27.031  28.693  1.00  0.00    -0.354 N 
ATOM     45  C   UNL A   1      46.116  26.247  29.310  1.00  0.00     0.074 A 
ATOM     46  C   UNL A   1      46.466  24.917  28.866  1.00  0.00     0.031 C 
ATOM     47  C   UNL A   1      39.800  26.538  28.101  1.00  0.00     0.029 A 
ATOM     48  C   UNL A   1      40.637  27.572  28.702  1.00  0.00     0.049 A 
ATOM     49  H   UNL A   1      42.693  27.507  29.031  1.00  0.00     0.167 HD
ATOM     50  C   UNL A   1      46.998  27.132  29.833  1.00  0.00     0.037 A 
ATOM     51  C   UNL A   1      40.204  28.763  29.155  1.00  0.00     0.037 A 
ATOM     52  C   UNL A   1      46.645  28.461  30.252  1.00  0.00     0.049 A 
ATOM     53  C   UNL A   1      41.201  29.724  29.741  1.00  0.00     0.074 A 
ATOM     54  C   UNL A   1      47.468  29.455  30.748  1.00  0.00     0.029 A 
ATOM     55  N   UNL A   1      45.358  28.979  30.229  1.00  0.00    -0.354 N 
ATOM     56  N   UNL A   1      42.493  29.579  29.907  1.00  0.00    -0.248 NA
ATOM     57  C   UNL A   1      40.679  31.020  30.197  1.00  0.00     0.031 C 
ATOM     58  C   UNL A   1      46.672  30.558  31.072  1.00  0.00     0.029 A 
ATOM     59  C   UNL A   1      45.361  30.273  30.722  1.00  0.00     0.049 A 
ATOM     60  H   UNL A   1      44.561  28.499  29.909  1.00  0.00     0.167 HD
ATOM     61  C   UNL A   1      42.944  30.771  30.459  1.00  0.00     0.074 A 
ATOM     62  C   UNL A   1      41.788  31.635  30.583  1.00  0.00     0.031 C 
ATOM     63  C   UNL A   1      44.200  31.119  30.831  1.00  0.00     0.037 A 
BRANCH  50  64
ATOM     64  C   UNL A   1      48.425  26.685  29.973  1.00  0.00     0.057 A 
ATOM     65  C   UNL A   1      49.385  26.951  28.985  1.00  0.00     0.134 A 
ATOM     66  C   UNL A   1      48.853  25.998  31.116  1.00  0.00     0.134 A 
ATOM     67  F   UNL A   1      49.041  27.592  27.858  1.00  0.00    -0.206 F 
ATOM     68  C   UNL A   1      50.707  26.522  29.115  1.00  0.00     0.040 A 
ATOM     69  C   UNL A   1      50.180  25.593  31.272  1.00  0.00     0.040 A 
ATOM     70  F   UNL A   1      47.991  25.713  32.103  1.00  0.00    -0.206 F 
ATOM     71  C   UNL A   1      51.109  25.847  30.265  1.00  0.00     0.006 A 
ENDBRANCH  50  64
BRANCH  51  72
ATOM     72  C   UNL A   1      38.766  29.119  29.052  1.00  0.00     0.057 A 
ATOM     73  C   UNL A   1      38.213  29.556  27.843  1.00  0.00     0.134 A 
ATOM     74  C   UNL A   1      37.911  29.035  30.157  1.00  0.00     0.134 A 
ATOM     75  F   UNL A   1      38.983  29.674  26.751  1.00  0.00    -0.206 F 
ATOM     76  C   UNL A   1      36.868  29.917  27.741  1.00  0.00     0.040 A 
ATOM     77  C   UNL A   1      36.558  29.365  30.063  1.00  0.00     0.040 A 
ATOM     78  F   UNL A   1      38.377  28.614  31.343  1.00  0.00    -0.206 F 
ATOM     79  C   UNL A   1      36.035  29.816  28.854  1.00  0.00     0.006 A 
ENDBRANCH  51  72
BRANCH  63  80
ATOM     80  C   UNL A   1      44.397  32.508  31.369  1.00  0.00     0.057 A 
ATOM     81  C   UNL A   1      44.334  32.788  32.739  1.00  0.00     0.134 A 
ATOM     82  C   UNL A   1      44.695  33.568  30.504  1.00  0.00     0.134 A 
ATOM     83  F   UNL A   1      44.042  31.820  33.620  1.00  0.00    -0.206 F 
ATOM     84  C   UNL A   1      44.535  34.081  33.228  1.00  0.00     0.040 A 
ATOM     85  C   UNL A   1      44.930  34.857  30.983  1.00  0.00     0.040 A 
ATOM     86  F   UNL A   1      44.781  33.366  29.180  1.00  0.00    -0.206 F 
ATOM     87  C   UNL A   1      44.842  35.117  32.349  1.00  0.00     0.006 A 
ENDBRANCH  63  80
ENDBRANCH  37  38
ENDBRANCH  29  32
ENDBRANCH  27  28
ENDBRANCH  26  27
ENDBRANCH   1  26
TORSDOF 15
ENDMDL
MODEL 2
REMARK VINA RESULT:     -11.1      1.320      2.031
REMARK SMILES CCC(CC)(Nc1cc2ccccc2c(=O)[nH]1)C(=O)NCCCCNC(=O)c1ccc(-c2c3nc(c(-c4c(F)cccc4F)c4ccc([nH]4)c(-c4c(F)cccc4F)c4nc(c(-c5c(F)cccc5F)c5ccc2[nH]5)C=C4)C=C3)cc1
REMARK SMILES IDX 22 1 21 2 20 3 18 4 19 5 3 7 2 8 1 9 4 10 5 11 6 12 7 14
REMARK SMILES IDX 8 15 17 16 9 17 15 18 10 20 14 21 16 22 11 23 13 24 12 25
REMARK SMILES IDX 23 26 24 27 25 28 26 29 27 31 28 32 29 33 81 34 30 35 80 36
REMARK SMILES IDX 31 37 32 38 33 39 74 40 34 41 79 42 73 43 75 44 35 45 78 46
REMARK SMILES IDX 72 47 71 48 36 50 62 51 45 52 61 53 46 54 49 55 60 56 76 57
REMARK SMILES IDX 47 58 48 59 59 61 77 62 50 63 37 64 38 65 43 66 39 67 40 68
REMARK SMILES IDX 42 69 44 70 41 71 63 72 64 73 69 74 65 75 66 76 68 77 70 78
REMARK SMILES IDX 67 79 51 80 52 81 57 82 53 83 54 84 56 85 58 86 55 87
REMARK H PARENT 20 6 6 13 17 19 25 30 75 49 49 60
REMARK Flexibility Score: inf
ROOT
ATOM      1  C   UNL A   1      36.410  20.109  24.998  1.00  0.00     0.023 C 
ENDROOT
BRANCH   1   2
ATOM      2  C   UNL A   1      36.241  21.484  25.641  1.00  0.00     0.116 C 
BRANCH   2   3
ATOM      3  N   UNL A   1      35.347  21.548  26.793  1.00  0.00    -0.354 N 
ATOM      4  C   UNL A   1      33.994  21.780  26.870  1.00  0.00     0.245 C 
ATOM      5  O   UNL A   1      33.504  21.776  28.003  1.00  0.00    -0.272 OA
ATOM      6  H   UNL A   1      35.787  21.401  27.661  1.00  0.00     0.163 HD
BRANCH   4   7
ATOM      7  C   UNL A   1      33.164  22.129  25.596  1.00  0.00     0.117 C 
BRANCH   7   8
ATOM      8  C   UNL A   1      31.956  23.069  25.899  1.00  0.00     0.035 C 
ATOM      9  C   UNL A   1      30.595  22.419  26.133  1.00  0.00     0.007 C 
ENDBRANCH   7   8
BRANCH   7  10
ATOM     10  C   UNL A   1      32.649  20.757  25.050  1.00  0.00     0.035 C 
ATOM     11  C   UNL A   1      32.447  20.620  23.553  1.00  0.00     0.007 C 
ENDBRANCH   7  10
BRANCH   7  12
ATOM     12  N   UNL A   1      34.002  22.889  24.612  1.00  0.00    -0.357 N 
ATOM     13  H   UNL A   1      34.630  22.336  24.093  1.00  0.00     0.163 HD
BRANCH  12  14
ATOM     14  C   UNL A   1      34.037  24.255  24.309  1.00  0.00     0.107 A 
ATOM     15  C   UNL A   1      34.018  25.187  25.288  1.00  0.00     0.053 A 
ATOM     16  N   UNL A   1      34.008  24.727  23.018  1.00  0.00    -0.308 N 
ATOM     17  C   UNL A   1      33.851  26.623  24.984  1.00  0.00    -0.009 A 
ATOM     18  C   UNL A   1      33.732  26.008  22.612  1.00  0.00     0.257 A 
ATOM     19  H   UNL A   1      34.206  24.075  22.307  1.00  0.00     0.171 HD
ATOM     20  C   UNL A   1      33.877  27.613  25.970  1.00  0.00     0.009 A 
ATOM     21  C   UNL A   1      33.568  27.011  23.671  1.00  0.00     0.047 A 
ATOM     22  O   UNL A   1      33.611  26.305  21.424  1.00  0.00    -0.269 OA
ATOM     23  C   UNL A   1      33.545  28.939  25.650  1.00  0.00     0.001 A 
ATOM     24  C   UNL A   1      33.179  28.317  23.353  1.00  0.00     0.014 A 
ATOM     25  C   UNL A   1      33.157  29.282  24.353  1.00  0.00     0.001 A 
ENDBRANCH  12  14
ENDBRANCH   7  12
ENDBRANCH   4   7
ENDBRANCH   2   3
ENDBRANCH   1   2
BRANCH   1  26
ATOM     26  C   UNL A   1      37.836  19.731  24.637  1.00  0.00     0.023 C 
BRANCH  26  27
ATOM     27  C   UNL A   1      38.863  20.206  25.644  1.00  0.00     0.116 C 
BRANCH  27  28
ATOM     28  N   UNL A   1      39.971  19.272  25.779  1.00  0.00    -0.352 N 
ATOM     29  C   UNL A   1      41.287  19.523  26.076  1.00  0.00     0.251 C 
ATOM     30  H   UNL A   1      39.744  18.325  25.639  1.00  0.00     0.163 HD
ATOM     31  O   UNL A   1      42.132  18.648  25.921  1.00  0.00    -0.269 OA
BRANCH  29  32
ATOM     32  C   UNL A   1      41.680  20.858  26.571  1.00  0.00     0.039 A 
ATOM     33  C   UNL A   1      42.069  21.838  25.657  1.00  0.00     0.014 A 
ATOM     34  C   UNL A   1      41.657  21.141  27.939  1.00  0.00     0.014 A 
ATOM     35  C   UNL A   1      42.379  23.119  26.114  1.00  0.00     0.010 A 
ATOM     36  C   UNL A   1      41.847  22.444  28.378  1.00  0.00     0.010 A 
ATOM     37  C   UNL A   1      42.238  23.440  27.474  1.00  0.00    -0.014 A 
BRANCH  37  38
ATOM     38  C   UNL A   1      42.533  24.801  27.983  1.00  0.00     0.031 A 
ATOM     39  C   UNL A   1      43.940  25.161  28.381  1.00  0.00     0.074 A 
ATOM     40  C   UNL A   1      41.532  25.687  28.145  1.00  0.00     0.049 A 
ATOM     41  N   UNL A   1      44.394  26.269  28.909  1.00  0.00    -0.248 NA
ATOM     42  C   UNL A   1      44.969  24.125  28.190  1.00  0.00     0.031 C 
ATOM     43  C   UNL A   1      40.121  25.433  27.852  1.00  0.00     0.029 A 
ATOM     44  N   UNL A   1      41.548  26.979  28.605  1.00  0.00    -0.354 N 
ATOM     45  C   UNL A   1      45.749  26.055  29.125  1.00  0.00     0.074 A 
ATOM     46  C   UNL A   1      46.031  24.690  28.741  1.00  0.00     0.031 C 
ATOM     47  C   UNL A   1      39.412  26.544  28.109  1.00  0.00     0.029 A 
ATOM     48  C   UNL A   1      40.309  27.571  28.627  1.00  0.00     0.049 A 
ATOM     49  H   UNL A   1      42.371  27.438  28.892  1.00  0.00     0.167 HD
ATOM     50  C   UNL A   1      46.683  26.927  29.571  1.00  0.00     0.037 A 
ATOM     51  C   UNL A   1      39.940  28.801  29.030  1.00  0.00     0.037 A 
ATOM     52  C   UNL A   1      46.398  28.290  29.931  1.00  0.00     0.049 A 
ATOM     53  C   UNL A   1      40.993  29.749  29.532  1.00  0.00     0.074 A 
ATOM     54  C   UNL A   1      47.276  29.274  30.346  1.00  0.00     0.029 A 
ATOM     55  N   UNL A   1      45.133  28.859  29.922  1.00  0.00    -0.354 N 
ATOM     56  N   UNL A   1      42.284  29.560  29.663  1.00  0.00    -0.248 NA
ATOM     57  C   UNL A   1      40.539  31.088  29.935  1.00  0.00     0.031 C 
ATOM     58  C   UNL A   1      46.537  30.424  30.637  1.00  0.00     0.029 A 
ATOM     59  C   UNL A   1      45.204  30.175  30.346  1.00  0.00     0.049 A 
ATOM     60  H   UNL A   1      44.306  28.396  29.654  1.00  0.00     0.167 HD
ATOM     61  C   UNL A   1      42.801  30.758  30.136  1.00  0.00     0.074 A 
ATOM     62  C   UNL A   1      41.684  31.675  30.251  1.00  0.00     0.031 C 
ATOM     63  C   UNL A   1      44.082  31.073  30.448  1.00  0.00     0.037 A 
BRANCH  50  64
ATOM     64  C   UNL A   1      48.095  26.430  29.688  1.00  0.00     0.057 A 
ATOM     65  C   UNL A   1      49.024  26.582  28.647  1.00  0.00     0.134 A 
ATOM     66  C   UNL A   1      48.542  25.808  30.860  1.00  0.00     0.134 A 
ATOM     67  F   UNL A   1      48.659  27.156  27.490  1.00  0.00    -0.206 F 
ATOM     68  C   UNL A   1      50.331  26.107  28.756  1.00  0.00     0.040 A 
ATOM     69  C   UNL A   1      49.857  25.358  30.994  1.00  0.00     0.040 A 
ATOM     70  F   UNL A   1      47.712  25.632  31.899  1.00  0.00    -0.206 F 
ATOM     71  C   UNL A   1      50.753  25.498  29.936  1.00  0.00     0.006 A 
ENDBRANCH  50  64
BRANCH  51  72
ATOM     72  C   UNL A   1      38.514  29.211  28.955  1.00  0.00     0.057 A 
ATOM     73  C   UNL A   1      37.671  29.105  30.067  1.00  0.00     0.134 A 
ATOM     74  C   UNL A   1      37.959  29.713  27.772  1.00  0.00     0.134 A 
ATOM     75  F   UNL A   1      38.138  28.615  31.226  1.00  0.00    -0.206 F 
ATOM     76  C   UNL A   1      36.323  29.462  30.001  1.00  0.00     0.040 A 
ATOM     77  C   UNL A   1      36.620  30.102  27.700  1.00  0.00     0.040 A 
ATOM     78  F   UNL A   1      38.716  29.848  26.673  1.00  0.00    -0.206 F 
ATOM     79  C   UNL A   1      35.795  29.969  28.814  1.00  0.00     0.006 A 
ENDBRANCH  51  72
BRANCH  63  80
ATOM     80  C   UNL A   1      44.351  32.478  30.906  1.00  0.00     0.057 A 
ATOM     81  C   UNL A   1      44.356  32.829  32.261  1.00  0.00     0.134 A 
ATOM     82  C   UNL A   1      44.652  33.482  29.976  1.00  0.00     0.134 A 
ATOM     83  F   UNL A   1      44.066  31.918  33.201  1.00  0.00    -0.206 F 
ATOM     84  C   UNL A   1      44.626  34.136  32.674  1.00  0.00     0.040 A 
ATOM     85  C   UNL A   1      44.953  34.783  30.378  1.00  0.00     0.040 A 
ATOM     86  F   UNL A   1      44.675  33.210  28.662  1.00  0.00    -0.206 F 
ATOM     87  C   UNL A   1      44.933  35.114  31.730  1.00  0.00     0.006 A 
ENDBRANCH  63  80
ENDBRANCH  37  38
ENDBRANCH  29  32
ENDBRANCH  27  28
ENDBRANCH  26  27
ENDBRANCH   1  26
TORSDOF 15
ENDMDL
MODEL 3
REMARK VINA RESULT:     -10.9      1.338      1.966
REMARK SMILES CCC(CC)(Nc1cc2ccccc2c(=O)[nH]1)C(=O)NCCCCNC(=O)c1ccc(-c2c3nc(c(-c4c(F)cccc4F)c4ccc([nH]4)c(-c4c(F)cccc4F)c4nc(c(-c5c(F)cccc5F)c5ccc2[nH]5)C=C4)C=C3)cc1
REMARK SMILES IDX 22 1 21 2 20 3 18 4 19 5 3 7 2 8 1 9 4 10 5 11 6 12 7 14
REMARK SMILES IDX 8 15 17 16 9 17 15 18 10 20 14 21 16 22 11 23 13 24 12 25
REMARK SMILES IDX 23 26 24 27 25 28 26 29 27 31 28 32 29 33 81 34 30 35 80 36
REMARK SMILES IDX 31 37 32 38 33 39 74 40 34 41 79 42 73 43 75 44 35 45 78 46
REMARK SMILES IDX 72 47 71 48 36 50 62 51 45 52 61 53 46 54 49 55 60 56 76 57
REMARK SMILES IDX 47 58 48 59 59 61 77 62 50 63 37 64 38 65 43 66 39 67 40 68
REMARK SMILES IDX 42 69 44 70 41 71 63 72 64 73 69 74 65 75 66 76 68 77 70 78
REMARK SMILES IDX 67 79 51 80 52 81 57 82 53 83 54 84 56 85 58 86 55 87
REMARK H PARENT 20 6 6 13 17 19 25 30 75 49 49 60
REMARK Flexibility Score: inf
ROOT
ATOM      1  C   UNL A   1      36.390  20.171  25.032  1.00  0.00     0.023 C 
ENDROOT
BRANCH   1   2
ATOM      2  C   UNL A   1      36.289  21.496  25.784  1.00  0.00     0.116 C 
BRANCH   2   3
ATOM      3  N   UNL A   1      35.264  21.570  26.821  1.00  0.00    -0.354 N 
ATOM      4  C   UNL A   1      33.977  22.053  26.780  1.00  0.00     0.245 C 
ATOM      5  O   UNL A   1      33.336  21.982  27.832  1.00  0.00    -0.272 OA
ATOM      6  H   UNL A   1      35.540  21.214  27.696  1.00  0.00     0.163 HD
BRANCH   4   7
ATOM      7  C   UNL A   1      33.416  22.741  25.497  1.00  0.00     0.117 C 
BRANCH   7   8
ATOM      8  C   UNL A   1      33.203  21.741  24.319  1.00  0.00     0.035 C 
ATOM      9  C   UNL A   1      32.404  20.473  24.602  1.00  0.00     0.007 C 
ENDBRANCH   7   8
BRANCH   7  10
ATOM     10  C   UNL A   1      34.484  23.812  25.102  1.00  0.00     0.035 C 
ATOM     11  C   UNL A   1      34.747  24.040  23.625  1.00  0.00     0.007 C 
ENDBRANCH   7  10
BRANCH   7  12
ATOM     12  N   UNL A   1      32.057  23.318  25.760  1.00  0.00    -0.357 N 
ATOM     13  H   UNL A   1      31.390  22.671  26.084  1.00  0.00     0.163 HD
BRANCH  12  14
ATOM     14  C   UNL A   1      31.582  24.628  25.619  1.00  0.00     0.107 A 
ATOM     15  C   UNL A   1      31.191  25.103  24.415  1.00  0.00     0.053 A 
ATOM     16  N   UNL A   1      31.562  25.523  26.663  1.00  0.00    -0.308 N 
ATOM     17  C   UNL A   1      30.881  26.533  24.214  1.00  0.00    -0.009 A 
ATOM     18  C   UNL A   1      31.416  26.885  26.581  1.00  0.00     0.257 A 
ATOM     19  H   UNL A   1      31.666  25.146  27.568  1.00  0.00     0.171 HD
ATOM     20  C   UNL A   1      30.428  27.044  22.994  1.00  0.00     0.009 A 
ATOM     21  C   UNL A   1      31.130  27.435  25.251  1.00  0.00     0.047 A 
ATOM     22  O   UNL A   1      31.534  27.614  27.565  1.00  0.00    -0.269 OA
ATOM     23  C   UNL A   1      30.310  28.430  22.807  1.00  0.00     0.001 A 
ATOM     24  C   UNL A   1      31.073  28.820  25.057  1.00  0.00     0.014 A 
ATOM     25  C   UNL A   1      30.672  29.317  23.823  1.00  0.00     0.001 A 
ENDBRANCH  12  14
ENDBRANCH   7  12
ENDBRANCH   4   7
ENDBRANCH   2   3
ENDBRANCH   1   2
BRANCH   1  26
ATOM     26  C   UNL A   1      37.798  19.739  24.661  1.00  0.00     0.023 C 
BRANCH  26  27
ATOM     27  C   UNL A   1      38.858  20.239  25.619  1.00  0.00     0.116 C 
BRANCH  27  28
ATOM     28  N   UNL A   1      39.952  19.290  25.771  1.00  0.00    -0.352 N 
ATOM     29  C   UNL A   1      41.264  19.521  26.098  1.00  0.00     0.251 C 
ATOM     30  H   UNL A   1      39.716  18.347  25.617  1.00  0.00     0.163 HD
ATOM     31  O   UNL A   1      42.101  18.637  25.954  1.00  0.00    -0.269 OA
BRANCH  29  32
ATOM     32  C   UNL A   1      41.663  20.847  26.614  1.00  0.00     0.039 A 
ATOM     33  C   UNL A   1      42.074  21.833  25.716  1.00  0.00     0.014 A 
ATOM     34  C   UNL A   1      41.623  21.116  27.984  1.00  0.00     0.014 A 
ATOM     35  C   UNL A   1      42.390  23.106  26.191  1.00  0.00     0.010 A 
ATOM     36  C   UNL A   1      41.819  22.411  28.440  1.00  0.00     0.010 A 
ATOM     37  C   UNL A   1      42.233  23.414  27.552  1.00  0.00    -0.014 A 
BRANCH  37  38
ATOM     38  C   UNL A   1      42.534  24.766  28.081  1.00  0.00     0.031 A 
ATOM     39  C   UNL A   1      43.936  25.106  28.509  1.00  0.00     0.074 A 
ATOM     40  C   UNL A   1      41.540  25.662  28.232  1.00  0.00     0.049 A 
ATOM     41  N   UNL A   1      44.393  26.202  29.057  1.00  0.00    -0.248 NA
ATOM     42  C   UNL A   1      44.957  24.059  28.329  1.00  0.00     0.031 C 
ATOM     43  C   UNL A   1      40.132  25.428  27.909  1.00  0.00     0.029 A 
ATOM     44  N   UNL A   1      41.562  26.950  28.705  1.00  0.00    -0.354 N 
ATOM     45  C   UNL A   1      45.741  25.970  29.297  1.00  0.00     0.074 A 
ATOM     46  C   UNL A   1      46.015  24.606  28.905  1.00  0.00     0.031 C 
ATOM     47  C   UNL A   1      39.431  26.544  28.163  1.00  0.00     0.029 A 
ATOM     48  C   UNL A   1      40.330  27.556  28.708  1.00  0.00     0.049 A 
ATOM     49  H   UNL A   1      42.385  27.396  29.012  1.00  0.00     0.167 HD
ATOM     50  C   UNL A   1      46.676  26.827  29.770  1.00  0.00     0.037 A 
ATOM     51  C   UNL A   1      39.967  28.786  29.116  1.00  0.00     0.037 A 
ATOM     52  C   UNL A   1      46.400  28.190  30.138  1.00  0.00     0.049 A 
ATOM     53  C   UNL A   1      41.022  29.717  29.648  1.00  0.00     0.074 A 
ATOM     54  C   UNL A   1      47.282  29.159  30.580  1.00  0.00     0.029 A 
ATOM     55  N   UNL A   1      45.142  28.774  30.110  1.00  0.00    -0.354 N 
ATOM     56  N   UNL A   1      42.307  29.511  29.802  1.00  0.00    -0.248 NA
ATOM     57  C   UNL A   1      40.576  31.057  30.056  1.00  0.00     0.031 C 
ATOM     58  C   UNL A   1      46.550  30.315  30.868  1.00  0.00     0.029 A 
ATOM     59  C   UNL A   1      45.220  30.085  30.548  1.00  0.00     0.049 A 
ATOM     60  H   UNL A   1      44.316  28.323  29.821  1.00  0.00     0.167 HD
ATOM     61  C   UNL A   1      42.829  30.698  30.297  1.00  0.00     0.074 A 
ATOM     62  C   UNL A   1      41.721  31.628  30.400  1.00  0.00     0.031 C 
ATOM     63  C   UNL A   1      44.107  30.995  30.637  1.00  0.00     0.037 A 
BRANCH  50  64
ATOM     64  C   UNL A   1      48.080  26.312  29.909  1.00  0.00     0.057 A 
ATOM     65  C   UNL A   1      49.005  26.386  28.857  1.00  0.00     0.134 A 
ATOM     66  C   UNL A   1      48.523  25.753  31.114  1.00  0.00     0.134 A 
ATOM     67  F   UNL A   1      48.644  26.897  27.670  1.00  0.00    -0.206 F 
ATOM     68  C   UNL A   1      50.304  25.894  28.987  1.00  0.00     0.040 A 
ATOM     69  C   UNL A   1      49.830  25.287  31.268  1.00  0.00     0.040 A 
ATOM     70  F   UNL A   1      47.695  25.654  32.165  1.00  0.00    -0.206 F 
ATOM     71  C   UNL A   1      50.722  25.349  30.199  1.00  0.00     0.006 A 
ENDBRANCH  50  64
BRANCH  51  72
ATOM     72  C   UNL A   1      38.548  29.213  29.018  1.00  0.00     0.057 A 
ATOM     73  C   UNL A   1      37.695  29.155  30.127  1.00  0.00     0.134 A 
ATOM     74  C   UNL A   1      38.008  29.685  27.816  1.00  0.00     0.134 A 
ATOM     75  F   UNL A   1      38.148  28.697  31.304  1.00  0.00    -0.206 F 
ATOM     76  C   UNL A   1      36.354  29.529  30.039  1.00  0.00     0.040 A 
ATOM     77  C   UNL A   1      36.676  30.091  27.721  1.00  0.00     0.040 A 
ATOM     78  F   UNL A   1      38.775  29.775  26.719  1.00  0.00    -0.206 F 
ATOM     79  C   UNL A   1      35.841  30.005  28.833  1.00  0.00     0.006 A 
ENDBRANCH  51  72
BRANCH  63  80
ATOM     80  C   UNL A   1      44.384  32.393  31.114  1.00  0.00     0.057 A 
ATOM     81  C   UNL A   1      44.368  32.730  32.472  1.00  0.00     0.134 A 
ATOM     82  C   UNL A   1      44.713  33.402  30.200  1.00  0.00     0.134 A 
ATOM     83  F   UNL A   1      44.050  31.813  33.398  1.00  0.00    -0.206 F 
ATOM     84  C   UNL A   1      44.644  34.029  32.904  1.00  0.00     0.040 A 
ATOM     85  C   UNL A   1      45.022  34.695  30.620  1.00  0.00     0.040 A 
ATOM     86  F   UNL A   1      44.757  33.142  28.884  1.00  0.00    -0.206 F 
ATOM     87  C   UNL A   1      44.980  35.013  31.975  1.00  0.00     0.006 A 
ENDBRANCH  63  80
ENDBRANCH  37  38
ENDBRANCH  29  32
ENDBRANCH  27  28
ENDBRANCH  26  27
ENDBRANCH   1  26
TORSDOF 15
ENDMDL
