MODEL 1
REMARK VINA RESULT:     -12.7      0.000      0.000
REMARK SMILES CC(=O)C1=C(c2ccccc2)NC(=S)N[C@@H]1c1cc(Cl)ccc1OCC(=O)NCCCCNC(=O)c1ccc(-c2c3nc(c(-c4c(F)cccc4F)c4ccc([nH]4)c(-c4c(F)cccc4F)c4nc(c(-c5c(F)cccc5F)c5ccc2[nH]5)C=C4)C=C3)cc1
REMARK SMILES IDX 29 1 28 2 26 3 27 4 25 6 24 7 23 8 17 9 18 10 19 11 22 12
REMARK SMILES IDX 20 13 21 14 16 15 4 16 5 17 12 18 15 19 13 20 14 23 2 24
REMARK SMILES IDX 1 25 3 26 6 27 7 28 11 29 8 30 10 31 9 32 30 33 31 34 32 35
REMARK SMILES IDX 33 36 34 37 35 39 36 40 37 41 89 42 38 43 88 44 39 45 40 46
REMARK SMILES IDX 41 47 82 48 42 49 87 50 81 51 83 52 43 53 86 54 80 55 79 56
REMARK SMILES IDX 44 58 70 59 53 60 69 61 54 62 57 63 68 64 84 65 55 66 56 67
REMARK SMILES IDX 67 69 85 70 58 71 45 72 46 73 51 74 47 75 48 76 50 77 52 78
REMARK SMILES IDX 49 79 71 80 72 81 77 82 73 83 74 84 76 85 78 86 75 87 59 88
REMARK SMILES IDX 60 89 65 90 61 91 62 92 64 93 66 94 63 95
REMARK H PARENT 28 5 12 21 15 22 33 38 83 57 57 68
REMARK Flexibility Score: inf
ROOT
ATOM      1  C   UNL A   1      31.671  29.480  26.761  1.00  0.00     0.116 C 
ENDROOT
BRANCH   1   2
ATOM      2  N   UNL A   1      32.815  29.335  27.643  1.00  0.00    -0.353 N 
ATOM      3  C   UNL A   1      34.113  29.064  27.299  1.00  0.00     0.257 C 
ATOM      4  O   UNL A   1      35.011  29.315  28.104  1.00  0.00    -0.271 OA
ATOM      5  H   UNL A   1      32.636  29.447  28.605  1.00  0.00     0.163 HD
BRANCH   3   6
ATOM      6  C   UNL A   1      34.436  28.431  25.943  1.00  0.00     0.329 C 
BRANCH   6   7
ATOM      7  O   UNL A   1      33.981  27.115  25.736  1.00  0.00    -0.483 OA
BRANCH   7   8
ATOM      8  C   UNL A   1      33.722  26.539  24.528  1.00  0.00     0.125 A 
ATOM      9  C   UNL A   1      33.398  25.213  24.170  1.00  0.00     0.023 A 
ATOM     10  C   UNL A   1      32.980  24.993  22.828  1.00  0.00     0.030 A 
ATOM     11  C   UNL A   1      32.948  26.010  21.875  1.00  0.00     0.041 A 
ATOM     12  C   UNL A   1      33.671  27.553  23.545  1.00  0.00     0.048 A 
ATOM     13  Cl  UNL A   1      32.440  25.669  20.269  1.00  0.00    -0.084 Cl
ATOM     14  C   UNL A   1      33.300  27.296  22.228  1.00  0.00     0.024 A 
BRANCH   9  15
ATOM     15  C   UNL A   1      33.309  24.034  25.140  1.00  0.00     0.152 C 
ATOM     16  C   UNL A   1      33.728  22.665  24.638  1.00  0.00     0.046 C 
ATOM     17  C   UNL A   1      32.989  21.567  24.894  1.00  0.00     0.057 C 
ATOM     18  N   UNL A   1      31.853  21.689  25.661  1.00  0.00    -0.332 N 
ATOM     19  N   UNL A   1      31.937  23.990  25.632  1.00  0.00    -0.351 N 
ATOM     20  C   UNL A   1      31.303  22.867  26.038  1.00  0.00     0.171 C 
ATOM     21  H   UNL A   1      31.409  20.861  25.956  1.00  0.00     0.169 HD
ATOM     22  H   UNL A   1      31.438  24.838  25.671  1.00  0.00     0.163 HD
ATOM     23  S   UNL A   1      29.874  22.927  26.884  1.00  0.00    -0.041 S 
BRANCH  16  24
ATOM     24  C   UNL A   1      34.998  22.558  23.862  1.00  0.00     0.160 C 
ATOM     25  C   UNL A   1      36.275  22.353  24.634  1.00  0.00     0.093 C 
ATOM     26  O   UNL A   1      35.000  22.665  22.638  1.00  0.00    -0.295 OA
ENDBRANCH  16  24
BRANCH  17  27
ATOM     27  C   UNL A   1      33.221  20.209  24.370  1.00  0.00    -0.002 A 
ATOM     28  C   UNL A   1      32.350  19.743  23.367  1.00  0.00     0.010 A 
ATOM     29  C   UNL A   1      34.220  19.360  24.850  1.00  0.00     0.010 A 
ATOM     30  C   UNL A   1      32.475  18.454  22.855  1.00  0.00     0.001 A 
ATOM     31  C   UNL A   1      34.348  18.069  24.328  1.00  0.00     0.001 A 
ATOM     32  C   UNL A   1      33.477  17.617  23.336  1.00  0.00     0.000 A 
ENDBRANCH  17  27
ENDBRANCH   9  15
ENDBRANCH   7   8
ENDBRANCH   6   7
ENDBRANCH   3   6
ENDBRANCH   1   2
BRANCH   1  33
ATOM     33  C   UNL A   1      31.603  30.813  26.015  1.00  0.00     0.023 C 
BRANCH  33  34
ATOM     34  C   UNL A   1      31.410  32.072  26.862  1.00  0.00     0.023 C 
BRANCH  34  35
ATOM     35  C   UNL A   1      32.670  32.829  27.266  1.00  0.00     0.116 C 
BRANCH  35  36
ATOM     36  N   UNL A   1      32.411  34.207  27.657  1.00  0.00    -0.352 N 
ATOM     37  C   UNL A   1      33.045  35.000  28.584  1.00  0.00     0.251 C 
ATOM     38  H   UNL A   1      31.666  34.639  27.182  1.00  0.00     0.163 HD
ATOM     39  O   UNL A   1      32.595  36.116  28.831  1.00  0.00    -0.269 OA
BRANCH  37  40
ATOM     40  C   UNL A   1      34.233  34.511  29.317  1.00  0.00     0.039 A 
ATOM     41  C   UNL A   1      34.044  33.910  30.566  1.00  0.00     0.014 A 
ATOM     42  C   UNL A   1      35.523  34.634  28.794  1.00  0.00     0.014 A 
ATOM     43  C   UNL A   1      35.132  33.356  31.246  1.00  0.00     0.010 A 
ATOM     44  C   UNL A   1      36.595  34.018  29.439  1.00  0.00     0.010 A 
ATOM     45  C   UNL A   1      36.409  33.359  30.663  1.00  0.00    -0.014 A 
BRANCH  45  46
ATOM     46  C   UNL A   1      37.540  32.628  31.292  1.00  0.00     0.031 A 
ATOM     47  C   UNL A   1      38.144  33.103  32.583  1.00  0.00     0.074 A 
ATOM     48  C   UNL A   1      38.083  31.576  30.648  1.00  0.00     0.049 A 
ATOM     49  N   UNL A   1      39.179  32.634  33.234  1.00  0.00    -0.248 NA
ATOM     50  C   UNL A   1      37.517  34.274  33.212  1.00  0.00     0.031 C 
ATOM     51  C   UNL A   1      37.627  31.050  29.361  1.00  0.00     0.029 A 
ATOM     52  N   UNL A   1      39.147  30.774  30.978  1.00  0.00    -0.354 N 
ATOM     53  C   UNL A   1      39.332  33.454  34.344  1.00  0.00     0.074 A 
ATOM     54  C   UNL A   1      38.318  34.483  34.247  1.00  0.00     0.031 C 
ATOM     55  C   UNL A   1      38.401  30.010  29.013  1.00  0.00     0.029 A 
ATOM     56  C   UNL A   1      39.432  29.823  30.029  1.00  0.00     0.049 A 
ATOM     57  H   UNL A   1      39.657  30.871  31.815  1.00  0.00     0.167 HD
ATOM     58  C   UNL A   1      40.224  33.350  35.359  1.00  0.00     0.037 A 
ATOM     59  C   UNL A   1      40.425  28.914  29.967  1.00  0.00     0.037 A 
ATOM     60  C   UNL A   1      41.234  32.327  35.449  1.00  0.00     0.049 A 
ATOM     61  C   UNL A   1      41.419  28.831  31.089  1.00  0.00     0.074 A 
ATOM     62  C   UNL A   1      42.143  32.099  36.469  1.00  0.00     0.029 A 
ATOM     63  N   UNL A   1      41.485  31.372  34.474  1.00  0.00    -0.354 N 
ATOM     64  N   UNL A   1      41.500  29.558  32.176  1.00  0.00    -0.248 NA
ATOM     65  C   UNL A   1      42.458  27.797  30.979  1.00  0.00     0.031 C 
ATOM     66  C   UNL A   1      42.981  31.047  36.083  1.00  0.00     0.029 A 
ATOM     67  C   UNL A   1      42.558  30.579  34.850  1.00  0.00     0.049 A 
ATOM     68  H   UNL A   1      40.976  31.274  33.637  1.00  0.00     0.167 HD
ATOM     69  C   UNL A   1      42.586  29.064  32.886  1.00  0.00     0.074 A 
ATOM     70  C   UNL A   1      43.120  27.960  32.115  1.00  0.00     0.031 C 
ATOM     71  C   UNL A   1      43.094  29.490  34.069  1.00  0.00     0.037 A 
BRANCH  58  72
ATOM     72  C   UNL A   1      40.150  34.385  36.447  1.00  0.00     0.057 A 
ATOM     73  C   UNL A   1      40.908  35.564  36.403  1.00  0.00     0.134 A 
ATOM     74  C   UNL A   1      39.304  34.206  37.549  1.00  0.00     0.134 A 
ATOM     75  F   UNL A   1      41.744  35.798  35.380  1.00  0.00    -0.206 F 
ATOM     76  C   UNL A   1      40.860  36.505  37.434  1.00  0.00     0.040 A 
ATOM     77  C   UNL A   1      39.224  35.154  38.571  1.00  0.00     0.040 A 
ATOM     78  F   UNL A   1      38.541  33.108  37.653  1.00  0.00    -0.206 F 
ATOM     79  C   UNL A   1      40.013  36.302  38.521  1.00  0.00     0.006 A 
ENDBRANCH  58  72
BRANCH  59  80
ATOM     80  C   UNL A   1      40.519  28.016  28.789  1.00  0.00     0.057 A 
ATOM     81  C   UNL A   1      39.814  26.809  28.738  1.00  0.00     0.134 A 
ATOM     82  C   UNL A   1      41.289  28.361  27.670  1.00  0.00     0.134 A 
ATOM     83  F   UNL A   1      39.074  26.415  29.784  1.00  0.00    -0.206 F 
ATOM     84  C   UNL A   1      39.878  25.972  27.623  1.00  0.00     0.040 A 
ATOM     85  C   UNL A   1      41.340  27.547  26.538  1.00  0.00     0.040 A 
ATOM     86  F   UNL A   1      41.981  29.510  27.653  1.00  0.00    -0.206 F 
ATOM     87  C   UNL A   1      40.635  26.346  26.514  1.00  0.00     0.006 A 
ENDBRANCH  59  80
BRANCH  71  88
ATOM     88  C   UNL A   1      44.285  28.753  34.612  1.00  0.00     0.057 A 
ATOM     89  C   UNL A   1      45.596  29.121  34.281  1.00  0.00     0.134 A 
ATOM     90  C   UNL A   1      44.121  27.687  35.506  1.00  0.00     0.134 A 
ATOM     91  F   UNL A   1      45.824  30.123  33.418  1.00  0.00    -0.206 F 
ATOM     92  C   UNL A   1      46.699  28.443  34.805  1.00  0.00     0.040 A 
ATOM     93  C   UNL A   1      45.216  27.021  36.059  1.00  0.00     0.040 A 
ATOM     94  F   UNL A   1      42.895  27.286  35.872  1.00  0.00    -0.206 F 
ATOM     95  C   UNL A   1      46.510  27.396  35.704  1.00  0.00     0.006 A 
ENDBRANCH  71  88
ENDBRANCH  45  46
ENDBRANCH  37  40
ENDBRANCH  35  36
ENDBRANCH  34  35
ENDBRANCH  33  34
ENDBRANCH   1  33
TORSDOF 16
ENDMDL
MODEL 2
REMARK VINA RESULT:     -12.6      0.446      5.891
REMARK SMILES CC(=O)C1=C(c2ccccc2)NC(=S)N[C@@H]1c1cc(Cl)ccc1OCC(=O)NCCCCNC(=O)c1ccc(-c2c3nc(c(-c4c(F)cccc4F)c4ccc([nH]4)c(-c4c(F)cccc4F)c4nc(c(-c5c(F)cccc5F)c5ccc2[nH]5)C=C4)C=C3)cc1
REMARK SMILES IDX 29 1 28 2 26 3 27 4 25 6 24 7 23 8 17 9 18 10 19 11 22 12
REMARK SMILES IDX 20 13 21 14 16 15 4 16 5 17 12 18 15 19 13 20 14 23 2 24
REMARK SMILES IDX 1 25 3 26 6 27 7 28 11 29 8 30 10 31 9 32 30 33 31 34 32 35
REMARK SMILES IDX 33 36 34 37 35 39 36 40 37 41 89 42 38 43 88 44 39 45 40 46
REMARK SMILES IDX 41 47 82 48 42 49 87 50 81 51 83 52 43 53 86 54 80 55 79 56
REMARK SMILES IDX 44 58 70 59 53 60 69 61 54 62 57 63 68 64 84 65 55 66 56 67
REMARK SMILES IDX 67 69 85 70 58 71 45 72 46 73 51 74 47 75 48 76 50 77 52 78
REMARK SMILES IDX 49 79 71 80 72 81 77 82 73 83 74 84 76 85 78 86 75 87 59 88
REMARK SMILES IDX 60 89 65 90 61 91 62 92 64 93 66 94 63 95
REMARK H PARENT 28 5 12 21 15 22 33 38 83 57 57 68
REMARK Flexibility Score: inf
ROOT
ATOM      1  C   UNL A   1      31.837  29.352  26.697  1.00  0.00     0.116 C 
ENDROOT
BRANCH   1   2
ATOM      2  N   UNL A   1      32.894  29.265  27.688  1.00  0.00    -0.353 N 
ATOM      3  C   UNL A   1      34.224  29.013  27.480  1.00  0.00     0.257 C 
ATOM      4  O   UNL A   1      35.036  29.314  28.356  1.00  0.00    -0.271 OA
ATOM      5  H   UNL A   1      32.622  29.406  28.624  1.00  0.00     0.163 HD
BRANCH   3   6
ATOM      6  C   UNL A   1      34.688  28.341  26.185  1.00  0.00     0.329 C 
BRANCH   6   7
ATOM      7  O   UNL A   1      34.239  27.026  25.960  1.00  0.00    -0.483 OA
BRANCH   7   8
ATOM      8  C   UNL A   1      33.779  26.530  24.777  1.00  0.00     0.125 A 
ATOM      9  C   UNL A   1      33.280  25.257  24.423  1.00  0.00     0.023 A 
ATOM     10  C   UNL A   1      32.683  25.136  23.137  1.00  0.00     0.030 A 
ATOM     11  C   UNL A   1      32.640  26.190  22.226  1.00  0.00     0.041 A 
ATOM     12  C   UNL A   1      33.712  27.584  23.839  1.00  0.00     0.048 A 
ATOM     13  Cl  UNL A   1      31.911  25.968  20.685  1.00  0.00    -0.084 Cl
ATOM     14  C   UNL A   1      33.161  27.421  22.571  1.00  0.00     0.024 A 
BRANCH   9  15
ATOM     15  C   UNL A   1      33.190  24.053  25.360  1.00  0.00     0.152 C 
ATOM     16  C   UNL A   1      33.648  22.705  24.835  1.00  0.00     0.046 C 
ATOM     17  C   UNL A   1      32.924  21.587  25.044  1.00  0.00     0.057 C 
ATOM     18  N   UNL A   1      31.767  21.669  25.785  1.00  0.00    -0.332 N 
ATOM     19  N   UNL A   1      31.808  23.971  25.815  1.00  0.00    -0.351 N 
ATOM     20  C   UNL A   1      31.185  22.827  26.177  1.00  0.00     0.171 C 
ATOM     21  H   UNL A   1      31.331  20.826  26.048  1.00  0.00     0.169 HD
ATOM     22  H   UNL A   1      31.291  24.809  25.863  1.00  0.00     0.163 HD
ATOM     23  S   UNL A   1      29.734  22.838  26.987  1.00  0.00    -0.041 S 
BRANCH  16  24
ATOM     24  C   UNL A   1      34.938  22.642  24.089  1.00  0.00     0.160 C 
ATOM     25  C   UNL A   1      36.212  22.633  24.894  1.00  0.00     0.093 C 
ATOM     26  O   UNL A   1      34.957  22.627  22.861  1.00  0.00    -0.295 OA
ENDBRANCH  16  24
BRANCH  17  27
ATOM     27  C   UNL A   1      33.194  20.248  24.493  1.00  0.00    -0.002 A 
ATOM     28  C   UNL A   1      32.310  19.758  23.514  1.00  0.00     0.010 A 
ATOM     29  C   UNL A   1      34.245  19.436  24.927  1.00  0.00     0.010 A 
ATOM     30  C   UNL A   1      32.472  18.482  22.979  1.00  0.00     0.001 A 
ATOM     31  C   UNL A   1      34.410  18.159  24.382  1.00  0.00     0.001 A 
ATOM     32  C   UNL A   1      33.524  17.683  23.413  1.00  0.00     0.000 A 
ENDBRANCH  17  27
ENDBRANCH   9  15
ENDBRANCH   7   8
ENDBRANCH   6   7
ENDBRANCH   3   6
ENDBRANCH   1   2
BRANCH   1  33
ATOM     33  C   UNL A   1      31.650  30.739  26.081  1.00  0.00     0.023 C 
BRANCH  33  34
ATOM     34  C   UNL A   1      31.512  31.915  27.050  1.00  0.00     0.023 C 
BRANCH  34  35
ATOM     35  C   UNL A   1      32.744  32.791  27.248  1.00  0.00     0.116 C 
BRANCH  35  36
ATOM     36  N   UNL A   1      32.421  34.163  27.607  1.00  0.00    -0.352 N 
ATOM     37  C   UNL A   1      33.013  35.004  28.519  1.00  0.00     0.251 C 
ATOM     38  H   UNL A   1      31.660  34.551  27.120  1.00  0.00     0.163 HD
ATOM     39  O   UNL A   1      32.512  36.104  28.741  1.00  0.00    -0.269 OA
BRANCH  37  40
ATOM     40  C   UNL A   1      34.219  34.585  29.268  1.00  0.00     0.039 A 
ATOM     41  C   UNL A   1      34.052  34.026  30.540  1.00  0.00     0.014 A 
ATOM     42  C   UNL A   1      35.503  34.735  28.738  1.00  0.00     0.014 A 
ATOM     43  C   UNL A   1      35.159  33.537  31.238  1.00  0.00     0.010 A 
ATOM     44  C   UNL A   1      36.596  34.183  29.404  1.00  0.00     0.010 A 
ATOM     45  C   UNL A   1      36.435  33.564  30.653  1.00  0.00    -0.014 A 
BRANCH  45  46
ATOM     46  C   UNL A   1      37.592  32.898  31.306  1.00  0.00     0.031 A 
ATOM     47  C   UNL A   1      38.227  31.681  30.696  1.00  0.00     0.074 A 
ATOM     48  C   UNL A   1      38.018  33.344  32.503  1.00  0.00     0.049 A 
ATOM     49  N   UNL A   1      39.193  30.930  31.162  1.00  0.00    -0.248 NA
ATOM     50  C   UNL A   1      37.690  31.237  29.402  1.00  0.00     0.031 C 
ATOM     51  C   UNL A   1      37.450  34.479  33.231  1.00  0.00     0.029 A 
ATOM     52  N   UNL A   1      39.014  32.884  33.330  1.00  0.00    -0.354 N 
ATOM     53  C   UNL A   1      39.375  29.921  30.225  1.00  0.00     0.074 A 
ATOM     54  C   UNL A   1      38.381  30.125  29.192  1.00  0.00     0.031 C 
ATOM     55  C   UNL A   1      38.109  34.633  34.390  1.00  0.00     0.029 A 
ATOM     56  C   UNL A   1      39.115  33.582  34.508  1.00  0.00     0.049 A 
ATOM     57  H   UNL A   1      39.599  32.126  33.100  1.00  0.00     0.167 HD
ATOM     58  C   UNL A   1      40.295  28.925  30.218  1.00  0.00     0.037 A 
ATOM     59  C   UNL A   1      39.912  33.390  35.578  1.00  0.00     0.037 A 
ATOM     60  C   UNL A   1      41.280  28.724  31.251  1.00  0.00     0.049 A 
ATOM     61  C   UNL A   1      40.908  32.266  35.562  1.00  0.00     0.074 A 
ATOM     62  C   UNL A   1      42.295  27.784  31.303  1.00  0.00     0.029 A 
ATOM     63  N   UNL A   1      41.359  29.460  32.425  1.00  0.00    -0.354 N 
ATOM     64  N   UNL A   1      41.128  31.371  34.631  1.00  0.00    -0.248 NA
ATOM     65  C   UNL A   1      41.772  32.129  36.743  1.00  0.00     0.031 C 
ATOM     66  C   UNL A   1      42.949  27.913  32.533  1.00  0.00     0.029 A 
ATOM     67  C   UNL A   1      42.381  28.971  33.224  1.00  0.00     0.049 A 
ATOM     68  H   UNL A   1      40.775  30.217  32.656  1.00  0.00     0.167 HD
ATOM     69  C   UNL A   1      42.161  30.573  35.104  1.00  0.00     0.074 A 
ATOM     70  C   UNL A   1      42.538  31.104  36.398  1.00  0.00     0.031 C 
ATOM     71  C   UNL A   1      42.741  29.496  34.519  1.00  0.00     0.037 A 
BRANCH  58  72
ATOM     72  C   UNL A   1      40.266  27.971  29.057  1.00  0.00     0.057 A 
ATOM     73  C   UNL A   1      39.520  26.784  29.090  1.00  0.00     0.134 A 
ATOM     74  C   UNL A   1      40.985  28.245  27.887  1.00  0.00     0.134 A 
ATOM     75  F   UNL A   1      38.811  26.456  30.181  1.00  0.00    -0.206 F 
ATOM     76  C   UNL A   1      39.525  25.886  28.020  1.00  0.00     0.040 A 
ATOM     77  C   UNL A   1      40.973  27.371  26.799  1.00  0.00     0.040 A 
ATOM     78  F   UNL A   1      41.712  29.367  27.779  1.00  0.00    -0.206 F 
ATOM     79  C   UNL A   1      40.251  26.181  26.868  1.00  0.00     0.006 A 
ENDBRANCH  58  72
BRANCH  59  80
ATOM     80  C   UNL A   1      39.786  34.289  36.752  1.00  0.00     0.057 A 
ATOM     81  C   UNL A   1      38.986  33.946  37.847  1.00  0.00     0.134 A 
ATOM     82  C   UNL A   1      40.492  35.497  36.822  1.00  0.00     0.134 A 
ATOM     83  F   UNL A   1      38.272  32.811  37.832  1.00  0.00    -0.206 F 
ATOM     84  C   UNL A   1      38.883  34.775  38.965  1.00  0.00     0.040 A 
ATOM     85  C   UNL A   1      40.420  36.323  37.944  1.00  0.00     0.040 A 
ATOM     86  F   UNL A   1      41.283  35.878  35.808  1.00  0.00    -0.206 F 
ATOM     87  C   UNL A   1      39.611  35.964  39.019  1.00  0.00     0.006 A 
ENDBRANCH  59  80
BRANCH  71  88
ATOM     88  C   UNL A   1      43.856  28.824  35.268  1.00  0.00     0.057 A 
ATOM     89  C   UNL A   1      45.189  29.234  35.135  1.00  0.00     0.134 A 
ATOM     90  C   UNL A   1      43.589  27.778  36.161  1.00  0.00     0.134 A 
ATOM     91  F   UNL A   1      45.516  30.220  34.286  1.00  0.00    -0.206 F 
ATOM     92  C   UNL A   1      46.218  28.617  35.850  1.00  0.00     0.040 A 
ATOM     93  C   UNL A   1      44.605  27.172  36.903  1.00  0.00     0.040 A 
ATOM     94  F   UNL A   1      42.335  27.338  36.342  1.00  0.00    -0.206 F 
ATOM     95  C   UNL A   1      45.925  27.589  36.744  1.00  0.00     0.006 A 
ENDBRANCH  71  88
ENDBRANCH  45  46
ENDBRANCH  37  40
ENDBRANCH  35  36
ENDBRANCH  34  35
ENDBRANCH  33  34
ENDBRANCH   1  33
TORSDOF 16
ENDMDL
MODEL 3
REMARK VINA RESULT:     -12.2      3.134      8.323
REMARK SMILES CC(=O)C1=C(c2ccccc2)NC(=S)N[C@@H]1c1cc(Cl)ccc1OCC(=O)NCCCCNC(=O)c1ccc(-c2c3nc(c(-c4c(F)cccc4F)c4ccc([nH]4)c(-c4c(F)cccc4F)c4nc(c(-c5c(F)cccc5F)c5ccc2[nH]5)C=C4)C=C3)cc1
REMARK SMILES IDX 29 1 28 2 26 3 27 4 25 6 24 7 23 8 17 9 18 10 19 11 22 12
REMARK SMILES IDX 20 13 21 14 16 15 4 16 5 17 12 18 15 19 13 20 14 23 2 24
REMARK SMILES IDX 1 25 3 26 6 27 7 28 11 29 8 30 10 31 9 32 30 33 31 34 32 35
REMARK SMILES IDX 33 36 34 37 35 39 36 40 37 41 89 42 38 43 88 44 39 45 40 46
REMARK SMILES IDX 41 47 82 48 42 49 87 50 81 51 83 52 43 53 86 54 80 55 79 56
REMARK SMILES IDX 44 58 70 59 53 60 69 61 54 62 57 63 68 64 84 65 55 66 56 67
REMARK SMILES IDX 67 69 85 70 58 71 45 72 46 73 51 74 47 75 48 76 50 77 52 78
REMARK SMILES IDX 49 79 71 80 72 81 77 82 73 83 74 84 76 85 78 86 75 87 59 88
REMARK SMILES IDX 60 89 65 90 61 91 62 92 64 93 66 94 63 95
REMARK H PARENT 28 5 12 21 15 22 33 38 83 57 57 68
REMARK Flexibility Score: inf
ROOT
ATOM      1  C   UNL A   1      39.221  22.533  26.463  1.00  0.00     0.116 C 
ENDROOT
BRANCH   1   2
ATOM      2  N   UNL A   1      38.348  22.166  25.363  1.00  0.00    -0.353 N 
ATOM      3  C   UNL A   1      37.263  22.852  24.885  1.00  0.00     0.257 C 
ATOM      4  O   UNL A   1      36.847  22.602  23.753  1.00  0.00    -0.271 OA
ATOM      5  H   UNL A   1      38.562  21.322  24.904  1.00  0.00     0.163 HD
BRANCH   3   6
ATOM      6  C   UNL A   1      36.563  23.895  25.760  1.00  0.00     0.329 C 
BRANCH   6   7
ATOM      7  O   UNL A   1      35.474  24.576  25.183  1.00  0.00    -0.483 OA
BRANCH   7   8
ATOM      8  C   UNL A   1      34.164  24.421  25.523  1.00  0.00     0.125 A 
ATOM      9  C   UNL A   1      32.987  25.018  25.022  1.00  0.00     0.023 A 
ATOM     10  C   UNL A   1      31.750  24.471  25.464  1.00  0.00     0.030 A 
ATOM     11  C   UNL A   1      31.676  23.439  26.398  1.00  0.00     0.041 A 
ATOM     12  C   UNL A   1      34.061  23.368  26.460  1.00  0.00     0.048 A 
ATOM     13  Cl  UNL A   1      30.146  22.833  26.893  1.00  0.00    -0.084 Cl
ATOM     14  C   UNL A   1      32.834  22.885  26.906  1.00  0.00     0.024 A 
BRANCH   9  15
ATOM     15  C   UNL A   1      32.936  26.090  23.934  1.00  0.00     0.152 C 
ATOM     16  C   UNL A   1      31.823  27.120  23.998  1.00  0.00     0.046 C 
ATOM     17  C   UNL A   1      31.126  27.470  22.898  1.00  0.00     0.057 C 
ATOM     18  N   UNL A   1      31.462  26.910  21.687  1.00  0.00    -0.332 N 
ATOM     19  N   UNL A   1      32.904  25.396  22.653  1.00  0.00    -0.351 N 
ATOM     20  C   UNL A   1      32.330  25.883  21.529  1.00  0.00     0.171 C 
ATOM     21  H   UNL A   1      31.042  27.283  20.878  1.00  0.00     0.169 HD
ATOM     22  H   UNL A   1      33.330  24.509  22.603  1.00  0.00     0.163 HD
ATOM     23  S   UNL A   1      32.606  25.201  20.039  1.00  0.00    -0.041 S 
BRANCH  16  24
ATOM     24  C   UNL A   1      31.526  27.753  25.315  1.00  0.00     0.160 C 
ATOM     25  C   UNL A   1      32.223  29.047  25.644  1.00  0.00     0.093 C 
ATOM     26  O   UNL A   1      30.760  27.218  26.114  1.00  0.00    -0.295 OA
ENDBRANCH  16  24
BRANCH  17  27
ATOM     27  C   UNL A   1      29.954  28.362  22.847  1.00  0.00    -0.002 A 
ATOM     28  C   UNL A   1      30.177  29.707  22.501  1.00  0.00     0.010 A 
ATOM     29  C   UNL A   1      28.659  27.948  23.167  1.00  0.00     0.010 A 
ATOM     30  C   UNL A   1      29.128  30.622  22.477  1.00  0.00     0.001 A 
ATOM     31  C   UNL A   1      27.605  28.867  23.133  1.00  0.00     0.001 A 
ATOM     32  C   UNL A   1      27.840  30.200  22.793  1.00  0.00     0.000 A 
ENDBRANCH  17  27
ENDBRANCH   9  15
ENDBRANCH   7   8
ENDBRANCH   6   7
ENDBRANCH   3   6
ENDBRANCH   1   2
BRANCH   1  33
ATOM     33  C   UNL A   1      40.180  21.431  26.914  1.00  0.00     0.023 C 
BRANCH  33  34
ATOM     34  C   UNL A   1      41.586  21.445  26.310  1.00  0.00     0.023 C 
BRANCH  34  35
ATOM     35  C   UNL A   1      41.922  22.605  25.379  1.00  0.00     0.116 C 
BRANCH  35  36
ATOM     36  N   UNL A   1      43.350  22.864  25.279  1.00  0.00    -0.352 N 
ATOM     37  C   UNL A   1      44.107  23.876  25.820  1.00  0.00     0.251 C 
ATOM     38  H   UNL A   1      43.853  22.212  24.741  1.00  0.00     0.163 HD
ATOM     39  O   UNL A   1      45.297  23.964  25.524  1.00  0.00    -0.269 OA
BRANCH  37  40
ATOM     40  C   UNL A   1      43.500  24.883  26.718  1.00  0.00     0.039 A 
ATOM     41  C   UNL A   1      42.477  24.476  27.581  1.00  0.00     0.014 A 
ATOM     42  C   UNL A   1      43.922  26.215  26.722  1.00  0.00     0.014 A 
ATOM     43  C   UNL A   1      41.943  25.377  28.505  1.00  0.00     0.010 A 
ATOM     44  C   UNL A   1      43.439  27.093  27.691  1.00  0.00     0.010 A 
ATOM     45  C   UNL A   1      42.456  26.680  28.603  1.00  0.00    -0.014 A 
BRANCH  45  46
ATOM     46  C   UNL A   1      42.020  27.595  29.689  1.00  0.00     0.031 A 
ATOM     47  C   UNL A   1      42.666  27.549  31.044  1.00  0.00     0.074 A 
ATOM     48  C   UNL A   1      40.973  28.417  29.477  1.00  0.00     0.049 A 
ATOM     49  N   UNL A   1      42.365  28.220  32.128  1.00  0.00    -0.248 NA
ATOM     50  C   UNL A   1      43.783  26.608  31.209  1.00  0.00     0.031 C 
ATOM     51  C   UNL A   1      40.221  28.517  28.225  1.00  0.00     0.029 A 
ATOM     52  N   UNL A   1      40.347  29.308  30.313  1.00  0.00    -0.354 N 
ATOM     53  C   UNL A   1      43.248  27.778  33.105  1.00  0.00     0.074 A 
ATOM     54  C   UNL A   1      44.059  26.742  32.499  1.00  0.00     0.031 C 
ATOM     55  C   UNL A   1      39.242  29.423  28.373  1.00  0.00     0.029 A 
ATOM     56  C   UNL A   1      39.268  29.935  29.740  1.00  0.00     0.049 A 
ATOM     57  H   UNL A   1      40.644  29.482  31.236  1.00  0.00     0.167 HD
ATOM     58  C   UNL A   1      43.383  28.207  34.384  1.00  0.00     0.037 A 
ATOM     59  C   UNL A   1      38.382  30.807  30.257  1.00  0.00     0.037 A 
ATOM     60  C   UNL A   1      42.571  29.236  34.983  1.00  0.00     0.049 A 
ATOM     61  C   UNL A   1      38.532  31.251  31.684  1.00  0.00     0.074 A 
ATOM     62  C   UNL A   1      42.672  29.784  36.250  1.00  0.00     0.029 A 
ATOM     63  N   UNL A   1      41.494  29.856  34.367  1.00  0.00    -0.354 N 
ATOM     64  N   UNL A   1      39.425  30.890  32.571  1.00  0.00    -0.248 NA
ATOM     65  C   UNL A   1      37.554  32.230  32.180  1.00  0.00     0.031 C 
ATOM     66  C   UNL A   1      41.620  30.692  36.421  1.00  0.00     0.029 A 
ATOM     67  C   UNL A   1      40.899  30.754  35.240  1.00  0.00     0.049 A 
ATOM     68  H   UNL A   1      41.196  29.684  33.445  1.00  0.00     0.167 HD
ATOM     69  C   UNL A   1      39.128  31.603  33.725  1.00  0.00     0.074 A 
ATOM     70  C   UNL A   1      37.983  32.435  33.416  1.00  0.00     0.031 C 
ATOM     71  C   UNL A   1      39.749  31.568  34.930  1.00  0.00     0.037 A 
BRANCH  58  72
ATOM     72  C   UNL A   1      44.443  27.548  35.221  1.00  0.00     0.057 A 
ATOM     73  C   UNL A   1      45.757  28.036  35.274  1.00  0.00     0.134 A 
ATOM     74  C   UNL A   1      44.147  26.417  35.992  1.00  0.00     0.134 A 
ATOM     75  F   UNL A   1      46.113  29.112  34.556  1.00  0.00    -0.206 F 
ATOM     76  C   UNL A   1      46.745  27.398  36.027  1.00  0.00     0.040 A 
ATOM     77  C   UNL A   1      45.118  25.789  36.774  1.00  0.00     0.040 A 
ATOM     78  F   UNL A   1      42.908  25.902  36.000  1.00  0.00    -0.206 F 
ATOM     79  C   UNL A   1      46.425  26.272  36.783  1.00  0.00     0.006 A 
ENDBRANCH  58  72
BRANCH  59  80
ATOM     80  C   UNL A   1      37.272  31.308  29.409  1.00  0.00     0.057 A 
ATOM     81  C   UNL A   1      36.116  30.548  29.201  1.00  0.00     0.134 A 
ATOM     82  C   UNL A   1      37.326  32.575  28.813  1.00  0.00     0.134 A 
ATOM     83  F   UNL A   1      36.011  29.320  29.729  1.00  0.00    -0.206 F 
ATOM     84  C   UNL A   1      35.058  31.025  28.425  1.00  0.00     0.040 A 
ATOM     85  C   UNL A   1      36.265  33.075  28.058  1.00  0.00     0.040 A 
ATOM     86  F   UNL A   1      38.404  33.357  28.982  1.00  0.00    -0.206 F 
ATOM     87  C   UNL A   1      35.127  32.297  27.859  1.00  0.00     0.006 A 
ENDBRANCH  59  80
BRANCH  71  88
ATOM     88  C   UNL A   1      39.209  32.465  36.007  1.00  0.00     0.057 A 
ATOM     89  C   UNL A   1      39.629  33.795  36.141  1.00  0.00     0.134 A 
ATOM     90  C   UNL A   1      38.230  32.006  36.898  1.00  0.00     0.134 A 
ATOM     91  F   UNL A   1      40.575  34.295  35.332  1.00  0.00    -0.206 F 
ATOM     92  C   UNL A   1      39.108  34.629  37.133  1.00  0.00     0.040 A 
ATOM     93  C   UNL A   1      37.680  32.838  37.875  1.00  0.00     0.040 A 
ATOM     94  F   UNL A   1      37.777  30.746  36.823  1.00  0.00    -0.206 F 
ATOM     95  C   UNL A   1      38.124  34.153  37.997  1.00  0.00     0.006 A 
ENDBRANCH  71  88
ENDBRANCH  45  46
ENDBRANCH  37  40
ENDBRANCH  35  36
ENDBRANCH  34  35
ENDBRANCH  33  34
ENDBRANCH   1  33
TORSDOF 16
ENDMDL
