MODEL 1
REMARK VINA RESULT:     -10.9      0.000      0.000
REMARK SMILES Cc1nc(N2CCCC[C@H]2C(=O)NCCCCNC(=O)c2ccc(-c3c4nc(c(-c5c(F)cccc5F)c5ccc([nH]5)c(-c5c(F)cccc5F)c5nc(c(-c6c(F)cccc6F)c6ccc3[nH]6)C=C5)C=C4)cc2)c2oc3ccccc3c2n1
REMARK SMILES IDX 16 1 15 2 14 3 13 4 11 5 12 6 10 8 5 9 6 10 7 11 9 12 8 13
REMARK SMILES IDX 4 14 1 15 2 16 3 17 84 18 83 19 75 20 82 21 76 22 77 23
REMARK SMILES IDX 81 24 78 25 80 26 79 27 17 28 18 29 19 30 20 32 21 33 22 34
REMARK SMILES IDX 74 35 23 36 73 37 24 38 25 39 26 40 67 41 27 42 72 43 66 44
REMARK SMILES IDX 68 45 28 46 71 47 65 48 64 49 29 51 55 52 38 53 54 54 39 55
REMARK SMILES IDX 42 56 53 57 69 58 40 59 41 60 52 62 70 63 43 64 30 65 31 66
REMARK SMILES IDX 36 67 32 68 33 69 35 70 37 71 34 72 56 73 57 74 62 75 58 76
REMARK SMILES IDX 59 77 61 78 63 79 60 80 44 81 45 82 50 83 46 84 47 85 49 86
REMARK SMILES IDX 51 87 48 88
REMARK H PARENT 13 7 18 31 68 50 42 61
REMARK Flexibility Score: inf
ROOT
ATOM      1  C   UNL A   1      44.390  33.671  25.595  1.00  0.00     0.023 C 
ENDROOT
BRANCH   1   2
ATOM      2  C   UNL A   1      44.231  32.452  26.508  1.00  0.00     0.023 C 
BRANCH   2   3
ATOM      3  C   UNL A   1      45.550  31.738  26.836  1.00  0.00     0.116 C 
BRANCH   3   4
ATOM      4  N   UNL A   1      45.922  30.812  25.787  1.00  0.00    -0.354 N 
ATOM      5  C   UNL A   1      46.242  29.486  25.824  1.00  0.00     0.242 C 
ATOM      6  O   UNL A   1      46.595  29.001  24.744  1.00  0.00    -0.273 OA
ATOM      7  H   UNL A   1      45.950  31.210  24.887  1.00  0.00     0.163 HD
BRANCH   5   8
ATOM      8  C   UNL A   1      46.105  28.656  27.134  1.00  0.00     0.173 C 
ATOM      9  N   UNL A   1      46.570  27.275  26.931  1.00  0.00    -0.341 N 
ATOM     10  C   UNL A   1      47.993  27.023  26.738  1.00  0.00     0.119 C 
ATOM     11  C   UNL A   1      48.821  27.666  27.849  1.00  0.00     0.022 C 
ATOM     12  C   UNL A   1      46.897  29.192  28.341  1.00  0.00     0.035 C 
ATOM     13  C   UNL A   1      48.404  29.110  28.107  1.00  0.00     0.004 C 
BRANCH   9  14
ATOM     14  C   UNL A   1      45.709  26.243  27.209  1.00  0.00     0.176 A 
ATOM     15  C   UNL A   1      43.495  23.990  25.301  1.00  0.00     0.090 C 
ATOM     16  C   UNL A   1      44.190  24.613  26.475  1.00  0.00     0.128 A 
ATOM     17  N   UNL A   1      44.972  25.689  26.215  1.00  0.00    -0.212 NA
ATOM     18  N   UNL A   1      43.962  24.054  27.679  1.00  0.00    -0.229 NA
ATOM     19  C   UNL A   1      44.639  24.654  28.685  1.00  0.00     0.123 A 
ATOM     20  C   UNL A   1      45.507  25.711  28.478  1.00  0.00     0.196 A 
ATOM     21  C   UNL A   1      44.637  24.406  30.083  1.00  0.00     0.047 A 
ATOM     22  O   UNL A   1      46.042  26.132  29.658  1.00  0.00    -0.450 OA
ATOM     23  C   UNL A   1      45.500  25.349  30.631  1.00  0.00     0.137 A 
ATOM     24  C   UNL A   1      43.993  23.505  30.950  1.00  0.00     0.014 A 
ATOM     25  C   UNL A   1      45.762  25.474  31.994  1.00  0.00     0.048 A 
ATOM     26  C   UNL A   1      44.238  23.602  32.328  1.00  0.00     0.001 A 
ATOM     27  C   UNL A   1      45.104  24.574  32.839  1.00  0.00     0.004 A 
ENDBRANCH   9  14
ENDBRANCH   5   8
ENDBRANCH   3   4
ENDBRANCH   2   3
ENDBRANCH   1   2
BRANCH   1  28
ATOM     28  C   UNL A   1      43.128  34.518  25.488  1.00  0.00     0.116 C 
BRANCH  28  29
ATOM     29  N   UNL A   1      43.377  35.922  25.776  1.00  0.00    -0.352 N 
ATOM     30  C   UNL A   1      43.297  36.568  26.992  1.00  0.00     0.251 C 
ATOM     31  H   UNL A   1      43.634  36.479  25.008  1.00  0.00     0.163 HD
ATOM     32  O   UNL A   1      43.410  37.776  27.081  1.00  0.00    -0.269 OA
BRANCH  30  33
ATOM     33  C   UNL A   1      43.025  35.742  28.183  1.00  0.00     0.039 A 
ATOM     34  C   UNL A   1      44.093  35.224  28.925  1.00  0.00     0.014 A 
ATOM     35  C   UNL A   1      41.705  35.401  28.476  1.00  0.00     0.014 A 
ATOM     36  C   UNL A   1      43.850  34.247  29.879  1.00  0.00     0.010 A 
ATOM     37  C   UNL A   1      41.461  34.455  29.466  1.00  0.00     0.010 A 
ATOM     38  C   UNL A   1      42.536  33.850  30.140  1.00  0.00    -0.014 A 
BRANCH  38  39
ATOM     39  C   UNL A   1      42.310  32.904  31.239  1.00  0.00     0.031 A 
ATOM     40  C   UNL A   1      40.938  32.977  31.786  1.00  0.00     0.074 A 
ATOM     41  C   UNL A   1      43.004  31.761  31.405  1.00  0.00     0.049 A 
ATOM     42  N   UNL A   1      39.959  32.380  31.180  1.00  0.00    -0.248 NA
ATOM     43  C   UNL A   1      40.520  33.908  32.828  1.00  0.00     0.031 C 
ATOM     44  C   UNL A   1      43.887  31.160  30.401  1.00  0.00     0.029 A 
ATOM     45  N   UNL A   1      42.920  30.816  32.400  1.00  0.00    -0.354 N 
ATOM     46  C   UNL A   1      38.795  32.929  31.663  1.00  0.00     0.074 A 
ATOM     47  C   UNL A   1      39.183  33.834  32.721  1.00  0.00     0.031 C 
ATOM     48  C   UNL A   1      44.137  29.884  30.759  1.00  0.00     0.029 A 
ATOM     49  C   UNL A   1      43.566  29.628  32.080  1.00  0.00     0.049 A 
ATOM     50  H   UNL A   1      42.452  30.965  33.252  1.00  0.00     0.167 HD
ATOM     51  C   UNL A   1      37.589  32.599  31.134  1.00  0.00     0.037 A 
ATOM     52  C   UNL A   1      43.217  28.388  32.506  1.00  0.00     0.037 A 
ATOM     53  C   UNL A   1      37.613  31.616  30.085  1.00  0.00     0.049 A 
ATOM     54  C   UNL A   1      41.803  28.233  32.032  1.00  0.00     0.074 A 
ATOM     55  C   UNL A   1      37.331  31.521  28.743  1.00  0.00     0.029 A 
ATOM     56  N   UNL A   1      38.133  30.406  30.457  1.00  0.00    -0.354 N 
ATOM     57  N   UNL A   1      41.455  27.919  30.813  1.00  0.00    -0.248 NA
ATOM     58  C   UNL A   1      40.686  28.624  32.901  1.00  0.00     0.031 C 
ATOM     59  C   UNL A   1      37.899  30.281  28.294  1.00  0.00     0.029 A 
ATOM     60  C   UNL A   1      38.530  29.669  29.375  1.00  0.00     0.049 A 
ATOM     61  H   UNL A   1      38.212  30.103  31.391  1.00  0.00     0.167 HD
ATOM     62  C   UNL A   1      40.128  28.319  30.701  1.00  0.00     0.074 A 
ATOM     63  C   UNL A   1      39.667  28.550  32.052  1.00  0.00     0.031 C 
ATOM     64  C   UNL A   1      39.569  28.669  29.509  1.00  0.00     0.037 A 
BRANCH  51  65
ATOM     65  C   UNL A   1      36.316  32.981  31.758  1.00  0.00     0.057 A 
ATOM     66  C   UNL A   1      35.945  32.583  33.039  1.00  0.00     0.134 A 
ATOM     67  C   UNL A   1      35.511  33.916  31.093  1.00  0.00     0.134 A 
ATOM     68  F   UNL A   1      36.681  31.692  33.717  1.00  0.00    -0.206 F 
ATOM     69  C   UNL A   1      34.818  33.130  33.657  1.00  0.00     0.040 A 
ATOM     70  C   UNL A   1      34.391  34.473  31.700  1.00  0.00     0.040 A 
ATOM     71  F   UNL A   1      35.828  34.319  29.851  1.00  0.00    -0.206 F 
ATOM     72  C   UNL A   1      34.048  34.088  32.993  1.00  0.00     0.006 A 
ENDBRANCH  51  65
BRANCH  52  73
ATOM     73  C   UNL A   1      43.674  27.981  33.870  1.00  0.00     0.057 A 
ATOM     74  C   UNL A   1      43.090  26.965  34.638  1.00  0.00     0.134 A 
ATOM     75  C   UNL A   1      44.808  28.592  34.440  1.00  0.00     0.134 A 
ATOM     76  F   UNL A   1      42.098  26.205  34.154  1.00  0.00    -0.206 F 
ATOM     77  C   UNL A   1      43.505  26.676  35.943  1.00  0.00     0.040 A 
ATOM     78  C   UNL A   1      45.256  28.292  35.732  1.00  0.00     0.040 A 
ATOM     79  F   UNL A   1      45.526  29.488  33.744  1.00  0.00    -0.206 F 
ATOM     80  C   UNL A   1      44.584  27.350  36.500  1.00  0.00     0.006 A 
ENDBRANCH  52  73
BRANCH  64  81
ATOM     81  C   UNL A   1      40.292  28.136  28.321  1.00  0.00     0.057 A 
ATOM     82  C   UNL A   1      39.978  26.909  27.729  1.00  0.00     0.134 A 
ATOM     83  C   UNL A   1      41.311  28.900  27.732  1.00  0.00     0.134 A 
ATOM     84  F   UNL A   1      39.008  26.128  28.229  1.00  0.00    -0.206 F 
ATOM     85  C   UNL A   1      40.658  26.457  26.596  1.00  0.00     0.040 A 
ATOM     86  C   UNL A   1      41.981  28.468  26.589  1.00  0.00     0.040 A 
ATOM     87  F   UNL A   1      41.671  30.080  28.264  1.00  0.00    -0.206 F 
ATOM     88  C   UNL A   1      41.657  27.241  26.018  1.00  0.00     0.006 A 
ENDBRANCH  64  81
ENDBRANCH  38  39
ENDBRANCH  30  33
ENDBRANCH  28  29
ENDBRANCH   1  28
TORSDOF 12
ENDMDL
MODEL 2
REMARK VINA RESULT:     -10.7      2.859     10.258
REMARK SMILES Cc1nc(N2CCCC[C@H]2C(=O)NCCCCNC(=O)c2ccc(-c3c4nc(c(-c5c(F)cccc5F)c5ccc([nH]5)c(-c5c(F)cccc5F)c5nc(c(-c6c(F)cccc6F)c6ccc3[nH]6)C=C5)C=C4)cc2)c2oc3ccccc3c2n1
REMARK SMILES IDX 16 1 15 2 14 3 13 4 11 5 12 6 10 8 5 9 6 10 7 11 9 12 8 13
REMARK SMILES IDX 4 14 1 15 2 16 3 17 84 18 83 19 75 20 82 21 76 22 77 23
REMARK SMILES IDX 81 24 78 25 80 26 79 27 17 28 18 29 19 30 20 32 21 33 22 34
REMARK SMILES IDX 74 35 23 36 73 37 24 38 25 39 26 40 67 41 27 42 72 43 66 44
REMARK SMILES IDX 68 45 28 46 71 47 65 48 64 49 29 51 55 52 38 53 54 54 39 55
REMARK SMILES IDX 42 56 53 57 69 58 40 59 41 60 52 62 70 63 43 64 30 65 31 66
REMARK SMILES IDX 36 67 32 68 33 69 35 70 37 71 34 72 56 73 57 74 62 75 58 76
REMARK SMILES IDX 59 77 61 78 63 79 60 80 44 81 45 82 50 83 46 84 47 85 49 86
REMARK SMILES IDX 51 87 48 88
REMARK H PARENT 13 7 18 31 68 50 42 61
REMARK Flexibility Score: inf
ROOT
ATOM      1  C   UNL A   1      41.871  25.901  35.956  1.00  0.00     0.023 C 
ENDROOT
BRANCH   1   2
ATOM      2  C   UNL A   1      41.948  26.999  34.892  1.00  0.00     0.023 C 
BRANCH   2   3
ATOM      3  C   UNL A   1      42.068  28.420  35.464  1.00  0.00     0.116 C 
BRANCH   3   4
ATOM      4  N   UNL A   1      40.778  28.931  35.876  1.00  0.00    -0.354 N 
ATOM      5  C   UNL A   1      40.125  30.089  35.568  1.00  0.00     0.242 C 
ATOM      6  O   UNL A   1      39.054  30.261  36.159  1.00  0.00    -0.273 OA
ATOM      7  H   UNL A   1      40.284  28.339  36.488  1.00  0.00     0.163 HD
BRANCH   5   8
ATOM      8  C   UNL A   1      40.684  31.075  34.500  1.00  0.00     0.173 C 
ATOM      9  N   UNL A   1      39.868  32.297  34.435  1.00  0.00    -0.341 N 
ATOM     10  C   UNL A   1      39.904  33.238  35.547  1.00  0.00     0.119 C 
ATOM     11  C   UNL A   1      41.341  33.622  35.895  1.00  0.00     0.022 C 
ATOM     12  C   UNL A   1      42.131  31.549  34.733  1.00  0.00     0.035 C 
ATOM     13  C   UNL A   1      42.249  32.400  35.995  1.00  0.00     0.004 C 
BRANCH   9  14
ATOM     14  C   UNL A   1      39.320  32.659  33.229  1.00  0.00     0.176 A 
ATOM     15  C   UNL A   1      36.027  32.418  31.582  1.00  0.00     0.090 C 
ATOM     16  C   UNL A   1      37.476  32.749  31.783  1.00  0.00     0.128 A 
ATOM     17  N   UNL A   1      38.043  32.314  32.934  1.00  0.00    -0.212 NA
ATOM     18  N   UNL A   1      38.083  33.435  30.794  1.00  0.00    -0.229 NA
ATOM     19  C   UNL A   1      39.380  33.715  31.055  1.00  0.00     0.123 A 
ATOM     20  C   UNL A   1      39.999  33.361  32.240  1.00  0.00     0.196 A 
ATOM     21  C   UNL A   1      40.366  34.365  30.266  1.00  0.00     0.047 A 
ATOM     22  O   UNL A   1      41.305  33.752  32.235  1.00  0.00    -0.450 OA
ATOM     23  C   UNL A   1      41.529  34.345  31.031  1.00  0.00     0.137 A 
ATOM     24  C   UNL A   1      40.415  34.953  28.989  1.00  0.00     0.014 A 
ATOM     25  C   UNL A   1      42.753  34.858  30.608  1.00  0.00     0.048 A 
ATOM     26  C   UNL A   1      41.633  35.481  28.537  1.00  0.00     0.001 A 
ATOM     27  C   UNL A   1      42.782  35.429  29.332  1.00  0.00     0.004 A 
ENDBRANCH   9  14
ENDBRANCH   5   8
ENDBRANCH   3   4
ENDBRANCH   2   3
ENDBRANCH   1   2
BRANCH   1  28
ATOM     28  C   UNL A   1      41.890  24.492  35.376  1.00  0.00     0.116 C 
BRANCH  28  29
ATOM     29  N   UNL A   1      42.986  23.693  35.900  1.00  0.00    -0.352 N 
ATOM     30  C   UNL A   1      44.256  23.546  35.382  1.00  0.00     0.251 C 
ATOM     31  H   UNL A   1      42.798  23.194  36.727  1.00  0.00     0.163 HD
ATOM     32  O   UNL A   1      45.047  22.748  35.849  1.00  0.00    -0.269 OA
BRANCH  30  33
ATOM     33  C   UNL A   1      44.608  24.366  34.207  1.00  0.00     0.039 A 
ATOM     34  C   UNL A   1      45.289  25.575  34.387  1.00  0.00     0.014 A 
ATOM     35  C   UNL A   1      44.153  23.969  32.951  1.00  0.00     0.014 A 
ATOM     36  C   UNL A   1      45.392  26.464  33.326  1.00  0.00     0.010 A 
ATOM     37  C   UNL A   1      44.299  24.843  31.878  1.00  0.00     0.010 A 
ATOM     38  C   UNL A   1      44.883  26.105  32.075  1.00  0.00    -0.014 A 
BRANCH  38  39
ATOM     39  C   UNL A   1      45.118  27.019  30.951  1.00  0.00     0.031 A 
ATOM     40  C   UNL A   1      45.194  26.320  29.650  1.00  0.00     0.074 A 
ATOM     41  C   UNL A   1      44.784  28.324  30.957  1.00  0.00     0.049 A 
ATOM     42  N   UNL A   1      44.109  25.970  29.031  1.00  0.00    -0.248 NA
ATOM     43  C   UNL A   1      46.413  25.730  29.106  1.00  0.00     0.031 C 
ATOM     44  C   UNL A   1      43.917  28.965  31.949  1.00  0.00     0.029 A 
ATOM     45  N   UNL A   1      44.980  29.288  29.997  1.00  0.00    -0.354 N 
ATOM     46  C   UNL A   1      44.468  25.028  28.097  1.00  0.00     0.074 A 
ATOM     47  C   UNL A   1      45.911  24.945  28.137  1.00  0.00     0.031 C 
ATOM     48  C   UNL A   1      43.527  30.163  31.468  1.00  0.00     0.029 A 
ATOM     49  C   UNL A   1      44.233  30.439  30.218  1.00  0.00     0.049 A 
ATOM     50  H   UNL A   1      45.588  29.176  29.231  1.00  0.00     0.167 HD
ATOM     51  C   UNL A   1      43.533  24.371  27.364  1.00  0.00     0.037 A 
ATOM     52  C   UNL A   1      43.748  31.272  29.264  1.00  0.00     0.037 A 
ATOM     53  C   UNL A   1      42.168  24.760  27.598  1.00  0.00     0.049 A 
ATOM     54  C   UNL A   1      42.896  30.382  28.411  1.00  0.00     0.074 A 
ATOM     55  C   UNL A   1      41.003  24.222  28.092  1.00  0.00     0.029 A 
ATOM     56  N   UNL A   1      41.903  26.077  27.335  1.00  0.00    -0.354 N 
ATOM     57  N   UNL A   1      41.682  30.003  28.706  1.00  0.00    -0.248 NA
ATOM     58  C   UNL A   1      43.474  29.709  27.239  1.00  0.00     0.031 C 
ATOM     59  C   UNL A   1      40.105  25.321  28.307  1.00  0.00     0.029 A 
ATOM     60  C   UNL A   1      40.760  26.500  27.956  1.00  0.00     0.049 A 
ATOM     61  H   UNL A   1      42.468  26.650  26.767  1.00  0.00     0.167 HD
ATOM     62  C   UNL A   1      41.452  28.878  27.923  1.00  0.00     0.074 A 
ATOM     63  C   UNL A   1      42.492  28.874  26.919  1.00  0.00     0.031 C 
ATOM     64  C   UNL A   1      40.581  27.897  28.291  1.00  0.00     0.037 A 
BRANCH  51  65
ATOM     65  C   UNL A   1      43.872  23.532  26.209  1.00  0.00     0.057 A 
ATOM     66  C   UNL A   1      44.514  24.019  25.074  1.00  0.00     0.134 A 
ATOM     67  C   UNL A   1      43.681  22.148  26.322  1.00  0.00     0.134 A 
ATOM     68  F   UNL A   1      44.721  25.334  24.919  1.00  0.00    -0.206 F 
ATOM     69  C   UNL A   1      44.988  23.146  24.092  1.00  0.00     0.040 A 
ATOM     70  C   UNL A   1      44.153  21.267  25.354  1.00  0.00     0.040 A 
ATOM     71  F   UNL A   1      43.057  21.636  27.396  1.00  0.00    -0.206 F 
ATOM     72  C   UNL A   1      44.820  21.767  24.239  1.00  0.00     0.006 A 
ENDBRANCH  51  65
BRANCH  52  73
ATOM     73  C   UNL A   1      44.689  32.290  28.704  1.00  0.00     0.057 A 
ATOM     74  C   UNL A   1      44.559  32.890  27.444  1.00  0.00     0.134 A 
ATOM     75  C   UNL A   1      45.764  32.755  29.486  1.00  0.00     0.134 A 
ATOM     76  F   UNL A   1      43.501  32.647  26.660  1.00  0.00    -0.206 F 
ATOM     77  C   UNL A   1      45.513  33.778  26.933  1.00  0.00     0.040 A 
ATOM     78  C   UNL A   1      46.709  33.668  29.002  1.00  0.00     0.040 A 
ATOM     79  F   UNL A   1      45.914  32.347  30.756  1.00  0.00    -0.206 F 
ATOM     80  C   UNL A   1      46.600  34.160  27.708  1.00  0.00     0.006 A 
ENDBRANCH  52  73
BRANCH  64  81
ATOM     81  C   UNL A   1      39.565  28.332  29.291  1.00  0.00     0.057 A 
ATOM     82  C   UNL A   1      38.326  28.868  28.929  1.00  0.00     0.134 A 
ATOM     83  C   UNL A   1      39.831  28.172  30.659  1.00  0.00     0.134 A 
ATOM     84  F   UNL A   1      37.996  29.040  27.640  1.00  0.00    -0.206 F 
ATOM     85  C   UNL A   1      37.387  29.235  29.895  1.00  0.00     0.040 A 
ATOM     86  C   UNL A   1      38.892  28.515  31.630  1.00  0.00     0.040 A 
ATOM     87  F   UNL A   1      41.010  27.679  31.071  1.00  0.00    -0.206 F 
ATOM     88  C   UNL A   1      37.665  29.052  31.250  1.00  0.00     0.006 A 
ENDBRANCH  64  81
ENDBRANCH  38  39
ENDBRANCH  30  33
ENDBRANCH  28  29
ENDBRANCH   1  28
TORSDOF 12
ENDMDL
MODEL 3
REMARK VINA RESULT:     -10.7      3.145     10.519
REMARK SMILES Cc1nc(N2CCCC[C@H]2C(=O)NCCCCNC(=O)c2ccc(-c3c4nc(c(-c5c(F)cccc5F)c5ccc([nH]5)c(-c5c(F)cccc5F)c5nc(c(-c6c(F)cccc6F)c6ccc3[nH]6)C=C5)C=C4)cc2)c2oc3ccccc3c2n1
REMARK SMILES IDX 16 1 15 2 14 3 13 4 11 5 12 6 10 8 5 9 6 10 7 11 9 12 8 13
REMARK SMILES IDX 4 14 1 15 2 16 3 17 84 18 83 19 75 20 82 21 76 22 77 23
REMARK SMILES IDX 81 24 78 25 80 26 79 27 17 28 18 29 19 30 20 32 21 33 22 34
REMARK SMILES IDX 74 35 23 36 73 37 24 38 25 39 26 40 67 41 27 42 72 43 66 44
REMARK SMILES IDX 68 45 28 46 71 47 65 48 64 49 29 51 55 52 38 53 54 54 39 55
REMARK SMILES IDX 42 56 53 57 69 58 40 59 41 60 52 62 70 63 43 64 30 65 31 66
REMARK SMILES IDX 36 67 32 68 33 69 35 70 37 71 34 72 56 73 57 74 62 75 58 76
REMARK SMILES IDX 59 77 61 78 63 79 60 80 44 81 45 82 50 83 46 84 47 85 49 86
REMARK SMILES IDX 51 87 48 88
REMARK H PARENT 13 7 18 31 68 50 42 61
REMARK Flexibility Score: inf
ROOT
ATOM      1  C   UNL A   1      42.032  26.198  36.098  1.00  0.00     0.023 C 
ENDROOT
BRANCH   1   2
ATOM      2  C   UNL A   1      41.996  27.370  35.113  1.00  0.00     0.023 C 
BRANCH   2   3
ATOM      3  C   UNL A   1      41.844  28.746  35.781  1.00  0.00     0.116 C 
BRANCH   3   4
ATOM      4  N   UNL A   1      40.450  29.076  35.994  1.00  0.00    -0.354 N 
ATOM      5  C   UNL A   1      39.779  30.260  35.904  1.00  0.00     0.242 C 
ATOM      6  O   UNL A   1      38.589  30.215  36.232  1.00  0.00    -0.273 OA
ATOM      7  H   UNL A   1      39.888  28.310  36.251  1.00  0.00     0.163 HD
BRANCH   5   8
ATOM      8  C   UNL A   1      40.472  31.546  35.365  1.00  0.00     0.173 C 
ATOM      9  N   UNL A   1      39.483  32.485  34.815  1.00  0.00    -0.341 N 
ATOM     10  C   UNL A   1      38.571  33.171  35.723  1.00  0.00     0.119 C 
ATOM     11  C   UNL A   1      39.335  33.861  36.851  1.00  0.00     0.022 C 
ATOM     12  C   UNL A   1      41.278  32.346  36.405  1.00  0.00     0.035 C 
ATOM     13  C   UNL A   1      40.374  32.940  37.482  1.00  0.00     0.004 C 
BRANCH   9  14
ATOM     14  C   UNL A   1      39.624  32.906  33.516  1.00  0.00     0.176 A 
ATOM     15  C   UNL A   1      42.289  34.391  31.439  1.00  0.00     0.090 C 
ATOM     16  C   UNL A   1      40.947  33.837  31.818  1.00  0.00     0.128 A 
ATOM     17  N   UNL A   1      40.775  33.503  33.120  1.00  0.00    -0.212 NA
ATOM     18  N   UNL A   1      40.035  33.736  30.832  1.00  0.00    -0.229 NA
ATOM     19  C   UNL A   1      38.859  33.208  31.243  1.00  0.00     0.123 A 
ATOM     20  C   UNL A   1      38.642  32.782  32.541  1.00  0.00     0.196 A 
ATOM     21  C   UNL A   1      37.646  32.983  30.539  1.00  0.00     0.047 A 
ATOM     22  O   UNL A   1      37.372  32.308  32.685  1.00  0.00    -0.450 OA
ATOM     23  C   UNL A   1      36.766  32.445  31.474  1.00  0.00     0.137 A 
ATOM     24  C   UNL A   1      37.185  33.185  29.226  1.00  0.00     0.014 A 
ATOM     25  C   UNL A   1      35.443  32.106  31.200  1.00  0.00     0.048 A 
ATOM     26  C   UNL A   1      35.858  32.850  28.918  1.00  0.00     0.001 A 
ATOM     27  C   UNL A   1      35.003  32.325  29.890  1.00  0.00     0.004 A 
ENDBRANCH   9  14
ENDBRANCH   5   8
ENDBRANCH   3   4
ENDBRANCH   2   3
ENDBRANCH   1   2
BRANCH   1  28
ATOM     28  C   UNL A   1      41.819  24.842  35.435  1.00  0.00     0.116 C 
BRANCH  28  29
ATOM     29  N   UNL A   1      42.795  23.855  35.868  1.00  0.00    -0.352 N 
ATOM     30  C   UNL A   1      43.987  23.516  35.263  1.00  0.00     0.251 C 
ATOM     31  H   UNL A   1      42.578  23.369  36.695  1.00  0.00     0.163 HD
ATOM     32  O   UNL A   1      44.660  22.582  35.659  1.00  0.00    -0.269 OA
BRANCH  30  33
ATOM     33  C   UNL A   1      44.399  24.301  34.085  1.00  0.00     0.039 A 
ATOM     34  C   UNL A   1      45.086  25.508  34.263  1.00  0.00     0.014 A 
ATOM     35  C   UNL A   1      43.993  23.878  32.820  1.00  0.00     0.014 A 
ATOM     36  C   UNL A   1      45.245  26.369  33.187  1.00  0.00     0.010 A 
ATOM     37  C   UNL A   1      44.194  24.723  31.734  1.00  0.00     0.010 A 
ATOM     38  C   UNL A   1      44.785  25.984  31.925  1.00  0.00    -0.014 A 
BRANCH  38  39
ATOM     39  C   UNL A   1      45.079  26.867  30.789  1.00  0.00     0.031 A 
ATOM     40  C   UNL A   1      45.170  26.139  29.505  1.00  0.00     0.074 A 
ATOM     41  C   UNL A   1      44.784  28.181  30.760  1.00  0.00     0.049 A 
ATOM     42  N   UNL A   1      44.092  25.808  28.863  1.00  0.00    -0.248 NA
ATOM     43  C   UNL A   1      46.385  25.502  29.008  1.00  0.00     0.031 C 
ATOM     44  C   UNL A   1      43.909  28.868  31.714  1.00  0.00     0.029 A 
ATOM     45  N   UNL A   1      45.036  29.119  29.786  1.00  0.00    -0.354 N 
ATOM     46  C   UNL A   1      44.449  24.837  27.958  1.00  0.00     0.074 A 
ATOM     47  C   UNL A   1      45.886  24.712  28.041  1.00  0.00     0.031 C 
ATOM     48  C   UNL A   1      43.569  30.067  31.198  1.00  0.00     0.029 A 
ATOM     49  C   UNL A   1      44.318  30.295  29.963  1.00  0.00     0.049 A 
ATOM     50  H   UNL A   1      45.661  28.973  29.041  1.00  0.00     0.167 HD
ATOM     51  C   UNL A   1      43.515  24.193  27.213  1.00  0.00     0.037 A 
ATOM     52  C   UNL A   1      43.885  31.123  28.979  1.00  0.00     0.037 A 
ATOM     53  C   UNL A   1      42.156  24.627  27.400  1.00  0.00     0.049 A 
ATOM     54  C   UNL A   1      43.031  30.240  28.120  1.00  0.00     0.074 A 
ATOM     55  C   UNL A   1      40.963  24.133  27.872  1.00  0.00     0.029 A 
ATOM     56  N   UNL A   1      41.939  25.945  27.103  1.00  0.00    -0.354 N 
ATOM     57  N   UNL A   1      41.798  29.904  28.389  1.00  0.00    -0.248 NA
ATOM     58  C   UNL A   1      43.620  29.527  26.979  1.00  0.00     0.031 C 
ATOM     59  C   UNL A   1      40.092  25.264  28.039  1.00  0.00     0.029 A 
ATOM     60  C   UNL A   1      40.792  26.414  27.683  1.00  0.00     0.049 A 
ATOM     61  H   UNL A   1      42.536  26.490  26.540  1.00  0.00     0.167 HD
ATOM     62  C   UNL A   1      41.556  28.770  27.622  1.00  0.00     0.074 A 
ATOM     63  C   UNL A   1      42.623  28.714  26.648  1.00  0.00     0.031 C 
ATOM     64  C   UNL A   1      40.646  27.823  27.985  1.00  0.00     0.037 A 
BRANCH  51  65
ATOM     65  C   UNL A   1      43.861  23.320  26.085  1.00  0.00     0.057 A 
ATOM     66  C   UNL A   1      44.521  23.771  24.945  1.00  0.00     0.134 A 
ATOM     67  C   UNL A   1      43.656  21.941  26.232  1.00  0.00     0.134 A 
ATOM     68  F   UNL A   1      44.741  25.079  24.758  1.00  0.00    -0.206 F 
ATOM     69  C   UNL A   1      44.998  22.868  23.993  1.00  0.00     0.040 A 
ATOM     70  C   UNL A   1      44.132  21.031  25.294  1.00  0.00     0.040 A 
ATOM     71  F   UNL A   1      43.014  21.464  27.312  1.00  0.00    -0.206 F 
ATOM     72  C   UNL A   1      44.816  21.495  24.174  1.00  0.00     0.006 A 
ENDBRANCH  51  65
BRANCH  52  73
ATOM     73  C   UNL A   1      44.871  32.100  28.426  1.00  0.00     0.057 A 
ATOM     74  C   UNL A   1      46.177  31.779  28.029  1.00  0.00     0.134 A 
ATOM     75  C   UNL A   1      44.489  33.439  28.214  1.00  0.00     0.134 A 
ATOM     76  F   UNL A   1      46.620  30.515  28.039  1.00  0.00    -0.206 F 
ATOM     77  C   UNL A   1      47.089  32.747  27.592  1.00  0.00     0.040 A 
ATOM     78  C   UNL A   1      45.379  34.413  27.748  1.00  0.00     0.040 A 
ATOM     79  F   UNL A   1      43.225  33.833  28.437  1.00  0.00    -0.206 F 
ATOM     80  C   UNL A   1      46.695  34.072  27.463  1.00  0.00     0.006 A 
ENDBRANCH  52  73
BRANCH  64  81
ATOM     81  C   UNL A   1      39.617  28.309  28.946  1.00  0.00     0.057 A 
ATOM     82  C   UNL A   1      38.442  28.949  28.541  1.00  0.00     0.134 A 
ATOM     83  C   UNL A   1      39.798  28.093  30.320  1.00  0.00     0.134 A 
ATOM     84  F   UNL A   1      38.193  29.180  27.243  1.00  0.00    -0.206 F 
ATOM     85  C   UNL A   1      37.485  29.362  29.470  1.00  0.00     0.040 A 
ATOM     86  C   UNL A   1      38.840  28.481  31.254  1.00  0.00     0.040 A 
ATOM     87  F   UNL A   1      40.915  27.499  30.775  1.00  0.00    -0.206 F 
ATOM     88  C   UNL A   1      37.679  29.122  30.831  1.00  0.00     0.006 A 
ENDBRANCH  64  81
ENDBRANCH  38  39
ENDBRANCH  30  33
ENDBRANCH  28  29
ENDBRANCH   1  28
TORSDOF 12
ENDMDL
