MODEL 1
REMARK VINA RESULT:     -11.4      0.000      0.000
REMARK SMILES COc1ccc(F)cc1[C@@H](C(=O)NCCCCNC(=O)c1ccc(-c2c3nc(c(-c4c(F)cccc4F)c4ccc([nH]4)c(-c4c(F)cccc4F)c4nc(c(-c5c(F)cccc5F)c5ccc2[nH]5)C=C4)C=C3)cc1)[N@@H+](C)CCn1ccnc1C
REMARK SMILES IDX 14 1 13 2 11 3 12 4 10 6 9 7 3 8 4 9 5 10 8 11 6 12 7 13
REMARK SMILES IDX 2 14 1 15 75 16 76 17 77 19 78 20 79 21 80 22 83 23 81 24
REMARK SMILES IDX 82 25 84 26 15 27 16 28 17 29 18 30 19 31 20 33 21 34 22 35
REMARK SMILES IDX 74 36 23 37 73 38 24 39 25 40 26 41 67 42 27 43 72 44 66 45
REMARK SMILES IDX 68 46 28 47 71 48 65 49 64 50 29 52 55 53 38 54 54 55 39 56
REMARK SMILES IDX 42 57 53 58 69 59 40 60 41 61 52 63 70 64 43 65 30 66 31 67
REMARK SMILES IDX 36 68 32 69 33 70 35 71 37 72 34 73 56 74 57 75 62 76 58 77
REMARK SMILES IDX 59 78 61 79 63 80 60 81 44 82 45 83 50 84 46 85 47 86 49 87
REMARK SMILES IDX 51 88 48 89
REMARK H PARENT 13 5 75 18 18 32 68 51 42 62
REMARK Flexibility Score: inf
ROOT
ATOM      1  C   UNL A   1      36.965  21.970  25.159  1.00  0.00     0.116 C 
ENDROOT
BRANCH   1   2
ATOM      2  N   UNL A   1      36.160  22.559  26.200  1.00  0.00    -0.351 N 
ATOM      3  C   UNL A   1      34.798  22.677  26.147  1.00  0.00     0.283 C 
ATOM      4  O   UNL A   1      34.157  22.063  27.008  1.00  0.00    -0.268 OA
ATOM      5  H   UNL A   1      36.620  22.899  27.001  1.00  0.00     0.163 HD
BRANCH   3   6
ATOM      6  C   UNL A   1      34.086  23.584  25.106  1.00  0.00     0.309 C 
BRANCH   6   7
ATOM      7  C   UNL A   1      33.350  24.826  25.643  1.00  0.00     0.064 A 
ATOM      8  C   UNL A   1      31.964  24.772  25.952  1.00  0.00     0.128 A 
ATOM      9  C   UNL A   1      31.277  25.912  26.402  1.00  0.00     0.050 A 
ATOM     10  C   UNL A   1      31.942  27.127  26.542  1.00  0.00     0.043 A 
ATOM     11  C   UNL A   1      33.971  26.079  25.755  1.00  0.00     0.053 A 
ATOM     12  C   UNL A   1      33.284  27.198  26.218  1.00  0.00     0.124 A 
ATOM     13  F   UNL A   1      33.932  28.365  26.330  1.00  0.00    -0.207 F 
BRANCH   8  14
ATOM     14  O   UNL A   1      31.322  23.569  25.770  1.00  0.00    -0.496 OA
ATOM     15  C   UNL A   1      30.410  23.185  26.798  1.00  0.00     0.278 C 
ENDBRANCH   8  14
ENDBRANCH   6   7
BRANCH   6  16
ATOM     16  N   UNL A   1      33.367  22.790  24.039  1.00  0.00    -0.322 N 
ATOM     17  C   UNL A   1      33.520  23.379  22.702  1.00  0.00     0.333 C 
ATOM     18  H   UNL A   1      32.425  22.897  24.416  1.00  0.00     0.348 HD
BRANCH  16  19
ATOM     19  C   UNL A   1      33.436  21.321  23.971  1.00  0.00     0.285 C 
BRANCH  19  20
ATOM     20  C   UNL A   1      32.300  20.389  24.456  1.00  0.00     0.184 C 
BRANCH  20  21
ATOM     21  N   UNL A   1      32.598  18.983  24.623  1.00  0.00    -0.330 N 
ATOM     22  C   UNL A   1      32.761  18.366  25.838  1.00  0.00     0.107 A 
ATOM     23  C   UNL A   1      32.595  17.992  23.661  1.00  0.00     0.105 A 
ATOM     24  C   UNL A   1      32.954  17.039  25.553  1.00  0.00     0.131 A 
ATOM     25  N   UNL A   1      32.881  16.822  24.206  1.00  0.00    -0.242 NA
ATOM     26  C   UNL A   1      32.370  18.187  22.203  1.00  0.00     0.087 C 
ENDBRANCH  20  21
ENDBRANCH  19  20
ENDBRANCH  16  19
ENDBRANCH   6  16
ENDBRANCH   3   6
ENDBRANCH   1   2
BRANCH   1  27
ATOM     27  C   UNL A   1      36.742  20.473  24.998  1.00  0.00     0.023 C 
BRANCH  27  28
ATOM     28  C   UNL A   1      38.020  19.638  24.908  1.00  0.00     0.023 C 
BRANCH  28  29
ATOM     29  C   UNL A   1      39.170  20.089  25.800  1.00  0.00     0.116 C 
BRANCH  29  30
ATOM     30  N   UNL A   1      40.227  19.095  25.892  1.00  0.00    -0.352 N 
ATOM     31  C   UNL A   1      41.571  19.260  26.124  1.00  0.00     0.251 C 
ATOM     32  H   UNL A   1      39.936  18.163  25.770  1.00  0.00     0.163 HD
ATOM     33  O   UNL A   1      42.331  18.307  25.994  1.00  0.00    -0.269 OA
BRANCH  31  34
ATOM     34  C   UNL A   1      42.110  20.585  26.506  1.00  0.00     0.039 A 
ATOM     35  C   UNL A   1      42.548  21.445  25.496  1.00  0.00     0.014 A 
ATOM     36  C   UNL A   1      42.206  20.976  27.845  1.00  0.00     0.014 A 
ATOM     37  C   UNL A   1      43.028  22.716  25.826  1.00  0.00     0.010 A 
ATOM     38  C   UNL A   1      42.605  22.272  28.165  1.00  0.00     0.010 A 
ATOM     39  C   UNL A   1      43.029  23.154  27.160  1.00  0.00    -0.014 A 
BRANCH  39  40
ATOM     40  C   UNL A   1      43.474  24.528  27.516  1.00  0.00     0.031 A 
ATOM     41  C   UNL A   1      42.467  25.577  27.904  1.00  0.00     0.074 A 
ATOM     42  C   UNL A   1      44.784  24.844  27.449  1.00  0.00     0.049 A 
ATOM     43  N   UNL A   1      42.664  26.837  28.201  1.00  0.00    -0.248 NA
ATOM     44  C   UNL A   1      41.053  25.169  27.944  1.00  0.00     0.031 C 
ATOM     45  C   UNL A   1      45.853  23.932  27.041  1.00  0.00     0.029 A 
ATOM     46  N   UNL A   1      45.437  26.023  27.716  1.00  0.00    -0.354 N 
ATOM     47  C   UNL A   1      41.404  27.370  28.447  1.00  0.00     0.074 A 
ATOM     48  C   UNL A   1      40.444  26.312  28.221  1.00  0.00     0.031 C 
ATOM     49  C   UNL A   1      47.030  24.577  27.107  1.00  0.00     0.029 A 
ATOM     50  C   UNL A   1      46.796  25.957  27.520  1.00  0.00     0.049 A 
ATOM     51  H   UNL A   1      44.975  26.838  28.017  1.00  0.00     0.167 HD
ATOM     52  C   UNL A   1      41.080  28.621  28.848  1.00  0.00     0.037 A 
ATOM     53  C   UNL A   1      47.747  26.902  27.647  1.00  0.00     0.037 A 
ATOM     54  C   UNL A   1      42.040  29.661  29.110  1.00  0.00     0.049 A 
ATOM     55  C   UNL A   1      47.359  28.284  28.098  1.00  0.00     0.074 A 
ATOM     56  C   UNL A   1      41.807  30.939  29.589  1.00  0.00     0.029 A 
ATOM     57  N   UNL A   1      43.407  29.549  28.917  1.00  0.00    -0.354 N 
ATOM     58  N   UNL A   1      46.170  28.751  28.394  1.00  0.00    -0.248 NA
ATOM     59  C   UNL A   1      48.442  29.269  28.242  1.00  0.00     0.031 C 
ATOM     60  C   UNL A   1      43.025  31.618  29.632  1.00  0.00     0.029 A 
ATOM     61  C   UNL A   1      44.026  30.744  29.242  1.00  0.00     0.049 A 
ATOM     62  H   UNL A   1      43.869  28.740  28.595  1.00  0.00     0.167 HD
ATOM     63  C   UNL A   1      46.365  30.070  28.782  1.00  0.00     0.074 A 
ATOM     64  C   UNL A   1      47.786  30.326  28.700  1.00  0.00     0.031 C 
ATOM     65  C   UNL A   1      45.444  30.986  29.170  1.00  0.00     0.037 A 
BRANCH  52  66
ATOM     66  C   UNL A   1      39.631  28.950  29.054  1.00  0.00     0.057 A 
ATOM     67  C   UNL A   1      39.030  28.768  30.306  1.00  0.00     0.134 A 
ATOM     68  C   UNL A   1      38.806  29.332  27.989  1.00  0.00     0.134 A 
ATOM     69  F   UNL A   1      39.763  28.395  31.366  1.00  0.00    -0.206 F 
ATOM     70  C   UNL A   1      37.655  28.928  30.486  1.00  0.00     0.040 A 
ATOM     71  C   UNL A   1      37.433  29.521  28.162  1.00  0.00     0.040 A 
ATOM     72  F   UNL A   1      39.320  29.532  26.767  1.00  0.00    -0.206 F 
ATOM     73  C   UNL A   1      36.852  29.303  29.412  1.00  0.00     0.006 A 
ENDBRANCH  52  66
BRANCH  53  74
ATOM     74  C   UNL A   1      49.167  26.568  27.354  1.00  0.00     0.057 A 
ATOM     75  C   UNL A   1      50.002  26.013  28.331  1.00  0.00     0.134 A 
ATOM     76  C   UNL A   1      49.722  26.802  26.091  1.00  0.00     0.134 A 
ATOM     77  F   UNL A   1      49.534  25.770  29.564  1.00  0.00    -0.206 F 
ATOM     78  C   UNL A   1      51.340  25.716  28.068  1.00  0.00     0.040 A 
ATOM     79  C   UNL A   1      51.050  26.482  25.804  1.00  0.00     0.040 A 
ATOM     80  F   UNL A   1      48.969  27.313  25.106  1.00  0.00    -0.206 F 
ATOM     81  C   UNL A   1      51.866  25.943  26.798  1.00  0.00     0.006 A 
ENDBRANCH  53  74
BRANCH  65  82
ATOM     82  C   UNL A   1      45.935  32.347  29.571  1.00  0.00     0.057 A 
ATOM     83  C   UNL A   1      46.150  33.339  28.605  1.00  0.00     0.134 A 
ATOM     84  C   UNL A   1      46.279  32.649  30.894  1.00  0.00     0.134 A 
ATOM     85  F   UNL A   1      45.856  33.109  27.316  1.00  0.00    -0.206 F 
ATOM     86  C   UNL A   1      46.704  34.575  28.938  1.00  0.00     0.040 A 
ATOM     87  C   UNL A   1      46.805  33.893  31.245  1.00  0.00     0.040 A 
ATOM     88  F   UNL A   1      46.092  31.746  31.870  1.00  0.00    -0.206 F 
ATOM     89  C   UNL A   1      47.030  34.856  30.261  1.00  0.00     0.006 A 
ENDBRANCH  65  82
ENDBRANCH  39  40
ENDBRANCH  31  34
ENDBRANCH  29  30
ENDBRANCH  28  29
ENDBRANCH  27  28
ENDBRANCH   1  27
TORSDOF 17
ENDMDL
MODEL 2
REMARK VINA RESULT:     -11.3      0.767      6.167
REMARK SMILES COc1ccc(F)cc1[C@@H](C(=O)NCCCCNC(=O)c1ccc(-c2c3nc(c(-c4c(F)cccc4F)c4ccc([nH]4)c(-c4c(F)cccc4F)c4nc(c(-c5c(F)cccc5F)c5ccc2[nH]5)C=C4)C=C3)cc1)[N@@H+](C)CCn1ccnc1C
REMARK SMILES IDX 14 1 13 2 11 3 12 4 10 6 9 7 3 8 4 9 5 10 8 11 6 12 7 13
REMARK SMILES IDX 2 14 1 15 75 16 76 17 77 19 78 20 79 21 80 22 83 23 81 24
REMARK SMILES IDX 82 25 84 26 15 27 16 28 17 29 18 30 19 31 20 33 21 34 22 35
REMARK SMILES IDX 74 36 23 37 73 38 24 39 25 40 26 41 67 42 27 43 72 44 66 45
REMARK SMILES IDX 68 46 28 47 71 48 65 49 64 50 29 52 55 53 38 54 54 55 39 56
REMARK SMILES IDX 42 57 53 58 69 59 40 60 41 61 52 63 70 64 43 65 30 66 31 67
REMARK SMILES IDX 36 68 32 69 33 70 35 71 37 72 34 73 56 74 57 75 62 76 58 77
REMARK SMILES IDX 59 78 61 79 63 80 60 81 44 82 45 83 50 84 46 85 47 86 49 87
REMARK SMILES IDX 51 88 48 89
REMARK H PARENT 13 5 75 18 18 32 68 51 42 62
REMARK Flexibility Score: inf
ROOT
ATOM      1  C   UNL A   1      36.928  21.710  25.333  1.00  0.00     0.116 C 
ENDROOT
BRANCH   1   2
ATOM      2  N   UNL A   1      36.087  22.246  26.374  1.00  0.00    -0.351 N 
ATOM      3  C   UNL A   1      34.740  22.026  26.467  1.00  0.00     0.283 C 
ATOM      4  O   UNL A   1      34.348  21.420  27.471  1.00  0.00    -0.268 OA
ATOM      5  H   UNL A   1      36.510  22.808  27.063  1.00  0.00     0.163 HD
BRANCH   3   6
ATOM      6  C   UNL A   1      33.740  22.561  25.406  1.00  0.00     0.309 C 
BRANCH   6   7
ATOM      7  C   UNL A   1      33.283  24.025  25.548  1.00  0.00     0.064 A 
ATOM      8  C   UNL A   1      32.193  24.368  26.394  1.00  0.00     0.128 A 
ATOM      9  C   UNL A   1      31.743  25.695  26.495  1.00  0.00     0.050 A 
ATOM     10  C   UNL A   1      32.353  26.705  25.755  1.00  0.00     0.043 A 
ATOM     11  C   UNL A   1      33.839  25.064  24.787  1.00  0.00     0.053 A 
ATOM     12  C   UNL A   1      33.396  26.379  24.908  1.00  0.00     0.124 A 
ATOM     13  F   UNL A   1      33.979  27.337  24.176  1.00  0.00    -0.207 F 
BRANCH   8  14
ATOM     14  O   UNL A   1      31.585  23.347  27.086  1.00  0.00    -0.496 OA
ATOM     15  C   UNL A   1      30.190  23.166  26.838  1.00  0.00     0.278 C 
ENDBRANCH   8  14
ENDBRANCH   6   7
BRANCH   6  16
ATOM     16  N   UNL A   1      32.665  21.556  25.062  1.00  0.00    -0.322 N 
ATOM     17  C   UNL A   1      32.151  21.728  23.697  1.00  0.00     0.333 C 
ATOM     18  H   UNL A   1      31.995  21.838  25.778  1.00  0.00     0.348 HD
BRANCH  16  19
ATOM     19  C   UNL A   1      32.788  20.127  25.394  1.00  0.00     0.285 C 
BRANCH  19  20
ATOM     20  C   UNL A   1      33.406  19.078  24.439  1.00  0.00     0.184 C 
BRANCH  20  21
ATOM     21  N   UNL A   1      33.246  17.679  24.770  1.00  0.00    -0.330 N 
ATOM     22  C   UNL A   1      32.497  17.213  25.821  1.00  0.00     0.107 A 
ATOM     23  C   UNL A   1      33.638  16.578  24.031  1.00  0.00     0.105 A 
ATOM     24  C   UNL A   1      32.551  15.846  25.735  1.00  0.00     0.131 A 
ATOM     25  N   UNL A   1      33.284  15.463  24.646  1.00  0.00    -0.242 NA
ATOM     26  C   UNL A   1      34.406  16.607  22.757  1.00  0.00     0.087 C 
ENDBRANCH  20  21
ENDBRANCH  19  20
ENDBRANCH  16  19
ENDBRANCH   6  16
ENDBRANCH   3   6
ENDBRANCH   1   2
BRANCH   1  27
ATOM     27  C   UNL A   1      36.674  20.235  25.052  1.00  0.00     0.023 C 
BRANCH  27  28
ATOM     28  C   UNL A   1      37.927  19.359  25.033  1.00  0.00     0.023 C 
BRANCH  28  29
ATOM     29  C   UNL A   1      39.131  19.909  25.786  1.00  0.00     0.116 C 
BRANCH  29  30
ATOM     30  N   UNL A   1      40.250  18.980  25.802  1.00  0.00    -0.352 N 
ATOM     31  C   UNL A   1      41.591  19.223  25.976  1.00  0.00     0.251 C 
ATOM     32  H   UNL A   1      40.011  18.035  25.670  1.00  0.00     0.163 HD
ATOM     33  O   UNL A   1      42.401  18.322  25.785  1.00  0.00    -0.269 OA
BRANCH  31  34
ATOM     34  C   UNL A   1      42.067  20.569  26.366  1.00  0.00     0.039 A 
ATOM     35  C   UNL A   1      42.584  21.409  25.376  1.00  0.00     0.014 A 
ATOM     36  C   UNL A   1      42.028  21.001  27.695  1.00  0.00     0.014 A 
ATOM     37  C   UNL A   1      43.007  22.698  25.710  1.00  0.00     0.010 A 
ATOM     38  C   UNL A   1      42.370  22.314  28.011  1.00  0.00     0.010 A 
ATOM     39  C   UNL A   1      42.872  23.175  27.024  1.00  0.00    -0.014 A 
BRANCH  39  40
ATOM     40  C   UNL A   1      43.256  24.568  27.378  1.00  0.00     0.031 A 
ATOM     41  C   UNL A   1      44.696  24.999  27.315  1.00  0.00     0.074 A 
ATOM     42  C   UNL A   1      42.312  25.434  27.800  1.00  0.00     0.049 A 
ATOM     43  N   UNL A   1      45.224  26.156  27.630  1.00  0.00    -0.248 NA
ATOM     44  C   UNL A   1      45.677  24.000  26.860  1.00  0.00     0.031 C 
ATOM     45  C   UNL A   1      40.889  25.126  27.951  1.00  0.00     0.029 A 
ATOM     46  N   UNL A   1      42.408  26.749  28.185  1.00  0.00    -0.354 N 
ATOM     47  C   UNL A   1      46.591  26.016  27.426  1.00  0.00     0.074 A 
ATOM     48  C   UNL A   1      46.821  24.652  27.004  1.00  0.00     0.031 C 
ATOM     49  C   UNL A   1      40.243  26.225  28.374  1.00  0.00     0.029 A 
ATOM     50  C   UNL A   1      41.209  27.303  28.564  1.00  0.00     0.049 A 
ATOM     51  H   UNL A   1      43.257  27.247  28.191  1.00  0.00     0.167 HD
ATOM     52  C   UNL A   1      47.563  26.949  27.554  1.00  0.00     0.037 A 
ATOM     53  C   UNL A   1      40.917  28.535  29.024  1.00  0.00     0.037 A 
ATOM     54  C   UNL A   1      47.329  28.316  27.938  1.00  0.00     0.049 A 
ATOM     55  C   UNL A   1      42.017  29.553  29.154  1.00  0.00     0.074 A 
ATOM     56  C   UNL A   1      48.245  29.350  28.024  1.00  0.00     0.029 A 
ATOM     57  N   UNL A   1      46.097  28.842  28.295  1.00  0.00    -0.354 N 
ATOM     58  N   UNL A   1      43.295  29.424  28.889  1.00  0.00    -0.248 NA
ATOM     59  C   UNL A   1      41.638  30.889  29.638  1.00  0.00     0.031 C 
ATOM     60  C   UNL A   1      47.580  30.485  28.490  1.00  0.00     0.029 A 
ATOM     61  C   UNL A   1      46.237  30.178  28.630  1.00  0.00     0.049 A 
ATOM     62  H   UNL A   1      45.250  28.339  28.310  1.00  0.00     0.167 HD
ATOM     63  C   UNL A   1      43.865  30.665  29.149  1.00  0.00     0.074 A 
ATOM     64  C   UNL A   1      42.793  31.538  29.577  1.00  0.00     0.031 C 
ATOM     65  C   UNL A   1      45.161  31.043  29.042  1.00  0.00     0.037 A 
BRANCH  52  66
ATOM     66  C   UNL A   1      48.979  26.546  27.265  1.00  0.00     0.057 A 
ATOM     67  C   UNL A   1      49.501  26.656  25.969  1.00  0.00     0.134 A 
ATOM     68  C   UNL A   1      49.786  25.942  28.238  1.00  0.00     0.134 A 
ATOM     69  F   UNL A   1      48.778  27.218  24.989  1.00  0.00    -0.206 F 
ATOM     70  C   UNL A   1      50.762  26.155  25.645  1.00  0.00     0.040 A 
ATOM     71  C   UNL A   1      51.060  25.460  27.932  1.00  0.00     0.040 A 
ATOM     72  F   UNL A   1      49.350  25.815  29.499  1.00  0.00    -0.206 F 
ATOM     73  C   UNL A   1      51.545  25.553  26.627  1.00  0.00     0.006 A 
ENDBRANCH  52  66
BRANCH  53  74
ATOM     74  C   UNL A   1      39.516  28.879  29.383  1.00  0.00     0.057 A 
ATOM     75  C   UNL A   1      38.612  29.353  28.424  1.00  0.00     0.134 A 
ATOM     76  C   UNL A   1      39.050  28.749  30.696  1.00  0.00     0.134 A 
ATOM     77  F   UNL A   1      38.997  29.508  27.149  1.00  0.00    -0.206 F 
ATOM     78  C   UNL A   1      37.301  29.695  28.759  1.00  0.00     0.040 A 
ATOM     79  C   UNL A   1      37.733  29.059  31.040  1.00  0.00     0.040 A 
ATOM     80  F   UNL A   1      39.860  28.281  31.657  1.00  0.00    -0.206 F 
ATOM     81  C   UNL A   1      36.856  29.542  30.070  1.00  0.00     0.006 A 
ENDBRANCH  53  74
BRANCH  65  82
ATOM     82  C   UNL A   1      45.504  32.470  29.359  1.00  0.00     0.057 A 
ATOM     83  C   UNL A   1      45.511  33.441  28.349  1.00  0.00     0.134 A 
ATOM     84  C   UNL A   1      45.910  32.866  30.639  1.00  0.00     0.134 A 
ATOM     85  F   UNL A   1      45.147  33.125  27.096  1.00  0.00    -0.206 F 
ATOM     86  C   UNL A   1      45.926  34.750  28.597  1.00  0.00     0.040 A 
ATOM     87  C   UNL A   1      46.298  34.179  30.906  1.00  0.00     0.040 A 
ATOM     88  F   UNL A   1      45.919  31.987  31.653  1.00  0.00    -0.206 F 
ATOM     89  C   UNL A   1      46.318  35.123  29.879  1.00  0.00     0.006 A 
ENDBRANCH  65  82
ENDBRANCH  39  40
ENDBRANCH  31  34
ENDBRANCH  29  30
ENDBRANCH  28  29
ENDBRANCH  27  28
ENDBRANCH   1  27
TORSDOF 17
ENDMDL
MODEL 3
REMARK VINA RESULT:     -11.3      5.498     10.418
REMARK SMILES COc1ccc(F)cc1[C@@H](C(=O)NCCCCNC(=O)c1ccc(-c2c3nc(c(-c4c(F)cccc4F)c4ccc([nH]4)c(-c4c(F)cccc4F)c4nc(c(-c5c(F)cccc5F)c5ccc2[nH]5)C=C4)C=C3)cc1)[N@@H+](C)CCn1ccnc1C
REMARK SMILES IDX 14 1 13 2 11 3 12 4 10 6 9 7 3 8 4 9 5 10 8 11 6 12 7 13
REMARK SMILES IDX 2 14 1 15 75 16 76 17 77 19 78 20 79 21 80 22 83 23 81 24
REMARK SMILES IDX 82 25 84 26 15 27 16 28 17 29 18 30 19 31 20 33 21 34 22 35
REMARK SMILES IDX 74 36 23 37 73 38 24 39 25 40 26 41 67 42 27 43 72 44 66 45
REMARK SMILES IDX 68 46 28 47 71 48 65 49 64 50 29 52 55 53 38 54 54 55 39 56
REMARK SMILES IDX 42 57 53 58 69 59 40 60 41 61 52 63 70 64 43 65 30 66 31 67
REMARK SMILES IDX 36 68 32 69 33 70 35 71 37 72 34 73 56 74 57 75 62 76 58 77
REMARK SMILES IDX 59 78 61 79 63 80 60 81 44 82 45 83 50 84 46 85 47 86 49 87
REMARK SMILES IDX 51 88 48 89
REMARK H PARENT 13 5 75 18 18 32 68 51 42 62
REMARK Flexibility Score: inf
ROOT
ATOM      1  C   UNL A   1      32.562  29.924  26.616  1.00  0.00     0.116 C 
ENDROOT
BRANCH   1   2
ATOM      2  N   UNL A   1      33.510  29.356  25.690  1.00  0.00    -0.351 N 
ATOM      3  C   UNL A   1      33.184  28.473  24.698  1.00  0.00     0.283 C 
ATOM      4  O   UNL A   1      33.383  28.849  23.537  1.00  0.00    -0.268 OA
ATOM      5  H   UNL A   1      34.454  29.621  25.778  1.00  0.00     0.163 HD
BRANCH   3   6
ATOM      6  C   UNL A   1      32.652  27.045  25.003  1.00  0.00     0.309 C 
BRANCH   6   7
ATOM      7  C   UNL A   1      33.559  25.861  24.619  1.00  0.00     0.064 A 
ATOM      8  C   UNL A   1      33.413  25.210  23.364  1.00  0.00     0.128 A 
ATOM      9  C   UNL A   1      34.208  24.103  23.025  1.00  0.00     0.050 A 
ATOM     10  C   UNL A   1      35.152  23.611  23.922  1.00  0.00     0.043 A 
ATOM     11  C   UNL A   1      34.490  25.307  25.510  1.00  0.00     0.053 A 
ATOM     12  C   UNL A   1      35.285  24.219  25.157  1.00  0.00     0.124 A 
ATOM     13  F   UNL A   1      36.176  23.745  26.037  1.00  0.00    -0.207 F 
BRANCH   8  14
ATOM     14  O   UNL A   1      32.448  25.693  22.511  1.00  0.00    -0.496 OA
ATOM     15  C   UNL A   1      32.790  25.710  21.125  1.00  0.00     0.278 C 
ENDBRANCH   8  14
ENDBRANCH   6   7
BRANCH   6  16
ATOM     16  N   UNL A   1      31.183  26.892  24.684  1.00  0.00    -0.322 N 
ATOM     17  C   UNL A   1      30.471  26.086  25.686  1.00  0.00     0.333 C 
ATOM     18  H   UNL A   1      31.297  26.410  23.793  1.00  0.00     0.348 HD
BRANCH  16  19
ATOM     19  C   UNL A   1      30.351  28.024  24.243  1.00  0.00     0.285 C 
BRANCH  19  20
ATOM     20  C   UNL A   1      29.942  28.260  22.769  1.00  0.00     0.184 C 
BRANCH  20  21
ATOM     21  N   UNL A   1      29.090  29.391  22.472  1.00  0.00    -0.330 N 
ATOM     22  C   UNL A   1      29.460  30.455  21.688  1.00  0.00     0.107 A 
ATOM     23  C   UNL A   1      27.743  29.536  22.745  1.00  0.00     0.105 A 
ATOM     24  C   UNL A   1      28.350  31.254  21.604  1.00  0.00     0.131 A 
ATOM     25  N   UNL A   1      27.304  30.695  22.285  1.00  0.00    -0.242 NA
ATOM     26  C   UNL A   1      26.893  28.577  23.501  1.00  0.00     0.087 C 
ENDBRANCH  20  21
ENDBRANCH  19  20
ENDBRANCH  16  19
ENDBRANCH   6  16
ENDBRANCH   3   6
ENDBRANCH   1   2
BRANCH   1  27
ATOM     27  C   UNL A   1      31.526  30.817  25.948  1.00  0.00     0.023 C 
BRANCH  27  28
ATOM     28  C   UNL A   1      31.389  32.212  26.560  1.00  0.00     0.023 C 
BRANCH  28  29
ATOM     29  C   UNL A   1      32.672  32.828  27.099  1.00  0.00     0.116 C 
BRANCH  29  30
ATOM     30  N   UNL A   1      32.470  34.168  27.626  1.00  0.00    -0.352 N 
ATOM     31  C   UNL A   1      33.089  34.803  28.675  1.00  0.00     0.251 C 
ATOM     32  H   UNL A   1      31.787  34.701  27.160  1.00  0.00     0.163 HD
ATOM     33  O   UNL A   1      32.656  35.879  29.074  1.00  0.00    -0.269 OA
BRANCH  31  34
ATOM     34  C   UNL A   1      34.258  34.187  29.342  1.00  0.00     0.039 A 
ATOM     35  C   UNL A   1      34.034  33.274  30.376  1.00  0.00     0.014 A 
ATOM     36  C   UNL A   1      35.566  34.516  28.975  1.00  0.00     0.014 A 
ATOM     37  C   UNL A   1      35.118  32.649  30.998  1.00  0.00     0.010 A 
ATOM     38  C   UNL A   1      36.641  33.831  29.538  1.00  0.00     0.010 A 
ATOM     39  C   UNL A   1      36.430  32.896  30.563  1.00  0.00    -0.014 A 
BRANCH  39  40
ATOM     40  C   UNL A   1      37.587  32.189  31.172  1.00  0.00     0.031 A 
ATOM     41  C   UNL A   1      38.293  31.094  30.417  1.00  0.00     0.074 A 
ATOM     42  C   UNL A   1      37.978  32.502  32.424  1.00  0.00     0.049 A 
ATOM     43  N   UNL A   1      39.288  30.336  30.804  1.00  0.00    -0.248 NA
ATOM     44  C   UNL A   1      37.807  30.794  29.061  1.00  0.00     0.031 C 
ATOM     45  C   UNL A   1      37.347  33.509  33.279  1.00  0.00     0.029 A 
ATOM     46  N   UNL A   1      38.994  31.999  33.200  1.00  0.00    -0.354 N 
ATOM     47  C   UNL A   1      39.535  29.467  29.750  1.00  0.00     0.074 A 
ATOM     48  C   UNL A   1      38.558  29.756  28.723  1.00  0.00     0.031 C 
ATOM     49  C   UNL A   1      38.004  33.567  34.449  1.00  0.00     0.029 A 
ATOM     50  C   UNL A   1      39.074  32.574  34.446  1.00  0.00     0.049 A 
ATOM     51  H   UNL A   1      39.607  31.293  32.892  1.00  0.00     0.167 HD
ATOM     52  C   UNL A   1      40.504  28.528  29.638  1.00  0.00     0.037 A 
ATOM     53  C   UNL A   1      39.906  32.324  35.476  1.00  0.00     0.037 A 
ATOM     54  C   UNL A   1      41.499  28.268  30.645  1.00  0.00     0.049 A 
ATOM     55  C   UNL A   1      40.976  31.278  35.323  1.00  0.00     0.074 A 
ATOM     56  C   UNL A   1      42.563  27.384  30.587  1.00  0.00     0.029 A 
ATOM     57  N   UNL A   1      41.556  28.884  31.884  1.00  0.00    -0.354 N 
ATOM     58  N   UNL A   1      41.239  30.512  34.291  1.00  0.00    -0.248 NA
ATOM     59  C   UNL A   1      41.870  31.064  36.470  1.00  0.00     0.031 C 
ATOM     60  C   UNL A   1      43.230  27.423  31.813  1.00  0.00     0.029 A 
ATOM     61  C   UNL A   1      42.622  28.379  32.610  1.00  0.00     0.049 A 
ATOM     62  H   UNL A   1      40.931  29.576  32.202  1.00  0.00     0.167 HD
ATOM     63  C   UNL A   1      42.340  29.748  34.655  1.00  0.00     0.074 A 
ATOM     64  C   UNL A   1      42.707  30.152  35.995  1.00  0.00     0.031 C 
ATOM     65  C   UNL A   1      42.987  28.797  33.939  1.00  0.00     0.037 A 
BRANCH  52  66
ATOM     66  C   UNL A   1      40.564  27.713  28.380  1.00  0.00     0.057 A 
ATOM     67  C   UNL A   1      39.950  26.456  28.315  1.00  0.00     0.134 A 
ATOM     68  C   UNL A   1      41.327  28.118  27.277  1.00  0.00     0.134 A 
ATOM     69  F   UNL A   1      39.211  26.005  29.340  1.00  0.00    -0.206 F 
ATOM     70  C   UNL A   1      40.114  25.619  27.211  1.00  0.00     0.040 A 
ATOM     71  C   UNL A   1      41.478  27.301  26.155  1.00  0.00     0.040 A 
ATOM     72  F   UNL A   1      41.933  29.314  27.271  1.00  0.00    -0.206 F 
ATOM     73  C   UNL A   1      40.882  26.040  26.127  1.00  0.00     0.006 A 
ENDBRANCH  52  66
BRANCH  53  74
ATOM     74  C   UNL A   1      39.767  33.091  36.742  1.00  0.00     0.057 A 
ATOM     75  C   UNL A   1      38.858  32.703  37.734  1.00  0.00     0.134 A 
ATOM     76  C   UNL A   1      40.537  34.233  36.988  1.00  0.00     0.134 A 
ATOM     77  F   UNL A   1      38.085  31.622  37.559  1.00  0.00    -0.206 F 
ATOM     78  C   UNL A   1      38.711  33.429  38.917  1.00  0.00     0.040 A 
ATOM     79  C   UNL A   1      40.422  34.953  38.178  1.00  0.00     0.040 A 
ATOM     80  F   UNL A   1      41.441  34.645  36.086  1.00  0.00    -0.206 F 
ATOM     81  C   UNL A   1      39.500  34.555  39.145  1.00  0.00     0.006 A 
ENDBRANCH  53  74
BRANCH  65  82
ATOM     82  C   UNL A   1      44.182  28.139  34.567  1.00  0.00     0.057 A 
ATOM     83  C   UNL A   1      44.031  26.982  35.343  1.00  0.00     0.134 A 
ATOM     84  C   UNL A   1      45.464  28.695  34.478  1.00  0.00     0.134 A 
ATOM     85  F   UNL A   1      42.827  26.407  35.482  1.00  0.00    -0.206 F 
ATOM     86  C   UNL A   1      45.109  26.412  36.022  1.00  0.00     0.040 A 
ATOM     87  C   UNL A   1      46.555  28.117  35.127  1.00  0.00     0.040 A 
ATOM     88  F   UNL A   1      45.679  29.798  33.744  1.00  0.00    -0.206 F 
ATOM     89  C   UNL A   1      46.376  26.978  35.912  1.00  0.00     0.006 A 
ENDBRANCH  65  82
ENDBRANCH  39  40
ENDBRANCH  31  34
ENDBRANCH  29  30
ENDBRANCH  28  29
ENDBRANCH  27  28
ENDBRANCH   1  27
TORSDOF 17
ENDMDL
