MODEL 1
REMARK VINA RESULT:     -12.0      0.000      0.000
REMARK SMILES C[C@H](c1ccncc1)[N@H+]1[C@@H]2CC[C@H]1C[C@H](CC(=O)NCCCCNC(=O)c1ccc(-c3c4nc(c(-c5c(F)cccc5F)c5ccc([nH]5)c(-c5c(F)cccc5F)c5nc(c(-c6c(F)cccc6F)c6ccc3[nH]6)C=C5)C=C4)cc1)C2
REMARK SMILES IDX 21 1 20 2 19 3 17 4 18 5 16 7 15 8 9 9 10 10 13 11 11 13
REMARK SMILES IDX 81 14 12 15 14 16 2 17 1 18 3 19 4 20 8 21 5 22 7 23 6 24
REMARK SMILES IDX 22 25 23 26 24 27 25 28 26 30 27 31 28 32 80 33 29 34 79 35
REMARK SMILES IDX 30 36 31 37 32 38 73 39 33 40 78 41 72 42 74 43 34 44 77 45
REMARK SMILES IDX 71 46 70 47 35 49 61 50 44 51 60 52 45 53 48 54 59 55 75 56
REMARK SMILES IDX 46 57 47 58 58 60 76 61 49 62 36 63 37 64 42 65 38 66 39 67
REMARK SMILES IDX 41 68 43 69 40 70 62 71 63 72 68 73 64 74 65 75 67 76 69 77
REMARK SMILES IDX 66 78 50 79 51 80 56 81 52 82 53 83 55 84 57 85 54 86
REMARK H PARENT 19 6 9 12 24 29 74 48 48 59
REMARK Flexibility Score: inf
ROOT
ATOM      1  C   UNL A   1      36.996  22.910  24.620  1.00  0.00     0.023 C 
ENDROOT
BRANCH   1   2
ATOM      2  C   UNL A   1      36.638  23.741  25.863  1.00  0.00     0.116 C 
BRANCH   2   3
ATOM      3  N   UNL A   1      35.502  23.163  26.569  1.00  0.00    -0.356 N 
ATOM      4  C   UNL A   1      34.160  23.394  26.507  1.00  0.00     0.220 C 
ATOM      5  O   UNL A   1      33.442  22.794  27.311  1.00  0.00    -0.275 OA
ATOM      6  H   UNL A   1      35.754  22.467  27.219  1.00  0.00     0.163 HD
BRANCH   4   7
ATOM      7  C   UNL A   1      33.540  24.339  25.488  1.00  0.00     0.104 C 
BRANCH   7   8
ATOM      8  C   UNL A   1      33.431  25.810  25.967  1.00  0.00     0.010 C 
ATOM      9  N   UNL A   1      31.732  27.950  24.799  1.00  0.00    -0.324 N 
ATOM     10  C   UNL A   1      31.525  27.567  26.198  1.00  0.00     0.185 C 
ATOM     11  C   UNL A   1      33.165  28.082  24.671  1.00  0.00     0.185 C 
ATOM     12  H   UNL A   1      31.340  28.838  24.486  1.00  0.00     0.349 HD
ATOM     13  C   UNL A   1      32.422  28.590  26.914  1.00  0.00     0.071 C 
ATOM     14  C   UNL A   1      32.012  26.129  26.486  1.00  0.00     0.069 C 
ATOM     15  C   UNL A   1      33.489  28.961  25.884  1.00  0.00     0.071 C 
ATOM     16  C   UNL A   1      33.869  26.739  24.833  1.00  0.00     0.069 C 
BRANCH   9  17
ATOM     17  C   UNL A   1      30.782  27.523  23.767  1.00  0.00     0.212 C 
ATOM     18  C   UNL A   1      31.376  26.957  22.468  1.00  0.00     0.081 C 
BRANCH  17  19
ATOM     19  C   UNL A   1      29.582  28.393  23.369  1.00  0.00     0.012 A 
ATOM     20  C   UNL A   1      28.277  27.920  23.213  1.00  0.00     0.030 A 
ATOM     21  C   UNL A   1      29.728  29.792  23.403  1.00  0.00     0.030 A 
ATOM     22  C   UNL A   1      27.217  28.812  23.093  1.00  0.00     0.111 A 
ATOM     23  C   UNL A   1      28.608  30.609  23.302  1.00  0.00     0.111 A 
ATOM     24  N   UNL A   1      27.353  30.148  23.149  1.00  0.00    -0.265 NA
ENDBRANCH  17  19
ENDBRANCH   9  17
ENDBRANCH   7   8
ENDBRANCH   4   7
ENDBRANCH   2   3
ENDBRANCH   1   2
BRANCH   1  25
ATOM     25  C   UNL A   1      37.476  21.493  24.886  1.00  0.00     0.023 C 
BRANCH  25  26
ATOM     26  C   UNL A   1      38.718  21.407  25.758  1.00  0.00     0.116 C 
BRANCH  26  27
ATOM     27  N   UNL A   1      39.457  20.154  25.641  1.00  0.00    -0.352 N 
ATOM     28  C   UNL A   1      40.759  19.894  26.021  1.00  0.00     0.251 C 
ATOM     29  H   UNL A   1      38.966  19.400  25.242  1.00  0.00     0.163 HD
ATOM     30  O   UNL A   1      41.269  18.797  25.820  1.00  0.00    -0.269 OA
BRANCH  28  31
ATOM     31  C   UNL A   1      41.564  20.996  26.589  1.00  0.00     0.039 A 
ATOM     32  C   UNL A   1      42.202  21.876  25.710  1.00  0.00     0.014 A 
ATOM     33  C   UNL A   1      41.527  21.260  27.958  1.00  0.00     0.014 A 
ATOM     34  C   UNL A   1      42.669  23.101  26.188  1.00  0.00     0.010 A 
ATOM     35  C   UNL A   1      41.900  22.520  28.411  1.00  0.00     0.010 A 
ATOM     36  C   UNL A   1      42.442  23.466  27.524  1.00  0.00    -0.014 A 
BRANCH  36  37
ATOM     37  C   UNL A   1      42.706  24.842  28.018  1.00  0.00     0.031 A 
ATOM     38  C   UNL A   1      44.085  25.216  28.480  1.00  0.00     0.074 A 
ATOM     39  C   UNL A   1      41.685  25.710  28.172  1.00  0.00     0.049 A 
ATOM     40  N   UNL A   1      44.482  26.286  29.119  1.00  0.00    -0.248 NA
ATOM     41  C   UNL A   1      45.150  24.231  28.230  1.00  0.00     0.031 C 
ATOM     42  C   UNL A   1      40.286  25.455  27.819  1.00  0.00     0.029 A 
ATOM     43  N   UNL A   1      41.666  26.984  28.686  1.00  0.00    -0.354 N 
ATOM     44  C   UNL A   1      45.830  26.083  29.385  1.00  0.00     0.074 A 
ATOM     45  C   UNL A   1      46.172  24.773  28.875  1.00  0.00     0.031 C 
ATOM     46  C   UNL A   1      39.552  26.543  28.104  1.00  0.00     0.029 A 
ATOM     47  C   UNL A   1      40.416  27.556  28.700  1.00  0.00     0.049 A 
ATOM     48  H   UNL A   1      42.471  27.444  29.014  1.00  0.00     0.167 HD
ATOM     49  C   UNL A   1      46.707  26.920  29.985  1.00  0.00     0.037 A 
ATOM     50  C   UNL A   1      40.010  28.758  29.153  1.00  0.00     0.037 A 
ATOM     51  C   UNL A   1      46.382  28.246  30.438  1.00  0.00     0.049 A 
ATOM     52  C   UNL A   1      41.015  29.691  29.767  1.00  0.00     0.074 A 
ATOM     53  C   UNL A   1      47.219  29.196  30.995  1.00  0.00     0.029 A 
ATOM     54  N   UNL A   1      45.118  28.811  30.370  1.00  0.00    -0.354 N 
ATOM     55  N   UNL A   1      42.295  29.502  29.974  1.00  0.00    -0.248 NA
ATOM     56  C   UNL A   1      40.520  31.002  30.210  1.00  0.00     0.031 C 
ATOM     57  C   UNL A   1      46.456  30.333  31.281  1.00  0.00     0.029 A 
ATOM     58  C   UNL A   1      45.152  30.099  30.876  1.00  0.00     0.049 A 
ATOM     59  H   UNL A   1      44.316  28.364  30.016  1.00  0.00     0.167 HD
ATOM     60  C   UNL A   1      42.763  30.679  30.544  1.00  0.00     0.074 A 
ATOM     61  C   UNL A   1      41.632  31.576  30.647  1.00  0.00     0.031 C 
ATOM     62  C   UNL A   1      44.020  30.985  30.947  1.00  0.00     0.037 A 
BRANCH  49  63
ATOM     63  C   UNL A   1      48.109  26.423  30.172  1.00  0.00     0.057 A 
ATOM     64  C   UNL A   1      49.093  26.605  29.191  1.00  0.00     0.134 A 
ATOM     65  C   UNL A   1      48.482  25.763  31.350  1.00  0.00     0.134 A 
ATOM     66  F   UNL A   1      48.792  27.214  28.034  1.00  0.00    -0.206 F 
ATOM     67  C   UNL A   1      50.390  26.122  29.362  1.00  0.00     0.040 A 
ATOM     68  C   UNL A   1      49.783  25.299  31.543  1.00  0.00     0.040 A 
ATOM     69  F   UNL A   1      47.588  25.560  32.329  1.00  0.00    -0.206 F 
ATOM     70  C   UNL A   1      50.740  25.471  30.544  1.00  0.00     0.006 A 
ENDBRANCH  49  63
BRANCH  50  71
ATOM     71  C   UNL A   1      38.588  29.163  29.018  1.00  0.00     0.057 A 
ATOM     72  C   UNL A   1      38.088  29.625  27.796  1.00  0.00     0.134 A 
ATOM     73  C   UNL A   1      37.701  29.108  30.100  1.00  0.00     0.134 A 
ATOM     74  F   UNL A   1      38.896  29.718  26.730  1.00  0.00    -0.206 F 
ATOM     75  C   UNL A   1      36.761  30.035  27.656  1.00  0.00     0.040 A 
ATOM     76  C   UNL A   1      36.367  29.495  29.969  1.00  0.00     0.040 A 
ATOM     77  F   UNL A   1      38.119  28.668  31.297  1.00  0.00    -0.206 F 
ATOM     78  C   UNL A   1      35.895  29.966  28.745  1.00  0.00     0.006 A 
ENDBRANCH  50  71
BRANCH  62  79
ATOM     79  C   UNL A   1      44.250  32.361  31.490  1.00  0.00     0.057 A 
ATOM     80  C   UNL A   1      44.155  32.638  32.858  1.00  0.00     0.134 A 
ATOM     81  C   UNL A   1      44.630  33.406  30.638  1.00  0.00     0.134 A 
ATOM     82  F   UNL A   1      43.783  31.681  33.721  1.00  0.00    -0.206 F 
ATOM     83  C   UNL A   1      44.422  33.912  33.361  1.00  0.00     0.040 A 
ATOM     84  C   UNL A   1      44.917  34.679  31.130  1.00  0.00     0.040 A 
ATOM     85  F   UNL A   1      44.744  33.200  29.317  1.00  0.00    -0.206 F 
ATOM     86  C   UNL A   1      44.813  34.934  32.497  1.00  0.00     0.006 A 
ENDBRANCH  62  79
ENDBRANCH  36  37
ENDBRANCH  28  31
ENDBRANCH  26  27
ENDBRANCH  25  26
ENDBRANCH   1  25
TORSDOF 14
ENDMDL
MODEL 2
REMARK VINA RESULT:     -11.8      0.647      6.188
REMARK SMILES C[C@H](c1ccncc1)[N@H+]1[C@@H]2CC[C@H]1C[C@H](CC(=O)NCCCCNC(=O)c1ccc(-c3c4nc(c(-c5c(F)cccc5F)c5ccc([nH]5)c(-c5c(F)cccc5F)c5nc(c(-c6c(F)cccc6F)c6ccc3[nH]6)C=C5)C=C4)cc1)C2
REMARK SMILES IDX 21 1 20 2 19 3 17 4 18 5 16 7 15 8 9 9 10 10 13 11 11 13
REMARK SMILES IDX 81 14 12 15 14 16 2 17 1 18 3 19 4 20 8 21 5 22 7 23 6 24
REMARK SMILES IDX 22 25 23 26 24 27 25 28 26 30 27 31 28 32 80 33 29 34 79 35
REMARK SMILES IDX 30 36 31 37 32 38 73 39 33 40 78 41 72 42 74 43 34 44 77 45
REMARK SMILES IDX 71 46 70 47 35 49 61 50 44 51 60 52 45 53 48 54 59 55 75 56
REMARK SMILES IDX 46 57 47 58 58 60 76 61 49 62 36 63 37 64 42 65 38 66 39 67
REMARK SMILES IDX 41 68 43 69 40 70 62 71 63 72 68 73 64 74 65 75 67 76 69 77
REMARK SMILES IDX 66 78 50 79 51 80 56 81 52 82 53 83 55 84 57 85 54 86
REMARK H PARENT 19 6 9 12 24 29 74 48 48 59
REMARK Flexibility Score: inf
ROOT
ATOM      1  C   UNL A   1      36.804  23.487  24.864  1.00  0.00     0.023 C 
ENDROOT
BRANCH   1   2
ATOM      2  C   UNL A   1      36.145  23.793  26.219  1.00  0.00     0.116 C 
BRANCH   2   3
ATOM      3  N   UNL A   1      34.909  23.039  26.380  1.00  0.00    -0.356 N 
ATOM      4  C   UNL A   1      33.616  23.301  26.037  1.00  0.00     0.220 C 
ATOM      5  O   UNL A   1      32.757  22.489  26.393  1.00  0.00    -0.275 OA
ATOM      6  H   UNL A   1      35.031  22.169  26.824  1.00  0.00     0.163 HD
BRANCH   4   7
ATOM      7  C   UNL A   1      33.216  24.530  25.235  1.00  0.00     0.104 C 
BRANCH   7   8
ATOM      8  C   UNL A   1      32.892  25.777  26.099  1.00  0.00     0.010 C 
ATOM      9  N   UNL A   1      31.693  28.333  25.172  1.00  0.00    -0.324 N 
ATOM     10  C   UNL A   1      30.988  27.549  26.189  1.00  0.00     0.185 C 
ATOM     11  C   UNL A   1      33.064  28.357  25.625  1.00  0.00     0.185 C 
ATOM     12  H   UNL A   1      31.421  29.309  25.051  1.00  0.00     0.349 HD
ATOM     13  C   UNL A   1      31.520  28.199  27.476  1.00  0.00     0.071 C 
ATOM     14  C   UNL A   1      31.373  26.053  26.141  1.00  0.00     0.069 C 
ATOM     15  C   UNL A   1      32.884  28.770  27.090  1.00  0.00     0.071 C 
ATOM     16  C   UNL A   1      33.696  26.970  25.578  1.00  0.00     0.069 C 
BRANCH   9  17
ATOM     17  C   UNL A   1      31.213  28.351  23.786  1.00  0.00     0.212 C 
ATOM     18  C   UNL A   1      32.219  28.780  22.708  1.00  0.00     0.081 C 
BRANCH  17  19
ATOM     19  C   UNL A   1      29.861  28.975  23.411  1.00  0.00     0.012 A 
ATOM     20  C   UNL A   1      28.705  28.246  23.123  1.00  0.00     0.030 A 
ATOM     21  C   UNL A   1      29.683  30.356  23.609  1.00  0.00     0.030 A 
ATOM     22  C   UNL A   1      27.475  28.889  23.035  1.00  0.00     0.111 A 
ATOM     23  C   UNL A   1      28.411  30.910  23.528  1.00  0.00     0.111 A 
ATOM     24  N   UNL A   1      27.301  30.205  23.246  1.00  0.00    -0.265 NA
ENDBRANCH  17  19
ENDBRANCH   9  17
ENDBRANCH   7   8
ENDBRANCH   4   7
ENDBRANCH   2   3
ENDBRANCH   1   2
BRANCH   1  25
ATOM     25  C   UNL A   1      37.414  22.102  24.721  1.00  0.00     0.023 C 
BRANCH  25  26
ATOM     26  C   UNL A   1      38.484  21.781  25.752  1.00  0.00     0.116 C 
BRANCH  26  27
ATOM     27  N   UNL A   1      39.083  20.457  25.613  1.00  0.00    -0.352 N 
ATOM     28  C   UNL A   1      40.351  20.053  25.986  1.00  0.00     0.251 C 
ATOM     29  H   UNL A   1      38.513  19.767  25.204  1.00  0.00     0.163 HD
ATOM     30  O   UNL A   1      40.739  18.910  25.767  1.00  0.00    -0.269 OA
BRANCH  28  31
ATOM     31  C   UNL A   1      41.270  21.053  26.568  1.00  0.00     0.039 A 
ATOM     32  C   UNL A   1      41.845  22.003  25.719  1.00  0.00     0.014 A 
ATOM     33  C   UNL A   1      41.407  21.161  27.952  1.00  0.00     0.014 A 
ATOM     34  C   UNL A   1      42.425  23.147  26.267  1.00  0.00     0.010 A 
ATOM     35  C   UNL A   1      41.892  22.346  28.491  1.00  0.00     0.010 A 
ATOM     36  C   UNL A   1      42.374  23.366  27.652  1.00  0.00    -0.014 A 
BRANCH  36  37
ATOM     37  C   UNL A   1      42.762  24.667  28.257  1.00  0.00     0.031 A 
ATOM     38  C   UNL A   1      41.719  25.721  28.488  1.00  0.00     0.074 A 
ATOM     39  C   UNL A   1      44.063  24.946  28.475  1.00  0.00     0.049 A 
ATOM     40  N   UNL A   1      41.871  26.977  28.820  1.00  0.00    -0.248 NA
ATOM     41  C   UNL A   1      40.319  25.318  28.273  1.00  0.00     0.031 C 
ATOM     42  C   UNL A   1      45.185  24.034  28.237  1.00  0.00     0.029 A 
ATOM     43  N   UNL A   1      44.666  26.093  28.932  1.00  0.00    -0.354 N 
ATOM     44  C   UNL A   1      40.594  27.523  28.809  1.00  0.00     0.074 A 
ATOM     45  C   UNL A   1      39.685  26.474  28.401  1.00  0.00     0.031 C 
ATOM     46  C   UNL A   1      46.333  24.646  28.572  1.00  0.00     0.029 A 
ATOM     47  C   UNL A   1      46.036  26.007  29.005  1.00  0.00     0.049 A 
ATOM     48  H   UNL A   1      44.164  26.901  29.184  1.00  0.00     0.167 HD
ATOM     49  C   UNL A   1      40.211  28.782  29.128  1.00  0.00     0.037 A 
ATOM     50  C   UNL A   1      46.951  26.926  29.369  1.00  0.00     0.037 A 
ATOM     51  C   UNL A   1      41.106  29.807  29.592  1.00  0.00     0.049 A 
ATOM     52  C   UNL A   1      46.495  28.300  29.770  1.00  0.00     0.074 A 
ATOM     53  C   UNL A   1      40.804  31.092  30.007  1.00  0.00     0.029 A 
ATOM     54  N   UNL A   1      42.478  29.656  29.716  1.00  0.00    -0.354 N 
ATOM     55  N   UNL A   1      45.280  28.790  29.796  1.00  0.00    -0.248 NA
ATOM     56  C   UNL A   1      47.536  29.249  30.192  1.00  0.00     0.031 C 
ATOM     57  C   UNL A   1      41.998  31.726  30.365  1.00  0.00     0.029 A 
ATOM     58  C   UNL A   1      43.038  30.825  30.201  1.00  0.00     0.049 A 
ATOM     59  H   UNL A   1      42.980  28.839  29.493  1.00  0.00     0.167 HD
ATOM     60  C   UNL A   1      45.406  30.092  30.263  1.00  0.00     0.074 A 
ATOM     61  C   UNL A   1      46.815  30.314  30.511  1.00  0.00     0.031 C 
ATOM     62  C   UNL A   1      44.439  31.019  30.465  1.00  0.00     0.037 A 
BRANCH  49  63
ATOM     63  C   UNL A   1      38.755  29.108  28.994  1.00  0.00     0.057 A 
ATOM     64  C   UNL A   1      38.201  29.521  27.775  1.00  0.00     0.134 A 
ATOM     65  C   UNL A   1      37.894  28.999  30.093  1.00  0.00     0.134 A 
ATOM     66  F   UNL A   1      38.977  29.661  26.689  1.00  0.00    -0.206 F 
ATOM     67  C   UNL A   1      36.849  29.842  27.661  1.00  0.00     0.040 A 
ATOM     68  C   UNL A   1      36.535  29.294  29.985  1.00  0.00     0.040 A 
ATOM     69  F   UNL A   1      38.361  28.607  31.288  1.00  0.00    -0.206 F 
ATOM     70  C   UNL A   1      36.010  29.724  28.767  1.00  0.00     0.006 A 
ENDBRANCH  49  63
BRANCH  50  71
ATOM     71  C   UNL A   1      48.392  26.571  29.400  1.00  0.00     0.057 A 
ATOM     72  C   UNL A   1      48.956  25.965  30.528  1.00  0.00     0.134 A 
ATOM     73  C   UNL A   1      49.238  26.832  28.316  1.00  0.00     0.134 A 
ATOM     74  F   UNL A   1      48.198  25.708  31.604  1.00  0.00    -0.206 F 
ATOM     75  C   UNL A   1      50.314  25.646  30.586  1.00  0.00     0.040 A 
ATOM     76  C   UNL A   1      50.593  26.500  28.352  1.00  0.00     0.040 A 
ATOM     77  F   UNL A   1      48.756  27.406  27.203  1.00  0.00    -0.206 F 
ATOM     78  C   UNL A   1      51.136  25.911  29.493  1.00  0.00     0.006 A 
ENDBRANCH  50  71
BRANCH  62  79
ATOM     79  C   UNL A   1      44.863  32.340  31.026  1.00  0.00     0.057 A 
ATOM     80  C   UNL A   1      44.916  32.572  32.405  1.00  0.00     0.134 A 
ATOM     81  C   UNL A   1      45.281  33.372  30.175  1.00  0.00     0.134 A 
ATOM     82  F   UNL A   1      44.518  31.626  33.269  1.00  0.00    -0.206 F 
ATOM     83  C   UNL A   1      45.363  33.790  32.921  1.00  0.00     0.040 A 
ATOM     84  C   UNL A   1      45.746  34.587  30.678  1.00  0.00     0.040 A 
ATOM     85  F   UNL A   1      45.258  33.207  28.844  1.00  0.00    -0.206 F 
ATOM     86  C   UNL A   1      45.787  34.798  32.056  1.00  0.00     0.006 A 
ENDBRANCH  62  79
ENDBRANCH  36  37
ENDBRANCH  28  31
ENDBRANCH  26  27
ENDBRANCH  25  26
ENDBRANCH   1  25
TORSDOF 14
ENDMDL
MODEL 3
REMARK VINA RESULT:     -11.7      1.024      2.142
REMARK SMILES C[C@H](c1ccncc1)[N@H+]1[C@@H]2CC[C@H]1C[C@H](CC(=O)NCCCCNC(=O)c1ccc(-c3c4nc(c(-c5c(F)cccc5F)c5ccc([nH]5)c(-c5c(F)cccc5F)c5nc(c(-c6c(F)cccc6F)c6ccc3[nH]6)C=C5)C=C4)cc1)C2
REMARK SMILES IDX 21 1 20 2 19 3 17 4 18 5 16 7 15 8 9 9 10 10 13 11 11 13
REMARK SMILES IDX 81 14 12 15 14 16 2 17 1 18 3 19 4 20 8 21 5 22 7 23 6 24
REMARK SMILES IDX 22 25 23 26 24 27 25 28 26 30 27 31 28 32 80 33 29 34 79 35
REMARK SMILES IDX 30 36 31 37 32 38 73 39 33 40 78 41 72 42 74 43 34 44 77 45
REMARK SMILES IDX 71 46 70 47 35 49 61 50 44 51 60 52 45 53 48 54 59 55 75 56
REMARK SMILES IDX 46 57 47 58 58 60 76 61 49 62 36 63 37 64 42 65 38 66 39 67
REMARK SMILES IDX 41 68 43 69 40 70 62 71 63 72 68 73 64 74 65 75 67 76 69 77
REMARK SMILES IDX 66 78 50 79 51 80 56 81 52 82 53 83 55 84 57 85 54 86
REMARK H PARENT 19 6 9 12 24 29 74 48 48 59
REMARK Flexibility Score: inf
ROOT
ATOM      1  C   UNL A   1      37.097  22.682  24.613  1.00  0.00     0.023 C 
ENDROOT
BRANCH   1   2
ATOM      2  C   UNL A   1      36.700  23.620  25.765  1.00  0.00     0.116 C 
BRANCH   2   3
ATOM      3  N   UNL A   1      35.864  22.929  26.737  1.00  0.00    -0.356 N 
ATOM      4  C   UNL A   1      34.518  22.917  26.954  1.00  0.00     0.220 C 
ATOM      5  O   UNL A   1      34.106  22.287  27.932  1.00  0.00    -0.275 OA
ATOM      6  H   UNL A   1      36.370  22.357  27.359  1.00  0.00     0.163 HD
BRANCH   4   7
ATOM      7  C   UNL A   1      33.535  23.629  26.037  1.00  0.00     0.104 C 
BRANCH   7   8
ATOM      8  C   UNL A   1      33.217  25.089  26.455  1.00  0.00     0.010 C 
ATOM      9  N   UNL A   1      31.883  27.171  24.809  1.00  0.00    -0.324 N 
ATOM     10  C   UNL A   1      31.262  26.763  26.071  1.00  0.00     0.185 C 
ATOM     11  C   UNL A   1      33.276  27.364  25.140  1.00  0.00     0.185 C 
ATOM     12  H   UNL A   1      31.572  28.046  24.387  1.00  0.00     0.349 HD
ATOM     13  C   UNL A   1      31.842  27.813  27.032  1.00  0.00     0.071 C 
ATOM     14  C   UNL A   1      31.694  25.342  26.500  1.00  0.00     0.069 C 
ATOM     15  C   UNL A   1      33.163  28.240  26.392  1.00  0.00     0.071 C 
ATOM     16  C   UNL A   1      33.950  26.049  25.517  1.00  0.00     0.069 C 
BRANCH   9  17
ATOM     17  C   UNL A   1      31.327  26.718  23.529  1.00  0.00     0.212 C 
ATOM     18  C   UNL A   1      29.825  26.949  23.304  1.00  0.00     0.081 C 
BRANCH  17  19
ATOM     19  C   UNL A   1      31.658  25.334  22.953  1.00  0.00     0.012 A 
ATOM     20  C   UNL A   1      32.817  25.032  22.234  1.00  0.00     0.030 A 
ATOM     21  C   UNL A   1      30.891  24.233  23.374  1.00  0.00     0.030 A 
ATOM     22  C   UNL A   1      33.149  23.709  21.964  1.00  0.00     0.111 A 
ATOM     23  C   UNL A   1      31.314  22.941  23.081  1.00  0.00     0.111 A 
ATOM     24  N   UNL A   1      32.430  22.655  22.385  1.00  0.00    -0.265 NA
ENDBRANCH  17  19
ENDBRANCH   9  17
ENDBRANCH   7   8
ENDBRANCH   4   7
ENDBRANCH   2   3
ENDBRANCH   1   2
BRANCH   1  25
ATOM     25  C   UNL A   1      37.589  21.302  25.021  1.00  0.00     0.023 C 
BRANCH  25  26
ATOM     26  C   UNL A   1      38.916  21.306  25.762  1.00  0.00     0.116 C 
BRANCH  26  27
ATOM     27  N   UNL A   1      39.669  20.060  25.665  1.00  0.00    -0.352 N 
ATOM     28  C   UNL A   1      40.976  19.823  26.044  1.00  0.00     0.251 C 
ATOM     29  H   UNL A   1      39.185  19.293  25.283  1.00  0.00     0.163 HD
ATOM     30  O   UNL A   1      41.498  18.728  25.862  1.00  0.00    -0.269 OA
BRANCH  28  31
ATOM     31  C   UNL A   1      41.770  20.945  26.587  1.00  0.00     0.039 A 
ATOM     32  C   UNL A   1      42.386  21.821  25.688  1.00  0.00     0.014 A 
ATOM     33  C   UNL A   1      41.744  21.229  27.952  1.00  0.00     0.014 A 
ATOM     34  C   UNL A   1      42.840  23.060  26.143  1.00  0.00     0.010 A 
ATOM     35  C   UNL A   1      42.102  22.501  28.383  1.00  0.00     0.010 A 
ATOM     36  C   UNL A   1      42.621  23.441  27.476  1.00  0.00    -0.014 A 
BRANCH  36  37
ATOM     37  C   UNL A   1      42.869  24.829  27.947  1.00  0.00     0.031 A 
ATOM     38  C   UNL A   1      44.249  25.232  28.380  1.00  0.00     0.074 A 
ATOM     39  C   UNL A   1      41.836  25.681  28.106  1.00  0.00     0.049 A 
ATOM     40  N   UNL A   1      44.638  26.317  28.997  1.00  0.00    -0.248 NA
ATOM     41  C   UNL A   1      45.327  24.262  28.125  1.00  0.00     0.031 C 
ATOM     42  C   UNL A   1      40.436  25.397  27.781  1.00  0.00     0.029 A 
ATOM     43  N   UNL A   1      41.803  26.961  28.603  1.00  0.00    -0.354 N 
ATOM     44  C   UNL A   1      45.994  26.141  29.243  1.00  0.00     0.074 A 
ATOM     45  C   UNL A   1      46.350  24.830  28.744  1.00  0.00     0.031 C 
ATOM     46  C   UNL A   1      39.688  26.477  28.063  1.00  0.00     0.029 A 
ATOM     47  C   UNL A   1      40.544  27.512  28.631  1.00  0.00     0.049 A 
ATOM     48  H   UNL A   1      42.607  27.440  28.911  1.00  0.00     0.167 HD
ATOM     49  C   UNL A   1      46.867  27.001  29.816  1.00  0.00     0.037 A 
ATOM     50  C   UNL A   1      40.125  28.713  29.074  1.00  0.00     0.037 A 
ATOM     51  C   UNL A   1      46.526  28.327  30.257  1.00  0.00     0.049 A 
ATOM     52  C   UNL A   1      41.124  29.671  29.658  1.00  0.00     0.074 A 
ATOM     53  C   UNL A   1      47.356  29.300  30.786  1.00  0.00     0.029 A 
ATOM     54  N   UNL A   1      45.252  28.870  30.203  1.00  0.00    -0.354 N 
ATOM     55  N   UNL A   1      42.411  29.508  29.845  1.00  0.00    -0.248 NA
ATOM     56  C   UNL A   1      40.614  30.980  30.092  1.00  0.00     0.031 C 
ATOM     57  C   UNL A   1      46.578  30.428  31.070  1.00  0.00     0.029 A 
ATOM     58  C   UNL A   1      45.272  30.165  30.690  1.00  0.00     0.049 A 
ATOM     59  H   UNL A   1      44.452  28.404  29.868  1.00  0.00     0.167 HD
ATOM     60  C   UNL A   1      42.869  30.700  30.391  1.00  0.00     0.074 A 
ATOM     61  C   UNL A   1      41.724  31.579  30.501  1.00  0.00     0.031 C 
ATOM     62  C   UNL A   1      44.126  31.033  30.769  1.00  0.00     0.037 A 
BRANCH  49  63
ATOM     63  C   UNL A   1      48.279  26.530  29.986  1.00  0.00     0.057 A 
ATOM     64  C   UNL A   1      49.262  26.783  29.019  1.00  0.00     0.134 A 
ATOM     65  C   UNL A   1      48.665  25.826  31.133  1.00  0.00     0.134 A 
ATOM     66  F   UNL A   1      48.950  27.438  27.890  1.00  0.00    -0.206 F 
ATOM     67  C   UNL A   1      50.570  26.325  29.173  1.00  0.00     0.040 A 
ATOM     68  C   UNL A   1      49.976  25.385  31.310  1.00  0.00     0.040 A 
ATOM     69  F   UNL A   1      47.773  25.554  32.097  1.00  0.00    -0.206 F 
ATOM     70  C   UNL A   1      50.932  25.628  30.324  1.00  0.00     0.006 A 
ENDBRANCH  49  63
BRANCH  50  71
ATOM     71  C   UNL A   1      38.695  29.092  28.959  1.00  0.00     0.057 A 
ATOM     72  C   UNL A   1      37.835  28.983  30.056  1.00  0.00     0.134 A 
ATOM     73  C   UNL A   1      38.152  29.564  27.757  1.00  0.00     0.134 A 
ATOM     74  F   UNL A   1      38.294  28.518  31.228  1.00  0.00    -0.206 F 
ATOM     75  C   UNL A   1      36.481  29.311  29.962  1.00  0.00     0.040 A 
ATOM     76  C   UNL A   1      36.806  29.915  27.654  1.00  0.00     0.040 A 
ATOM     77  F   UNL A   1      38.928  29.697  26.671  1.00  0.00    -0.206 F 
ATOM     78  C   UNL A   1      35.964  29.783  28.757  1.00  0.00     0.006 A 
ENDBRANCH  50  71
BRANCH  62  79
ATOM     79  C   UNL A   1      44.341  32.420  31.289  1.00  0.00     0.057 A 
ATOM     80  C   UNL A   1      44.341  32.701  32.660  1.00  0.00     0.134 A 
ATOM     81  C   UNL A   1      44.613  33.474  30.407  1.00  0.00     0.134 A 
ATOM     82  F   UNL A   1      44.075  31.734  33.551  1.00  0.00    -0.206 F 
ATOM     83  C   UNL A   1      44.594  33.988  33.137  1.00  0.00     0.040 A 
ATOM     84  C   UNL A   1      44.885  34.760  30.873  1.00  0.00     0.040 A 
ATOM     85  F   UNL A   1      44.633  33.265  29.082  1.00  0.00    -0.206 F 
ATOM     86  C   UNL A   1      44.876  35.019  32.243  1.00  0.00     0.006 A 
ENDBRANCH  62  79
ENDBRANCH  36  37
ENDBRANCH  28  31
ENDBRANCH  26  27
ENDBRANCH  25  26
ENDBRANCH   1  25
TORSDOF 14
ENDMDL
