MODEL 1
REMARK VINA RESULT:     -11.5      0.000      0.000
REMARK SMILES CC(C)N1C(=O)C[C@@H]([N@@H+]2CC[C@H](C(=O)NCCCCNC(=O)c3ccc(-c4c5nc(c(-c6c(F)cccc6F)c6ccc([nH]6)c(-c6c(F)cccc6F)c6nc(c(-c7c(F)cccc7F)c7ccc4[nH]7)C=C6)C=C5)cc3)[C@@H]2C)C1=O
REMARK SMILES IDX 17 1 16 2 15 3 13 4 14 5 12 7 9 8 10 9 77 10 11 12 78 13
REMARK SMILES IDX 8 14 4 15 5 16 79 17 6 18 7 19 80 20 2 21 1 22 3 23 18 24
REMARK SMILES IDX 19 25 20 26 21 27 22 29 23 30 24 31 76 32 25 33 75 34 26 35
REMARK SMILES IDX 27 36 28 37 69 38 29 39 74 40 68 41 70 42 30 43 73 44 67 45
REMARK SMILES IDX 66 46 31 48 57 49 40 50 56 51 41 52 44 53 55 54 71 55 42 56
REMARK SMILES IDX 43 57 54 59 72 60 45 61 32 62 33 63 38 64 34 65 35 66 37 67
REMARK SMILES IDX 39 68 36 69 58 70 59 71 64 72 60 73 61 74 63 75 65 76 62 77
REMARK SMILES IDX 46 78 47 79 52 80 48 81 49 82 51 83 53 84 50 85
REMARK H PARENT 15 6 9 11 20 28 70 47 44 58
REMARK Flexibility Score: inf
ROOT
ATOM      1  C   UNL A   1      31.540  28.994  25.876  1.00  0.00     0.023 C 
ENDROOT
BRANCH   1   2
ATOM      2  C   UNL A   1      32.399  29.078  24.610  1.00  0.00     0.116 C 
BRANCH   2   3
ATOM      3  N   UNL A   1      31.614  29.368  23.439  1.00  0.00    -0.356 N 
ATOM      4  C   UNL A   1      30.855  28.640  22.600  1.00  0.00     0.229 C 
ATOM      5  O   UNL A   1      30.256  29.336  21.761  1.00  0.00    -0.275 OA
ATOM      6  H   UNL A   1      31.639  30.321  23.195  1.00  0.00     0.163 HD
BRANCH   4   7
ATOM      7  C   UNL A   1      30.645  27.119  22.522  1.00  0.00     0.142 C 
ATOM      8  N   UNL A   1      31.895  25.445  23.758  1.00  0.00    -0.321 N 
ATOM      9  C   UNL A   1      32.702  25.816  22.592  1.00  0.00     0.264 C 
ATOM     10  C   UNL A   1      30.558  26.037  23.603  1.00  0.00     0.194 C 
ATOM     11  H   UNL A   1      31.731  24.438  23.782  1.00  0.00     0.349 HD
ATOM     12  C   UNL A   1      31.757  26.528  21.632  1.00  0.00     0.081 C 
ATOM     13  C   UNL A   1      29.578  26.196  24.761  1.00  0.00     0.076 C 
BRANCH   8  14
ATOM     14  C   UNL A   1      32.576  25.417  25.057  1.00  0.00     0.284 C 
ATOM     15  N   UNL A   1      33.807  23.538  25.811  1.00  0.00    -0.275 N 
ATOM     16  C   UNL A   1      34.743  24.465  25.464  1.00  0.00     0.236 C 
ATOM     17  C   UNL A   1      32.531  24.038  25.726  1.00  0.00     0.288 C 
ATOM     18  O   UNL A   1      35.955  24.354  25.519  1.00  0.00    -0.274 OA
ATOM     19  C   UNL A   1      34.060  25.698  25.003  1.00  0.00     0.176 C 
ATOM     20  O   UNL A   1      31.512  23.503  26.142  1.00  0.00    -0.267 OA
BRANCH  15  21
ATOM     21  C   UNL A   1      34.221  22.267  26.396  1.00  0.00     0.087 C 
ATOM     22  C   UNL A   1      33.849  22.216  27.877  1.00  0.00     0.031 C 
ATOM     23  C   UNL A   1      33.711  21.044  25.641  1.00  0.00     0.031 C 
ENDBRANCH  15  21
ENDBRANCH   8  14
ENDBRANCH   4   7
ENDBRANCH   2   3
ENDBRANCH   1   2
BRANCH   1  24
ATOM     24  C   UNL A   1      32.298  28.718  27.162  1.00  0.00     0.023 C 
BRANCH  24  25
ATOM     25  C   UNL A   1      33.712  29.278  27.200  1.00  0.00     0.116 C 
BRANCH  25  26
ATOM     26  N   UNL A   1      33.864  30.522  27.954  1.00  0.00    -0.352 N 
ATOM     27  C   UNL A   1      34.983  30.971  28.624  1.00  0.00     0.251 C 
ATOM     28  H   UNL A   1      33.074  31.108  27.986  1.00  0.00     0.163 HD
ATOM     29  O   UNL A   1      34.972  32.023  29.252  1.00  0.00    -0.269 OA
BRANCH  27  30
ATOM     30  C   UNL A   1      36.177  30.110  28.609  1.00  0.00     0.039 A 
ATOM     31  C   UNL A   1      37.035  30.169  27.509  1.00  0.00     0.014 A 
ATOM     32  C   UNL A   1      36.539  29.426  29.771  1.00  0.00     0.014 A 
ATOM     33  C   UNL A   1      38.319  29.639  27.624  1.00  0.00     0.010 A 
ATOM     34  C   UNL A   1      37.851  29.003  29.919  1.00  0.00     0.010 A 
ATOM     35  C   UNL A   1      38.760  29.120  28.854  1.00  0.00    -0.014 A 
BRANCH  35  36
ATOM     36  C   UNL A   1      40.177  28.732  29.063  1.00  0.00     0.031 A 
ATOM     37  C   UNL A   1      41.146  29.718  29.648  1.00  0.00     0.074 A 
ATOM     38  C   UNL A   1      40.610  27.528  28.638  1.00  0.00     0.049 A 
ATOM     39  N   UNL A   1      42.435  29.597  29.838  1.00  0.00    -0.248 NA
ATOM     40  C   UNL A   1      40.603  31.032  30.030  1.00  0.00     0.031 C 
ATOM     41  C   UNL A   1      39.784  26.512  27.978  1.00  0.00     0.029 A 
ATOM     42  N   UNL A   1      41.858  26.958  28.683  1.00  0.00    -0.354 N 
ATOM     43  C   UNL A   1      42.855  30.821  30.341  1.00  0.00     0.074 A 
ATOM     44  C   UNL A   1      41.702  31.692  30.361  1.00  0.00     0.031 C 
ATOM     45  C   UNL A   1      40.541  25.436  27.710  1.00  0.00     0.029 A 
ATOM     46  C   UNL A   1      41.910  25.698  28.137  1.00  0.00     0.049 A 
ATOM     47  H   UNL A   1      42.642  27.410  29.070  1.00  0.00     0.167 HD
ATOM     48  C   UNL A   1      44.087  31.179  30.773  1.00  0.00     0.037 A 
ATOM     49  C   UNL A   1      42.948  24.851  27.991  1.00  0.00     0.037 A 
ATOM     50  C   UNL A   1      45.224  30.298  30.778  1.00  0.00     0.049 A 
ATOM     51  C   UNL A   1      44.304  25.263  28.491  1.00  0.00     0.074 A 
ATOM     52  C   UNL A   1      46.491  30.529  31.281  1.00  0.00     0.029 A 
ATOM     53  N   UNL A   1      45.232  29.018  30.241  1.00  0.00    -0.354 N 
ATOM     54  N   UNL A   1      44.666  26.387  29.062  1.00  0.00    -0.248 NA
ATOM     55  C   UNL A   1      45.394  24.290  28.333  1.00  0.00     0.031 C 
ATOM     56  C   UNL A   1      47.284  29.413  30.997  1.00  0.00     0.029 A 
ATOM     57  C   UNL A   1      46.495  28.462  30.368  1.00  0.00     0.049 A 
ATOM     58  H   UNL A   1      44.457  28.571  29.833  1.00  0.00     0.167 HD
ATOM     59  C   UNL A   1      46.020  26.252  29.343  1.00  0.00     0.074 A 
ATOM     60  C   UNL A   1      46.407  24.928  28.902  1.00  0.00     0.031 C 
ATOM     61  C   UNL A   1      46.867  27.146  29.911  1.00  0.00     0.037 A 
BRANCH  48  62
ATOM     62  C   UNL A   1      44.261  32.584  31.274  1.00  0.00     0.057 A 
ATOM     63  C   UNL A   1      44.661  33.630  30.430  1.00  0.00     0.134 A 
ATOM     64  C   UNL A   1      44.016  32.898  32.616  1.00  0.00     0.134 A 
ATOM     65  F   UNL A   1      44.927  33.396  29.135  1.00  0.00    -0.206 F 
ATOM     66  C   UNL A   1      44.848  34.927  30.911  1.00  0.00     0.040 A 
ATOM     67  C   UNL A   1      44.167  34.197  33.102  1.00  0.00     0.040 A 
ATOM     68  F   UNL A   1      43.627  31.947  33.478  1.00  0.00    -0.206 F 
ATOM     69  C   UNL A   1      44.594  35.214  32.251  1.00  0.00     0.006 A 
ENDBRANCH  48  62
BRANCH  49  70
ATOM     70  C   UNL A   1      42.737  23.523  27.357  1.00  0.00     0.057 A 
ATOM     71  C   UNL A   1      42.949  23.332  25.987  1.00  0.00     0.134 A 
ATOM     72  C   UNL A   1      42.332  22.412  28.107  1.00  0.00     0.134 A 
ATOM     73  F   UNL A   1      43.320  24.363  25.212  1.00  0.00    -0.206 F 
ATOM     74  C   UNL A   1      42.755  22.090  25.382  1.00  0.00     0.040 A 
ATOM     75  C   UNL A   1      42.160  21.156  27.519  1.00  0.00     0.040 A 
ATOM     76  F   UNL A   1      42.119  22.526  29.426  1.00  0.00    -0.206 F 
ATOM     77  C   UNL A   1      42.365  20.995  26.151  1.00  0.00     0.006 A 
ENDBRANCH  49  70
BRANCH  61  78
ATOM     78  C   UNL A   1      48.293  26.718  30.096  1.00  0.00     0.057 A 
ATOM     79  C   UNL A   1      48.709  26.006  31.228  1.00  0.00     0.134 A 
ATOM     80  C   UNL A   1      49.253  26.981  29.109  1.00  0.00     0.134 A 
ATOM     81  F   UNL A   1      47.842  25.732  32.216  1.00  0.00    -0.206 F 
ATOM     82  C   UNL A   1      50.033  25.591  31.383  1.00  0.00     0.040 A 
ATOM     83  C   UNL A   1      50.572  26.545  29.239  1.00  0.00     0.040 A 
ATOM     84  F   UNL A   1      48.919  27.650  27.995  1.00  0.00    -0.206 F 
ATOM     85  C   UNL A   1      50.966  25.853  30.382  1.00  0.00     0.006 A 
ENDBRANCH  61  78
ENDBRANCH  35  36
ENDBRANCH  27  30
ENDBRANCH  25  26
ENDBRANCH  24  25
ENDBRANCH   1  24
TORSDOF 13
ENDMDL
MODEL 2
REMARK VINA RESULT:     -11.4      2.766      7.204
REMARK SMILES CC(C)N1C(=O)C[C@@H]([N@@H+]2CC[C@H](C(=O)NCCCCNC(=O)c3ccc(-c4c5nc(c(-c6c(F)cccc6F)c6ccc([nH]6)c(-c6c(F)cccc6F)c6nc(c(-c7c(F)cccc7F)c7ccc4[nH]7)C=C6)C=C5)cc3)[C@@H]2C)C1=O
REMARK SMILES IDX 17 1 16 2 15 3 13 4 14 5 12 7 9 8 10 9 77 10 11 12 78 13
REMARK SMILES IDX 8 14 4 15 5 16 79 17 6 18 7 19 80 20 2 21 1 22 3 23 18 24
REMARK SMILES IDX 19 25 20 26 21 27 22 29 23 30 24 31 76 32 25 33 75 34 26 35
REMARK SMILES IDX 27 36 28 37 69 38 29 39 74 40 68 41 70 42 30 43 73 44 67 45
REMARK SMILES IDX 66 46 31 48 57 49 40 50 56 51 41 52 44 53 55 54 71 55 42 56
REMARK SMILES IDX 43 57 54 59 72 60 45 61 32 62 33 63 38 64 34 65 35 66 37 67
REMARK SMILES IDX 39 68 36 69 58 70 59 71 64 72 60 73 61 74 63 75 65 76 62 77
REMARK SMILES IDX 46 78 47 79 52 80 48 81 49 82 51 83 53 84 50 85
REMARK H PARENT 15 6 9 11 20 28 70 47 44 58
REMARK Flexibility Score: inf
ROOT
ATOM      1  C   UNL A   1      37.074  23.655  25.241  1.00  0.00     0.023 C 
ENDROOT
BRANCH   1   2
ATOM      2  C   UNL A   1      35.543  23.658  25.176  1.00  0.00     0.116 C 
BRANCH   2   3
ATOM      3  N   UNL A   1      35.055  24.095  23.895  1.00  0.00    -0.356 N 
ATOM      4  C   UNL A   1      33.857  24.089  23.282  1.00  0.00     0.229 C 
ATOM      5  O   UNL A   1      33.869  24.682  22.189  1.00  0.00    -0.275 OA
ATOM      6  H   UNL A   1      35.762  24.491  23.337  1.00  0.00     0.163 HD
BRANCH   4   7
ATOM      7  C   UNL A   1      32.525  23.457  23.719  1.00  0.00     0.142 C 
ATOM      8  N   UNL A   1      32.250  21.259  24.713  1.00  0.00    -0.321 N 
ATOM      9  C   UNL A   1      32.347  21.071  23.263  1.00  0.00     0.264 C 
ATOM     10  C   UNL A   1      32.114  22.699  24.985  1.00  0.00     0.194 C 
ATOM     11  H   UNL A   1      31.393  20.844  25.077  1.00  0.00     0.349 HD
ATOM     12  C   UNL A   1      32.102  22.440  22.640  1.00  0.00     0.081 C 
ATOM     13  C   UNL A   1      32.366  23.314  26.357  1.00  0.00     0.076 C 
BRANCH   8  14
ATOM     14  C   UNL A   1      33.087  20.396  25.554  1.00  0.00     0.284 C 
ATOM     15  N   UNL A   1      34.239  18.512  24.694  1.00  0.00    -0.275 N 
ATOM     16  C   UNL A   1      35.199  19.457  24.900  1.00  0.00     0.236 C 
ATOM     17  C   UNL A   1      33.010  18.918  25.154  1.00  0.00     0.288 C 
ATOM     18  O   UNL A   1      36.394  19.362  24.682  1.00  0.00    -0.274 OA
ATOM     19  C   UNL A   1      34.571  20.673  25.470  1.00  0.00     0.176 C 
ATOM     20  O   UNL A   1      32.011  18.221  25.269  1.00  0.00    -0.267 OA
BRANCH  15  21
ATOM     21  C   UNL A   1      34.614  17.179  24.234  1.00  0.00     0.087 C 
ATOM     22  C   UNL A   1      34.431  16.157  25.354  1.00  0.00     0.031 C 
ATOM     23  C   UNL A   1      33.910  16.748  22.952  1.00  0.00     0.031 C 
ENDBRANCH  15  21
ENDBRANCH   8  14
ENDBRANCH   4   7
ENDBRANCH   2   3
ENDBRANCH   1   2
BRANCH   1  24
ATOM     24  C   UNL A   1      37.740  22.331  24.913  1.00  0.00     0.023 C 
BRANCH  24  25
ATOM     25  C   UNL A   1      38.495  21.696  26.072  1.00  0.00     0.116 C 
BRANCH  25  26
ATOM     26  N   UNL A   1      39.156  20.430  25.758  1.00  0.00    -0.352 N 
ATOM     27  C   UNL A   1      40.475  20.090  25.974  1.00  0.00     0.251 C 
ATOM     28  H   UNL A   1      38.592  19.738  25.343  1.00  0.00     0.163 HD
ATOM     29  O   UNL A   1      40.918  19.000  25.633  1.00  0.00    -0.269 OA
BRANCH  27  30
ATOM     30  C   UNL A   1      41.351  21.109  26.578  1.00  0.00     0.039 A 
ATOM     31  C   UNL A   1      41.988  22.028  25.743  1.00  0.00     0.014 A 
ATOM     32  C   UNL A   1      41.351  21.271  27.965  1.00  0.00     0.014 A 
ATOM     33  C   UNL A   1      42.527  23.186  26.300  1.00  0.00     0.010 A 
ATOM     34  C   UNL A   1      41.787  22.474  28.499  1.00  0.00     0.010 A 
ATOM     35  C   UNL A   1      42.364  23.451  27.671  1.00  0.00    -0.014 A 
BRANCH  35  36
ATOM     36  C   UNL A   1      42.750  24.761  28.254  1.00  0.00     0.031 A 
ATOM     37  C   UNL A   1      41.709  25.818  28.477  1.00  0.00     0.074 A 
ATOM     38  C   UNL A   1      44.050  25.029  28.491  1.00  0.00     0.049 A 
ATOM     39  N   UNL A   1      41.856  27.047  28.903  1.00  0.00    -0.248 NA
ATOM     40  C   UNL A   1      40.322  25.463  28.136  1.00  0.00     0.031 C 
ATOM     41  C   UNL A   1      45.167  24.114  28.238  1.00  0.00     0.029 A 
ATOM     42  N   UNL A   1      44.656  26.158  28.985  1.00  0.00    -0.354 N 
ATOM     43  C   UNL A   1      40.589  27.612  28.860  1.00  0.00     0.074 A 
ATOM     44  C   UNL A   1      39.698  26.619  28.304  1.00  0.00     0.031 C 
ATOM     45  C   UNL A   1      46.314  24.707  28.607  1.00  0.00     0.029 A 
ATOM     46  C   UNL A   1      46.022  26.055  29.081  1.00  0.00     0.049 A 
ATOM     47  H   UNL A   1      44.156  26.965  29.246  1.00  0.00     0.167 HD
ATOM     48  C   UNL A   1      40.197  28.840  29.275  1.00  0.00     0.037 A 
ATOM     49  C   UNL A   1      46.939  26.949  29.499  1.00  0.00     0.037 A 
ATOM     50  C   UNL A   1      41.084  29.812  29.856  1.00  0.00     0.049 A 
ATOM     51  C   UNL A   1      46.480  28.301  29.968  1.00  0.00     0.074 A 
ATOM     52  C   UNL A   1      40.772  31.047  30.394  1.00  0.00     0.029 A 
ATOM     53  N   UNL A   1      42.459  29.662  29.962  1.00  0.00    -0.354 N 
ATOM     54  N   UNL A   1      45.263  28.787  30.020  1.00  0.00    -0.248 NA
ATOM     55  C   UNL A   1      47.519  29.228  30.440  1.00  0.00     0.031 C 
ATOM     56  C   UNL A   1      41.966  31.670  30.773  1.00  0.00     0.029 A 
ATOM     57  C   UNL A   1      43.015  30.800  30.523  1.00  0.00     0.049 A 
ATOM     58  H   UNL A   1      42.964  28.866  29.681  1.00  0.00     0.167 HD
ATOM     59  C   UNL A   1      45.387  30.069  30.543  1.00  0.00     0.074 A 
ATOM     60  C   UNL A   1      46.795  30.274  30.813  1.00  0.00     0.031 C 
ATOM     61  C   UNL A   1      44.422  30.993  30.774  1.00  0.00     0.037 A 
BRANCH  48  62
ATOM     62  C   UNL A   1      38.747  29.192  29.109  1.00  0.00     0.057 A 
ATOM     63  C   UNL A   1      37.839  29.131  30.176  1.00  0.00     0.134 A 
ATOM     64  C   UNL A   1      38.252  29.607  27.867  1.00  0.00     0.134 A 
ATOM     65  F   UNL A   1      38.244  28.727  31.391  1.00  0.00    -0.206 F 
ATOM     66  C   UNL A   1      36.487  29.432  30.005  1.00  0.00     0.040 A 
ATOM     67  C   UNL A   1      36.908  29.942  27.691  1.00  0.00     0.040 A 
ATOM     68  F   UNL A   1      39.064  29.692  26.803  1.00  0.00    -0.206 F 
ATOM     69  C   UNL A   1      36.020  29.845  28.760  1.00  0.00     0.006 A 
ENDBRANCH  48  62
BRANCH  49  70
ATOM     70  C   UNL A   1      48.380  26.585  29.506  1.00  0.00     0.057 A 
ATOM     71  C   UNL A   1      48.958  25.935  30.602  1.00  0.00     0.134 A 
ATOM     72  C   UNL A   1      49.209  26.864  28.413  1.00  0.00     0.134 A 
ATOM     73  F   UNL A   1      48.220  25.657  31.688  1.00  0.00    -0.206 F 
ATOM     74  C   UNL A   1      50.310  25.588  30.619  1.00  0.00     0.040 A 
ATOM     75  C   UNL A   1      50.557  26.499  28.405  1.00  0.00     0.040 A 
ATOM     76  F   UNL A   1      48.715  27.478  27.327  1.00  0.00    -0.206 F 
ATOM     77  C   UNL A   1      51.112  25.864  29.513  1.00  0.00     0.006 A 
ENDBRANCH  49  70
BRANCH  61  78
ATOM     78  C   UNL A   1      44.855  32.307  31.355  1.00  0.00     0.057 A 
ATOM     79  C   UNL A   1      45.176  33.403  30.543  1.00  0.00     0.134 A 
ATOM     80  C   UNL A   1      44.909  32.492  32.743  1.00  0.00     0.134 A 
ATOM     81  F   UNL A   1      45.156  33.287  29.206  1.00  0.00    -0.206 F 
ATOM     82  C   UNL A   1      45.557  34.629  31.091  1.00  0.00     0.040 A 
ATOM     83  C   UNL A   1      45.259  33.723  33.301  1.00  0.00     0.040 A 
ATOM     84  F   UNL A   1      44.605  31.488  33.577  1.00  0.00    -0.206 F 
ATOM     85  C   UNL A   1      45.589  34.793  32.474  1.00  0.00     0.006 A 
ENDBRANCH  61  78
ENDBRANCH  35  36
ENDBRANCH  27  30
ENDBRANCH  25  26
ENDBRANCH  24  25
ENDBRANCH   1  24
TORSDOF 13
ENDMDL
MODEL 3
REMARK VINA RESULT:     -11.3      2.113      7.589
REMARK SMILES CC(C)N1C(=O)C[C@@H]([N@@H+]2CC[C@H](C(=O)NCCCCNC(=O)c3ccc(-c4c5nc(c(-c6c(F)cccc6F)c6ccc([nH]6)c(-c6c(F)cccc6F)c6nc(c(-c7c(F)cccc7F)c7ccc4[nH]7)C=C6)C=C5)cc3)[C@@H]2C)C1=O
REMARK SMILES IDX 17 1 16 2 15 3 13 4 14 5 12 7 9 8 10 9 77 10 11 12 78 13
REMARK SMILES IDX 8 14 4 15 5 16 79 17 6 18 7 19 80 20 2 21 1 22 3 23 18 24
REMARK SMILES IDX 19 25 20 26 21 27 22 29 23 30 24 31 76 32 25 33 75 34 26 35
REMARK SMILES IDX 27 36 28 37 69 38 29 39 74 40 68 41 70 42 30 43 73 44 67 45
REMARK SMILES IDX 66 46 31 48 57 49 40 50 56 51 41 52 44 53 55 54 71 55 42 56
REMARK SMILES IDX 43 57 54 59 72 60 45 61 32 62 33 63 38 64 34 65 35 66 37 67
REMARK SMILES IDX 39 68 36 69 58 70 59 71 64 72 60 73 61 74 63 75 65 76 62 77
REMARK SMILES IDX 46 78 47 79 52 80 48 81 49 82 51 83 53 84 50 85
REMARK H PARENT 15 6 9 11 20 28 70 47 44 58
REMARK Flexibility Score: inf
ROOT
ATOM      1  C   UNL A   1      36.834  22.688  25.335  1.00  0.00     0.023 C 
ENDROOT
BRANCH   1   2
ATOM      2  C   UNL A   1      35.572  22.301  26.112  1.00  0.00     0.116 C 
BRANCH   2   3
ATOM      3  N   UNL A   1      35.110  20.980  25.778  1.00  0.00    -0.356 N 
ATOM      4  C   UNL A   1      34.186  20.479  24.939  1.00  0.00     0.229 C 
ATOM      5  O   UNL A   1      34.196  19.236  24.892  1.00  0.00    -0.275 OA
ATOM      6  H   UNL A   1      35.582  20.278  26.283  1.00  0.00     0.163 HD
BRANCH   4   7
ATOM      7  C   UNL A   1      33.142  21.202  24.073  1.00  0.00     0.142 C 
ATOM      8  N   UNL A   1      32.351  23.475  24.396  1.00  0.00    -0.321 N 
ATOM      9  C   UNL A   1      31.605  22.619  25.323  1.00  0.00     0.264 C 
ATOM     10  C   UNL A   1      33.102  22.611  23.472  1.00  0.00     0.194 C 
ATOM     11  H   UNL A   1      31.716  24.003  23.798  1.00  0.00     0.349 HD
ATOM     12  C   UNL A   1      31.800  21.190  24.832  1.00  0.00     0.081 C 
ATOM     13  C   UNL A   1      34.269  23.111  22.628  1.00  0.00     0.076 C 
BRANCH   8  14
ATOM     14  C   UNL A   1      32.937  24.701  24.946  1.00  0.00     0.284 C 
ATOM     15  N   UNL A   1      31.757  26.755  25.017  1.00  0.00    -0.275 N 
ATOM     16  C   UNL A   1      31.770  26.304  26.302  1.00  0.00     0.236 C 
ATOM     17  C   UNL A   1      32.508  25.961  24.185  1.00  0.00     0.288 C 
ATOM     18  O   UNL A   1      31.274  26.834  27.281  1.00  0.00    -0.274 OA
ATOM     19  C   UNL A   1      32.519  25.025  26.362  1.00  0.00     0.176 C 
ATOM     20  O   UNL A   1      32.826  26.215  23.030  1.00  0.00    -0.267 OA
BRANCH  15  21
ATOM     21  C   UNL A   1      31.169  28.054  24.705  1.00  0.00     0.087 C 
ATOM     22  C   UNL A   1      32.264  29.094  24.475  1.00  0.00     0.031 C 
ATOM     23  C   UNL A   1      30.169  28.018  23.554  1.00  0.00     0.031 C 
ENDBRANCH  15  21
ENDBRANCH   8  14
ENDBRANCH   4   7
ENDBRANCH   2   3
ENDBRANCH   1   2
BRANCH   1  24
ATOM     24  C   UNL A   1      37.761  21.539  24.981  1.00  0.00     0.023 C 
BRANCH  24  25
ATOM     25  C   UNL A   1      38.943  21.363  25.923  1.00  0.00     0.116 C 
BRANCH  25  26
ATOM     26  N   UNL A   1      39.702  20.127  25.739  1.00  0.00    -0.352 N 
ATOM     27  C   UNL A   1      41.033  19.902  26.024  1.00  0.00     0.251 C 
ATOM     28  H   UNL A   1      39.203  19.365  25.366  1.00  0.00     0.163 HD
ATOM     29  O   UNL A   1      41.563  18.824  25.789  1.00  0.00    -0.269 OA
BRANCH  27  30
ATOM     30  C   UNL A   1      41.812  21.028  26.567  1.00  0.00     0.039 A 
ATOM     31  C   UNL A   1      42.354  21.960  25.680  1.00  0.00     0.014 A 
ATOM     32  C   UNL A   1      41.807  21.259  27.943  1.00  0.00     0.014 A 
ATOM     33  C   UNL A   1      42.785  23.190  26.172  1.00  0.00     0.010 A 
ATOM     34  C   UNL A   1      42.130  22.523  28.412  1.00  0.00     0.010 A 
ATOM     35  C   UNL A   1      42.606  23.508  27.530  1.00  0.00    -0.014 A 
BRANCH  35  36
ATOM     36  C   UNL A   1      42.871  24.875  28.044  1.00  0.00     0.031 A 
ATOM     37  C   UNL A   1      44.256  25.257  28.478  1.00  0.00     0.074 A 
ATOM     38  C   UNL A   1      41.847  25.737  28.210  1.00  0.00     0.049 A 
ATOM     39  N   UNL A   1      44.674  26.371  29.022  1.00  0.00    -0.248 NA
ATOM     40  C   UNL A   1      45.304  24.236  28.319  1.00  0.00     0.031 C 
ATOM     41  C   UNL A   1      40.442  25.456  27.904  1.00  0.00     0.029 A 
ATOM     42  N   UNL A   1      41.828  27.022  28.692  1.00  0.00    -0.354 N 
ATOM     43  C   UNL A   1      46.023  26.175  29.287  1.00  0.00     0.074 A 
ATOM     44  C   UNL A   1      46.338  24.817  28.909  1.00  0.00     0.031 C 
ATOM     45  C   UNL A   1      39.705  26.545  28.176  1.00  0.00     0.029 A 
ATOM     46  C   UNL A   1      40.575  27.585  28.715  1.00  0.00     0.049 A 
ATOM     47  H   UNL A   1      42.637  27.496  28.992  1.00  0.00     0.167 HD
ATOM     48  C   UNL A   1      46.925  27.059  29.775  1.00  0.00     0.037 A 
ATOM     49  C   UNL A   1      40.170  28.801  29.129  1.00  0.00     0.037 A 
ATOM     50  C   UNL A   1      46.611  28.419  30.121  1.00  0.00     0.049 A 
ATOM     51  C   UNL A   1      41.191  29.771  29.655  1.00  0.00     0.074 A 
ATOM     52  C   UNL A   1      47.468  29.422  30.534  1.00  0.00     0.029 A 
ATOM     53  N   UNL A   1      45.334  28.962  30.106  1.00  0.00    -0.354 N 
ATOM     54  N   UNL A   1      42.484  29.609  29.803  1.00  0.00    -0.248 NA
ATOM     55  C   UNL A   1      40.700  31.094  30.067  1.00  0.00     0.031 C 
ATOM     56  C   UNL A   1      46.704  30.557  30.826  1.00  0.00     0.029 A 
ATOM     57  C   UNL A   1      45.376  30.278  30.539  1.00  0.00     0.049 A 
ATOM     58  H   UNL A   1      44.520  28.485  29.828  1.00  0.00     0.167 HD
ATOM     59  C   UNL A   1      42.963  30.810  30.311  1.00  0.00     0.074 A 
ATOM     60  C   UNL A   1      41.825  31.698  30.422  1.00  0.00     0.031 C 
ATOM     61  C   UNL A   1      44.230  31.145  30.657  1.00  0.00     0.037 A 
BRANCH  48  62
ATOM     62  C   UNL A   1      48.333  26.573  29.962  1.00  0.00     0.057 A 
ATOM     63  C   UNL A   1      48.757  25.959  31.149  1.00  0.00     0.134 A 
ATOM     64  C   UNL A   1      49.278  26.713  28.938  1.00  0.00     0.134 A 
ATOM     65  F   UNL A   1      47.907  25.806  32.178  1.00  0.00    -0.206 F 
ATOM     66  C   UNL A   1      50.076  25.537  31.324  1.00  0.00     0.040 A 
ATOM     67  C   UNL A   1      50.591  26.265  29.089  1.00  0.00     0.040 A 
ATOM     68  F   UNL A   1      48.940  27.288  27.774  1.00  0.00    -0.206 F 
ATOM     69  C   UNL A   1      50.996  25.685  30.288  1.00  0.00     0.006 A 
ENDBRANCH  48  62
BRANCH  49  70
ATOM     70  C   UNL A   1      38.733  29.171  29.048  1.00  0.00     0.057 A 
ATOM     71  C   UNL A   1      38.161  29.599  27.844  1.00  0.00     0.134 A 
ATOM     72  C   UNL A   1      37.895  29.094  30.167  1.00  0.00     0.134 A 
ATOM     73  F   UNL A   1      38.917  29.711  26.741  1.00  0.00    -0.206 F 
ATOM     74  C   UNL A   1      36.813  29.948  27.757  1.00  0.00     0.040 A 
ATOM     75  C   UNL A   1      36.537  29.415  30.088  1.00  0.00     0.040 A 
ATOM     76  F   UNL A   1      38.378  28.684  31.349  1.00  0.00    -0.206 F 
ATOM     77  C   UNL A   1      35.995  29.850  28.881  1.00  0.00     0.006 A 
ENDBRANCH  49  70
BRANCH  61  78
ATOM     78  C   UNL A   1      44.454  32.533  31.181  1.00  0.00     0.057 A 
ATOM     79  C   UNL A   1      44.420  32.818  32.553  1.00  0.00     0.134 A 
ATOM     80  C   UNL A   1      44.752  33.588  30.309  1.00  0.00     0.134 A 
ATOM     81  F   UNL A   1      44.128  31.854  33.440  1.00  0.00    -0.206 F 
ATOM     82  C   UNL A   1      44.651  34.107  33.035  1.00  0.00     0.040 A 
ATOM     83  C   UNL A   1      45.015  34.874  30.782  1.00  0.00     0.040 A 
ATOM     84  F   UNL A   1      44.811  33.382  28.984  1.00  0.00    -0.206 F 
ATOM     85  C   UNL A   1      44.959  35.137  32.149  1.00  0.00     0.006 A 
ENDBRANCH  61  78
ENDBRANCH  35  36
ENDBRANCH  27  30
ENDBRANCH  25  26
ENDBRANCH  24  25
ENDBRANCH   1  24
TORSDOF 13
ENDMDL
