MODEL 1
REMARK VINA RESULT:     -11.1      0.000      0.000
REMARK SMILES C[C@@H](C(=O)NCCCCNC(=O)c1ccc(-c2c3nc(c(-c4c(F)cccc4F)c4ccc([nH]4)c(-c4c(F)cccc4F)c4nc(c(-c5c(F)cccc5F)c5ccc2[nH]5)C=C4)C=C3)cc1)c1ccc(C(=O)c2cccs2)cc1
REMARK SMILES IDX 7 1 6 2 5 3 3 4 4 5 2 7 1 8 67 9 68 10 79 11 69 12 78 13
REMARK SMILES IDX 70 14 71 15 72 16 73 17 74 18 77 19 75 20 76 21 8 22 9 23
REMARK SMILES IDX 10 24 11 25 12 27 13 28 14 29 66 30 15 31 65 32 16 33 17 34
REMARK SMILES IDX 18 35 59 36 19 37 64 38 58 39 60 40 20 41 63 42 57 43 56 44
REMARK SMILES IDX 21 46 47 47 30 48 46 49 31 50 34 51 45 52 61 53 32 54 33 55
REMARK SMILES IDX 44 57 62 58 35 59 22 60 23 61 28 62 24 63 25 64 27 65 29 66
REMARK SMILES IDX 26 67 48 68 49 69 54 70 50 71 51 72 53 73 55 74 52 75 36 76
REMARK SMILES IDX 37 77 42 78 38 79 39 80 41 81 43 82 40 83
REMARK H PARENT 5 6 10 26 60 45 34 56
REMARK Flexibility Score: inf
ROOT
ATOM      1  C   UNL A   1      36.472  19.287  25.017  1.00  0.00     0.023 C 
ENDROOT
BRANCH   1   2
ATOM      2  C   UNL A   1      35.209  20.093  24.711  1.00  0.00     0.116 C 
BRANCH   2   3
ATOM      3  N   UNL A   1      34.775  20.828  25.880  1.00  0.00    -0.356 N 
ATOM      4  C   UNL A   1      35.110  22.082  26.299  1.00  0.00     0.227 C 
ATOM      5  O   UNL A   1      34.703  22.415  27.415  1.00  0.00    -0.274 OA
ATOM      6  H   UNL A   1      34.142  20.350  26.461  1.00  0.00     0.163 HD
BRANCH   4   7
ATOM      7  C   UNL A   1      35.911  23.018  25.377  1.00  0.00     0.105 C 
ATOM      8  C   UNL A   1      37.112  23.665  26.074  1.00  0.00     0.023 C 
BRANCH   7   9
ATOM      9  C   UNL A   1      35.019  24.091  24.761  1.00  0.00    -0.036 A 
ATOM     10  C   UNL A   1      34.644  25.228  25.492  1.00  0.00     0.005 A 
ATOM     11  C   UNL A   1      34.539  23.947  23.453  1.00  0.00     0.005 A 
ATOM     12  C   UNL A   1      33.827  26.206  24.923  1.00  0.00     0.012 A 
ATOM     13  C   UNL A   1      33.726  24.931  22.878  1.00  0.00     0.012 A 
ATOM     14  C   UNL A   1      33.361  26.070  23.610  1.00  0.00     0.023 A 
BRANCH  14  15
ATOM     15  C   UNL A   1      32.531  27.180  23.039  1.00  0.00     0.202 C 
ATOM     16  O   UNL A   1      33.097  28.050  22.377  1.00  0.00    -0.288 OA
BRANCH  15  17
ATOM     17  C   UNL A   1      31.097  27.176  23.250  1.00  0.00     0.075 A 
ATOM     18  C   UNL A   1      30.298  26.227  23.856  1.00  0.00     0.024 A 
ATOM     19  S   UNL A   1      30.190  28.526  22.717  1.00  0.00    -0.140 S 
ATOM     20  C   UNL A   1      28.921  26.596  23.838  1.00  0.00     0.012 A 
ATOM     21  C   UNL A   1      28.723  27.820  23.239  1.00  0.00     0.065 A 
ENDBRANCH  15  17
ENDBRANCH  14  15
ENDBRANCH   7   9
ENDBRANCH   4   7
ENDBRANCH   2   3
ENDBRANCH   1   2
BRANCH   1  22
ATOM     22  C   UNL A   1      37.778  19.982  24.618  1.00  0.00     0.023 C 
BRANCH  22  23
ATOM     23  C   UNL A   1      38.752  20.225  25.762  1.00  0.00     0.116 C 
BRANCH  23  24
ATOM     24  N   UNL A   1      39.866  19.291  25.759  1.00  0.00    -0.352 N 
ATOM     25  C   UNL A   1      41.184  19.520  26.064  1.00  0.00     0.251 C 
ATOM     26  H   UNL A   1      39.645  18.368  25.501  1.00  0.00     0.163 HD
ATOM     27  O   UNL A   1      42.023  18.644  25.863  1.00  0.00    -0.269 OA
BRANCH  25  28
ATOM     28  C   UNL A   1      41.599  20.829  26.610  1.00  0.00     0.039 A 
ATOM     29  C   UNL A   1      42.103  21.794  25.734  1.00  0.00     0.014 A 
ATOM     30  C   UNL A   1      41.488  21.107  27.975  1.00  0.00     0.014 A 
ATOM     31  C   UNL A   1      42.446  23.055  26.222  1.00  0.00     0.010 A 
ATOM     32  C   UNL A   1      41.751  22.391  28.443  1.00  0.00     0.010 A 
ATOM     33  C   UNL A   1      42.244  23.375  27.574  1.00  0.00    -0.014 A 
BRANCH  33  34
ATOM     34  C   UNL A   1      42.557  24.730  28.095  1.00  0.00     0.031 A 
ATOM     35  C   UNL A   1      43.966  25.086  28.481  1.00  0.00     0.074 A 
ATOM     36  C   UNL A   1      41.564  25.624  28.266  1.00  0.00     0.049 A 
ATOM     37  N   UNL A   1      44.430  26.204  28.980  1.00  0.00    -0.248 NA
ATOM     38  C   UNL A   1      44.985  24.038  28.309  1.00  0.00     0.031 C 
ATOM     39  C   UNL A   1      40.149  25.385  27.973  1.00  0.00     0.029 A 
ATOM     40  N   UNL A   1      41.594  26.915  28.727  1.00  0.00    -0.354 N 
ATOM     41  C   UNL A   1      45.787  25.990  29.190  1.00  0.00     0.074 A 
ATOM     42  C   UNL A   1      46.059  24.617  28.826  1.00  0.00     0.031 C 
ATOM     43  C   UNL A   1      39.452  26.504  28.228  1.00  0.00     0.029 A 
ATOM     44  C   UNL A   1      40.361  27.525  28.740  1.00  0.00     0.049 A 
ATOM     45  H   UNL A   1      42.419  27.364  29.021  1.00  0.00     0.167 HD
ATOM     46  C   UNL A   1      46.727  26.864  29.621  1.00  0.00     0.037 A 
ATOM     47  C   UNL A   1      40.006  28.765  29.123  1.00  0.00     0.037 A 
ATOM     48  C   UNL A   1      46.455  28.235  29.969  1.00  0.00     0.049 A 
ATOM     49  C   UNL A   1      41.066  29.711  29.619  1.00  0.00     0.074 A 
ATOM     50  C   UNL A   1      47.345  29.217  30.364  1.00  0.00     0.029 A 
ATOM     51  N   UNL A   1      45.194  28.814  29.969  1.00  0.00    -0.354 N 
ATOM     52  N   UNL A   1      42.357  29.519  29.741  1.00  0.00    -0.248 NA
ATOM     53  C   UNL A   1      40.616  31.050  30.025  1.00  0.00     0.031 C 
ATOM     54  C   UNL A   1      46.617  30.375  30.657  1.00  0.00     0.029 A 
ATOM     55  C   UNL A   1      45.280  30.134  30.384  1.00  0.00     0.049 A 
ATOM     56  H   UNL A   1      44.361  28.357  29.712  1.00  0.00     0.167 HD
ATOM     57  C   UNL A   1      42.879  30.722  30.201  1.00  0.00     0.074 A 
ATOM     58  C   UNL A   1      41.765  31.640  30.322  1.00  0.00     0.031 C 
ATOM     59  C   UNL A   1      44.164  31.039  30.494  1.00  0.00     0.037 A 
BRANCH  46  60
ATOM     60  C   UNL A   1      48.137  26.360  29.743  1.00  0.00     0.057 A 
ATOM     61  C   UNL A   1      49.047  26.436  28.679  1.00  0.00     0.134 A 
ATOM     62  C   UNL A   1      48.600  25.811  30.946  1.00  0.00     0.134 A 
ATOM     63  F   UNL A   1      48.668  26.938  27.494  1.00  0.00    -0.206 F 
ATOM     64  C   UNL A   1      50.352  25.953  28.796  1.00  0.00     0.040 A 
ATOM     65  C   UNL A   1      49.912  25.356  31.086  1.00  0.00     0.040 A 
ATOM     66  F   UNL A   1      47.786  25.714  32.008  1.00  0.00    -0.206 F 
ATOM     67  C   UNL A   1      50.789  25.417  30.005  1.00  0.00     0.006 A 
ENDBRANCH  46  60
BRANCH  47  68
ATOM     68  C   UNL A   1      38.589  29.199  29.027  1.00  0.00     0.057 A 
ATOM     69  C   UNL A   1      37.743  29.152  30.142  1.00  0.00     0.134 A 
ATOM     70  C   UNL A   1      38.041  29.655  27.823  1.00  0.00     0.134 A 
ATOM     71  F   UNL A   1      38.204  28.707  31.320  1.00  0.00    -0.206 F 
ATOM     72  C   UNL A   1      36.398  29.517  30.058  1.00  0.00     0.040 A 
ATOM     73  C   UNL A   1      36.706  30.052  27.731  1.00  0.00     0.040 A 
ATOM     74  F   UNL A   1      38.799  29.734  26.720  1.00  0.00    -0.206 F 
ATOM     75  C   UNL A   1      35.877  29.973  28.849  1.00  0.00     0.006 A 
ENDBRANCH  47  68
BRANCH  59  76
ATOM     76  C   UNL A   1      44.441  32.450  30.929  1.00  0.00     0.057 A 
ATOM     77  C   UNL A   1      44.448  32.825  32.279  1.00  0.00     0.134 A 
ATOM     78  C   UNL A   1      44.734  33.441  29.982  1.00  0.00     0.134 A 
ATOM     79  F   UNL A   1      44.165  31.929  33.237  1.00  0.00    -0.206 F 
ATOM     80  C   UNL A   1      44.704  34.141  32.669  1.00  0.00     0.040 A 
ATOM     81  C   UNL A   1      45.022  34.752  30.362  1.00  0.00     0.040 A 
ATOM     82  F   UNL A   1      44.754  33.148  28.674  1.00  0.00    -0.206 F 
ATOM     83  C   UNL A   1      44.999  35.107  31.709  1.00  0.00     0.006 A 
ENDBRANCH  59  76
ENDBRANCH  33  34
ENDBRANCH  25  28
ENDBRANCH  23  24
ENDBRANCH  22  23
ENDBRANCH   1  22
TORSDOF 14
ENDMDL
MODEL 2
REMARK VINA RESULT:     -10.9      1.337      2.117
REMARK SMILES C[C@@H](C(=O)NCCCCNC(=O)c1ccc(-c2c3nc(c(-c4c(F)cccc4F)c4ccc([nH]4)c(-c4c(F)cccc4F)c4nc(c(-c5c(F)cccc5F)c5ccc2[nH]5)C=C4)C=C3)cc1)c1ccc(C(=O)c2cccs2)cc1
REMARK SMILES IDX 7 1 6 2 5 3 3 4 4 5 2 7 1 8 67 9 68 10 79 11 69 12 78 13
REMARK SMILES IDX 70 14 71 15 72 16 73 17 74 18 77 19 75 20 76 21 8 22 9 23
REMARK SMILES IDX 10 24 11 25 12 27 13 28 14 29 66 30 15 31 65 32 16 33 17 34
REMARK SMILES IDX 18 35 59 36 19 37 64 38 58 39 60 40 20 41 63 42 57 43 56 44
REMARK SMILES IDX 21 46 47 47 30 48 46 49 31 50 34 51 45 52 61 53 32 54 33 55
REMARK SMILES IDX 44 57 62 58 35 59 22 60 23 61 28 62 24 63 25 64 27 65 29 66
REMARK SMILES IDX 26 67 48 68 49 69 54 70 50 71 51 72 53 73 55 74 52 75 36 76
REMARK SMILES IDX 37 77 42 78 38 79 39 80 41 81 43 82 40 83
REMARK H PARENT 5 6 10 26 60 45 34 56
REMARK Flexibility Score: inf
ROOT
ATOM      1  C   UNL A   1      39.299  22.458  26.357  1.00  0.00     0.023 C 
ENDROOT
BRANCH   1   2
ATOM      2  C   UNL A   1      38.067  23.353  26.217  1.00  0.00     0.116 C 
BRANCH   2   3
ATOM      3  N   UNL A   1      37.661  23.452  24.832  1.00  0.00    -0.356 N 
ATOM      4  C   UNL A   1      36.513  23.034  24.224  1.00  0.00     0.227 C 
ATOM      5  O   UNL A   1      36.483  23.116  22.994  1.00  0.00    -0.274 OA
ATOM      6  H   UNL A   1      38.312  23.887  24.237  1.00  0.00     0.163 HD
BRANCH   4   7
ATOM      7  C   UNL A   1      35.325  22.542  25.070  1.00  0.00     0.105 C 
ATOM      8  C   UNL A   1      34.578  21.367  24.430  1.00  0.00     0.023 C 
BRANCH   7   9
ATOM      9  C   UNL A   1      34.353  23.678  25.379  1.00  0.00    -0.036 A 
ATOM     10  C   UNL A   1      34.598  24.983  24.928  1.00  0.00     0.005 A 
ATOM     11  C   UNL A   1      33.204  23.436  26.141  1.00  0.00     0.005 A 
ATOM     12  C   UNL A   1      33.706  26.017  25.213  1.00  0.00     0.012 A 
ATOM     13  C   UNL A   1      32.303  24.470  26.423  1.00  0.00     0.012 A 
ATOM     14  C   UNL A   1      32.548  25.772  25.962  1.00  0.00     0.023 A 
BRANCH  14  15
ATOM     15  C   UNL A   1      31.603  26.914  26.190  1.00  0.00     0.202 C 
ATOM     16  O   UNL A   1      31.391  27.273  27.348  1.00  0.00    -0.288 OA
BRANCH  15  17
ATOM     17  C   UNL A   1      31.004  27.578  25.050  1.00  0.00     0.075 A 
ATOM     18  C   UNL A   1      30.087  27.101  24.133  1.00  0.00     0.024 A 
ATOM     19  S   UNL A   1      31.427  29.207  24.738  1.00  0.00    -0.140 S 
ATOM     20  C   UNL A   1      29.768  28.073  23.140  1.00  0.00     0.012 A 
ATOM     21  C   UNL A   1      30.435  29.260  23.347  1.00  0.00     0.065 A 
ENDBRANCH  15  17
ENDBRANCH  14  15
ENDBRANCH   7   9
ENDBRANCH   4   7
ENDBRANCH   2   3
ENDBRANCH   1   2
BRANCH   1  22
ATOM     22  C   UNL A   1      39.206  21.130  25.600  1.00  0.00     0.023 C 
BRANCH  22  23
ATOM     23  C   UNL A   1      39.618  19.903  26.401  1.00  0.00     0.116 C 
BRANCH  23  24
ATOM     24  N   UNL A   1      40.810  19.261  25.871  1.00  0.00    -0.352 N 
ATOM     25  C   UNL A   1      42.084  19.758  25.769  1.00  0.00     0.251 C 
ATOM     26  H   UNL A   1      40.685  18.343  25.540  1.00  0.00     0.163 HD
ATOM     27  O   UNL A   1      42.942  19.128  25.155  1.00  0.00    -0.269 OA
BRANCH  25  28
ATOM     28  C   UNL A   1      42.417  21.064  26.374  1.00  0.00     0.039 A 
ATOM     29  C   UNL A   1      42.767  22.124  25.535  1.00  0.00     0.014 A 
ATOM     30  C   UNL A   1      42.381  21.245  27.760  1.00  0.00     0.014 A 
ATOM     31  C   UNL A   1      43.029  23.380  26.084  1.00  0.00     0.010 A 
ATOM     32  C   UNL A   1      42.561  22.517  28.296  1.00  0.00     0.010 A 
ATOM     33  C   UNL A   1      42.898  23.595  27.465  1.00  0.00    -0.014 A 
BRANCH  33  34
ATOM     34  C   UNL A   1      43.125  24.938  28.056  1.00  0.00     0.031 A 
ATOM     35  C   UNL A   1      44.506  25.356  28.480  1.00  0.00     0.074 A 
ATOM     36  C   UNL A   1      42.079  25.764  28.253  1.00  0.00     0.049 A 
ATOM     37  N   UNL A   1      44.897  26.474  29.039  1.00  0.00    -0.248 NA
ATOM     38  C   UNL A   1      45.587  24.379  28.274  1.00  0.00     0.031 C 
ATOM     39  C   UNL A   1      40.685  25.458  27.928  1.00  0.00     0.029 A 
ATOM     40  N   UNL A   1      42.027  27.031  28.777  1.00  0.00    -0.354 N 
ATOM     41  C   UNL A   1      46.261  26.328  29.260  1.00  0.00     0.074 A 
ATOM     42  C   UNL A   1      46.617  24.993  28.834  1.00  0.00     0.031 C 
ATOM     43  C   UNL A   1      39.920  26.521  28.225  1.00  0.00     0.029 A 
ATOM     44  C   UNL A   1      40.761  27.567  28.800  1.00  0.00     0.049 A 
ATOM     45  H   UNL A   1      42.821  27.512  29.105  1.00  0.00     0.167 HD
ATOM     46  C   UNL A   1      47.143  27.233  29.747  1.00  0.00     0.037 A 
ATOM     47  C   UNL A   1      40.329  28.764  29.237  1.00  0.00     0.037 A 
ATOM     48  C   UNL A   1      46.786  28.567  30.156  1.00  0.00     0.049 A 
ATOM     49  C   UNL A   1      41.325  29.745  29.794  1.00  0.00     0.074 A 
ATOM     50  C   UNL A   1      47.613  29.579  30.612  1.00  0.00     0.029 A 
ATOM     51  N   UNL A   1      45.495  29.072  30.165  1.00  0.00    -0.354 N 
ATOM     52  N   UNL A   1      42.623  29.622  29.927  1.00  0.00    -0.248 NA
ATOM     53  C   UNL A   1      40.792  31.034  30.256  1.00  0.00     0.031 C 
ATOM     54  C   UNL A   1      46.814  30.677  30.949  1.00  0.00     0.029 A 
ATOM     55  C   UNL A   1      45.497  30.373  30.644  1.00  0.00     0.049 A 
ATOM     56  H   UNL A   1      44.693  28.580  29.874  1.00  0.00     0.167 HD
ATOM     57  C   UNL A   1      43.068  30.830  30.452  1.00  0.00     0.074 A 
ATOM     58  C   UNL A   1      41.901  31.674  30.600  1.00  0.00     0.031 C 
ATOM     59  C   UNL A   1      44.329  31.205  30.780  1.00  0.00     0.037 A 
BRANCH  46  60
ATOM     60  C   UNL A   1      48.579  26.806  29.867  1.00  0.00     0.057 A 
ATOM     61  C   UNL A   1      49.502  27.010  28.832  1.00  0.00     0.134 A 
ATOM     62  C   UNL A   1      49.051  26.203  31.040  1.00  0.00     0.134 A 
ATOM     63  F   UNL A   1      49.116  27.571  27.675  1.00  0.00    -0.206 F 
ATOM     64  C   UNL A   1      50.832  26.598  28.946  1.00  0.00     0.040 A 
ATOM     65  C   UNL A   1      50.385  25.817  31.178  1.00  0.00     0.040 A 
ATOM     66  F   UNL A   1      48.224  25.984  32.074  1.00  0.00    -0.206 F 
ATOM     67  C   UNL A   1      51.278  26.006  30.125  1.00  0.00     0.006 A 
ENDBRANCH  46  60
BRANCH  47  68
ATOM     68  C   UNL A   1      38.890  29.120  29.139  1.00  0.00     0.057 A 
ATOM     69  C   UNL A   1      38.333  29.543  27.927  1.00  0.00     0.134 A 
ATOM     70  C   UNL A   1      38.043  29.062  30.252  1.00  0.00     0.134 A 
ATOM     71  F   UNL A   1      39.098  29.636  26.829  1.00  0.00    -0.206 F 
ATOM     72  C   UNL A   1      36.992  29.920  27.828  1.00  0.00     0.040 A 
ATOM     73  C   UNL A   1      36.693  29.408  30.161  1.00  0.00     0.040 A 
ATOM     74  F   UNL A   1      38.511  28.656  31.440  1.00  0.00    -0.206 F 
ATOM     75  C   UNL A   1      36.167  29.849  28.948  1.00  0.00     0.006 A 
ENDBRANCH  47  68
BRANCH  59  76
ATOM     76  C   UNL A   1      44.517  32.606  31.287  1.00  0.00     0.057 A 
ATOM     77  C   UNL A   1      44.739  33.687  30.424  1.00  0.00     0.134 A 
ATOM     78  C   UNL A   1      44.447  32.881  32.660  1.00  0.00     0.134 A 
ATOM     79  F   UNL A   1      44.830  33.493  29.099  1.00  0.00    -0.206 F 
ATOM     80  C   UNL A   1      44.917  34.984  30.909  1.00  0.00     0.040 A 
ATOM     81  C   UNL A   1      44.591  34.178  33.153  1.00  0.00     0.040 A 
ATOM     82  F   UNL A   1      44.226  31.896  33.542  1.00  0.00    -0.206 F 
ATOM     83  C   UNL A   1      44.836  35.233  32.278  1.00  0.00     0.006 A 
ENDBRANCH  59  76
ENDBRANCH  33  34
ENDBRANCH  25  28
ENDBRANCH  23  24
ENDBRANCH  22  23
ENDBRANCH   1  22
TORSDOF 14
ENDMDL
MODEL 3
REMARK VINA RESULT:     -10.8      4.744     10.433
REMARK SMILES C[C@@H](C(=O)NCCCCNC(=O)c1ccc(-c2c3nc(c(-c4c(F)cccc4F)c4ccc([nH]4)c(-c4c(F)cccc4F)c4nc(c(-c5c(F)cccc5F)c5ccc2[nH]5)C=C4)C=C3)cc1)c1ccc(C(=O)c2cccs2)cc1
REMARK SMILES IDX 7 1 6 2 5 3 3 4 4 5 2 7 1 8 67 9 68 10 79 11 69 12 78 13
REMARK SMILES IDX 70 14 71 15 72 16 73 17 74 18 77 19 75 20 76 21 8 22 9 23
REMARK SMILES IDX 10 24 11 25 12 27 13 28 14 29 66 30 15 31 65 32 16 33 17 34
REMARK SMILES IDX 18 35 59 36 19 37 64 38 58 39 60 40 20 41 63 42 57 43 56 44
REMARK SMILES IDX 21 46 47 47 30 48 46 49 31 50 34 51 45 52 61 53 32 54 33 55
REMARK SMILES IDX 44 57 62 58 35 59 22 60 23 61 28 62 24 63 25 64 27 65 29 66
REMARK SMILES IDX 26 67 48 68 49 69 54 70 50 71 51 72 53 73 55 74 52 75 36 76
REMARK SMILES IDX 37 77 42 78 38 79 39 80 41 81 43 82 40 83
REMARK H PARENT 5 6 10 26 60 45 34 56
REMARK Flexibility Score: inf
ROOT
ATOM      1  C   UNL A   1      33.949  35.442  29.169  1.00  0.00     0.023 C 
ENDROOT
BRANCH   1   2
ATOM      2  C   UNL A   1      33.807  34.628  30.456  1.00  0.00     0.116 C 
BRANCH   2   3
ATOM      3  N   UNL A   1      34.378  35.340  31.578  1.00  0.00    -0.356 N 
ATOM      4  C   UNL A   1      35.322  34.942  32.479  1.00  0.00     0.227 C 
ATOM      5  O   UNL A   1      35.528  35.700  33.429  1.00  0.00    -0.274 OA
ATOM      6  H   UNL A   1      34.034  36.252  31.711  1.00  0.00     0.163 HD
BRANCH   4   7
ATOM      7  C   UNL A   1      36.101  33.634  32.256  1.00  0.00     0.105 C 
ATOM      8  C   UNL A   1      36.336  32.846  33.549  1.00  0.00     0.023 C 
BRANCH   7   9
ATOM      9  C   UNL A   1      37.428  33.889  31.547  1.00  0.00    -0.036 A 
ATOM     10  C   UNL A   1      38.568  34.282  32.264  1.00  0.00     0.005 A 
ATOM     11  C   UNL A   1      37.524  33.756  30.156  1.00  0.00     0.005 A 
ATOM     12  C   UNL A   1      39.779  34.514  31.611  1.00  0.00     0.012 A 
ATOM     13  C   UNL A   1      38.739  33.981  29.499  1.00  0.00     0.012 A 
ATOM     14  C   UNL A   1      39.879  34.365  30.221  1.00  0.00     0.023 A 
BRANCH  14  15
ATOM     15  C   UNL A   1      41.219  34.578  29.586  1.00  0.00     0.202 C 
ATOM     16  O   UNL A   1      41.396  35.601  28.925  1.00  0.00    -0.288 OA
BRANCH  15  17
ATOM     17  C   UNL A   1      42.269  33.601  29.797  1.00  0.00     0.075 A 
ATOM     18  C   UNL A   1      42.188  32.224  29.877  1.00  0.00     0.024 A 
ATOM     19  S   UNL A   1      43.880  34.155  29.960  1.00  0.00    -0.140 S 
ATOM     20  C   UNL A   1      43.460  31.627  30.120  1.00  0.00     0.012 A 
ATOM     21  C   UNL A   1      44.465  32.566  30.196  1.00  0.00     0.065 A 
ENDBRANCH  15  17
ENDBRANCH  14  15
ENDBRANCH   7   9
ENDBRANCH   4   7
ENDBRANCH   2   3
ENDBRANCH   1   2
BRANCH   1  22
ATOM     22  C   UNL A   1      34.390  34.626  27.950  1.00  0.00     0.023 C 
BRANCH  22  23
ATOM     23  C   UNL A   1      34.872  33.216  28.260  1.00  0.00     0.116 C 
BRANCH  23  24
ATOM     24  N   UNL A   1      33.990  32.190  27.728  1.00  0.00    -0.352 N 
ATOM     25  C   UNL A   1      34.229  30.850  27.557  1.00  0.00     0.251 C 
ATOM     26  H   UNL A   1      33.099  32.500  27.452  1.00  0.00     0.163 HD
ATOM     27  O   UNL A   1      33.418  30.153  26.951  1.00  0.00    -0.269 OA
BRANCH  25  28
ATOM     28  C   UNL A   1      35.476  30.251  28.078  1.00  0.00     0.039 A 
ATOM     29  C   UNL A   1      36.600  30.212  27.251  1.00  0.00     0.014 A 
ATOM     30  C   UNL A   1      35.538  29.734  29.376  1.00  0.00     0.014 A 
ATOM     31  C   UNL A   1      37.802  29.702  27.745  1.00  0.00     0.010 A 
ATOM     32  C   UNL A   1      36.756  29.304  29.891  1.00  0.00     0.010 A 
ATOM     33  C   UNL A   1      37.898  29.273  29.078  1.00  0.00    -0.014 A 
BRANCH  33  34
ATOM     34  C   UNL A   1      39.184  28.775  29.631  1.00  0.00     0.031 A 
ATOM     35  C   UNL A   1      39.785  29.420  30.849  1.00  0.00     0.074 A 
ATOM     36  C   UNL A   1      39.833  27.772  29.007  1.00  0.00     0.049 A 
ATOM     37  N   UNL A   1      40.909  29.144  31.461  1.00  0.00    -0.248 NA
ATOM     38  C   UNL A   1      39.037  30.539  31.444  1.00  0.00     0.031 C 
ATOM     39  C   UNL A   1      39.378  27.095  27.792  1.00  0.00     0.029 A 
ATOM     40  N   UNL A   1      41.016  27.148  29.312  1.00  0.00    -0.354 N 
ATOM     41  C   UNL A   1      41.007  30.060  32.501  1.00  0.00     0.074 A 
ATOM     42  C   UNL A   1      39.863  30.939  32.399  1.00  0.00     0.031 C 
ATOM     43  C   UNL A   1      40.252  26.127  27.474  1.00  0.00     0.029 A 
ATOM     44  C   UNL A   1      41.349  26.141  28.438  1.00  0.00     0.049 A 
ATOM     45  H   UNL A   1      41.574  27.398  30.084  1.00  0.00     0.167 HD
ATOM     46  C   UNL A   1      41.949  30.146  33.470  1.00  0.00     0.037 A 
ATOM     47  C   UNL A   1      42.418  25.324  28.415  1.00  0.00     0.037 A 
ATOM     48  C   UNL A   1      43.080  29.260  33.577  1.00  0.00     0.049 A 
ATOM     49  C   UNL A   1      43.462  25.453  29.491  1.00  0.00     0.074 A 
ATOM     50  C   UNL A   1      44.061  29.229  34.552  1.00  0.00     0.029 A 
ATOM     51  N   UNL A   1      43.382  28.253  32.673  1.00  0.00    -0.354 N 
ATOM     52  N   UNL A   1      43.503  26.274  30.511  1.00  0.00    -0.248 NA
ATOM     53  C   UNL A   1      44.606  24.534  29.412  1.00  0.00     0.031 C 
ATOM     54  C   UNL A   1      44.988  28.239  34.207  1.00  0.00     0.029 A 
ATOM     55  C   UNL A   1      44.551  27.612  33.052  1.00  0.00     0.049 A 
ATOM     56  H   UNL A   1      42.846  28.027  31.878  1.00  0.00     0.167 HD
ATOM     57  C   UNL A   1      44.656  25.948  31.217  1.00  0.00     0.074 A 
ATOM     58  C   UNL A   1      45.276  24.845  30.513  1.00  0.00     0.031 C 
ATOM     59  C   UNL A   1      45.154  26.510  32.345  1.00  0.00     0.037 A 
BRANCH  46  60
ATOM     60  C   UNL A   1      41.797  31.241  34.489  1.00  0.00     0.057 A 
ATOM     61  C   UNL A   1      41.104  31.044  35.691  1.00  0.00     0.134 A 
ATOM     62  C   UNL A   1      42.369  32.502  34.276  1.00  0.00     0.134 A 
ATOM     63  F   UNL A   1      40.520  29.865  35.955  1.00  0.00    -0.206 F 
ATOM     64  C   UNL A   1      40.955  32.069  36.627  1.00  0.00     0.040 A 
ATOM     65  C   UNL A   1      42.256  33.525  35.219  1.00  0.00     0.040 A 
ATOM     66  F   UNL A   1      43.053  32.759  33.151  1.00  0.00    -0.206 F 
ATOM     67  C   UNL A   1      41.539  33.313  36.394  1.00  0.00     0.006 A 
ENDBRANCH  46  60
BRANCH  47  68
ATOM     68  C   UNL A   1      42.544  24.288  27.358  1.00  0.00     0.057 A 
ATOM     69  C   UNL A   1      42.088  22.982  27.570  1.00  0.00     0.134 A 
ATOM     70  C   UNL A   1      43.135  24.570  26.121  1.00  0.00     0.134 A 
ATOM     71  F   UNL A   1      41.528  22.644  28.741  1.00  0.00    -0.206 F 
ATOM     72  C   UNL A   1      42.237  21.987  26.602  1.00  0.00     0.040 A 
ATOM     73  C   UNL A   1      43.264  23.593  25.132  1.00  0.00     0.040 A 
ATOM     74  F   UNL A   1      43.585  25.804  25.850  1.00  0.00    -0.206 F 
ATOM     75  C   UNL A   1      42.824  22.294  25.376  1.00  0.00     0.006 A 
ENDBRANCH  47  68
BRANCH  59  76
ATOM     76  C   UNL A   1      46.407  25.909  32.916  1.00  0.00     0.057 A 
ATOM     77  C   UNL A   1      47.681  26.373  32.567  1.00  0.00     0.134 A 
ATOM     78  C   UNL A   1      46.333  24.867  33.851  1.00  0.00     0.134 A 
ATOM     79  F   UNL A   1      47.824  27.360  31.669  1.00  0.00    -0.206 F 
ATOM     80  C   UNL A   1      48.838  25.802  33.102  1.00  0.00     0.040 A 
ATOM     81  C   UNL A   1      47.481  24.311  34.417  1.00  0.00     0.040 A 
ATOM     82  F   UNL A   1      45.145  24.381  34.238  1.00  0.00    -0.206 F 
ATOM     83  C   UNL A   1      48.738  24.772  34.036  1.00  0.00     0.006 A 
ENDBRANCH  59  76
ENDBRANCH  33  34
ENDBRANCH  25  28
ENDBRANCH  23  24
ENDBRANCH  22  23
ENDBRANCH   1  22
TORSDOF 14
ENDMDL
