MODEL 1
REMARK VINA RESULT:     -12.4      0.000      0.000
REMARK SMILES CCN(CC)c1ccc([C@@H]2[NH2+][C@@H](C(=O)NCCCCNC(=O)c3ccc(-c4c5nc(c(-c6c(F)cccc6F)c6ccc([nH]6)c(-c6c(F)cccc6F)c6nc(c(-c7c(F)cccc7F)c7ccc4[nH]7)C=C6)C=C5)cc3)Cc3c2[nH]c2ccccc32)cc1
REMARK SMILES IDX 17 1 16 2 15 3 13 4 14 5 12 7 10 8 11 9 79 10 78 13 80 14
REMARK SMILES IDX 77 15 86 16 81 17 85 19 82 20 84 21 83 22 9 23 6 24 7 25
REMARK SMILES IDX 88 26 8 27 87 28 3 29 2 30 1 31 4 32 5 33 18 34 19 35 20 36
REMARK SMILES IDX 21 37 22 39 23 40 24 41 76 42 25 43 75 44 26 45 27 46 28 47
REMARK SMILES IDX 69 48 29 49 74 50 68 51 70 52 30 53 73 54 67 55 66 56 31 58
REMARK SMILES IDX 57 59 40 60 56 61 41 62 44 63 55 64 71 65 42 66 43 67 54 69
REMARK SMILES IDX 72 70 45 71 32 72 33 73 38 74 34 75 35 76 37 77 39 78 36 79
REMARK SMILES IDX 58 80 59 81 64 82 60 83 61 84 63 85 65 86 62 87 46 88 47 89
REMARK SMILES IDX 52 90 48 91 49 92 51 93 53 94 50 95
REMARK H PARENT 15 6 11 11 11 12 80 18 20 38 70 57 44 68
REMARK Flexibility Score: inf
ROOT
ATOM      1  C   UNL A   1      33.014  28.901  25.049  1.00  0.00     0.023 C 
ENDROOT
BRANCH   1   2
ATOM      2  C   UNL A   1      31.724  28.090  25.152  1.00  0.00     0.116 C 
BRANCH   2   3
ATOM      3  N   UNL A   1      30.922  28.187  23.952  1.00  0.00    -0.351 N 
ATOM      4  C   UNL A   1      30.984  27.440  22.806  1.00  0.00     0.278 C 
ATOM      5  O   UNL A   1      30.334  27.853  21.838  1.00  0.00    -0.268 OA
ATOM      6  H   UNL A   1      30.233  28.889  23.961  1.00  0.00     0.163 HD
BRANCH   4   7
ATOM      7  C   UNL A   1      31.768  26.103  22.708  1.00  0.00     0.277 C 
ATOM      8  C   UNL A   1      31.765  24.446  24.690  1.00  0.00     0.262 C 
ATOM      9  N   UNL A   1      31.077  25.072  23.525  1.00  0.00    -0.325 N 
ATOM     10  C   UNL A   1      33.191  24.870  24.719  1.00  0.00     0.083 A 
ATOM     11  H   UNL A   1      30.228  25.506  23.887  1.00  0.00     0.347 HD
ATOM     12  H   UNL A   1      30.974  24.294  22.874  1.00  0.00     0.347 HD
ATOM     13  C   UNL A   1      33.950  25.291  23.653  1.00  0.00    -0.006 A 
ATOM     14  N   UNL A   1      34.101  24.954  25.743  1.00  0.00    -0.353 N 
ATOM     15  C   UNL A   1      33.316  26.207  22.682  1.00  0.00     0.114 C 
ATOM     16  C   UNL A   1      35.049  24.409  23.818  1.00  0.00     0.003 A 
ATOM     17  C   UNL A   1      35.289  24.488  25.198  1.00  0.00     0.046 A 
ATOM     18  H   UNL A   1      33.946  25.276  26.660  1.00  0.00     0.166 HD
ATOM     19  C   UNL A   1      35.801  23.466  23.087  1.00  0.00     0.010 A 
ATOM     20  C   UNL A   1      36.423  23.979  25.825  1.00  0.00     0.026 A 
ATOM     21  C   UNL A   1      36.773  22.712  23.782  1.00  0.00     0.001 A 
ATOM     22  C   UNL A   1      37.131  23.026  25.096  1.00  0.00     0.002 A 
BRANCH   8  23
ATOM     23  C   UNL A   1      31.577  22.916  24.488  1.00  0.00     0.016 A 
ATOM     24  C   UNL A   1      32.386  20.204  24.179  1.00  0.00     0.037 A 
ATOM     25  C   UNL A   1      31.886  20.690  25.391  1.00  0.00     0.026 A 
ATOM     26  C   UNL A   1      32.230  21.045  23.076  1.00  0.00     0.026 A 
ATOM     27  C   UNL A   1      31.469  22.018  25.546  1.00  0.00     0.012 A 
ATOM     28  C   UNL A   1      31.790  22.365  23.212  1.00  0.00     0.012 A 
BRANCH  24  29
ATOM     29  N   UNL A   1      33.021  18.975  24.070  1.00  0.00    -0.372 N 
BRANCH  29  30
ATOM     30  C   UNL A   1      32.712  18.085  22.933  1.00  0.00     0.113 C 
ATOM     31  C   UNL A   1      33.698  16.939  22.760  1.00  0.00     0.027 C 
ENDBRANCH  29  30
BRANCH  29  32
ATOM     32  C   UNL A   1      34.248  18.703  24.825  1.00  0.00     0.113 C 
ATOM     33  C   UNL A   1      35.224  19.874  24.874  1.00  0.00     0.027 C 
ENDBRANCH  29  32
ENDBRANCH  24  29
ENDBRANCH   8  23
ENDBRANCH   4   7
ENDBRANCH   2   3
ENDBRANCH   1   2
BRANCH   1  34
ATOM     34  C   UNL A   1      34.107  28.509  26.045  1.00  0.00     0.023 C 
BRANCH  34  35
ATOM     35  C   UNL A   1      33.747  28.694  27.518  1.00  0.00     0.116 C 
BRANCH  35  36
ATOM     36  N   UNL A   1      33.820  30.084  27.956  1.00  0.00    -0.352 N 
ATOM     37  C   UNL A   1      34.861  30.775  28.525  1.00  0.00     0.251 C 
ATOM     38  H   UNL A   1      32.995  30.607  27.825  1.00  0.00     0.163 HD
ATOM     39  O   UNL A   1      34.683  31.913  28.963  1.00  0.00    -0.269 OA
BRANCH  37  40
ATOM     40  C   UNL A   1      36.194  30.149  28.637  1.00  0.00     0.039 A 
ATOM     41  C   UNL A   1      37.090  30.242  27.566  1.00  0.00     0.014 A 
ATOM     42  C   UNL A   1      36.564  29.486  29.808  1.00  0.00     0.014 A 
ATOM     43  C   UNL A   1      38.391  29.750  27.707  1.00  0.00     0.010 A 
ATOM     44  C   UNL A   1      37.880  29.070  29.974  1.00  0.00     0.010 A 
ATOM     45  C   UNL A   1      38.810  29.202  28.929  1.00  0.00    -0.014 A 
BRANCH  45  46
ATOM     46  C   UNL A   1      40.203  28.741  29.160  1.00  0.00     0.031 A 
ATOM     47  C   UNL A   1      41.220  29.704  29.706  1.00  0.00     0.074 A 
ATOM     48  C   UNL A   1      40.582  27.507  28.775  1.00  0.00     0.049 A 
ATOM     49  N   UNL A   1      42.518  29.579  29.796  1.00  0.00    -0.248 NA
ATOM     50  C   UNL A   1      40.704  30.996  30.184  1.00  0.00     0.031 C 
ATOM     51  C   UNL A   1      39.699  26.482  28.218  1.00  0.00     0.029 A 
ATOM     52  N   UNL A   1      41.822  26.915  28.769  1.00  0.00    -0.354 N 
ATOM     53  C   UNL A   1      42.977  30.783  30.313  1.00  0.00     0.074 A 
ATOM     54  C   UNL A   1      41.823  31.644  30.469  1.00  0.00     0.031 C 
ATOM     55  C   UNL A   1      40.421  25.386  27.932  1.00  0.00     0.029 A 
ATOM     56  C   UNL A   1      41.826  25.649  28.233  1.00  0.00     0.049 A 
ATOM     57  H   UNL A   1      42.630  27.356  29.116  1.00  0.00     0.167 HD
ATOM     58  C   UNL A   1      44.241  31.135  30.646  1.00  0.00     0.037 A 
ATOM     59  C   UNL A   1      42.849  24.807  27.989  1.00  0.00     0.037 A 
ATOM     60  C   UNL A   1      45.381  30.269  30.505  1.00  0.00     0.049 A 
ATOM     61  C   UNL A   1      44.253  25.236  28.323  1.00  0.00     0.074 A 
ATOM     62  C   UNL A   1      46.699  30.517  30.849  1.00  0.00     0.029 A 
ATOM     63  N   UNL A   1      45.338  28.987  29.975  1.00  0.00    -0.354 N 
ATOM     64  N   UNL A   1      44.671  26.363  28.847  1.00  0.00    -0.248 NA
ATOM     65  C   UNL A   1      45.329  24.277  28.031  1.00  0.00     0.031 C 
ATOM     66  C   UNL A   1      47.462  29.404  30.480  1.00  0.00     0.029 A 
ATOM     67  C   UNL A   1      46.611  28.440  29.966  1.00  0.00     0.049 A 
ATOM     68  H   UNL A   1      44.525  28.536  29.654  1.00  0.00     0.167 HD
ATOM     69  C   UNL A   1      46.046  26.231  28.991  1.00  0.00     0.074 A 
ATOM     70  C   UNL A   1      46.394  24.917  28.494  1.00  0.00     0.031 C 
ATOM     71  C   UNL A   1      46.937  27.117  29.497  1.00  0.00     0.037 A 
BRANCH  58  72
ATOM     72  C   UNL A   1      44.453  32.520  31.188  1.00  0.00     0.057 A 
ATOM     73  C   UNL A   1      44.709  33.612  30.348  1.00  0.00     0.134 A 
ATOM     74  C   UNL A   1      44.382  32.768  32.565  1.00  0.00     0.134 A 
ATOM     75  F   UNL A   1      44.802  33.443  29.020  1.00  0.00    -0.206 F 
ATOM     76  C   UNL A   1      44.925  34.893  30.861  1.00  0.00     0.040 A 
ATOM     77  C   UNL A   1      44.564  34.051  33.086  1.00  0.00     0.040 A 
ATOM     78  F   UNL A   1      44.131  31.771  33.425  1.00  0.00    -0.206 F 
ATOM     79  C   UNL A   1      44.846  35.115  32.234  1.00  0.00     0.006 A 
ENDBRANCH  58  72
BRANCH  59  80
ATOM     80  C   UNL A   1      42.588  23.465  27.408  1.00  0.00     0.057 A 
ATOM     81  C   UNL A   1      42.684  23.250  26.027  1.00  0.00     0.134 A 
ATOM     82  C   UNL A   1      42.231  22.371  28.206  1.00  0.00     0.134 A 
ATOM     83  F   UNL A   1      43.003  24.263  25.208  1.00  0.00    -0.206 F 
ATOM     84  C   UNL A   1      42.412  22.004  25.459  1.00  0.00     0.040 A 
ATOM     85  C   UNL A   1      41.983  21.112  27.654  1.00  0.00     0.040 A 
ATOM     86  F   UNL A   1      42.129  22.507  29.536  1.00  0.00    -0.206 F 
ATOM     87  C   UNL A   1      42.066  20.929  26.275  1.00  0.00     0.006 A 
ENDBRANCH  59  80
BRANCH  71  88
ATOM     88  C   UNL A   1      48.369  26.679  29.615  1.00  0.00     0.057 A 
ATOM     89  C   UNL A   1      49.317  26.948  28.621  1.00  0.00     0.134 A 
ATOM     90  C   UNL A   1      48.819  26.055  30.787  1.00  0.00     0.134 A 
ATOM     91  F   UNL A   1      48.950  27.532  27.470  1.00  0.00    -0.206 F 
ATOM     92  C   UNL A   1      50.660  26.602  28.784  1.00  0.00     0.040 A 
ATOM     93  C   UNL A   1      50.162  25.729  30.973  1.00  0.00     0.040 A 
ATOM     94  F   UNL A   1      47.962  25.778  31.782  1.00  0.00    -0.206 F 
ATOM     95  C   UNL A   1      51.087  26.002  29.967  1.00  0.00     0.006 A 
ENDBRANCH  71  88
ENDBRANCH  45  46
ENDBRANCH  37  40
ENDBRANCH  35  36
ENDBRANCH  34  35
ENDBRANCH   1  34
TORSDOF 15
ENDMDL
MODEL 2
REMARK VINA RESULT:     -12.1      2.666      6.853
REMARK SMILES CCN(CC)c1ccc([C@@H]2[NH2+][C@@H](C(=O)NCCCCNC(=O)c3ccc(-c4c5nc(c(-c6c(F)cccc6F)c6ccc([nH]6)c(-c6c(F)cccc6F)c6nc(c(-c7c(F)cccc7F)c7ccc4[nH]7)C=C6)C=C5)cc3)Cc3c2[nH]c2ccccc32)cc1
REMARK SMILES IDX 17 1 16 2 15 3 13 4 14 5 12 7 10 8 11 9 79 10 78 13 80 14
REMARK SMILES IDX 77 15 86 16 81 17 85 19 82 20 84 21 83 22 9 23 6 24 7 25
REMARK SMILES IDX 88 26 8 27 87 28 3 29 2 30 1 31 4 32 5 33 18 34 19 35 20 36
REMARK SMILES IDX 21 37 22 39 23 40 24 41 76 42 25 43 75 44 26 45 27 46 28 47
REMARK SMILES IDX 69 48 29 49 74 50 68 51 70 52 30 53 73 54 67 55 66 56 31 58
REMARK SMILES IDX 57 59 40 60 56 61 41 62 44 63 55 64 71 65 42 66 43 67 54 69
REMARK SMILES IDX 72 70 45 71 32 72 33 73 38 74 34 75 35 76 37 77 39 78 36 79
REMARK SMILES IDX 58 80 59 81 64 82 60 83 61 84 63 85 65 86 62 87 46 88 47 89
REMARK SMILES IDX 52 90 48 91 49 92 51 93 53 94 50 95
REMARK H PARENT 15 6 11 11 11 12 80 18 20 38 70 57 44 68
REMARK Flexibility Score: inf
ROOT
ATOM      1  C   UNL A   1      32.510  29.341  25.431  1.00  0.00     0.023 C 
ENDROOT
BRANCH   1   2
ATOM      2  C   UNL A   1      31.613  28.120  25.247  1.00  0.00     0.116 C 
BRANCH   2   3
ATOM      3  N   UNL A   1      30.790  28.220  24.061  1.00  0.00    -0.351 N 
ATOM      4  C   UNL A   1      30.846  27.490  22.904  1.00  0.00     0.278 C 
ATOM      5  O   UNL A   1      30.175  27.906  21.952  1.00  0.00    -0.268 OA
ATOM      6  H   UNL A   1      30.089  28.910  24.091  1.00  0.00     0.163 HD
BRANCH   4   7
ATOM      7  C   UNL A   1      31.651  26.169  22.775  1.00  0.00     0.277 C 
ATOM      8  C   UNL A   1      31.666  24.460  24.713  1.00  0.00     0.262 C 
ATOM      9  N   UNL A   1      30.973  25.107  23.562  1.00  0.00    -0.325 N 
ATOM     10  C   UNL A   1      33.085  24.905  24.759  1.00  0.00     0.083 A 
ATOM     11  H   UNL A   1      30.116  25.518  23.931  1.00  0.00     0.347 HD
ATOM     12  H   UNL A   1      30.884  24.344  22.890  1.00  0.00     0.347 HD
ATOM     13  C   UNL A   1      33.842  25.365  23.707  1.00  0.00    -0.006 A 
ATOM     14  N   UNL A   1      33.990  24.976  25.788  1.00  0.00    -0.353 N 
ATOM     15  C   UNL A   1      33.197  26.296  22.758  1.00  0.00     0.114 C 
ATOM     16  C   UNL A   1      34.953  24.496  23.854  1.00  0.00     0.003 A 
ATOM     17  C   UNL A   1      35.187  24.542  25.236  1.00  0.00     0.046 A 
ATOM     18  H   UNL A   1      33.827  25.272  26.712  1.00  0.00     0.166 HD
ATOM     19  C   UNL A   1      35.722  23.584  23.102  1.00  0.00     0.010 A 
ATOM     20  C   UNL A   1      36.326  24.034  25.854  1.00  0.00     0.026 A 
ATOM     21  C   UNL A   1      36.703  22.826  23.780  1.00  0.00     0.001 A 
ATOM     22  C   UNL A   1      37.051  23.111  25.104  1.00  0.00     0.002 A 
BRANCH   8  23
ATOM     23  C   UNL A   1      31.501  22.934  24.470  1.00  0.00     0.016 A 
ATOM     24  C   UNL A   1      32.351  20.239  24.122  1.00  0.00     0.037 A 
ATOM     25  C   UNL A   1      31.812  20.691  25.330  1.00  0.00     0.026 A 
ATOM     26  C   UNL A   1      32.215  21.104  23.034  1.00  0.00     0.026 A 
ATOM     27  C   UNL A   1      31.375  22.010  25.504  1.00  0.00     0.012 A 
ATOM     28  C   UNL A   1      31.756  22.416  23.188  1.00  0.00     0.012 A 
BRANCH  24  29
ATOM     29  N   UNL A   1      33.003  19.020  24.002  1.00  0.00    -0.372 N 
BRANCH  29  30
ATOM     30  C   UNL A   1      32.635  18.092  22.914  1.00  0.00     0.113 C 
ATOM     31  C   UNL A   1      33.622  16.950  22.716  1.00  0.00     0.027 C 
ENDBRANCH  29  30
BRANCH  29  32
ATOM     32  C   UNL A   1      34.286  18.795  24.676  1.00  0.00     0.113 C 
ATOM     33  C   UNL A   1      35.082  20.067  24.947  1.00  0.00     0.027 C 
ENDBRANCH  29  32
ENDBRANCH  24  29
ENDBRANCH   8  23
ENDBRANCH   4   7
ENDBRANCH   2   3
ENDBRANCH   1   2
BRANCH   1  34
ATOM     34  C   UNL A   1      31.837  30.548  26.086  1.00  0.00     0.023 C 
BRANCH  34  35
ATOM     35  C   UNL A   1      32.638  31.217  27.202  1.00  0.00     0.116 C 
BRANCH  35  36
ATOM     36  N   UNL A   1      32.319  32.630  27.370  1.00  0.00    -0.352 N 
ATOM     37  C   UNL A   1      32.998  33.613  28.049  1.00  0.00     0.251 C 
ATOM     38  H   UNL A   1      31.488  32.926  26.931  1.00  0.00     0.163 HD
ATOM     39  O   UNL A   1      32.490  34.726  28.198  1.00  0.00    -0.269 OA
BRANCH  37  40
ATOM     40  C   UNL A   1      34.329  33.333  28.622  1.00  0.00     0.039 A 
ATOM     41  C   UNL A   1      34.426  32.648  29.838  1.00  0.00     0.014 A 
ATOM     42  C   UNL A   1      35.485  33.730  27.946  1.00  0.00     0.014 A 
ATOM     43  C   UNL A   1      35.681  32.281  30.330  1.00  0.00     0.010 A 
ATOM     44  C   UNL A   1      36.726  33.295  28.395  1.00  0.00     0.010 A 
ATOM     45  C   UNL A   1      36.839  32.562  29.588  1.00  0.00    -0.014 A 
BRANCH  45  46
ATOM     46  C   UNL A   1      38.190  32.122  30.021  1.00  0.00     0.031 A 
ATOM     47  C   UNL A   1      38.752  30.831  29.495  1.00  0.00     0.074 A 
ATOM     48  C   UNL A   1      38.857  32.812  30.966  1.00  0.00     0.049 A 
ATOM     49  N   UNL A   1      39.807  30.163  29.886  1.00  0.00    -0.248 NA
ATOM     50  C   UNL A   1      38.003  30.190  28.403  1.00  0.00     0.031 C 
ATOM     51  C   UNL A   1      38.417  34.070  31.570  1.00  0.00     0.029 A 
ATOM     52  N   UNL A   1      40.041  32.534  31.607  1.00  0.00    -0.354 N 
ATOM     53  C   UNL A   1      39.832  29.013  29.108  1.00  0.00     0.074 A 
ATOM     54  C   UNL A   1      38.659  29.049  28.260  1.00  0.00     0.031 C 
ATOM     55  C   UNL A   1      39.320  34.460  32.485  1.00  0.00     0.029 A 
ATOM     56  C   UNL A   1      40.373  33.452  32.574  1.00  0.00     0.049 A 
ATOM     57  H   UNL A   1      40.597  31.751  31.392  1.00  0.00     0.167 HD
ATOM     58  C   UNL A   1      40.757  28.024  29.088  1.00  0.00     0.037 A 
ATOM     59  C   UNL A   1      41.398  33.467  33.448  1.00  0.00     0.037 A 
ATOM     60  C   UNL A   1      41.930  28.003  29.922  1.00  0.00     0.049 A 
ATOM     61  C   UNL A   1      42.390  32.335  33.442  1.00  0.00     0.074 A 
ATOM     62  C   UNL A   1      42.948  27.067  29.952  1.00  0.00     0.029 A 
ATOM     63  N   UNL A   1      42.239  28.963  30.875  1.00  0.00    -0.354 N 
ATOM     64  N   UNL A   1      42.426  31.271  32.677  1.00  0.00    -0.248 NA
ATOM     65  C   UNL A   1      43.485  32.403  34.421  1.00  0.00     0.031 C 
ATOM     66  C   UNL A   1      43.847  27.432  30.959  1.00  0.00     0.029 A 
ATOM     67  C   UNL A   1      43.423  28.630  31.511  1.00  0.00     0.049 A 
ATOM     68  H   UNL A   1      41.697  29.761  31.069  1.00  0.00     0.167 HD
ATOM     69  C   UNL A   1      43.566  30.570  33.048  1.00  0.00     0.074 A 
ATOM     70  C   UNL A   1      44.193  31.326  34.112  1.00  0.00     0.031 C 
ATOM     71  C   UNL A   1      44.052  29.409  32.547  1.00  0.00     0.037 A 
BRANCH  58  72
ATOM     72  C   UNL A   1      40.529  26.883  28.139  1.00  0.00     0.057 A 
ATOM     73  C   UNL A   1      39.663  25.826  28.447  1.00  0.00     0.134 A 
ATOM     74  C   UNL A   1      41.170  26.850  26.893  1.00  0.00     0.134 A 
ATOM     75  F   UNL A   1      39.026  25.789  29.627  1.00  0.00    -0.206 F 
ATOM     76  C   UNL A   1      39.472  24.758  27.567  1.00  0.00     0.040 A 
ATOM     77  C   UNL A   1      40.961  25.805  25.992  1.00  0.00     0.040 A 
ATOM     78  F   UNL A   1      42.005  27.835  26.530  1.00  0.00    -0.206 F 
ATOM     79  C   UNL A   1      40.118  24.750  26.332  1.00  0.00     0.006 A 
ENDBRANCH  58  72
BRANCH  59  80
ATOM     80  C   UNL A   1      41.551  34.598  34.400  1.00  0.00     0.057 A 
ATOM     81  C   UNL A   1      42.207  35.775  34.016  1.00  0.00     0.134 A 
ATOM     82  C   UNL A   1      41.059  34.534  35.709  1.00  0.00     0.134 A 
ATOM     83  F   UNL A   1      42.718  35.890  32.782  1.00  0.00    -0.206 F 
ATOM     84  C   UNL A   1      42.389  36.836  34.905  1.00  0.00     0.040 A 
ATOM     85  C   UNL A   1      41.209  35.598  36.600  1.00  0.00     0.040 A 
ATOM     86  F   UNL A   1      40.415  33.438  36.138  1.00  0.00    -0.206 F 
ATOM     87  C   UNL A   1      41.883  36.751  36.201  1.00  0.00     0.006 A 
ENDBRANCH  59  80
BRANCH  71  88
ATOM     88  C   UNL A   1      45.365  28.912  33.081  1.00  0.00     0.057 A 
ATOM     89  C   UNL A   1      46.593  29.321  32.548  1.00  0.00     0.134 A 
ATOM     90  C   UNL A   1      45.394  28.076  34.206  1.00  0.00     0.134 A 
ATOM     91  F   UNL A   1      46.634  30.111  31.464  1.00  0.00    -0.206 F 
ATOM     92  C   UNL A   1      47.803  28.909  33.109  1.00  0.00     0.040 A 
ATOM     93  C   UNL A   1      46.596  27.679  34.791  1.00  0.00     0.040 A 
ATOM     94  F   UNL A   1      44.252  27.655  34.771  1.00  0.00    -0.206 F 
ATOM     95  C   UNL A   1      47.806  28.095  34.241  1.00  0.00     0.006 A 
ENDBRANCH  71  88
ENDBRANCH  45  46
ENDBRANCH  37  40
ENDBRANCH  35  36
ENDBRANCH  34  35
ENDBRANCH   1  34
TORSDOF 15
ENDMDL
MODEL 3
REMARK VINA RESULT:     -11.8      2.941      7.437
REMARK SMILES CCN(CC)c1ccc([C@@H]2[NH2+][C@@H](C(=O)NCCCCNC(=O)c3ccc(-c4c5nc(c(-c6c(F)cccc6F)c6ccc([nH]6)c(-c6c(F)cccc6F)c6nc(c(-c7c(F)cccc7F)c7ccc4[nH]7)C=C6)C=C5)cc3)Cc3c2[nH]c2ccccc32)cc1
REMARK SMILES IDX 17 1 16 2 15 3 13 4 14 5 12 7 10 8 11 9 79 10 78 13 80 14
REMARK SMILES IDX 77 15 86 16 81 17 85 19 82 20 84 21 83 22 9 23 6 24 7 25
REMARK SMILES IDX 88 26 8 27 87 28 3 29 2 30 1 31 4 32 5 33 18 34 19 35 20 36
REMARK SMILES IDX 21 37 22 39 23 40 24 41 76 42 25 43 75 44 26 45 27 46 28 47
REMARK SMILES IDX 69 48 29 49 74 50 68 51 70 52 30 53 73 54 67 55 66 56 31 58
REMARK SMILES IDX 57 59 40 60 56 61 41 62 44 63 55 64 71 65 42 66 43 67 54 69
REMARK SMILES IDX 72 70 45 71 32 72 33 73 38 74 34 75 35 76 37 77 39 78 36 79
REMARK SMILES IDX 58 80 59 81 64 82 60 83 61 84 63 85 65 86 62 87 46 88 47 89
REMARK SMILES IDX 52 90 48 91 49 92 51 93 53 94 50 95
REMARK H PARENT 15 6 11 11 11 12 80 18 20 38 70 57 44 68
REMARK Flexibility Score: inf
ROOT
ATOM      1  C   UNL A   1      32.001  29.217  27.233  1.00  0.00     0.023 C 
ENDROOT
BRANCH   1   2
ATOM      2  C   UNL A   1      32.296  28.225  26.111  1.00  0.00     0.116 C 
BRANCH   2   3
ATOM      3  N   UNL A   1      31.088  27.673  25.538  1.00  0.00    -0.351 N 
ATOM      4  C   UNL A   1      30.850  26.407  25.073  1.00  0.00     0.278 C 
ATOM      5  O   UNL A   1      29.805  26.238  24.434  1.00  0.00    -0.268 OA
ATOM      6  H   UNL A   1      30.330  28.296  25.472  1.00  0.00     0.163 HD
BRANCH   4   7
ATOM      7  C   UNL A   1      31.788  25.206  25.370  1.00  0.00     0.277 C 
ATOM      8  C   UNL A   1      33.464  24.390  23.581  1.00  0.00     0.262 C 
ATOM      9  N   UNL A   1      33.057  25.381  24.618  1.00  0.00    -0.325 N 
ATOM     10  C   UNL A   1      32.542  23.222  23.614  1.00  0.00     0.083 A 
ATOM     11  H   UNL A   1      32.997  26.286  24.149  1.00  0.00     0.347 HD
ATOM     12  H   UNL A   1      33.770  25.265  25.339  1.00  0.00     0.347 HD
ATOM     13  C   UNL A   1      31.796  22.789  24.684  1.00  0.00    -0.006 A 
ATOM     14  N   UNL A   1      32.199  22.299  22.658  1.00  0.00    -0.353 N 
ATOM     15  C   UNL A   1      31.115  23.814  25.501  1.00  0.00     0.114 C 
ATOM     16  C   UNL A   1      32.214  21.434  24.696  1.00  0.00     0.003 A 
ATOM     17  C   UNL A   1      32.150  21.090  23.337  1.00  0.00     0.046 A 
ATOM     18  H   UNL A   1      32.024  22.460  21.704  1.00  0.00     0.166 HD
ATOM     19  C   UNL A   1      32.755  20.475  25.577  1.00  0.00     0.010 A 
ATOM     20  C   UNL A   1      32.243  19.788  22.855  1.00  0.00     0.026 A 
ATOM     21  C   UNL A   1      33.141  19.226  25.042  1.00  0.00     0.001 A 
ATOM     22  C   UNL A   1      32.810  18.865  23.732  1.00  0.00     0.002 A 
BRANCH   8  23
ATOM     23  C   UNL A   1      34.935  24.031  23.930  1.00  0.00     0.016 A 
ATOM     24  C   UNL A   1      37.074  22.398  24.861  1.00  0.00     0.037 A 
ATOM     25  C   UNL A   1      36.837  22.594  23.498  1.00  0.00     0.026 A 
ATOM     26  C   UNL A   1      36.371  23.238  25.728  1.00  0.00     0.026 A 
ATOM     27  C   UNL A   1      35.799  23.410  23.031  1.00  0.00     0.012 A 
ATOM     28  C   UNL A   1      35.349  24.077  25.273  1.00  0.00     0.012 A 
BRANCH  24  29
ATOM     29  N   UNL A   1      37.932  21.418  25.339  1.00  0.00    -0.372 N 
BRANCH  29  30
ATOM     30  C   UNL A   1      37.867  20.050  24.788  1.00  0.00     0.113 C 
ATOM     31  C   UNL A   1      36.481  19.426  24.845  1.00  0.00     0.027 C 
ENDBRANCH  29  30
BRANCH  29  32
ATOM     32  C   UNL A   1      39.138  21.787  26.089  1.00  0.00     0.113 C 
ATOM     33  C   UNL A   1      40.105  20.632  26.324  1.00  0.00     0.027 C 
ENDBRANCH  29  32
ENDBRANCH  24  29
ENDBRANCH   8  23
ENDBRANCH   4   7
ENDBRANCH   2   3
ENDBRANCH   1   2
BRANCH   1  34
ATOM     34  C   UNL A   1      31.727  30.651  26.775  1.00  0.00     0.023 C 
BRANCH  34  35
ATOM     35  C   UNL A   1      32.895  31.622  26.933  1.00  0.00     0.116 C 
BRANCH  35  36
ATOM     36  N   UNL A   1      32.476  32.969  27.308  1.00  0.00    -0.352 N 
ATOM     37  C   UNL A   1      33.044  33.854  28.191  1.00  0.00     0.251 C 
ATOM     38  H   UNL A   1      31.660  33.292  26.861  1.00  0.00     0.163 HD
ATOM     39  O   UNL A   1      32.457  34.898  28.484  1.00  0.00    -0.269 OA
BRANCH  37  40
ATOM     40  C   UNL A   1      34.349  33.550  28.811  1.00  0.00     0.039 A 
ATOM     41  C   UNL A   1      34.392  32.789  29.985  1.00  0.00     0.014 A 
ATOM     42  C   UNL A   1      35.531  33.999  28.221  1.00  0.00     0.014 A 
ATOM     43  C   UNL A   1      35.626  32.402  30.515  1.00  0.00     0.010 A 
ATOM     44  C   UNL A   1      36.754  33.547  28.703  1.00  0.00     0.010 A 
ATOM     45  C   UNL A   1      36.816  32.739  29.850  1.00  0.00    -0.014 A 
BRANCH  45  46
ATOM     46  C   UNL A   1      38.149  32.283  30.322  1.00  0.00     0.031 A 
ATOM     47  C   UNL A   1      38.760  31.045  29.729  1.00  0.00     0.074 A 
ATOM     48  C   UNL A   1      38.752  32.906  31.354  1.00  0.00     0.049 A 
ATOM     49  N   UNL A   1      39.803  30.362  30.124  1.00  0.00    -0.248 NA
ATOM     50  C   UNL A   1      38.082  30.482  28.551  1.00  0.00     0.031 C 
ATOM     51  C   UNL A   1      38.259  34.107  32.028  1.00  0.00     0.029 A 
ATOM     52  N   UNL A   1      39.904  32.593  32.035  1.00  0.00    -0.354 N 
ATOM     53  C   UNL A   1      39.890  29.277  29.262  1.00  0.00     0.074 A 
ATOM     54  C   UNL A   1      38.764  29.364  28.356  1.00  0.00     0.031 C 
ATOM     55  C   UNL A   1      39.105  34.435  33.019  1.00  0.00     0.029 A 
ATOM     56  C   UNL A   1      40.169  33.437  33.087  1.00  0.00     0.049 A 
ATOM     57  H   UNL A   1      40.484  31.837  31.791  1.00  0.00     0.167 HD
ATOM     58  C   UNL A   1      40.832  28.305  29.217  1.00  0.00     0.037 A 
ATOM     59  C   UNL A   1      41.144  33.396  34.015  1.00  0.00     0.037 A 
ATOM     60  C   UNL A   1      41.958  28.233  30.109  1.00  0.00     0.049 A 
ATOM     61  C   UNL A   1      42.155  32.280  33.975  1.00  0.00     0.074 A 
ATOM     62  C   UNL A   1      42.988  27.310  30.122  1.00  0.00     0.029 A 
ATOM     63  N   UNL A   1      42.199  29.119  31.149  1.00  0.00    -0.354 N 
ATOM     64  N   UNL A   1      42.249  31.280  33.133  1.00  0.00    -0.248 NA
ATOM     65  C   UNL A   1      43.193  32.285  35.016  1.00  0.00     0.031 C 
ATOM     66  C   UNL A   1      43.826  27.607  31.202  1.00  0.00     0.029 A 
ATOM     67  C   UNL A   1      43.352  28.752  31.822  1.00  0.00     0.049 A 
ATOM     68  H   UNL A   1      41.633  29.892  31.375  1.00  0.00     0.167 HD
ATOM     69  C   UNL A   1      43.379  30.567  33.511  1.00  0.00     0.074 A 
ATOM     70  C   UNL A   1      43.935  31.245  34.663  1.00  0.00     0.031 C 
ATOM     71  C   UNL A   1      43.912  29.455  32.948  1.00  0.00     0.037 A 
BRANCH  58  72
ATOM     72  C   UNL A   1      40.675  27.239  28.170  1.00  0.00     0.057 A 
ATOM     73  C   UNL A   1      41.358  27.295  26.948  1.00  0.00     0.134 A 
ATOM     74  C   UNL A   1      39.843  26.134  28.394  1.00  0.00     0.134 A 
ATOM     75  F   UNL A   1      42.161  28.331  26.664  1.00  0.00    -0.206 F 
ATOM     76  C   UNL A   1      41.191  26.310  25.972  1.00  0.00     0.040 A 
ATOM     77  C   UNL A   1      39.694  25.127  27.439  1.00  0.00     0.040 A 
ATOM     78  F   UNL A   1      39.167  26.012  29.546  1.00  0.00    -0.206 F 
ATOM     79  C   UNL A   1      40.361  25.219  26.220  1.00  0.00     0.006 A 
ENDBRANCH  58  72
BRANCH  59  80
ATOM     80  C   UNL A   1      41.227  34.451  35.058  1.00  0.00     0.057 A 
ATOM     81  C   UNL A   1      40.605  34.280  36.301  1.00  0.00     0.134 A 
ATOM     82  C   UNL A   1      41.914  35.651  34.842  1.00  0.00     0.134 A 
ATOM     83  F   UNL A   1      39.914  33.161  36.562  1.00  0.00    -0.206 F 
ATOM     84  C   UNL A   1      40.643  35.273  37.283  1.00  0.00     0.040 A 
ATOM     85  C   UNL A   1      41.985  36.641  35.825  1.00  0.00     0.040 A 
ATOM     86  F   UNL A   1      42.538  35.875  33.676  1.00  0.00    -0.206 F 
ATOM     87  C   UNL A   1      41.341  36.456  37.047  1.00  0.00     0.006 A 
ENDBRANCH  59  80
BRANCH  71  88
ATOM     88  C   UNL A   1      45.201  28.934  33.514  1.00  0.00     0.057 A 
ATOM     89  C   UNL A   1      45.239  27.941  34.499  1.00  0.00     0.134 A 
ATOM     90  C   UNL A   1      46.426  29.378  32.995  1.00  0.00     0.134 A 
ATOM     91  F   UNL A   1      44.103  27.482  35.046  1.00  0.00    -0.206 F 
ATOM     92  C   UNL A   1      46.449  27.414  34.955  1.00  0.00     0.040 A 
ATOM     93  C   UNL A   1      47.640  28.840  33.423  1.00  0.00     0.040 A 
ATOM     94  F   UNL A   1      46.460  30.322  32.041  1.00  0.00    -0.206 F 
ATOM     95  C   UNL A   1      47.653  27.855  34.408  1.00  0.00     0.006 A 
ENDBRANCH  71  88
ENDBRANCH  45  46
ENDBRANCH  37  40
ENDBRANCH  35  36
ENDBRANCH  34  35
ENDBRANCH   1  34
TORSDOF 15
ENDMDL
