MODEL 1
REMARK VINA RESULT:     -11.6      0.000      0.000
REMARK SMILES O=C(NCCCCNC(=O)[C@H]1C[C@H]2CCCC[C@@H]2[N@@H+]1CCn1ccnc1)c1ccc(-c2c3nc(c(-c4c(F)cccc4F)c4ccc([nH]4)c(-c4c(F)cccc4F)c4nc(c(-c5c(F)cccc5F)c5ccc2[nH]5)C=C4)C=C3)cc1
REMARK SMILES IDX 6 1 5 2 4 3 3 4 1 5 2 6 27 8 28 9 80 10 29 11 79 12 30 13
REMARK SMILES IDX 31 14 32 15 73 16 33 17 78 18 72 19 74 20 34 21 77 22 71 23
REMARK SMILES IDX 70 24 35 26 61 27 44 28 60 29 45 30 48 31 59 32 75 33 46 34
REMARK SMILES IDX 47 35 58 37 76 38 49 39 36 40 37 41 42 42 38 43 39 44 41 45
REMARK SMILES IDX 43 46 40 47 62 48 63 49 68 50 64 51 65 52 67 53 69 54 66 55
REMARK SMILES IDX 50 56 51 57 56 58 52 59 53 60 55 61 57 62 54 63 7 64 8 65
REMARK SMILES IDX 9 66 10 68 11 69 12 70 19 71 13 72 18 73 14 75 17 76 15 77
REMARK SMILES IDX 16 78 20 79 21 80 22 81 23 82 26 83 24 84 25 85
REMARK H PARENT 3 7 74 25 48 36 8 67 19 74
REMARK Flexibility Score: inf
ROOT
ATOM      1  C   UNL A   1      39.041  23.376  26.544  1.00  0.00     0.023 C 
ENDROOT
BRANCH   1   2
ATOM      2  C   UNL A   1      39.578  21.983  26.207  1.00  0.00     0.023 C 
BRANCH   2   3
ATOM      3  C   UNL A   1      41.054  21.795  26.558  1.00  0.00     0.116 C 
BRANCH   3   4
ATOM      4  N   UNL A   1      41.961  22.344  25.568  1.00  0.00    -0.352 N 
ATOM      5  O   UNL A   1      43.372  23.641  24.461  1.00  0.00    -0.269 OA
ATOM      6  C   UNL A   1      42.593  23.545  25.416  1.00  0.00     0.251 C 
ATOM      7  H   UNL A   1      42.167  21.709  24.845  1.00  0.00     0.163 HD
BRANCH   6   8
ATOM      8  C   UNL A   1      42.364  24.738  26.272  1.00  0.00     0.039 A 
ATOM      9  C   UNL A   1      42.891  24.925  27.548  1.00  0.00     0.014 A 
ATOM     10  C   UNL A   1      41.545  25.745  25.727  1.00  0.00     0.014 A 
ATOM     11  C   UNL A   1      42.552  26.042  28.297  1.00  0.00     0.010 A 
ATOM     12  C   UNL A   1      41.225  26.883  26.459  1.00  0.00     0.010 A 
ATOM     13  C   UNL A   1      41.712  27.014  27.756  1.00  0.00    -0.014 A 
BRANCH  13  14
ATOM     14  C   UNL A   1      41.539  28.238  28.527  1.00  0.00     0.031 A 
ATOM     15  C   UNL A   1      42.619  29.251  28.317  1.00  0.00     0.074 A 
ATOM     16  C   UNL A   1      40.443  28.504  29.262  1.00  0.00     0.049 A 
ATOM     17  N   UNL A   1      43.399  29.794  29.195  1.00  0.00    -0.248 NA
ATOM     18  C   UNL A   1      42.938  29.619  26.927  1.00  0.00     0.031 C 
ATOM     19  C   UNL A   1      39.194  27.744  29.327  1.00  0.00     0.029 A 
ATOM     20  N   UNL A   1      40.183  29.592  30.036  1.00  0.00    -0.354 N 
ATOM     21  C   UNL A   1      44.189  30.705  28.494  1.00  0.00     0.074 A 
ATOM     22  C   UNL A   1      43.956  30.461  27.095  1.00  0.00     0.031 C 
ATOM     23  C   UNL A   1      38.241  28.508  29.908  1.00  0.00     0.029 A 
ATOM     24  C   UNL A   1      38.845  29.748  30.367  1.00  0.00     0.049 A 
ATOM     25  H   UNL A   1      40.884  30.215  30.335  1.00  0.00     0.167 HD
ATOM     26  C   UNL A   1      44.828  31.736  29.110  1.00  0.00     0.037 A 
ATOM     27  C   UNL A   1      38.271  30.851  30.909  1.00  0.00     0.037 A 
ATOM     28  C   UNL A   1      45.003  31.494  30.515  1.00  0.00     0.049 A 
ATOM     29  C   UNL A   1      39.348  31.678  31.504  1.00  0.00     0.074 A 
ATOM     30  C   UNL A   1      45.662  30.536  31.260  1.00  0.00     0.029 A 
ATOM     31  N   UNL A   1      44.158  32.124  31.392  1.00  0.00    -0.354 N 
ATOM     32  N   UNL A   1      40.032  31.341  32.560  1.00  0.00    -0.248 NA
ATOM     33  C   UNL A   1      39.961  32.693  30.660  1.00  0.00     0.031 C 
ATOM     34  C   UNL A   1      44.823  30.306  32.388  1.00  0.00     0.029 A 
ATOM     35  C   UNL A   1      43.736  31.174  32.287  1.00  0.00     0.049 A 
ATOM     36  H   UNL A   1      43.904  33.075  31.383  1.00  0.00     0.167 HD
ATOM     37  C   UNL A   1      41.325  31.764  32.293  1.00  0.00     0.074 A 
ATOM     38  C   UNL A   1      41.202  32.668  31.153  1.00  0.00     0.031 C 
ATOM     39  C   UNL A   1      42.403  31.129  32.838  1.00  0.00     0.037 A 
BRANCH  26  40
ATOM     40  C   UNL A   1      44.979  33.105  28.496  1.00  0.00     0.057 A 
ATOM     41  C   UNL A   1      43.846  33.913  28.297  1.00  0.00     0.134 A 
ATOM     42  C   UNL A   1      46.147  33.535  27.833  1.00  0.00     0.134 A 
ATOM     43  F   UNL A   1      42.667  33.594  28.851  1.00  0.00    -0.206 F 
ATOM     44  C   UNL A   1      43.863  35.032  27.454  1.00  0.00     0.040 A 
ATOM     45  C   UNL A   1      46.188  34.678  27.030  1.00  0.00     0.040 A 
ATOM     46  F   UNL A   1      47.279  32.819  27.843  1.00  0.00    -0.206 F 
ATOM     47  C   UNL A   1      45.036  35.414  26.814  1.00  0.00     0.006 A 
ENDBRANCH  26  40
BRANCH  27  48
ATOM     48  C   UNL A   1      36.914  31.391  30.669  1.00  0.00     0.057 A 
ATOM     49  C   UNL A   1      36.030  31.633  31.730  1.00  0.00     0.134 A 
ATOM     50  C   UNL A   1      36.553  31.943  29.428  1.00  0.00     0.134 A 
ATOM     51  F   UNL A   1      36.308  31.187  32.963  1.00  0.00    -0.206 F 
ATOM     52  C   UNL A   1      34.866  32.398  31.571  1.00  0.00     0.040 A 
ATOM     53  C   UNL A   1      35.391  32.701  29.252  1.00  0.00     0.040 A 
ATOM     54  F   UNL A   1      37.363  31.844  28.363  1.00  0.00    -0.206 F 
ATOM     55  C   UNL A   1      34.549  32.943  30.330  1.00  0.00     0.006 A 
ENDBRANCH  27  48
BRANCH  39  56
ATOM     56  C   UNL A   1      42.149  30.116  33.920  1.00  0.00     0.057 A 
ATOM     57  C   UNL A   1      41.858  28.764  33.679  1.00  0.00     0.134 A 
ATOM     58  C   UNL A   1      42.349  30.489  35.254  1.00  0.00     0.134 A 
ATOM     59  F   UNL A   1      41.752  28.288  32.432  1.00  0.00    -0.206 F 
ATOM     60  C   UNL A   1      41.725  27.840  34.719  1.00  0.00     0.040 A 
ATOM     61  C   UNL A   1      42.255  29.567  36.300  1.00  0.00     0.040 A 
ATOM     62  F   UNL A   1      42.689  31.751  35.559  1.00  0.00    -0.206 F 
ATOM     63  C   UNL A   1      41.930  28.239  36.035  1.00  0.00     0.006 A 
ENDBRANCH  39  56
ENDBRANCH  13  14
ENDBRANCH   6   8
ENDBRANCH   3   4
ENDBRANCH   2   3
ENDBRANCH   1   2
BRANCH   1  64
ATOM     64  C   UNL A   1      37.646  23.652  25.988  1.00  0.00     0.116 C 
BRANCH  64  65
ATOM     65  N   UNL A   1      37.524  23.355  24.582  1.00  0.00    -0.351 N 
ATOM     66  C   UNL A   1      36.440  23.249  23.766  1.00  0.00     0.278 C 
ATOM     67  H   UNL A   1      38.384  23.201  24.129  1.00  0.00     0.163 HD
ATOM     68  O   UNL A   1      36.693  23.038  22.571  1.00  0.00    -0.268 OA
BRANCH  66  69
ATOM     69  C   UNL A   1      34.958  23.408  24.219  1.00  0.00     0.274 C 
ATOM     70  C   UNL A   1      34.552  24.665  24.997  1.00  0.00     0.085 C 
ATOM     71  N   UNL A   1      34.052  23.352  23.032  1.00  0.00    -0.321 N 
ATOM     72  C   UNL A   1      33.593  25.403  24.065  1.00  0.00     0.054 C 
ATOM     73  C   UNL A   1      33.767  24.750  22.703  1.00  0.00     0.188 C 
ATOM     74  H   UNL A   1      34.489  22.911  22.223  1.00  0.00     0.349 HD
ATOM     75  C   UNL A   1      33.603  26.918  23.978  1.00  0.00     0.010 C 
ATOM     76  C   UNL A   1      32.647  25.134  21.743  1.00  0.00     0.065 C 
ATOM     77  C   UNL A   1      32.461  27.359  23.051  1.00  0.00     0.001 C 
ATOM     78  C   UNL A   1      32.470  26.659  21.684  1.00  0.00     0.006 C 
BRANCH  71  79
ATOM     79  C   UNL A   1      32.915  22.419  23.169  1.00  0.00     0.285 C 
BRANCH  79  80
ATOM     80  C   UNL A   1      32.540  21.698  24.497  1.00  0.00     0.184 C 
BRANCH  80  81
ATOM     81  N   UNL A   1      31.896  22.473  25.536  1.00  0.00    -0.332 N 
ATOM     82  C   UNL A   1      30.798  23.281  25.380  1.00  0.00     0.107 A 
ATOM     83  C   UNL A   1      32.262  22.545  26.850  1.00  0.00     0.199 A 
ATOM     84  C   UNL A   1      30.445  23.651  26.657  1.00  0.00     0.130 A 
ATOM     85  N   UNL A   1      31.371  23.201  27.561  1.00  0.00    -0.245 NA
ENDBRANCH  80  81
ENDBRANCH  79  80
ENDBRANCH  71  79
ENDBRANCH  66  69
ENDBRANCH  64  65
ENDBRANCH   1  64
TORSDOF 14
ENDMDL
MODEL 2
REMARK VINA RESULT:     -11.6      2.752      7.791
REMARK SMILES O=C(NCCCCNC(=O)[C@H]1C[C@H]2CCCC[C@@H]2[N@@H+]1CCn1ccnc1)c1ccc(-c2c3nc(c(-c4c(F)cccc4F)c4ccc([nH]4)c(-c4c(F)cccc4F)c4nc(c(-c5c(F)cccc5F)c5ccc2[nH]5)C=C4)C=C3)cc1
REMARK SMILES IDX 6 1 5 2 4 3 3 4 1 5 2 6 27 8 28 9 80 10 29 11 79 12 30 13
REMARK SMILES IDX 31 14 32 15 73 16 33 17 78 18 72 19 74 20 34 21 77 22 71 23
REMARK SMILES IDX 70 24 35 26 61 27 44 28 60 29 45 30 48 31 59 32 75 33 46 34
REMARK SMILES IDX 47 35 58 37 76 38 49 39 36 40 37 41 42 42 38 43 39 44 41 45
REMARK SMILES IDX 43 46 40 47 62 48 63 49 68 50 64 51 65 52 67 53 69 54 66 55
REMARK SMILES IDX 50 56 51 57 56 58 52 59 53 60 55 61 57 62 54 63 7 64 8 65
REMARK SMILES IDX 9 66 10 68 11 69 12 70 19 71 13 72 18 73 14 75 17 76 15 77
REMARK SMILES IDX 16 78 20 79 21 80 22 81 23 82 26 83 24 84 25 85
REMARK H PARENT 3 7 74 25 48 36 8 67 19 74
REMARK Flexibility Score: inf
ROOT
ATOM      1  C   UNL A   1      32.029  28.044  27.369  1.00  0.00     0.023 C 
ENDROOT
BRANCH   1   2
ATOM      2  C   UNL A   1      32.282  29.367  26.643  1.00  0.00     0.023 C 
BRANCH   2   3
ATOM      3  C   UNL A   1      33.683  29.933  26.875  1.00  0.00     0.116 C 
BRANCH   3   4
ATOM      4  N   UNL A   1      33.714  31.039  27.814  1.00  0.00    -0.352 N 
ATOM      5  O   UNL A   1      34.361  32.601  29.243  1.00  0.00    -0.269 OA
ATOM      6  C   UNL A   1      34.682  31.593  28.603  1.00  0.00     0.251 C 
ATOM      7  H   UNL A   1      32.844  31.490  27.902  1.00  0.00     0.163 HD
BRANCH   6   8
ATOM      8  C   UNL A   1      36.049  31.039  28.783  1.00  0.00     0.039 A 
ATOM      9  C   UNL A   1      37.190  31.787  29.064  1.00  0.00     0.014 A 
ATOM     10  C   UNL A   1      36.174  29.642  28.656  1.00  0.00     0.014 A 
ATOM     11  C   UNL A   1      38.434  31.181  29.137  1.00  0.00     0.010 A 
ATOM     12  C   UNL A   1      37.413  29.022  28.758  1.00  0.00     0.010 A 
ATOM     13  C   UNL A   1      38.546  29.800  28.974  1.00  0.00    -0.014 A 
BRANCH  13  14
ATOM     14  C   UNL A   1      39.852  29.211  29.235  1.00  0.00     0.031 A 
ATOM     15  C   UNL A   1      40.207  29.126  30.686  1.00  0.00     0.074 A 
ATOM     16  C   UNL A   1      40.624  28.662  28.278  1.00  0.00     0.049 A 
ATOM     17  N   UNL A   1      41.233  29.623  31.297  1.00  0.00    -0.248 NA
ATOM     18  C   UNL A   1      39.224  28.496  31.584  1.00  0.00     0.031 C 
ATOM     19  C   UNL A   1      40.284  28.414  26.876  1.00  0.00     0.029 A 
ATOM     20  N   UNL A   1      41.861  28.109  28.398  1.00  0.00    -0.354 N 
ATOM     21  C   UNL A   1      41.119  29.218  32.627  1.00  0.00     0.074 A 
ATOM     22  C   UNL A   1      39.808  28.645  32.773  1.00  0.00     0.031 C 
ATOM     23  C   UNL A   1      41.190  27.561  26.346  1.00  0.00     0.029 A 
ATOM     24  C   UNL A   1      42.235  27.313  27.326  1.00  0.00     0.049 A 
ATOM     25  H   UNL A   1      42.441  28.260  29.179  1.00  0.00     0.167 HD
ATOM     26  C   UNL A   1      42.185  29.196  33.472  1.00  0.00     0.037 A 
ATOM     27  C   UNL A   1      43.286  26.457  27.283  1.00  0.00     0.037 A 
ATOM     28  C   UNL A   1      43.243  30.056  33.021  1.00  0.00     0.049 A 
ATOM     29  C   UNL A   1      44.222  26.831  28.370  1.00  0.00     0.074 A 
ATOM     30  C   UNL A   1      43.358  31.412  32.787  1.00  0.00     0.029 A 
ATOM     31  N   UNL A   1      44.328  29.485  32.407  1.00  0.00    -0.354 N 
ATOM     32  N   UNL A   1      44.930  27.925  28.381  1.00  0.00    -0.248 NA
ATOM     33  C   UNL A   1      44.045  26.189  29.664  1.00  0.00     0.031 C 
ATOM     34  C   UNL A   1      44.196  31.517  31.640  1.00  0.00     0.029 A 
ATOM     35  C   UNL A   1      44.582  30.225  31.281  1.00  0.00     0.049 A 
ATOM     36  H   UNL A   1      44.829  28.695  32.715  1.00  0.00     0.167 HD
ATOM     37  C   UNL A   1      44.919  28.338  29.705  1.00  0.00     0.074 A 
ATOM     38  C   UNL A   1      44.439  27.185  30.461  1.00  0.00     0.031 C 
ATOM     39  C   UNL A   1      45.034  29.658  30.034  1.00  0.00     0.037 A 
BRANCH  26  40
ATOM     40  C   UNL A   1      42.395  28.128  34.516  1.00  0.00     0.057 A 
ATOM     41  C   UNL A   1      42.784  26.834  34.127  1.00  0.00     0.134 A 
ATOM     42  C   UNL A   1      41.949  28.247  35.849  1.00  0.00     0.134 A 
ATOM     43  F   UNL A   1      43.199  26.587  32.876  1.00  0.00    -0.206 F 
ATOM     44  C   UNL A   1      42.681  25.732  34.986  1.00  0.00     0.040 A 
ATOM     45  C   UNL A   1      41.890  27.163  36.729  1.00  0.00     0.040 A 
ATOM     46  F   UNL A   1      41.452  29.390  36.337  1.00  0.00    -0.206 F 
ATOM     47  C   UNL A   1      42.229  25.894  36.290  1.00  0.00     0.006 A 
ENDBRANCH  26  40
BRANCH  27  48
ATOM     48  C   UNL A   1      43.382  25.154  26.586  1.00  0.00     0.057 A 
ATOM     49  C   UNL A   1      42.526  24.092  26.910  1.00  0.00     0.134 A 
ATOM     50  C   UNL A   1      44.122  25.010  25.400  1.00  0.00     0.134 A 
ATOM     51  F   UNL A   1      41.744  24.156  27.997  1.00  0.00    -0.206 F 
ATOM     52  C   UNL A   1      42.397  22.962  26.091  1.00  0.00     0.040 A 
ATOM     53  C   UNL A   1      44.011  23.884  24.577  1.00  0.00     0.040 A 
ATOM     54  F   UNL A   1      44.911  25.997  24.949  1.00  0.00    -0.206 F 
ATOM     55  C   UNL A   1      43.134  22.860  24.915  1.00  0.00     0.006 A 
ENDBRANCH  27  48
BRANCH  39  56
ATOM     56  C   UNL A   1      45.412  30.624  28.945  1.00  0.00     0.057 A 
ATOM     57  C   UNL A   1      44.489  31.234  28.081  1.00  0.00     0.134 A 
ATOM     58  C   UNL A   1      46.737  31.063  28.862  1.00  0.00     0.134 A 
ATOM     59  F   UNL A   1      43.181  30.959  28.154  1.00  0.00    -0.206 F 
ATOM     60  C   UNL A   1      44.877  32.199  27.147  1.00  0.00     0.040 A 
ATOM     61  C   UNL A   1      47.132  32.052  27.958  1.00  0.00     0.040 A 
ATOM     62  F   UNL A   1      47.666  30.568  29.696  1.00  0.00    -0.206 F 
ATOM     63  C   UNL A   1      46.202  32.616  27.088  1.00  0.00     0.006 A 
ENDBRANCH  39  56
ENDBRANCH  13  14
ENDBRANCH   6   8
ENDBRANCH   3   4
ENDBRANCH   2   3
ENDBRANCH   1   2
BRANCH   1  64
ATOM     64  C   UNL A   1      32.248  26.807  26.499  1.00  0.00     0.116 C 
BRANCH  64  65
ATOM     65  N   UNL A   1      31.357  25.720  26.823  1.00  0.00    -0.351 N 
ATOM     66  C   UNL A   1      31.515  24.369  26.768  1.00  0.00     0.278 C 
ATOM     67  H   UNL A   1      30.473  26.008  27.144  1.00  0.00     0.163 HD
ATOM     68  O   UNL A   1      30.555  23.704  27.184  1.00  0.00    -0.268 OA
BRANCH  66  69
ATOM     69  C   UNL A   1      32.795  23.635  26.267  1.00  0.00     0.274 C 
ATOM     70  C   UNL A   1      32.933  22.130  26.520  1.00  0.00     0.085 C 
ATOM     71  N   UNL A   1      32.943  23.817  24.791  1.00  0.00    -0.321 N 
ATOM     72  C   UNL A   1      32.899  21.500  25.129  1.00  0.00     0.054 C 
ATOM     73  C   UNL A   1      32.397  22.594  24.200  1.00  0.00     0.188 C 
ATOM     74  H   UNL A   1      32.412  24.613  24.437  1.00  0.00     0.349 HD
ATOM     75  C   UNL A   1      32.192  20.178  24.889  1.00  0.00     0.010 C 
ATOM     76  C   UNL A   1      32.626  22.242  22.735  1.00  0.00     0.065 C 
ATOM     77  C   UNL A   1      32.429  19.757  23.432  1.00  0.00     0.001 C 
ATOM     78  C   UNL A   1      32.072  20.847  22.409  1.00  0.00     0.006 C 
BRANCH  71  79
ATOM     79  C   UNL A   1      34.281  24.268  24.358  1.00  0.00     0.285 C 
BRANCH  79  80
ATOM     80  C   UNL A   1      35.490  24.450  25.322  1.00  0.00     0.184 C 
BRANCH  80  81
ATOM     81  N   UNL A   1      36.483  23.399  25.378  1.00  0.00    -0.332 N 
ATOM     82  C   UNL A   1      36.398  22.173  24.766  1.00  0.00     0.107 A 
ATOM     83  C   UNL A   1      37.673  23.432  26.045  1.00  0.00     0.199 A 
ATOM     84  C   UNL A   1      37.638  21.602  24.944  1.00  0.00     0.130 A 
ATOM     85  N   UNL A   1      38.415  22.386  25.755  1.00  0.00    -0.245 NA
ENDBRANCH  80  81
ENDBRANCH  79  80
ENDBRANCH  71  79
ENDBRANCH  66  69
ENDBRANCH  64  65
ENDBRANCH   1  64
TORSDOF 14
ENDMDL
MODEL 3
REMARK VINA RESULT:     -11.5      2.917      7.872
REMARK SMILES O=C(NCCCCNC(=O)[C@H]1C[C@H]2CCCC[C@@H]2[N@@H+]1CCn1ccnc1)c1ccc(-c2c3nc(c(-c4c(F)cccc4F)c4ccc([nH]4)c(-c4c(F)cccc4F)c4nc(c(-c5c(F)cccc5F)c5ccc2[nH]5)C=C4)C=C3)cc1
REMARK SMILES IDX 6 1 5 2 4 3 3 4 1 5 2 6 27 8 28 9 80 10 29 11 79 12 30 13
REMARK SMILES IDX 31 14 32 15 73 16 33 17 78 18 72 19 74 20 34 21 77 22 71 23
REMARK SMILES IDX 70 24 35 26 61 27 44 28 60 29 45 30 48 31 59 32 75 33 46 34
REMARK SMILES IDX 47 35 58 37 76 38 49 39 36 40 37 41 42 42 38 43 39 44 41 45
REMARK SMILES IDX 43 46 40 47 62 48 63 49 68 50 64 51 65 52 67 53 69 54 66 55
REMARK SMILES IDX 50 56 51 57 56 58 52 59 53 60 55 61 57 62 54 63 7 64 8 65
REMARK SMILES IDX 9 66 10 68 11 69 12 70 19 71 13 72 18 73 14 75 17 76 15 77
REMARK SMILES IDX 16 78 20 79 21 80 22 81 23 82 26 83 24 84 25 85
REMARK H PARENT 3 7 74 25 48 36 8 67 19 74
REMARK Flexibility Score: inf
ROOT
ATOM      1  C   UNL A   1      32.121  28.238  27.326  1.00  0.00     0.023 C 
ENDROOT
BRANCH   1   2
ATOM      2  C   UNL A   1      32.219  29.693  26.862  1.00  0.00     0.023 C 
BRANCH   2   3
ATOM      3  C   UNL A   1      33.616  30.294  27.023  1.00  0.00     0.116 C 
BRANCH   3   4
ATOM      4  N   UNL A   1      33.690  31.325  28.042  1.00  0.00    -0.352 N 
ATOM      5  O   UNL A   1      34.399  32.757  29.573  1.00  0.00    -0.269 OA
ATOM      6  C   UNL A   1      34.683  31.792  28.855  1.00  0.00     0.251 C 
ATOM      7  H   UNL A   1      32.834  31.791  28.177  1.00  0.00     0.163 HD
BRANCH   6   8
ATOM      8  C   UNL A   1      36.036  31.190  28.972  1.00  0.00     0.039 A 
ATOM      9  C   UNL A   1      37.212  31.895  29.222  1.00  0.00     0.014 A 
ATOM     10  C   UNL A   1      36.110  29.793  28.814  1.00  0.00     0.014 A 
ATOM     11  C   UNL A   1      38.437  31.246  29.235  1.00  0.00     0.010 A 
ATOM     12  C   UNL A   1      37.330  29.130  28.856  1.00  0.00     0.010 A 
ATOM     13  C   UNL A   1      38.496  29.866  29.042  1.00  0.00    -0.014 A 
BRANCH  13  14
ATOM     14  C   UNL A   1      39.791  29.229  29.242  1.00  0.00     0.031 A 
ATOM     15  C   UNL A   1      40.130  28.967  30.675  1.00  0.00     0.074 A 
ATOM     16  C   UNL A   1      40.563  28.784  28.232  1.00  0.00     0.049 A 
ATOM     17  N   UNL A   1      41.158  29.372  31.348  1.00  0.00    -0.248 NA
ATOM     18  C   UNL A   1      39.130  28.251  31.485  1.00  0.00     0.031 C 
ATOM     19  C   UNL A   1      40.232  28.708  26.809  1.00  0.00     0.029 A 
ATOM     20  N   UNL A   1      41.790  28.201  28.295  1.00  0.00    -0.354 N 
ATOM     21  C   UNL A   1      41.026  28.815  32.620  1.00  0.00     0.074 A 
ATOM     22  C   UNL A   1      39.704  28.250  32.687  1.00  0.00     0.031 C 
ATOM     23  C   UNL A   1      41.130  27.910  26.187  1.00  0.00     0.029 A 
ATOM     24  C   UNL A   1      42.162  27.531  27.139  1.00  0.00     0.049 A 
ATOM     25  H   UNL A   1      42.365  28.249  29.093  1.00  0.00     0.167 HD
ATOM     26  C   UNL A   1      42.083  28.676  33.464  1.00  0.00     0.037 A 
ATOM     27  C   UNL A   1      43.200  26.669  27.003  1.00  0.00     0.037 A 
ATOM     28  C   UNL A   1      43.159  29.566  33.126  1.00  0.00     0.049 A 
ATOM     29  C   UNL A   1      44.131  26.897  28.134  1.00  0.00     0.074 A 
ATOM     30  C   UNL A   1      43.297  30.938  33.054  1.00  0.00     0.029 A 
ATOM     31  N   UNL A   1      44.241  29.053  32.457  1.00  0.00    -0.354 N 
ATOM     32  N   UNL A   1      44.856  27.970  28.279  1.00  0.00    -0.248 NA
ATOM     33  C   UNL A   1      43.933  26.109  29.341  1.00  0.00     0.031 C 
ATOM     34  C   UNL A   1      44.147  31.164  31.934  1.00  0.00     0.029 A 
ATOM     35  C   UNL A   1      44.516  29.918  31.428  1.00  0.00     0.049 A 
ATOM     36  H   UNL A   1      44.726  28.225  32.673  1.00  0.00     0.167 HD
ATOM     37  C   UNL A   1      44.839  28.225  29.643  1.00  0.00     0.074 A 
ATOM     38  C   UNL A   1      44.334  26.998  30.253  1.00  0.00     0.031 C 
ATOM     39  C   UNL A   1      44.971  29.494  30.126  1.00  0.00     0.037 A 
BRANCH  26  40
ATOM     40  C   UNL A   1      42.267  27.489  34.376  1.00  0.00     0.057 A 
ATOM     41  C   UNL A   1      41.929  27.591  35.736  1.00  0.00     0.134 A 
ATOM     42  C   UNL A   1      43.032  26.355  34.031  1.00  0.00     0.134 A 
ATOM     43  F   UNL A   1      41.228  28.639  36.195  1.00  0.00    -0.206 F 
ATOM     44  C   UNL A   1      42.368  26.663  36.690  1.00  0.00     0.040 A 
ATOM     45  C   UNL A   1      43.433  25.397  34.966  1.00  0.00     0.040 A 
ATOM     46  F   UNL A   1      43.517  26.168  32.798  1.00  0.00    -0.206 F 
ATOM     47  C   UNL A   1      43.127  25.564  36.306  1.00  0.00     0.006 A 
ENDBRANCH  26  40
BRANCH  27  48
ATOM     48  C   UNL A   1      43.282  25.456  26.158  1.00  0.00     0.057 A 
ATOM     49  C   UNL A   1      44.336  25.272  25.252  1.00  0.00     0.134 A 
ATOM     50  C   UNL A   1      42.485  24.327  26.415  1.00  0.00     0.134 A 
ATOM     51  F   UNL A   1      45.180  26.276  24.977  1.00  0.00    -0.206 F 
ATOM     52  C   UNL A   1      44.597  24.031  24.655  1.00  0.00     0.040 A 
ATOM     53  C   UNL A   1      42.729  23.085  25.820  1.00  0.00     0.040 A 
ATOM     54  F   UNL A   1      41.499  24.366  27.324  1.00  0.00    -0.206 F 
ATOM     55  C   UNL A   1      43.798  22.930  24.947  1.00  0.00     0.006 A 
ENDBRANCH  27  48
BRANCH  39  56
ATOM     56  C   UNL A   1      45.373  30.576  29.161  1.00  0.00     0.057 A 
ATOM     57  C   UNL A   1      44.468  31.302  28.373  1.00  0.00     0.134 A 
ATOM     58  C   UNL A   1      46.707  30.996  29.138  1.00  0.00     0.134 A 
ATOM     59  F   UNL A   1      43.154  31.044  28.406  1.00  0.00    -0.206 F 
ATOM     60  C   UNL A   1      44.879  32.363  27.562  1.00  0.00     0.040 A 
ATOM     61  C   UNL A   1      47.126  32.079  28.360  1.00  0.00     0.040 A 
ATOM     62  F   UNL A   1      47.622  30.389  29.911  1.00  0.00    -0.206 F 
ATOM     63  C   UNL A   1      46.212  32.760  27.560  1.00  0.00     0.006 A 
ENDBRANCH  39  56
ENDBRANCH  13  14
ENDBRANCH   6   8
ENDBRANCH   3   4
ENDBRANCH   2   3
ENDBRANCH   1   2
BRANCH   1  64
ATOM     64  C   UNL A   1      31.503  27.299  26.292  1.00  0.00     0.116 C 
BRANCH  64  65
ATOM     65  N   UNL A   1      31.151  26.010  26.836  1.00  0.00    -0.351 N 
ATOM     66  C   UNL A   1      31.655  24.763  26.619  1.00  0.00     0.278 C 
ATOM     67  H   UNL A   1      30.410  26.036  27.483  1.00  0.00     0.163 HD
ATOM     68  O   UNL A   1      31.155  23.861  27.307  1.00  0.00    -0.268 OA
BRANCH  66  69
ATOM     69  C   UNL A   1      32.803  24.421  25.623  1.00  0.00     0.274 C 
ATOM     70  C   UNL A   1      33.927  23.486  26.083  1.00  0.00     0.085 C 
ATOM     71  N   UNL A   1      32.238  23.805  24.385  1.00  0.00    -0.321 N 
ATOM     72  C   UNL A   1      33.772  22.240  25.212  1.00  0.00     0.054 C 
ATOM     73  C   UNL A   1      32.399  22.361  24.570  1.00  0.00     0.188 C 
ATOM     74  H   UNL A   1      31.246  24.006  24.262  1.00  0.00     0.349 HD
ATOM     75  C   UNL A   1      34.017  20.855  25.783  1.00  0.00     0.010 C 
ATOM     76  C   UNL A   1      32.226  21.381  23.416  1.00  0.00     0.065 C 
ATOM     77  C   UNL A   1      33.894  19.832  24.645  1.00  0.00     0.001 C 
ATOM     78  C   UNL A   1      32.588  19.952  23.845  1.00  0.00     0.006 C 
BRANCH  71  79
ATOM     79  C   UNL A   1      32.716  24.407  23.124  1.00  0.00     0.285 C 
BRANCH  79  80
ATOM     80  C   UNL A   1      33.759  25.561  23.055  1.00  0.00     0.184 C 
BRANCH  80  81
ATOM     81  N   UNL A   1      33.269  26.923  23.047  1.00  0.00    -0.332 N 
ATOM     82  C   UNL A   1      32.060  27.345  22.553  1.00  0.00     0.107 A 
ATOM     83  C   UNL A   1      33.914  28.028  23.523  1.00  0.00     0.199 A 
ATOM     84  C   UNL A   1      31.963  28.664  22.932  1.00  0.00     0.130 A 
ATOM     85  N   UNL A   1      33.128  29.082  23.520  1.00  0.00    -0.245 NA
ENDBRANCH  80  81
ENDBRANCH  79  80
ENDBRANCH  71  79
ENDBRANCH  66  69
ENDBRANCH  64  65
ENDBRANCH   1  64
TORSDOF 14
ENDMDL
