MODEL 1
REMARK VINA RESULT:     -11.8      0.000      0.000
REMARK SMILES O=C(NCCCCNC(=O)c1ccc(-c2c3nc(c(-c4c(F)cccc4F)c4ccc([nH]4)c(-c4c(F)cccc4F)c4nc(c(-c5c(F)cccc5F)c5ccc2[nH]5)C=C4)C=C3)cc1)c1ccc(N/C=C\C(=O)c2ccco2)cc1
REMARK SMILES IDX 4 1 3 2 1 3 2 4 65 6 66 7 80 8 67 9 79 10 68 11 69 12 70 14
REMARK SMILES IDX 71 15 72 16 73 17 74 18 75 19 78 20 76 21 77 22 5 23 6 24
REMARK SMILES IDX 7 25 8 26 9 27 10 29 11 30 12 31 64 32 13 33 63 34 14 35
REMARK SMILES IDX 15 36 16 37 57 38 17 39 62 40 56 41 58 42 18 43 61 44 55 45
REMARK SMILES IDX 54 46 19 48 45 49 28 50 44 51 29 52 32 53 43 54 59 55 30 56
REMARK SMILES IDX 31 57 42 59 60 60 33 61 20 62 21 63 26 64 22 65 23 66 25 67
REMARK SMILES IDX 27 68 24 69 46 70 47 71 52 72 48 73 49 74 51 75 53 76 50 77
REMARK SMILES IDX 34 78 35 79 40 80 36 81 37 82 39 83 41 84 38 85
REMARK H PARENT 3 5 69 13 8 28 58 47 32 58
REMARK Flexibility Score: inf
ROOT
ATOM      1  C   UNL A   1      35.163  21.051  25.673  1.00  0.00     0.116 C 
ENDROOT
BRANCH   1   2
ATOM      2  N   UNL A   1      34.255  19.952  25.395  1.00  0.00    -0.352 N 
ATOM      3  O   UNL A   1      32.265  18.979  24.956  1.00  0.00    -0.269 OA
ATOM      4  C   UNL A   1      32.936  20.005  25.023  1.00  0.00     0.251 C 
ATOM      5  H   UNL A   1      34.638  19.049  25.485  1.00  0.00     0.163 HD
BRANCH   4   6
ATOM      6  C   UNL A   1      32.313  21.311  24.737  1.00  0.00     0.039 A 
ATOM      7  C   UNL A   1      31.659  22.033  25.739  1.00  0.00     0.016 A 
ATOM      8  C   UNL A   1      32.378  21.811  23.439  1.00  0.00     0.016 A 
ATOM      9  C   UNL A   1      31.002  23.225  25.422  1.00  0.00     0.027 A 
ATOM     10  C   UNL A   1      31.737  23.013  23.137  1.00  0.00     0.027 A 
ATOM     11  C   UNL A   1      31.034  23.733  24.119  1.00  0.00     0.038 A 
BRANCH  11  12
ATOM     12  N   UNL A   1      30.323  24.873  23.712  1.00  0.00    -0.362 N 
ATOM     13  H   UNL A   1      30.160  24.944  22.743  1.00  0.00     0.166 HD
BRANCH  12  14
ATOM     14  C   UNL A   1      29.821  25.901  24.466  1.00  0.00     0.087 C 
ATOM     15  C   UNL A   1      29.591  27.178  24.127  1.00  0.00     0.074 C 
BRANCH  15  16
ATOM     16  C   UNL A   1      29.808  27.820  22.796  1.00  0.00     0.222 C 
ATOM     17  O   UNL A   1      30.598  27.270  22.029  1.00  0.00    -0.286 OA
BRANCH  16  18
ATOM     18  C   UNL A   1      29.102  29.042  22.476  1.00  0.00     0.173 A 
ATOM     19  C   UNL A   1      28.017  29.677  23.058  1.00  0.00     0.054 A 
ATOM     20  O   UNL A   1      29.484  29.737  21.361  1.00  0.00    -0.461 OA
ATOM     21  C   UNL A   1      27.706  30.789  22.238  1.00  0.00     0.043 A 
ATOM     22  C   UNL A   1      28.628  30.780  21.219  1.00  0.00     0.196 A 
ENDBRANCH  16  18
ENDBRANCH  15  16
ENDBRANCH  12  14
ENDBRANCH  11  12
ENDBRANCH   4   6
ENDBRANCH   1   2
BRANCH   1  23
ATOM     23  C   UNL A   1      36.341  21.100  24.705  1.00  0.00     0.023 C 
BRANCH  23  24
ATOM     24  C   UNL A   1      37.416  20.035  24.921  1.00  0.00     0.023 C 
BRANCH  24  25
ATOM     25  C   UNL A   1      38.652  20.486  25.692  1.00  0.00     0.116 C 
BRANCH  25  26
ATOM     26  N   UNL A   1      39.700  19.480  25.736  1.00  0.00    -0.352 N 
ATOM     27  C   UNL A   1      41.016  19.592  26.113  1.00  0.00     0.251 C 
ATOM     28  H   UNL A   1      39.425  18.579  25.451  1.00  0.00     0.163 HD
ATOM     29  O   UNL A   1      41.769  18.633  25.974  1.00  0.00    -0.269 OA
BRANCH  27  30
ATOM     30  C   UNL A   1      41.545  20.868  26.648  1.00  0.00     0.039 A 
ATOM     31  C   UNL A   1      42.056  21.804  25.745  1.00  0.00     0.014 A 
ATOM     32  C   UNL A   1      41.554  21.145  28.018  1.00  0.00     0.014 A 
ATOM     33  C   UNL A   1      42.510  23.041  26.208  1.00  0.00     0.010 A 
ATOM     34  C   UNL A   1      41.939  22.407  28.471  1.00  0.00     0.010 A 
ATOM     35  C   UNL A   1      42.420  23.368  27.571  1.00  0.00    -0.014 A 
BRANCH  35  36
ATOM     36  C   UNL A   1      42.803  24.722  28.046  1.00  0.00     0.031 A 
ATOM     37  C   UNL A   1      41.762  25.777  28.294  1.00  0.00     0.074 A 
ATOM     38  C   UNL A   1      44.106  25.012  28.224  1.00  0.00     0.049 A 
ATOM     39  N   UNL A   1      41.914  26.994  28.753  1.00  0.00    -0.248 NA
ATOM     40  C   UNL A   1      40.372  25.431  27.961  1.00  0.00     0.031 C 
ATOM     41  C   UNL A   1      45.221  24.101  27.951  1.00  0.00     0.029 A 
ATOM     42  N   UNL A   1      44.715  26.154  28.682  1.00  0.00    -0.354 N 
ATOM     43  C   UNL A   1      40.647  27.563  28.751  1.00  0.00     0.074 A 
ATOM     44  C   UNL A   1      39.745  26.574  28.198  1.00  0.00     0.031 C 
ATOM     45  C   UNL A   1      46.372  24.703  28.291  1.00  0.00     0.029 A 
ATOM     46  C   UNL A   1      46.080  26.045  28.783  1.00  0.00     0.049 A 
ATOM     47  H   UNL A   1      44.220  26.972  28.916  1.00  0.00     0.167 HD
ATOM     48  C   UNL A   1      40.265  28.787  29.187  1.00  0.00     0.037 A 
ATOM     49  C   UNL A   1      46.993  26.922  29.239  1.00  0.00     0.037 A 
ATOM     50  C   UNL A   1      41.157  29.759  29.763  1.00  0.00     0.049 A 
ATOM     51  C   UNL A   1      46.541  28.258  29.753  1.00  0.00     0.074 A 
ATOM     52  C   UNL A   1      40.852  30.994  30.311  1.00  0.00     0.029 A 
ATOM     53  N   UNL A   1      42.532  29.607  29.862  1.00  0.00    -0.354 N 
ATOM     54  N   UNL A   1      45.327  28.747  29.832  1.00  0.00    -0.248 NA
ATOM     55  C   UNL A   1      47.587  29.161  30.253  1.00  0.00     0.031 C 
ATOM     56  C   UNL A   1      42.047  31.605  30.707  1.00  0.00     0.029 A 
ATOM     57  C   UNL A   1      43.091  30.734  30.443  1.00  0.00     0.049 A 
ATOM     58  H   UNL A   1      43.035  28.816  29.564  1.00  0.00     0.167 HD
ATOM     59  C   UNL A   1      45.459  30.000  30.415  1.00  0.00     0.074 A 
ATOM     60  C   UNL A   1      46.870  30.190  30.682  1.00  0.00     0.031 C 
ATOM     61  C   UNL A   1      44.498  30.912  30.702  1.00  0.00     0.037 A 
BRANCH  48  62
ATOM     62  C   UNL A   1      38.811  29.139  29.062  1.00  0.00     0.057 A 
ATOM     63  C   UNL A   1      38.258  29.574  27.849  1.00  0.00     0.134 A 
ATOM     64  C   UNL A   1      37.949  29.021  30.159  1.00  0.00     0.134 A 
ATOM     65  F   UNL A   1      39.032  29.721  26.763  1.00  0.00    -0.206 F 
ATOM     66  C   UNL A   1      36.907  29.905  27.740  1.00  0.00     0.040 A 
ATOM     67  C   UNL A   1      36.591  29.324  30.056  1.00  0.00     0.040 A 
ATOM     68  F   UNL A   1      38.412  28.605  31.347  1.00  0.00    -0.206 F 
ATOM     69  C   UNL A   1      36.068  29.776  28.845  1.00  0.00     0.006 A 
ENDBRANCH  48  62
BRANCH  49  70
ATOM     70  C   UNL A   1      48.425  26.539  29.290  1.00  0.00     0.057 A 
ATOM     71  C   UNL A   1      49.293  26.871  28.242  1.00  0.00     0.134 A 
ATOM     72  C   UNL A   1      48.960  25.837  30.375  1.00  0.00     0.134 A 
ATOM     73  F   UNL A   1      48.832  27.528  27.167  1.00  0.00    -0.206 F 
ATOM     74  C   UNL A   1      50.638  26.504  28.264  1.00  0.00     0.040 A 
ATOM     75  C   UNL A   1      50.309  25.482  30.420  1.00  0.00     0.040 A 
ATOM     76  F   UNL A   1      48.181  25.497  31.412  1.00  0.00    -0.206 F 
ATOM     77  C   UNL A   1      51.151  25.811  29.358  1.00  0.00     0.006 A 
ENDBRANCH  49  70
BRANCH  61  78
ATOM     78  C   UNL A   1      44.945  32.182  31.362  1.00  0.00     0.057 A 
ATOM     79  C   UNL A   1      44.962  32.325  32.754  1.00  0.00     0.134 A 
ATOM     80  C   UNL A   1      45.367  33.275  30.593  1.00  0.00     0.134 A 
ATOM     81  F   UNL A   1      44.556  31.321  33.546  1.00  0.00    -0.206 F 
ATOM     82  C   UNL A   1      45.352  33.521  33.360  1.00  0.00     0.040 A 
ATOM     83  C   UNL A   1      45.783  34.467  31.188  1.00  0.00     0.040 A 
ATOM     84  F   UNL A   1      45.382  33.201  29.253  1.00  0.00    -0.206 F 
ATOM     85  C   UNL A   1      45.766  34.595  32.575  1.00  0.00     0.006 A 
ENDBRANCH  61  78
ENDBRANCH  35  36
ENDBRANCH  27  30
ENDBRANCH  25  26
ENDBRANCH  24  25
ENDBRANCH  23  24
ENDBRANCH   1  23
TORSDOF 15
ENDMDL
MODEL 2
REMARK VINA RESULT:     -11.8      1.202      2.415
REMARK SMILES O=C(NCCCCNC(=O)c1ccc(-c2c3nc(c(-c4c(F)cccc4F)c4ccc([nH]4)c(-c4c(F)cccc4F)c4nc(c(-c5c(F)cccc5F)c5ccc2[nH]5)C=C4)C=C3)cc1)c1ccc(N/C=C\C(=O)c2ccco2)cc1
REMARK SMILES IDX 4 1 3 2 1 3 2 4 65 6 66 7 80 8 67 9 79 10 68 11 69 12 70 14
REMARK SMILES IDX 71 15 72 16 73 17 74 18 75 19 78 20 76 21 77 22 5 23 6 24
REMARK SMILES IDX 7 25 8 26 9 27 10 29 11 30 12 31 64 32 13 33 63 34 14 35
REMARK SMILES IDX 15 36 16 37 57 38 17 39 62 40 56 41 58 42 18 43 61 44 55 45
REMARK SMILES IDX 54 46 19 48 45 49 28 50 44 51 29 52 32 53 43 54 59 55 30 56
REMARK SMILES IDX 31 57 42 59 60 60 33 61 20 62 21 63 26 64 22 65 23 66 25 67
REMARK SMILES IDX 27 68 24 69 46 70 47 71 52 72 48 73 49 74 51 75 53 76 50 77
REMARK SMILES IDX 34 78 35 79 40 80 36 81 37 82 39 83 41 84 38 85
REMARK H PARENT 3 5 69 13 8 28 58 47 32 58
REMARK Flexibility Score: inf
ROOT
ATOM      1  C   UNL A   1      35.253  21.098  25.618  1.00  0.00     0.116 C 
ENDROOT
BRANCH   1   2
ATOM      2  N   UNL A   1      34.373  19.947  25.511  1.00  0.00    -0.352 N 
ATOM      3  O   UNL A   1      32.400  18.870  25.289  1.00  0.00    -0.269 OA
ATOM      4  C   UNL A   1      33.036  19.917  25.206  1.00  0.00     0.251 C 
ATOM      5  H   UNL A   1      34.792  19.072  25.679  1.00  0.00     0.163 HD
BRANCH   4   6
ATOM      6  C   UNL A   1      32.352  21.164  24.812  1.00  0.00     0.039 A 
ATOM      7  C   UNL A   1      31.671  21.941  25.753  1.00  0.00     0.016 A 
ATOM      8  C   UNL A   1      32.387  21.549  23.475  1.00  0.00     0.016 A 
ATOM      9  C   UNL A   1      30.959  23.070  25.339  1.00  0.00     0.027 A 
ATOM     10  C   UNL A   1      31.690  22.689  23.074  1.00  0.00     0.027 A 
ATOM     11  C   UNL A   1      30.960  23.461  23.995  1.00  0.00     0.038 A 
BRANCH  11  12
ATOM     12  N   UNL A   1      30.195  24.527  23.496  1.00  0.00    -0.362 N 
ATOM     13  H   UNL A   1      29.709  24.341  22.660  1.00  0.00     0.166 HD
BRANCH  12  14
ATOM     14  C   UNL A   1      30.026  25.788  24.003  1.00  0.00     0.087 C 
ATOM     15  C   UNL A   1      30.899  26.804  24.079  1.00  0.00     0.074 C 
BRANCH  15  16
ATOM     16  C   UNL A   1      32.313  26.828  23.597  1.00  0.00     0.222 C 
ATOM     17  O   UNL A   1      32.587  27.626  22.701  1.00  0.00    -0.286 OA
BRANCH  16  18
ATOM     18  C   UNL A   1      33.277  25.925  24.186  1.00  0.00     0.173 A 
ATOM     19  C   UNL A   1      33.666  25.691  25.495  1.00  0.00     0.054 A 
ATOM     20  O   UNL A   1      34.037  25.153  23.349  1.00  0.00    -0.461 OA
ATOM     21  C   UNL A   1      34.733  24.762  25.446  1.00  0.00     0.043 A 
ATOM     22  C   UNL A   1      34.919  24.466  24.117  1.00  0.00     0.196 A 
ENDBRANCH  16  18
ENDBRANCH  15  16
ENDBRANCH  12  14
ENDBRANCH  11  12
ENDBRANCH   4   6
ENDBRANCH   1   2
BRANCH   1  23
ATOM     23  C   UNL A   1      36.428  21.030  24.647  1.00  0.00     0.023 C 
BRANCH  23  24
ATOM     24  C   UNL A   1      37.476  19.960  24.954  1.00  0.00     0.023 C 
BRANCH  24  25
ATOM     25  C   UNL A   1      38.730  20.447  25.674  1.00  0.00     0.116 C 
BRANCH  25  26
ATOM     26  N   UNL A   1      39.796  19.459  25.699  1.00  0.00    -0.352 N 
ATOM     27  C   UNL A   1      41.111  19.589  26.076  1.00  0.00     0.251 C 
ATOM     28  H   UNL A   1      39.536  18.558  25.400  1.00  0.00     0.163 HD
ATOM     29  O   UNL A   1      41.880  18.646  25.919  1.00  0.00    -0.269 OA
BRANCH  27  30
ATOM     30  C   UNL A   1      41.617  20.865  26.630  1.00  0.00     0.039 A 
ATOM     31  C   UNL A   1      42.140  21.811  25.745  1.00  0.00     0.014 A 
ATOM     32  C   UNL A   1      41.594  21.133  28.002  1.00  0.00     0.014 A 
ATOM     33  C   UNL A   1      42.574  23.048  26.225  1.00  0.00     0.010 A 
ATOM     34  C   UNL A   1      41.959  22.395  28.471  1.00  0.00     0.010 A 
ATOM     35  C   UNL A   1      42.452  23.366  27.588  1.00  0.00    -0.014 A 
BRANCH  35  36
ATOM     36  C   UNL A   1      42.814  24.719  28.080  1.00  0.00     0.031 A 
ATOM     37  C   UNL A   1      41.760  25.767  28.304  1.00  0.00     0.074 A 
ATOM     38  C   UNL A   1      44.110  25.016  28.296  1.00  0.00     0.049 A 
ATOM     39  N   UNL A   1      41.893  26.983  28.773  1.00  0.00    -0.248 NA
ATOM     40  C   UNL A   1      40.382  25.416  27.930  1.00  0.00     0.031 C 
ATOM     41  C   UNL A   1      45.237  24.113  28.050  1.00  0.00     0.029 A 
ATOM     42  N   UNL A   1      44.699  26.159  28.776  1.00  0.00    -0.354 N 
ATOM     43  C   UNL A   1      40.623  27.544  28.738  1.00  0.00     0.074 A 
ATOM     44  C   UNL A   1      39.742  26.554  28.156  1.00  0.00     0.031 C 
ATOM     45  C   UNL A   1      46.374  24.720  28.425  1.00  0.00     0.029 A 
ATOM     46  C   UNL A   1      46.061  26.058  28.914  1.00  0.00     0.049 A 
ATOM     47  H   UNL A   1      44.193  26.973  29.000  1.00  0.00     0.167 HD
ATOM     48  C   UNL A   1      40.221  28.764  29.169  1.00  0.00     0.037 A 
ATOM     49  C   UNL A   1      46.956  26.938  29.400  1.00  0.00     0.037 A 
ATOM     50  C   UNL A   1      41.092  29.738  29.774  1.00  0.00     0.049 A 
ATOM     51  C   UNL A   1      46.482  28.268  29.908  1.00  0.00     0.074 A 
ATOM     52  C   UNL A   1      40.764  30.969  30.320  1.00  0.00     0.029 A 
ATOM     53  N   UNL A   1      42.464  29.594  29.911  1.00  0.00    -0.354 N 
ATOM     54  N   UNL A   1      45.264  28.749  29.956  1.00  0.00    -0.248 NA
ATOM     55  C   UNL A   1      47.508  29.174  30.441  1.00  0.00     0.031 C 
ATOM     56  C   UNL A   1      41.944  31.586  30.752  1.00  0.00     0.029 A 
ATOM     57  C   UNL A   1      43.000  30.722  30.513  1.00  0.00     0.049 A 
ATOM     58  H   UNL A   1      42.980  28.807  29.624  1.00  0.00     0.167 HD
ATOM     59  C   UNL A   1      45.372  30.001  30.547  1.00  0.00     0.074 A 
ATOM     60  C   UNL A   1      46.774  30.197  30.855  1.00  0.00     0.031 C 
ATOM     61  C   UNL A   1      44.398  30.906  30.812  1.00  0.00     0.037 A 
BRANCH  48  62
ATOM     62  C   UNL A   1      38.770  29.109  29.005  1.00  0.00     0.057 A 
ATOM     63  C   UNL A   1      37.864  29.022  30.071  1.00  0.00     0.134 A 
ATOM     64  C   UNL A   1      38.276  29.557  27.773  1.00  0.00     0.134 A 
ATOM     65  F   UNL A   1      38.270  28.588  31.274  1.00  0.00    -0.206 F 
ATOM     66  C   UNL A   1      36.515  29.339  29.911  1.00  0.00     0.040 A 
ATOM     67  C   UNL A   1      36.934  29.902  27.607  1.00  0.00     0.040 A 
ATOM     68  F   UNL A   1      39.090  29.670  26.713  1.00  0.00    -0.206 F 
ATOM     69  C   UNL A   1      36.047  29.786  28.676  1.00  0.00     0.006 A 
ENDBRANCH  48  62
BRANCH  49  70
ATOM     70  C   UNL A   1      48.389  26.562  29.489  1.00  0.00     0.057 A 
ATOM     71  C   UNL A   1      49.278  26.883  28.457  1.00  0.00     0.134 A 
ATOM     72  C   UNL A   1      48.902  25.878  30.597  1.00  0.00     0.134 A 
ATOM     73  F   UNL A   1      48.839  27.522  27.363  1.00  0.00    -0.206 F 
ATOM     74  C   UNL A   1      50.625  26.523  28.515  1.00  0.00     0.040 A 
ATOM     75  C   UNL A   1      50.251  25.530  30.677  1.00  0.00     0.040 A 
ATOM     76  F   UNL A   1      48.100  25.550  31.621  1.00  0.00    -0.206 F 
ATOM     77  C   UNL A   1      51.115  25.849  29.630  1.00  0.00     0.006 A 
ENDBRANCH  49  70
BRANCH  61  78
ATOM     78  C   UNL A   1      44.820  32.175  31.490  1.00  0.00     0.057 A 
ATOM     79  C   UNL A   1      45.191  33.313  30.763  1.00  0.00     0.134 A 
ATOM     80  C   UNL A   1      44.851  32.260  32.888  1.00  0.00     0.134 A 
ATOM     81  F   UNL A   1      45.196  33.291  29.421  1.00  0.00    -0.206 F 
ATOM     82  C   UNL A   1      45.610  34.482  31.402  1.00  0.00     0.040 A 
ATOM     83  C   UNL A   1      45.245  33.431  33.537  1.00  0.00     0.040 A 
ATOM     84  F   UNL A   1      44.501  31.209  33.644  1.00  0.00    -0.206 F 
ATOM     85  C   UNL A   1      45.635  34.542  32.793  1.00  0.00     0.006 A 
ENDBRANCH  61  78
ENDBRANCH  35  36
ENDBRANCH  27  30
ENDBRANCH  25  26
ENDBRANCH  24  25
ENDBRANCH  23  24
ENDBRANCH   1  23
TORSDOF 15
ENDMDL
MODEL 3
REMARK VINA RESULT:     -11.8      1.303      6.293
REMARK SMILES O=C(NCCCCNC(=O)c1ccc(-c2c3nc(c(-c4c(F)cccc4F)c4ccc([nH]4)c(-c4c(F)cccc4F)c4nc(c(-c5c(F)cccc5F)c5ccc2[nH]5)C=C4)C=C3)cc1)c1ccc(N/C=C\C(=O)c2ccco2)cc1
REMARK SMILES IDX 4 1 3 2 1 3 2 4 65 6 66 7 80 8 67 9 79 10 68 11 69 12 70 14
REMARK SMILES IDX 71 15 72 16 73 17 74 18 75 19 78 20 76 21 77 22 5 23 6 24
REMARK SMILES IDX 7 25 8 26 9 27 10 29 11 30 12 31 64 32 13 33 63 34 14 35
REMARK SMILES IDX 15 36 16 37 57 38 17 39 62 40 56 41 58 42 18 43 61 44 55 45
REMARK SMILES IDX 54 46 19 48 45 49 28 50 44 51 29 52 32 53 43 54 59 55 30 56
REMARK SMILES IDX 31 57 42 59 60 60 33 61 20 62 21 63 26 64 22 65 23 66 25 67
REMARK SMILES IDX 27 68 24 69 46 70 47 71 52 72 48 73 49 74 51 75 53 76 50 77
REMARK SMILES IDX 34 78 35 79 40 80 36 81 37 82 39 83 41 84 38 85
REMARK H PARENT 3 5 69 13 8 28 58 47 32 58
REMARK Flexibility Score: inf
ROOT
ATOM      1  C   UNL A   1      35.335  21.179  25.554  1.00  0.00     0.116 C 
ENDROOT
BRANCH   1   2
ATOM      2  N   UNL A   1      34.373  20.095  25.464  1.00  0.00    -0.352 N 
ATOM      3  O   UNL A   1      32.328  19.164  25.238  1.00  0.00    -0.269 OA
ATOM      4  C   UNL A   1      33.042  20.157  25.137  1.00  0.00     0.251 C 
ATOM      5  H   UNL A   1      34.721  19.196  25.665  1.00  0.00     0.163 HD
BRANCH   4   6
ATOM      6  C   UNL A   1      32.460  21.439  24.695  1.00  0.00     0.039 A 
ATOM      7  C   UNL A   1      32.652  21.906  23.391  1.00  0.00     0.016 A 
ATOM      8  C   UNL A   1      31.721  22.185  25.608  1.00  0.00     0.016 A 
ATOM      9  C   UNL A   1      32.165  23.163  23.024  1.00  0.00     0.027 A 
ATOM     10  C   UNL A   1      31.220  23.430  25.226  1.00  0.00     0.027 A 
ATOM     11  C   UNL A   1      31.441  23.941  23.934  1.00  0.00     0.038 A 
BRANCH  11  12
ATOM     12  N   UNL A   1      31.002  25.247  23.662  1.00  0.00    -0.362 N 
ATOM     13  H   UNL A   1      31.538  25.743  23.001  1.00  0.00     0.166 HD
BRANCH  12  14
ATOM     14  C   UNL A   1      29.936  25.932  24.181  1.00  0.00     0.087 C 
ATOM     15  C   UNL A   1      29.421  27.117  23.820  1.00  0.00     0.074 C 
BRANCH  15  16
ATOM     16  C   UNL A   1      29.879  28.009  22.713  1.00  0.00     0.222 C 
ATOM     17  O   UNL A   1      30.754  27.572  21.965  1.00  0.00    -0.286 OA
BRANCH  16  18
ATOM     18  C   UNL A   1      29.292  29.324  22.575  1.00  0.00     0.173 A 
ATOM     19  C   UNL A   1      29.008  30.324  23.490  1.00  0.00     0.054 A 
ATOM     20  O   UNL A   1      28.855  29.711  21.338  1.00  0.00    -0.461 OA
ATOM     21  C   UNL A   1      28.336  31.350  22.781  1.00  0.00     0.043 A 
ATOM     22  C   UNL A   1      28.269  30.927  21.476  1.00  0.00     0.196 A 
ENDBRANCH  16  18
ENDBRANCH  15  16
ENDBRANCH  12  14
ENDBRANCH  11  12
ENDBRANCH   4   6
ENDBRANCH   1   2
BRANCH   1  23
ATOM     23  C   UNL A   1      36.522  20.990  24.613  1.00  0.00     0.023 C 
BRANCH  23  24
ATOM     24  C   UNL A   1      37.478  19.855  24.978  1.00  0.00     0.023 C 
BRANCH  24  25
ATOM     25  C   UNL A   1      38.731  20.265  25.747  1.00  0.00     0.116 C 
BRANCH  25  26
ATOM     26  N   UNL A   1      39.768  19.247  25.736  1.00  0.00    -0.352 N 
ATOM     27  C   UNL A   1      41.117  19.359  25.973  1.00  0.00     0.251 C 
ATOM     28  H   UNL A   1      39.457  18.337  25.527  1.00  0.00     0.163 HD
ATOM     29  O   UNL A   1      41.843  18.383  25.808  1.00  0.00    -0.269 OA
BRANCH  27  30
ATOM     30  C   UNL A   1      41.709  20.652  26.386  1.00  0.00     0.039 A 
ATOM     31  C   UNL A   1      42.040  21.577  25.392  1.00  0.00     0.014 A 
ATOM     32  C   UNL A   1      41.950  20.957  27.729  1.00  0.00     0.014 A 
ATOM     33  C   UNL A   1      42.546  22.828  25.747  1.00  0.00     0.010 A 
ATOM     34  C   UNL A   1      42.386  22.232  28.086  1.00  0.00     0.010 A 
ATOM     35  C   UNL A   1      42.688  23.182  27.099  1.00  0.00    -0.014 A 
BRANCH  35  36
ATOM     36  C   UNL A   1      43.126  24.549  27.477  1.00  0.00     0.031 A 
ATOM     37  C   UNL A   1      44.565  24.963  27.350  1.00  0.00     0.074 A 
ATOM     38  C   UNL A   1      42.222  25.416  27.973  1.00  0.00     0.049 A 
ATOM     39  N   UNL A   1      45.113  26.129  27.591  1.00  0.00    -0.248 NA
ATOM     40  C   UNL A   1      45.519  23.929  26.920  1.00  0.00     0.031 C 
ATOM     41  C   UNL A   1      40.808  25.117  28.215  1.00  0.00     0.029 A 
ATOM     42  N   UNL A   1      42.354  26.726  28.358  1.00  0.00    -0.354 N 
ATOM     43  C   UNL A   1      46.472  25.966  27.355  1.00  0.00     0.074 A 
ATOM     44  C   UNL A   1      46.673  24.576  27.001  1.00  0.00     0.031 C 
ATOM     45  C   UNL A   1      40.196  26.225  28.662  1.00  0.00     0.029 A 
ATOM     46  C   UNL A   1      41.174  27.303  28.760  1.00  0.00     0.049 A 
ATOM     47  H   UNL A   1      43.213  27.207  28.347  1.00  0.00     0.167 HD
ATOM     48  C   UNL A   1      47.460  26.891  27.409  1.00  0.00     0.037 A 
ATOM     49  C   UNL A   1      40.907  28.564  29.145  1.00  0.00     0.037 A 
ATOM     50  C   UNL A   1      47.256  28.279  27.733  1.00  0.00     0.049 A 
ATOM     51  C   UNL A   1      42.011  29.581  29.159  1.00  0.00     0.074 A 
ATOM     52  C   UNL A   1      48.179  29.311  27.731  1.00  0.00     0.029 A 
ATOM     53  N   UNL A   1      46.043  28.829  28.120  1.00  0.00    -0.354 N 
ATOM     54  N   UNL A   1      43.275  29.435  28.843  1.00  0.00    -0.248 NA
ATOM     55  C   UNL A   1      41.647  30.944  29.573  1.00  0.00     0.031 C 
ATOM     56  C   UNL A   1      47.533  30.478  28.155  1.00  0.00     0.029 A 
ATOM     57  C   UNL A   1      46.199  30.182  28.380  1.00  0.00     0.049 A 
ATOM     58  H   UNL A   1      45.197  28.332  28.198  1.00  0.00     0.167 HD
ATOM     59  C   UNL A   1      43.851  30.690  28.993  1.00  0.00     0.074 A 
ATOM     60  C   UNL A   1      42.795  31.587  29.413  1.00  0.00     0.031 C 
ATOM     61  C   UNL A   1      45.140  31.064  28.800  1.00  0.00     0.037 A 
BRANCH  48  62
ATOM     62  C   UNL A   1      48.854  26.428  27.103  1.00  0.00     0.057 A 
ATOM     63  C   UNL A   1      49.367  26.439  25.799  1.00  0.00     0.134 A 
ATOM     64  C   UNL A   1      49.703  25.987  28.127  1.00  0.00     0.134 A 
ATOM     65  F   UNL A   1      48.602  26.837  24.771  1.00  0.00    -0.206 F 
ATOM     66  C   UNL A   1      50.663  26.003  25.520  1.00  0.00     0.040 A 
ATOM     67  C   UNL A   1      51.009  25.573  27.864  1.00  0.00     0.040 A 
ATOM     68  F   UNL A   1      49.277  25.956  29.398  1.00  0.00    -0.206 F 
ATOM     69  C   UNL A   1      51.490  25.572  26.556  1.00  0.00     0.006 A 
ENDBRANCH  48  62
BRANCH  49  70
ATOM     70  C   UNL A   1      39.517  28.954  29.489  1.00  0.00     0.057 A 
ATOM     71  C   UNL A   1      38.648  29.442  28.507  1.00  0.00     0.134 A 
ATOM     72  C   UNL A   1      39.027  28.851  30.795  1.00  0.00     0.134 A 
ATOM     73  F   UNL A   1      39.069  29.579  27.241  1.00  0.00    -0.206 F 
ATOM     74  C   UNL A   1      37.343  29.829  28.814  1.00  0.00     0.040 A 
ATOM     75  C   UNL A   1      37.718  29.215  31.112  1.00  0.00     0.040 A 
ATOM     76  F   UNL A   1      39.810  28.383  31.778  1.00  0.00    -0.206 F 
ATOM     77  C   UNL A   1      36.874  29.711  30.120  1.00  0.00     0.006 A 
ENDBRANCH  49  70
BRANCH  61  78
ATOM     78  C   UNL A   1      45.464  32.512  29.018  1.00  0.00     0.057 A 
ATOM     79  C   UNL A   1      45.330  33.461  27.997  1.00  0.00     0.134 A 
ATOM     80  C   UNL A   1      45.914  32.962  30.266  1.00  0.00     0.134 A 
ATOM     81  F   UNL A   1      44.919  33.091  26.775  1.00  0.00    -0.206 F 
ATOM     82  C   UNL A   1      45.663  34.802  28.200  1.00  0.00     0.040 A 
ATOM     83  C   UNL A   1      46.225  34.304  30.488  1.00  0.00     0.040 A 
ATOM     84  F   UNL A   1      46.057  32.105  31.289  1.00  0.00    -0.206 F 
ATOM     85  C   UNL A   1      46.109  35.226  29.450  1.00  0.00     0.006 A 
ENDBRANCH  61  78
ENDBRANCH  35  36
ENDBRANCH  27  30
ENDBRANCH  25  26
ENDBRANCH  24  25
ENDBRANCH  23  24
ENDBRANCH   1  23
TORSDOF 15
ENDMDL
