MODEL 1
REMARK VINA RESULT:     -12.5      0.000      0.000
REMARK SMILES NS(=O)(=O)c1ccc(/N=C/c2ccc(O)c(C(=O)NCCCCNC(=O)c3ccc(-c4c5nc(c(-c6c(F)cccc6F)c6ccc([nH]6)c(-c6c(F)cccc6F)c6nc(c(-c7c(F)cccc7F)c7ccc4[nH]7)C=C6)C=C5)cc3)c2)cc1
REMARK SMILES IDX 20 1 19 2 17 3 18 4 16 6 11 7 12 8 81 9 13 10 14 11 10 12
REMARK SMILES IDX 9 13 8 14 5 15 6 16 83 17 7 18 82 19 2 20 3 21 4 22 1 23
REMARK SMILES IDX 15 26 21 28 22 29 23 30 24 31 25 32 26 34 27 35 28 36 80 37
REMARK SMILES IDX 29 38 79 39 30 40 31 41 32 42 73 43 33 44 78 45 72 46 74 47
REMARK SMILES IDX 34 48 77 49 71 50 70 51 35 53 61 54 44 55 60 56 45 57 48 58
REMARK SMILES IDX 59 59 75 60 46 61 47 62 58 64 76 65 49 66 36 67 37 68 42 69
REMARK SMILES IDX 38 70 39 71 41 72 43 73 40 74 62 75 63 76 68 77 64 78 65 79
REMARK SMILES IDX 67 80 69 81 66 82 50 83 51 84 56 85 52 86 53 87 55 88 57 89
REMARK SMILES IDX 54 90
REMARK H PARENT 19 5 1 24 1 25 15 27 24 33 74 52 48 63
REMARK Flexibility Score: inf
ROOT
ATOM      1  C   UNL A   1      32.794  29.965  26.097  1.00  0.00     0.116 C 
ENDROOT
BRANCH   1   2
ATOM      2  N   UNL A   1      33.286  29.788  24.736  1.00  0.00    -0.352 N 
ATOM      3  C   UNL A   1      32.796  29.029  23.693  1.00  0.00     0.255 C 
ATOM      4  O   UNL A   1      33.426  28.978  22.636  1.00  0.00    -0.269 OA
ATOM      5  H   UNL A   1      34.105  30.292  24.527  1.00  0.00     0.163 HD
BRANCH   3   6
ATOM      6  C   UNL A   1      31.578  28.190  23.821  1.00  0.00     0.082 A 
ATOM      7  C   UNL A   1      30.564  26.016  24.122  1.00  0.00    -0.006 A 
ATOM      8  C   UNL A   1      29.341  26.492  23.652  1.00  0.00     0.013 A 
ATOM      9  C   UNL A   1      31.641  26.886  24.303  1.00  0.00     0.027 A 
ATOM     10  C   UNL A   1      29.221  27.846  23.325  1.00  0.00     0.047 A 
ATOM     11  C   UNL A   1      30.338  28.684  23.392  1.00  0.00     0.128 A 
BRANCH   7  12
ATOM     12  C   UNL A   1      30.805  24.563  24.273  1.00  0.00     0.119 C 
ATOM     13  N   UNL A   1      31.976  24.089  23.989  1.00  0.00    -0.256 NA
BRANCH  13  14
ATOM     14  C   UNL A   1      32.228  22.713  24.020  1.00  0.00     0.063 A 
ATOM     15  C   UNL A   1      32.516  19.924  23.970  1.00  0.00     0.082 A 
ATOM     16  C   UNL A   1      32.203  20.610  22.795  1.00  0.00     0.024 A 
ATOM     17  C   UNL A   1      32.662  20.615  25.175  1.00  0.00     0.024 A 
ATOM     18  C   UNL A   1      32.063  21.999  22.828  1.00  0.00     0.030 A 
ATOM     19  C   UNL A   1      32.507  22.006  25.197  1.00  0.00     0.030 A 
BRANCH  15  20
ATOM     20  S   UNL A   1      32.685  18.166  23.888  1.00  0.00     0.238 S 
ATOM     21  O   UNL A   1      31.847  17.585  24.909  1.00  0.00    -0.207 OA
ATOM     22  O   UNL A   1      34.084  17.843  23.741  1.00  0.00    -0.207 OA
BRANCH  20  23
ATOM     23  N   UNL A   1      31.981  17.737  22.421  1.00  0.00    -0.225 NA
ATOM     24  H   UNL A   1      31.506  18.546  22.022  1.00  0.00     0.137 HD
ATOM     25  H   UNL A   1      31.306  16.988  22.574  1.00  0.00     0.137 HD
ENDBRANCH  20  23
ENDBRANCH  15  20
ENDBRANCH  13  14
ENDBRANCH   7  12
BRANCH  11  26
ATOM     26  O   UNL A   1      30.151  29.984  23.002  1.00  0.00    -0.507 OA
ATOM     27  H   UNL A   1      30.593  30.312  22.244  1.00  0.00     0.293 HD
ENDBRANCH  11  26
ENDBRANCH   3   6
ENDBRANCH   1   2
BRANCH   1  28
ATOM     28  C   UNL A   1      31.415  30.604  26.196  1.00  0.00     0.023 C 
BRANCH  28  29
ATOM     29  C   UNL A   1      31.375  32.089  26.526  1.00  0.00     0.023 C 
BRANCH  29  30
ATOM     30  C   UNL A   1      32.634  32.670  27.157  1.00  0.00     0.116 C 
BRANCH  30  31
ATOM     31  N   UNL A   1      32.462  34.008  27.699  1.00  0.00    -0.352 N 
ATOM     32  C   UNL A   1      33.208  34.676  28.643  1.00  0.00     0.251 C 
ATOM     33  H   UNL A   1      31.699  34.512  27.335  1.00  0.00     0.163 HD
ATOM     34  O   UNL A   1      32.859  35.791  29.020  1.00  0.00    -0.269 OA
BRANCH  32  35
ATOM     35  C   UNL A   1      34.406  34.044  29.237  1.00  0.00     0.039 A 
ATOM     36  C   UNL A   1      34.230  33.043  30.198  1.00  0.00     0.014 A 
ATOM     37  C   UNL A   1      35.696  34.426  28.860  1.00  0.00     0.014 A 
ATOM     38  C   UNL A   1      35.342  32.385  30.728  1.00  0.00     0.010 A 
ATOM     39  C   UNL A   1      36.796  33.707  29.318  1.00  0.00     0.010 A 
ATOM     40  C   UNL A   1      36.635  32.689  30.268  1.00  0.00    -0.014 A 
BRANCH  40  41
ATOM     41  C   UNL A   1      37.823  31.974  30.799  1.00  0.00     0.031 A 
ATOM     42  C   UNL A   1      38.363  32.315  32.163  1.00  0.00     0.074 A 
ATOM     43  C   UNL A   1      38.443  31.049  30.042  1.00  0.00     0.049 A 
ATOM     44  N   UNL A   1      39.395  31.815  32.793  1.00  0.00    -0.248 NA
ATOM     45  C   UNL A   1      37.671  33.382  32.902  1.00  0.00     0.031 C 
ATOM     46  C   UNL A   1      38.061  30.671  28.680  1.00  0.00     0.029 A 
ATOM     47  N   UNL A   1      39.530  30.255  30.312  1.00  0.00    -0.354 N 
ATOM     48  C   UNL A   1      39.483  32.515  33.991  1.00  0.00     0.074 A 
ATOM     49  C   UNL A   1      38.442  33.519  33.970  1.00  0.00     0.031 C 
ATOM     50  C   UNL A   1      38.878  29.696  28.248  1.00  0.00     0.029 A 
ATOM     51  C   UNL A   1      39.856  29.398  29.289  1.00  0.00     0.049 A 
ATOM     52  H   UNL A   1      40.030  30.296  31.160  1.00  0.00     0.167 HD
ATOM     53  C   UNL A   1      40.331  32.320  35.028  1.00  0.00     0.037 A 
ATOM     54  C   UNL A   1      40.828  28.470  29.205  1.00  0.00     0.037 A 
ATOM     55  C   UNL A   1      41.345  31.301  35.063  1.00  0.00     0.049 A 
ATOM     56  C   UNL A   1      41.739  28.254  30.382  1.00  0.00     0.074 A 
ATOM     57  C   UNL A   1      42.215  30.981  36.090  1.00  0.00     0.029 A 
ATOM     58  N   UNL A   1      41.622  30.431  34.018  1.00  0.00    -0.354 N 
ATOM     59  N   UNL A   1      41.760  28.870  31.538  1.00  0.00    -0.248 NA
ATOM     60  C   UNL A   1      42.752  27.198  30.246  1.00  0.00     0.031 C 
ATOM     61  C   UNL A   1      43.044  29.942  35.654  1.00  0.00     0.029 A 
ATOM     62  C   UNL A   1      42.660  29.583  34.372  1.00  0.00     0.049 A 
ATOM     63  H   UNL A   1      41.152  30.417  33.154  1.00  0.00     0.167 HD
ATOM     64  C   UNL A   1      42.765  28.260  32.278  1.00  0.00     0.074 A 
ATOM     65  C   UNL A   1      43.318  27.212  31.445  1.00  0.00     0.031 C 
ATOM     66  C   UNL A   1      43.194  28.541  33.533  1.00  0.00     0.037 A 
BRANCH  53  67
ATOM     67  C   UNL A   1      40.183  33.226  36.216  1.00  0.00     0.057 A 
ATOM     68  C   UNL A   1      39.268  32.954  37.244  1.00  0.00     0.134 A 
ATOM     69  C   UNL A   1      40.975  34.374  36.347  1.00  0.00     0.134 A 
ATOM     70  F   UNL A   1      38.469  31.879  37.175  1.00  0.00    -0.206 F 
ATOM     71  C   UNL A   1      39.123  33.807  38.340  1.00  0.00     0.040 A 
ATOM     72  C   UNL A   1      40.860  35.218  37.453  1.00  0.00     0.040 A 
ATOM     73  F   UNL A   1      41.875  34.692  35.404  1.00  0.00    -0.206 F 
ATOM     74  C   UNL A   1      39.926  34.941  38.449  1.00  0.00     0.006 A 
ENDBRANCH  53  67
BRANCH  54  75
ATOM     75  C   UNL A   1      40.964  27.641  27.982  1.00  0.00     0.057 A 
ATOM     76  C   UNL A   1      40.328  26.398  27.877  1.00  0.00     0.134 A 
ATOM     77  C   UNL A   1      41.741  28.060  26.896  1.00  0.00     0.134 A 
ATOM     78  F   UNL A   1      39.583  25.934  28.892  1.00  0.00    -0.206 F 
ATOM     79  C   UNL A   1      40.478  25.590  26.749  1.00  0.00     0.040 A 
ATOM     80  C   UNL A   1      41.881  27.273  25.750  1.00  0.00     0.040 A 
ATOM     81  F   UNL A   1      42.370  29.244  26.928  1.00  0.00    -0.206 F 
ATOM     82  C   UNL A   1      41.255  26.031  25.679  1.00  0.00     0.006 A 
ENDBRANCH  54  75
BRANCH  66  83
ATOM     83  C   UNL A   1      44.288  27.678  34.090  1.00  0.00     0.057 A 
ATOM     84  C   UNL A   1      44.019  26.468  34.743  1.00  0.00     0.134 A 
ATOM     85  C   UNL A   1      45.630  28.056  33.956  1.00  0.00     0.134 A 
ATOM     86  F   UNL A   1      42.754  26.056  34.917  1.00  0.00    -0.206 F 
ATOM     87  C   UNL A   1      45.043  25.682  35.273  1.00  0.00     0.040 A 
ATOM     88  C   UNL A   1      46.664  27.264  34.456  1.00  0.00     0.040 A 
ATOM     89  F   UNL A   1      45.958  29.197  33.332  1.00  0.00    -0.206 F 
ATOM     90  C   UNL A   1      46.371  26.078  35.125  1.00  0.00     0.006 A 
ENDBRANCH  66  83
ENDBRANCH  40  41
ENDBRANCH  32  35
ENDBRANCH  30  31
ENDBRANCH  29  30
ENDBRANCH  28  29
ENDBRANCH   1  28
TORSDOF 16
ENDMDL
MODEL 2
REMARK VINA RESULT:     -12.2      4.680      9.629
REMARK SMILES NS(=O)(=O)c1ccc(/N=C/c2ccc(O)c(C(=O)NCCCCNC(=O)c3ccc(-c4c5nc(c(-c6c(F)cccc6F)c6ccc([nH]6)c(-c6c(F)cccc6F)c6nc(c(-c7c(F)cccc7F)c7ccc4[nH]7)C=C6)C=C5)cc3)c2)cc1
REMARK SMILES IDX 20 1 19 2 17 3 18 4 16 6 11 7 12 8 81 9 13 10 14 11 10 12
REMARK SMILES IDX 9 13 8 14 5 15 6 16 83 17 7 18 82 19 2 20 3 21 4 22 1 23
REMARK SMILES IDX 15 26 21 28 22 29 23 30 24 31 25 32 26 34 27 35 28 36 80 37
REMARK SMILES IDX 29 38 79 39 30 40 31 41 32 42 73 43 33 44 78 45 72 46 74 47
REMARK SMILES IDX 34 48 77 49 71 50 70 51 35 53 61 54 44 55 60 56 45 57 48 58
REMARK SMILES IDX 59 59 75 60 46 61 47 62 58 64 76 65 49 66 36 67 37 68 42 69
REMARK SMILES IDX 38 70 39 71 41 72 43 73 40 74 62 75 63 76 68 77 64 78 65 79
REMARK SMILES IDX 67 80 69 81 66 82 50 83 51 84 56 85 52 86 53 87 55 88 57 89
REMARK SMILES IDX 54 90
REMARK H PARENT 19 5 1 24 1 25 15 27 24 33 74 52 48 63
REMARK Flexibility Score: inf
ROOT
ATOM      1  C   UNL A   1      35.959  21.541  25.012  1.00  0.00     0.116 C 
ENDROOT
BRANCH   1   2
ATOM      2  N   UNL A   1      34.997  20.542  24.562  1.00  0.00    -0.352 N 
ATOM      3  C   UNL A   1      33.627  20.481  24.712  1.00  0.00     0.255 C 
ATOM      4  O   UNL A   1      33.019  19.492  24.301  1.00  0.00    -0.269 OA
ATOM      5  H   UNL A   1      35.390  19.786  24.071  1.00  0.00     0.163 HD
BRANCH   3   6
ATOM      6  C   UNL A   1      32.856  21.524  25.434  1.00  0.00     0.082 A 
ATOM      7  C   UNL A   1      31.542  23.554  25.390  1.00  0.00    -0.006 A 
ATOM      8  C   UNL A   1      31.744  23.744  26.756  1.00  0.00     0.013 A 
ATOM      9  C   UNL A   1      32.007  22.396  24.760  1.00  0.00     0.027 A 
ATOM     10  C   UNL A   1      32.454  22.781  27.478  1.00  0.00     0.047 A 
ATOM     11  C   UNL A   1      33.021  21.688  26.817  1.00  0.00     0.128 A 
BRANCH   7  12
ATOM     12  C   UNL A   1      30.993  24.637  24.545  1.00  0.00     0.119 C 
ATOM     13  N   UNL A   1      30.802  25.806  25.067  1.00  0.00    -0.256 NA
BRANCH  13  14
ATOM     14  C   UNL A   1      30.195  26.836  24.340  1.00  0.00     0.063 A 
ATOM     15  C   UNL A   1      29.029  29.049  23.073  1.00  0.00     0.082 A 
ATOM     16  C   UNL A   1      30.323  29.146  23.587  1.00  0.00     0.024 A 
ATOM     17  C   UNL A   1      28.302  27.864  23.207  1.00  0.00     0.024 A 
ATOM     18  C   UNL A   1      30.897  28.039  24.215  1.00  0.00     0.030 A 
ATOM     19  C   UNL A   1      28.885  26.765  23.850  1.00  0.00     0.030 A 
BRANCH  15  20
ATOM     20  S   UNL A   1      28.337  30.471  22.285  1.00  0.00     0.238 S 
ATOM     21  O   UNL A   1      27.338  31.032  23.164  1.00  0.00    -0.207 OA
ATOM     22  O   UNL A   1      28.075  30.152  20.902  1.00  0.00    -0.207 OA
BRANCH  20  23
ATOM     23  N   UNL A   1      29.591  31.592  22.246  1.00  0.00    -0.225 NA
ATOM     24  H   UNL A   1      30.308  31.323  22.919  1.00  0.00     0.137 HD
ATOM     25  H   UNL A   1      29.230  32.515  22.484  1.00  0.00     0.137 HD
ENDBRANCH  20  23
ENDBRANCH  15  20
ENDBRANCH  13  14
ENDBRANCH   7  12
BRANCH  11  26
ATOM     26  O   UNL A   1      33.749  20.819  27.585  1.00  0.00    -0.507 OA
ATOM     27  H   UNL A   1      34.402  21.147  28.172  1.00  0.00     0.293 HD
ENDBRANCH  11  26
ENDBRANCH   3   6
ENDBRANCH   1   2
BRANCH   1  28
ATOM     28  C   UNL A   1      37.381  21.326  24.511  1.00  0.00     0.023 C 
BRANCH  28  29
ATOM     29  C   UNL A   1      38.050  20.016  24.903  1.00  0.00     0.023 C 
BRANCH  29  30
ATOM     30  C   UNL A   1      39.088  20.100  26.015  1.00  0.00     0.116 C 
BRANCH  30  31
ATOM     31  N   UNL A   1      40.188  19.159  25.871  1.00  0.00    -0.352 N 
ATOM     32  C   UNL A   1      41.538  19.356  26.040  1.00  0.00     0.251 C 
ATOM     33  H   UNL A   1      39.926  18.245  25.617  1.00  0.00     0.163 HD
ATOM     34  O   UNL A   1      42.323  18.440  25.806  1.00  0.00    -0.269 OA
BRANCH  32  35
ATOM     35  C   UNL A   1      42.059  20.675  26.462  1.00  0.00     0.039 A 
ATOM     36  C   UNL A   1      42.466  21.581  25.479  1.00  0.00     0.014 A 
ATOM     37  C   UNL A   1      42.148  21.025  27.812  1.00  0.00     0.014 A 
ATOM     38  C   UNL A   1      42.901  22.857  25.847  1.00  0.00     0.010 A 
ATOM     39  C   UNL A   1      42.491  22.326  28.171  1.00  0.00     0.010 A 
ATOM     40  C   UNL A   1      42.886  23.252  27.195  1.00  0.00    -0.014 A 
BRANCH  40  41
ATOM     41  C   UNL A   1      43.314  24.616  27.597  1.00  0.00     0.031 A 
ATOM     42  C   UNL A   1      42.285  25.656  27.954  1.00  0.00     0.074 A 
ATOM     43  C   UNL A   1      44.623  24.936  27.600  1.00  0.00     0.049 A 
ATOM     44  N   UNL A   1      42.458  26.903  28.314  1.00  0.00    -0.248 NA
ATOM     45  C   UNL A   1      40.873  25.251  27.863  1.00  0.00     0.031 C 
ATOM     46  C   UNL A   1      45.716  24.042  27.213  1.00  0.00     0.029 A 
ATOM     47  N   UNL A   1      45.257  26.104  27.943  1.00  0.00    -0.354 N 
ATOM     48  C   UNL A   1      41.183  27.430  28.477  1.00  0.00     0.074 A 
ATOM     49  C   UNL A   1      40.246  26.390  28.112  1.00  0.00     0.031 C 
ATOM     50  C   UNL A   1      46.886  24.682  27.372  1.00  0.00     0.029 A 
ATOM     51  C   UNL A   1      46.626  26.037  27.848  1.00  0.00     0.049 A 
ATOM     52  H   UNL A   1      44.776  26.914  28.229  1.00  0.00     0.167 HD
ATOM     53  C   UNL A   1      40.822  28.657  28.921  1.00  0.00     0.037 A 
ATOM     54  C   UNL A   1      47.564  26.963  28.120  1.00  0.00     0.037 A 
ATOM     55  C   UNL A   1      41.753  29.680  29.315  1.00  0.00     0.049 A 
ATOM     56  C   UNL A   1      47.139  28.309  28.639  1.00  0.00     0.074 A 
ATOM     57  C   UNL A   1      41.489  30.935  29.835  1.00  0.00     0.029 A 
ATOM     58  N   UNL A   1      43.132  29.562  29.234  1.00  0.00    -0.354 N 
ATOM     59  N   UNL A   1      45.931  28.767  28.862  1.00  0.00    -0.248 NA
ATOM     60  C   UNL A   1      48.211  29.261  28.960  1.00  0.00     0.031 C 
ATOM     61  C   UNL A   1      42.708  31.591  30.035  1.00  0.00     0.029 A 
ATOM     62  C   UNL A   1      43.733  30.728  29.682  1.00  0.00     0.049 A 
ATOM     63  H   UNL A   1      43.614  28.769  28.906  1.00  0.00     0.167 HD
ATOM     64  C   UNL A   1      46.098  30.047  29.376  1.00  0.00     0.074 A 
ATOM     65  C   UNL A   1      47.525  30.285  29.448  1.00  0.00     0.031 C 
ATOM     66  C   UNL A   1      45.155  30.946  29.753  1.00  0.00     0.037 A 
BRANCH  53  67
ATOM     67  C   UNL A   1      39.352  28.950  29.014  1.00  0.00     0.057 A 
ATOM     68  C   UNL A   1      38.635  28.763  30.204  1.00  0.00     0.134 A 
ATOM     69  C   UNL A   1      38.646  29.440  27.908  1.00  0.00     0.134 A 
ATOM     70  F   UNL A   1      39.247  28.283  31.297  1.00  0.00    -0.206 F 
ATOM     71  C   UNL A   1      37.265  29.022  30.283  1.00  0.00     0.040 A 
ATOM     72  C   UNL A   1      37.283  29.731  27.982  1.00  0.00     0.040 A 
ATOM     73  F   UNL A   1      39.271  29.647  26.739  1.00  0.00    -0.206 F 
ATOM     74  C   UNL A   1      36.587  29.514  29.169  1.00  0.00     0.006 A 
ENDBRANCH  53  67
BRANCH  54  75
ATOM     75  C   UNL A   1      49.003  26.637  27.955  1.00  0.00     0.057 A 
ATOM     76  C   UNL A   1      49.675  26.921  26.761  1.00  0.00     0.134 A 
ATOM     77  C   UNL A   1      49.737  26.023  28.977  1.00  0.00     0.134 A 
ATOM     78  F   UNL A   1      49.022  27.493  25.739  1.00  0.00    -0.206 F 
ATOM     79  C   UNL A   1      51.017  26.585  26.577  1.00  0.00     0.040 A 
ATOM     80  C   UNL A   1      51.087  25.703  28.816  1.00  0.00     0.040 A 
ATOM     81  F   UNL A   1      49.155  25.732  30.149  1.00  0.00    -0.206 F 
ATOM     82  C   UNL A   1      51.728  25.977  27.610  1.00  0.00     0.006 A 
ENDBRANCH  54  75
BRANCH  66  83
ATOM     83  C   UNL A   1      45.642  32.251  30.311  1.00  0.00     0.057 A 
ATOM     84  C   UNL A   1      45.899  32.424  31.678  1.00  0.00     0.134 A 
ATOM     85  C   UNL A   1      45.873  33.344  29.467  1.00  0.00     0.134 A 
ATOM     86  F   UNL A   1      45.686  31.420  32.542  1.00  0.00    -0.206 F 
ATOM     87  C   UNL A   1      46.334  33.647  32.189  1.00  0.00     0.040 A 
ATOM     88  C   UNL A   1      46.335  34.564  29.962  1.00  0.00     0.040 A 
ATOM     89  F   UNL A   1      45.657  33.243  28.147  1.00  0.00    -0.206 F 
ATOM     90  C   UNL A   1      46.559  34.721  31.329  1.00  0.00     0.006 A 
ENDBRANCH  66  83
ENDBRANCH  40  41
ENDBRANCH  32  35
ENDBRANCH  30  31
ENDBRANCH  29  30
ENDBRANCH  28  29
ENDBRANCH   1  28
TORSDOF 16
ENDMDL
MODEL 3
REMARK VINA RESULT:     -12.2      2.395      2.993
REMARK SMILES NS(=O)(=O)c1ccc(/N=C/c2ccc(O)c(C(=O)NCCCCNC(=O)c3ccc(-c4c5nc(c(-c6c(F)cccc6F)c6ccc([nH]6)c(-c6c(F)cccc6F)c6nc(c(-c7c(F)cccc7F)c7ccc4[nH]7)C=C6)C=C5)cc3)c2)cc1
REMARK SMILES IDX 20 1 19 2 17 3 18 4 16 6 11 7 12 8 81 9 13 10 14 11 10 12
REMARK SMILES IDX 9 13 8 14 5 15 6 16 83 17 7 18 82 19 2 20 3 21 4 22 1 23
REMARK SMILES IDX 15 26 21 28 22 29 23 30 24 31 25 32 26 34 27 35 28 36 80 37
REMARK SMILES IDX 29 38 79 39 30 40 31 41 32 42 73 43 33 44 78 45 72 46 74 47
REMARK SMILES IDX 34 48 77 49 71 50 70 51 35 53 61 54 44 55 60 56 45 57 48 58
REMARK SMILES IDX 59 59 75 60 46 61 47 62 58 64 76 65 49 66 36 67 37 68 42 69
REMARK SMILES IDX 38 70 39 71 41 72 43 73 40 74 62 75 63 76 68 77 64 78 65 79
REMARK SMILES IDX 67 80 69 81 66 82 50 83 51 84 56 85 52 86 53 87 55 88 57 89
REMARK SMILES IDX 54 90
REMARK H PARENT 19 5 1 24 1 25 15 27 24 33 74 52 48 63
REMARK Flexibility Score: inf
ROOT
ATOM      1  C   UNL A   1      31.892  29.201  25.612  1.00  0.00     0.116 C 
ENDROOT
BRANCH   1   2
ATOM      2  N   UNL A   1      32.729  29.567  24.476  1.00  0.00    -0.352 N 
ATOM      3  C   UNL A   1      33.239  28.799  23.450  1.00  0.00     0.255 C 
ATOM      4  O   UNL A   1      33.991  29.318  22.623  1.00  0.00    -0.269 OA
ATOM      5  H   UNL A   1      32.972  30.520  24.434  1.00  0.00     0.163 HD
BRANCH   3   6
ATOM      6  C   UNL A   1      32.993  27.339  23.347  1.00  0.00     0.082 A 
ATOM      7  C   UNL A   1      33.799  25.067  23.545  1.00  0.00    -0.006 A 
ATOM      8  C   UNL A   1      32.735  24.595  22.779  1.00  0.00     0.013 A 
ATOM      9  C   UNL A   1      33.865  26.414  23.913  1.00  0.00     0.027 A 
ATOM     10  C   UNL A   1      31.756  25.497  22.349  1.00  0.00     0.047 A 
ATOM     11  C   UNL A   1      31.896  26.861  22.616  1.00  0.00     0.128 A 
BRANCH   7  12
ATOM     12  C   UNL A   1      34.965  24.204  23.839  1.00  0.00     0.119 C 
ATOM     13  N   UNL A   1      35.224  23.895  25.068  1.00  0.00    -0.256 NA
BRANCH  13  14
ATOM     14  C   UNL A   1      36.368  23.165  25.408  1.00  0.00     0.063 A 
ATOM     15  C   UNL A   1      38.795  21.886  25.991  1.00  0.00     0.082 A 
ATOM     16  C   UNL A   1      38.596  23.210  26.387  1.00  0.00     0.024 A 
ATOM     17  C   UNL A   1      37.802  21.202  25.285  1.00  0.00     0.024 A 
ATOM     18  C   UNL A   1      37.384  23.839  26.094  1.00  0.00     0.030 A 
ATOM     19  C   UNL A   1      36.597  21.849  24.987  1.00  0.00     0.030 A 
BRANCH  15  20
ATOM     20  S   UNL A   1      40.341  21.124  26.380  1.00  0.00     0.238 S 
ATOM     21  O   UNL A   1      40.476  21.084  27.817  1.00  0.00    -0.207 OA
ATOM     22  O   UNL A   1      41.356  21.668  25.511  1.00  0.00    -0.207 OA
BRANCH  20  23
ATOM     23  N   UNL A   1      40.163  19.522  25.895  1.00  0.00    -0.225 NA
ATOM     24  H   UNL A   1      40.158  18.918  26.715  1.00  0.00     0.137 HD
ATOM     25  H   UNL A   1      40.938  19.263  25.285  1.00  0.00     0.137 HD
ENDBRANCH  20  23
ENDBRANCH  15  20
ENDBRANCH  13  14
ENDBRANCH   7  12
BRANCH  11  26
ATOM     26  O   UNL A   1      30.925  27.685  22.112  1.00  0.00    -0.507 OA
ATOM     27  H   UNL A   1      30.853  27.813  21.187  1.00  0.00     0.293 HD
ENDBRANCH  11  26
ENDBRANCH   3   6
ENDBRANCH   1   2
BRANCH   1  28
ATOM     28  C   UNL A   1      32.147  30.009  26.877  1.00  0.00     0.023 C 
BRANCH  28  29
ATOM     29  C   UNL A   1      31.560  31.412  26.919  1.00  0.00     0.023 C 
BRANCH  29  30
ATOM     30  C   UNL A   1      32.491  32.542  26.499  1.00  0.00     0.116 C 
BRANCH  30  31
ATOM     31  N   UNL A   1      32.313  33.770  27.258  1.00  0.00    -0.352 N 
ATOM     32  C   UNL A   1      33.040  34.261  28.316  1.00  0.00     0.251 C 
ATOM     33  H   UNL A   1      31.559  34.335  26.969  1.00  0.00     0.163 HD
ATOM     34  O   UNL A   1      32.688  35.299  28.871  1.00  0.00    -0.269 OA
BRANCH  32  35
ATOM     35  C   UNL A   1      34.223  33.528  28.820  1.00  0.00     0.039 A 
ATOM     36  C   UNL A   1      35.491  34.080  28.614  1.00  0.00     0.014 A 
ATOM     37  C   UNL A   1      34.095  32.309  29.490  1.00  0.00     0.014 A 
ATOM     38  C   UNL A   1      36.619  33.442  29.135  1.00  0.00     0.010 A 
ATOM     39  C   UNL A   1      35.207  31.725  30.088  1.00  0.00     0.010 A 
ATOM     40  C   UNL A   1      36.484  32.274  29.905  1.00  0.00    -0.014 A 
BRANCH  40  41
ATOM     41  C   UNL A   1      37.672  31.604  30.493  1.00  0.00     0.031 A 
ATOM     42  C   UNL A   1      38.077  31.893  31.914  1.00  0.00     0.074 A 
ATOM     43  C   UNL A   1      38.413  30.769  29.738  1.00  0.00     0.049 A 
ATOM     44  N   UNL A   1      39.087  31.420  32.600  1.00  0.00    -0.248 NA
ATOM     45  C   UNL A   1      37.256  32.866  32.652  1.00  0.00     0.031 C 
ATOM     46  C   UNL A   1      38.169  30.454  28.330  1.00  0.00     0.029 A 
ATOM     47  N   UNL A   1      39.527  30.031  30.054  1.00  0.00    -0.354 N 
ATOM     48  C   UNL A   1      39.030  32.048  33.838  1.00  0.00     0.074 A 
ATOM     49  C   UNL A   1      37.927  32.983  33.787  1.00  0.00     0.031 C 
ATOM     50  C   UNL A   1      39.082  29.562  27.913  1.00  0.00     0.029 A 
ATOM     51  C   UNL A   1      39.991  29.261  29.014  1.00  0.00     0.049 A 
ATOM     52  H   UNL A   1      39.953  30.050  30.941  1.00  0.00     0.167 HD
ATOM     53  C   UNL A   1      39.803  31.843  34.931  1.00  0.00     0.037 A 
ATOM     54  C   UNL A   1      41.028  28.404  28.960  1.00  0.00     0.037 A 
ATOM     55  C   UNL A   1      40.878  30.889  34.992  1.00  0.00     0.049 A 
ATOM     56  C   UNL A   1      41.854  28.173  30.195  1.00  0.00     0.074 A 
ATOM     57  C   UNL A   1      41.683  30.562  36.069  1.00  0.00     0.029 A 
ATOM     58  N   UNL A   1      41.297  30.106  33.927  1.00  0.00    -0.354 N 
ATOM     59  N   UNL A   1      41.740  28.716  31.382  1.00  0.00    -0.248 NA
ATOM     60  C   UNL A   1      42.945  27.194  30.085  1.00  0.00     0.031 C 
ATOM     61  C   UNL A   1      42.613  29.607  35.646  1.00  0.00     0.029 A 
ATOM     62  C   UNL A   1      42.359  29.305  34.318  1.00  0.00     0.049 A 
ATOM     63  H   UNL A   1      40.900  30.117  33.026  1.00  0.00     0.167 HD
ATOM     64  C   UNL A   1      42.722  28.125  32.168  1.00  0.00     0.074 A 
ATOM     65  C   UNL A   1      43.410  27.168  31.325  1.00  0.00     0.031 C 
ATOM     66  C   UNL A   1      43.028  28.354  33.469  1.00  0.00     0.037 A 
BRANCH  53  67
ATOM     67  C   UNL A   1      39.498  32.662  36.152  1.00  0.00     0.057 A 
ATOM     68  C   UNL A   1      40.139  33.884  36.402  1.00  0.00     0.134 A 
ATOM     69  C   UNL A   1      38.541  32.236  37.081  1.00  0.00     0.134 A 
ATOM     70  F   UNL A   1      41.077  34.343  35.559  1.00  0.00    -0.206 F 
ATOM     71  C   UNL A   1      39.864  34.634  37.546  1.00  0.00     0.040 A 
ATOM     72  C   UNL A   1      38.236  32.992  38.214  1.00  0.00     0.040 A 
ATOM     73  F   UNL A   1      37.885  31.079  36.902  1.00  0.00    -0.206 F 
ATOM     74  C   UNL A   1      38.904  34.191  38.453  1.00  0.00     0.006 A 
ENDBRANCH  53  67
BRANCH  54  75
ATOM     75  C   UNL A   1      41.318  27.664  27.706  1.00  0.00     0.057 A 
ATOM     76  C   UNL A   1      40.800  26.381  27.489  1.00  0.00     0.134 A 
ATOM     77  C   UNL A   1      42.129  28.209  26.704  1.00  0.00     0.134 A 
ATOM     78  F   UNL A   1      40.031  25.798  28.420  1.00  0.00    -0.206 F 
ATOM     79  C   UNL A   1      41.096  25.657  26.333  1.00  0.00     0.040 A 
ATOM     80  C   UNL A   1      42.413  27.507  25.531  1.00  0.00     0.040 A 
ATOM     81  F   UNL A   1      42.649  29.437  26.846  1.00  0.00    -0.206 F 
ATOM     82  C   UNL A   1      41.903  26.223  25.348  1.00  0.00     0.006 A 
ENDBRANCH  54  75
BRANCH  66  83
ATOM     83  C   UNL A   1      44.130  27.529  34.066  1.00  0.00     0.057 A 
ATOM     84  C   UNL A   1      43.887  26.281  34.654  1.00  0.00     0.134 A 
ATOM     85  C   UNL A   1      45.455  27.983  34.036  1.00  0.00     0.134 A 
ATOM     86  F   UNL A   1      42.639  25.794  34.726  1.00  0.00    -0.206 F 
ATOM     87  C   UNL A   1      44.917  25.530  35.221  1.00  0.00     0.040 A 
ATOM     88  C   UNL A   1      46.497  27.228  34.575  1.00  0.00     0.040 A 
ATOM     89  F   UNL A   1      45.758  29.165  33.478  1.00  0.00    -0.206 F 
ATOM     90  C   UNL A   1      46.228  26.001  35.179  1.00  0.00     0.006 A 
ENDBRANCH  66  83
ENDBRANCH  40  41
ENDBRANCH  32  35
ENDBRANCH  30  31
ENDBRANCH  29  30
ENDBRANCH  28  29
ENDBRANCH   1  28
TORSDOF 16
ENDMDL
