MODEL 1
REMARK VINA RESULT:     -12.1      0.000      0.000
REMARK SMILES Cc1cc(C)cc(CSc2cc(C(=O)NCCCCNC(=O)c3ccc(-c4c5nc(c(-c6c(F)cccc6F)c6ccc([nH]6)c(-c6c(F)cccc6F)c6nc(c(-c7c(F)cccc7F)c7ccc4[nH]7)C=C6)C=C5)cc3)cc(Cl)n2)c1
REMARK SMILES IDX 17 1 16 2 15 3 13 4 14 5 12 7 10 8 11 9 80 10 78 11 77 12
REMARK SMILES IDX 79 13 9 14 8 15 7 16 1 17 2 18 3 19 81 20 4 21 5 22 6 23
REMARK SMILES IDX 18 24 19 25 20 26 21 27 22 29 23 30 24 31 76 32 25 33 75 34
REMARK SMILES IDX 26 35 27 36 28 37 69 38 29 39 74 40 68 41 70 42 30 43 73 44
REMARK SMILES IDX 67 45 66 46 31 48 57 49 40 50 56 51 41 52 44 53 55 54 71 55
REMARK SMILES IDX 42 56 43 57 54 59 72 60 45 61 32 62 33 63 38 64 34 65 35 66
REMARK SMILES IDX 37 67 39 68 36 69 58 70 59 71 64 72 60 73 61 74 63 75 65 76
REMARK SMILES IDX 62 77 46 78 47 79 52 80 48 81 49 82 51 83 53 84 50 85
REMARK H PARENT 15 6 20 28 70 47 44 58
REMARK Flexibility Score: inf
ROOT
ATOM      1  C   UNL A   1      36.600  20.601  24.970  1.00  0.00     0.023 C 
ENDROOT
BRANCH   1   2
ATOM      2  C   UNL A   1      36.933  21.944  25.621  1.00  0.00     0.116 C 
BRANCH   2   3
ATOM      3  N   UNL A   1      35.887  22.338  26.542  1.00  0.00    -0.352 N 
ATOM      4  C   UNL A   1      34.777  23.133  26.442  1.00  0.00     0.251 C 
ATOM      5  O   UNL A   1      34.094  23.246  27.462  1.00  0.00    -0.269 OA
ATOM      6  H   UNL A   1      35.998  21.948  27.440  1.00  0.00     0.163 HD
BRANCH   4   7
ATOM      7  C   UNL A   1      34.326  23.835  25.205  1.00  0.00     0.045 A 
ATOM      8  C   UNL A   1      33.751  25.948  24.198  1.00  0.00     0.099 A 
ATOM      9  C   UNL A   1      34.164  25.227  25.306  1.00  0.00     0.049 A 
ATOM     10  N   UNL A   1      33.494  25.366  23.016  1.00  0.00    -0.230 NA
ATOM     11  C   UNL A   1      33.649  24.038  22.940  1.00  0.00     0.131 A 
ATOM     12  C   UNL A   1      34.091  23.237  23.974  1.00  0.00     0.055 A 
ATOM     13  Cl  UNL A   1      33.247  23.362  21.415  1.00  0.00    -0.062 Cl
BRANCH   8  14
ATOM     14  S   UNL A   1      33.672  27.724  24.253  1.00  0.00    -0.102 SA
BRANCH  14  15
ATOM     15  C   UNL A   1      32.844  28.086  22.671  1.00  0.00     0.112 C 
BRANCH  15  16
ATOM     16  C   UNL A   1      31.349  28.283  22.725  1.00  0.00    -0.037 A 
ATOM     17  C   UNL A   1      28.802  30.945  21.725  1.00  0.00     0.044 C 
ATOM     18  C   UNL A   1      29.403  29.681  22.265  1.00  0.00    -0.051 A 
ATOM     19  C   UNL A   1      28.580  28.715  22.855  1.00  0.00     0.006 A 
ATOM     20  C   UNL A   1      30.782  29.458  22.204  1.00  0.00     0.008 A 
ATOM     21  C   UNL A   1      29.121  27.532  23.373  1.00  0.00    -0.051 A 
ATOM     22  C   UNL A   1      28.223  26.527  24.031  1.00  0.00     0.044 C 
ATOM     23  C   UNL A   1      30.501  27.315  23.286  1.00  0.00     0.008 A 
ENDBRANCH  15  16
ENDBRANCH  14  15
ENDBRANCH   8  14
ENDBRANCH   4   7
ENDBRANCH   2   3
ENDBRANCH   1   2
BRANCH   1  24
ATOM     24  C   UNL A   1      37.798  19.647  24.864  1.00  0.00     0.023 C 
BRANCH  24  25
ATOM     25  C   UNL A   1      39.048  20.089  25.622  1.00  0.00     0.116 C 
BRANCH  25  26
ATOM     26  N   UNL A   1      40.060  19.049  25.714  1.00  0.00    -0.352 N 
ATOM     27  C   UNL A   1      41.388  19.154  26.045  1.00  0.00     0.251 C 
ATOM     28  H   UNL A   1      39.747  18.138  25.509  1.00  0.00     0.163 HD
ATOM     29  O   UNL A   1      42.122  18.179  25.952  1.00  0.00    -0.269 OA
BRANCH  27  30
ATOM     30  C   UNL A   1      41.937  20.458  26.474  1.00  0.00     0.039 A 
ATOM     31  C   UNL A   1      42.403  21.336  25.493  1.00  0.00     0.014 A 
ATOM     32  C   UNL A   1      41.990  20.817  27.823  1.00  0.00     0.014 A 
ATOM     33  C   UNL A   1      42.868  22.598  25.864  1.00  0.00     0.010 A 
ATOM     34  C   UNL A   1      42.381  22.104  28.184  1.00  0.00     0.010 A 
ATOM     35  C   UNL A   1      42.826  23.007  27.208  1.00  0.00    -0.014 A 
BRANCH  35  36
ATOM     36  C   UNL A   1      43.227  24.386  27.584  1.00  0.00     0.031 A 
ATOM     37  C   UNL A   1      44.666  24.815  27.522  1.00  0.00     0.074 A 
ATOM     38  C   UNL A   1      42.283  25.249  28.009  1.00  0.00     0.049 A 
ATOM     39  N   UNL A   1      45.188  25.989  27.772  1.00  0.00    -0.248 NA
ATOM     40  C   UNL A   1      45.653  23.786  27.155  1.00  0.00     0.031 C 
ATOM     41  C   UNL A   1      40.862  24.932  28.179  1.00  0.00     0.029 A 
ATOM     42  N   UNL A   1      42.372  26.570  28.367  1.00  0.00    -0.354 N 
ATOM     43  C   UNL A   1      46.557  25.842  27.593  1.00  0.00     0.074 A 
ATOM     44  C   UNL A   1      46.794  24.450  27.277  1.00  0.00     0.031 C 
ATOM     45  C   UNL A   1      40.207  26.038  28.564  1.00  0.00     0.029 A 
ATOM     46  C   UNL A   1      41.163  27.132  28.701  1.00  0.00     0.049 A 
ATOM     47  H   UNL A   1      43.221  27.069  28.383  1.00  0.00     0.167 HD
ATOM     48  C   UNL A   1      47.527  26.786  27.658  1.00  0.00     0.037 A 
ATOM     49  C   UNL A   1      40.859  28.389  29.071  1.00  0.00     0.037 A 
ATOM     50  C   UNL A   1      47.286  28.172  27.962  1.00  0.00     0.049 A 
ATOM     51  C   UNL A   1      41.953  29.419  29.130  1.00  0.00     0.074 A 
ATOM     52  C   UNL A   1      48.191  29.218  27.998  1.00  0.00     0.029 A 
ATOM     53  N   UNL A   1      46.048  28.705  28.293  1.00  0.00    -0.354 N 
ATOM     54  N   UNL A   1      43.231  29.283  28.873  1.00  0.00    -0.248 NA
ATOM     55  C   UNL A   1      41.557  30.778  29.520  1.00  0.00     0.031 C 
ATOM     56  C   UNL A   1      47.512  30.373  28.402  1.00  0.00     0.029 A 
ATOM     57  C   UNL A   1      46.172  30.060  28.560  1.00  0.00     0.049 A 
ATOM     58  H   UNL A   1      45.206  28.196  28.333  1.00  0.00     0.167 HD
ATOM     59  C   UNL A   1      43.789  30.544  29.045  1.00  0.00     0.074 A 
ATOM     60  C   UNL A   1      42.702  31.434  29.401  1.00  0.00     0.031 C 
ATOM     61  C   UNL A   1      45.083  30.931  28.922  1.00  0.00     0.037 A 
BRANCH  48  62
ATOM     62  C   UNL A   1      48.939  26.348  27.390  1.00  0.00     0.057 A 
ATOM     63  C   UNL A   1      49.503  26.407  26.107  1.00  0.00     0.134 A 
ATOM     64  C   UNL A   1      49.760  25.899  28.433  1.00  0.00     0.134 A 
ATOM     65  F   UNL A   1      48.770  26.815  25.061  1.00  0.00    -0.206 F 
ATOM     66  C   UNL A   1      50.820  26.010  25.868  1.00  0.00     0.040 A 
ATOM     67  C   UNL A   1      51.088  25.528  28.210  1.00  0.00     0.040 A 
ATOM     68  F   UNL A   1      49.289  25.822  29.687  1.00  0.00    -0.206 F 
ATOM     69  C   UNL A   1      51.619  25.577  26.924  1.00  0.00     0.006 A 
ENDBRANCH  48  62
BRANCH  49  70
ATOM     70  C   UNL A   1      39.453  28.755  29.383  1.00  0.00     0.057 A 
ATOM     71  C   UNL A   1      38.942  28.632  30.681  1.00  0.00     0.134 A 
ATOM     72  C   UNL A   1      38.582  29.222  28.391  1.00  0.00     0.134 A 
ATOM     73  F   UNL A   1      39.722  28.174  31.672  1.00  0.00    -0.206 F 
ATOM     74  C   UNL A   1      37.613  28.934  30.977  1.00  0.00     0.040 A 
ATOM     75  C   UNL A   1      37.258  29.558  28.678  1.00  0.00     0.040 A 
ATOM     76  F   UNL A   1      39.011  29.373  27.129  1.00  0.00    -0.206 F 
ATOM     77  C   UNL A   1      36.768  29.404  29.973  1.00  0.00     0.006 A 
ENDBRANCH  49  70
BRANCH  61  78
ATOM     78  C   UNL A   1      45.381  32.386  29.150  1.00  0.00     0.057 A 
ATOM     79  C   UNL A   1      45.313  33.330  28.115  1.00  0.00     0.134 A 
ATOM     80  C   UNL A   1      45.741  32.849  30.422  1.00  0.00     0.134 A 
ATOM     81  F   UNL A   1      44.986  32.952  26.870  1.00  0.00    -0.206 F 
ATOM     82  C   UNL A   1      45.632  34.672  28.330  1.00  0.00     0.040 A 
ATOM     83  C   UNL A   1      46.029  34.194  30.655  1.00  0.00     0.040 A 
ATOM     84  F   UNL A   1      45.814  32.003  31.461  1.00  0.00    -0.206 F 
ATOM     85  C   UNL A   1      45.988  35.108  29.604  1.00  0.00     0.006 A 
ENDBRANCH  61  78
ENDBRANCH  35  36
ENDBRANCH  27  30
ENDBRANCH  25  26
ENDBRANCH  24  25
ENDBRANCH   1  24
TORSDOF 14
ENDMDL
MODEL 2
REMARK VINA RESULT:     -12.1      2.007      2.752
REMARK SMILES Cc1cc(C)cc(CSc2cc(C(=O)NCCCCNC(=O)c3ccc(-c4c5nc(c(-c6c(F)cccc6F)c6ccc([nH]6)c(-c6c(F)cccc6F)c6nc(c(-c7c(F)cccc7F)c7ccc4[nH]7)C=C6)C=C5)cc3)cc(Cl)n2)c1
REMARK SMILES IDX 17 1 16 2 15 3 13 4 14 5 12 7 10 8 11 9 80 10 78 11 77 12
REMARK SMILES IDX 79 13 9 14 8 15 7 16 1 17 2 18 3 19 81 20 4 21 5 22 6 23
REMARK SMILES IDX 18 24 19 25 20 26 21 27 22 29 23 30 24 31 76 32 25 33 75 34
REMARK SMILES IDX 26 35 27 36 28 37 69 38 29 39 74 40 68 41 70 42 30 43 73 44
REMARK SMILES IDX 67 45 66 46 31 48 57 49 40 50 56 51 41 52 44 53 55 54 71 55
REMARK SMILES IDX 42 56 43 57 54 59 72 60 45 61 32 62 33 63 38 64 34 65 35 66
REMARK SMILES IDX 37 67 39 68 36 69 58 70 59 71 64 72 60 73 61 74 63 75 65 76
REMARK SMILES IDX 62 77 46 78 47 79 52 80 48 81 49 82 51 83 53 84 50 85
REMARK H PARENT 15 6 20 28 70 47 44 58
REMARK Flexibility Score: inf
ROOT
ATOM      1  C   UNL A   1      38.894  22.630  26.209  1.00  0.00     0.023 C 
ENDROOT
BRANCH   1   2
ATOM      2  C   UNL A   1      37.658  23.465  25.871  1.00  0.00     0.116 C 
BRANCH   2   3
ATOM      3  N   UNL A   1      37.387  23.422  24.449  1.00  0.00    -0.352 N 
ATOM      4  C   UNL A   1      36.305  23.055  23.695  1.00  0.00     0.251 C 
ATOM      5  O   UNL A   1      36.435  23.150  22.473  1.00  0.00    -0.269 OA
ATOM      6  H   UNL A   1      38.149  23.723  23.903  1.00  0.00     0.163 HD
BRANCH   4   7
ATOM      7  C   UNL A   1      34.995  22.587  24.234  1.00  0.00     0.045 A 
ATOM      8  C   UNL A   1      32.745  23.200  24.844  1.00  0.00     0.099 A 
ATOM      9  C   UNL A   1      33.990  23.561  24.355  1.00  0.00     0.049 A 
ATOM     10  N   UNL A   1      32.454  21.944  25.213  1.00  0.00    -0.230 NA
ATOM     11  C   UNL A   1      33.425  21.029  25.095  1.00  0.00     0.131 A 
ATOM     12  C   UNL A   1      34.684  21.279  24.585  1.00  0.00     0.055 A 
ATOM     13  Cl  UNL A   1      32.994  19.460  25.640  1.00  0.00    -0.062 Cl
BRANCH   8  14
ATOM     14  S   UNL A   1      31.412  24.377  24.878  1.00  0.00    -0.102 SA
BRANCH  14  15
ATOM     15  C   UNL A   1      31.994  25.527  26.165  1.00  0.00     0.112 C 
BRANCH  15  16
ATOM     16  C   UNL A   1      31.838  26.999  25.870  1.00  0.00    -0.037 A 
ATOM     17  C   UNL A   1      30.210  29.202  23.211  1.00  0.00     0.044 C 
ATOM     18  C   UNL A   1      30.973  28.767  24.427  1.00  0.00    -0.051 A 
ATOM     19  C   UNL A   1      31.572  29.723  25.254  1.00  0.00     0.006 A 
ATOM     20  C   UNL A   1      31.110  27.410  24.742  1.00  0.00     0.008 A 
ATOM     21  C   UNL A   1      32.296  29.338  26.389  1.00  0.00    -0.051 A 
ATOM     22  C   UNL A   1      32.958  30.381  27.240  1.00  0.00     0.044 C 
ATOM     23  C   UNL A   1      32.407  27.978  26.700  1.00  0.00     0.008 A 
ENDBRANCH  15  16
ENDBRANCH  14  15
ENDBRANCH   8  14
ENDBRANCH   4   7
ENDBRANCH   2   3
ENDBRANCH   1   2
BRANCH   1  24
ATOM     24  C   UNL A   1      38.950  21.280  25.482  1.00  0.00     0.023 C 
BRANCH  24  25
ATOM     25  C   UNL A   1      39.343  20.088  26.354  1.00  0.00     0.116 C 
BRANCH  25  26
ATOM     26  N   UNL A   1      40.504  19.370  25.851  1.00  0.00    -0.352 N 
ATOM     27  C   UNL A   1      41.819  19.760  25.817  1.00  0.00     0.251 C 
ATOM     28  H   UNL A   1      40.319  18.475  25.484  1.00  0.00     0.163 HD
ATOM     29  O   UNL A   1      42.649  19.067  25.242  1.00  0.00    -0.269 OA
BRANCH  27  30
ATOM     30  C   UNL A   1      42.224  21.039  26.439  1.00  0.00     0.039 A 
ATOM     31  C   UNL A   1      42.591  22.096  25.603  1.00  0.00     0.014 A 
ATOM     32  C   UNL A   1      42.238  21.201  27.826  1.00  0.00     0.014 A 
ATOM     33  C   UNL A   1      42.916  23.333  26.160  1.00  0.00     0.010 A 
ATOM     34  C   UNL A   1      42.487  22.456  28.376  1.00  0.00     0.010 A 
ATOM     35  C   UNL A   1      42.830  23.534  27.549  1.00  0.00    -0.014 A 
BRANCH  35  36
ATOM     36  C   UNL A   1      43.079  24.878  28.128  1.00  0.00     0.031 A 
ATOM     37  C   UNL A   1      44.469  25.313  28.499  1.00  0.00     0.074 A 
ATOM     38  C   UNL A   1      42.034  25.702  28.341  1.00  0.00     0.049 A 
ATOM     39  N   UNL A   1      44.874  26.464  28.973  1.00  0.00    -0.248 NA
ATOM     40  C   UNL A   1      45.543  24.320  28.340  1.00  0.00     0.031 C 
ATOM     41  C   UNL A   1      40.630  25.370  28.087  1.00  0.00     0.029 A 
ATOM     42  N   UNL A   1      41.990  26.990  28.811  1.00  0.00    -0.354 N 
ATOM     43  C   UNL A   1      46.243  26.334  29.168  1.00  0.00     0.074 A 
ATOM     44  C   UNL A   1      46.590  24.972  28.823  1.00  0.00     0.031 C 
ATOM     45  C   UNL A   1      39.868  26.440  28.361  1.00  0.00     0.029 A 
ATOM     46  C   UNL A   1      40.722  27.521  28.842  1.00  0.00     0.049 A 
ATOM     47  H   UNL A   1      42.790  27.487  29.100  1.00  0.00     0.167 HD
ATOM     48  C   UNL A   1      47.134  27.271  29.572  1.00  0.00     0.037 A 
ATOM     49  C   UNL A   1      40.298  28.743  29.209  1.00  0.00     0.037 A 
ATOM     50  C   UNL A   1      46.785  28.628  29.905  1.00  0.00     0.049 A 
ATOM     51  C   UNL A   1      41.309  29.766  29.649  1.00  0.00     0.074 A 
ATOM     52  C   UNL A   1      47.621  29.668  30.271  1.00  0.00     0.029 A 
ATOM     53  N   UNL A   1      45.492  29.130  29.922  1.00  0.00    -0.354 N 
ATOM     54  N   UNL A   1      42.611  29.654  29.745  1.00  0.00    -0.248 NA
ATOM     55  C   UNL A   1      40.789  31.089  30.019  1.00  0.00     0.031 C 
ATOM     56  C   UNL A   1      46.829  30.785  30.561  1.00  0.00     0.029 A 
ATOM     57  C   UNL A   1      45.505  30.458  30.318  1.00  0.00     0.049 A 
ATOM     58  H   UNL A   1      44.684  28.617  29.688  1.00  0.00     0.167 HD
ATOM     59  C   UNL A   1      43.070  30.898  30.162  1.00  0.00     0.074 A 
ATOM     60  C   UNL A   1      41.906  31.754  30.272  1.00  0.00     0.031 C 
ATOM     61  C   UNL A   1      44.338  31.296  30.431  1.00  0.00     0.037 A 
BRANCH  48  62
ATOM     62  C   UNL A   1      48.576  26.858  29.671  1.00  0.00     0.057 A 
ATOM     63  C   UNL A   1      49.482  27.074  28.624  1.00  0.00     0.134 A 
ATOM     64  C   UNL A   1      49.075  26.275  30.843  1.00  0.00     0.134 A 
ATOM     65  F   UNL A   1      49.069  27.617  27.469  1.00  0.00    -0.206 F 
ATOM     66  C   UNL A   1      50.823  26.700  28.727  1.00  0.00     0.040 A 
ATOM     67  C   UNL A   1      50.421  25.924  30.970  1.00  0.00     0.040 A 
ATOM     68  F   UNL A   1      48.266  26.044  31.889  1.00  0.00    -0.206 F 
ATOM     69  C   UNL A   1      51.298  26.130  29.907  1.00  0.00     0.006 A 
ENDBRANCH  48  62
BRANCH  49  70
ATOM     70  C   UNL A   1      38.853  29.080  29.149  1.00  0.00     0.057 A 
ATOM     71  C   UNL A   1      38.254  29.499  27.954  1.00  0.00     0.134 A 
ATOM     72  C   UNL A   1      38.037  29.006  30.285  1.00  0.00     0.134 A 
ATOM     73  F   UNL A   1      38.986  29.607  26.835  1.00  0.00    -0.206 F 
ATOM     74  C   UNL A   1      36.907  29.857  27.895  1.00  0.00     0.040 A 
ATOM     75  C   UNL A   1      36.681  29.331  30.234  1.00  0.00     0.040 A 
ATOM     76  F   UNL A   1      38.545  28.602  31.458  1.00  0.00    -0.206 F 
ATOM     77  C   UNL A   1      36.115  29.768  29.039  1.00  0.00     0.006 A 
ENDBRANCH  49  70
BRANCH  61  78
ATOM     78  C   UNL A   1      44.527  32.727  30.846  1.00  0.00     0.057 A 
ATOM     79  C   UNL A   1      44.522  33.118  32.192  1.00  0.00     0.134 A 
ATOM     80  C   UNL A   1      44.717  33.729  29.885  1.00  0.00     0.134 A 
ATOM     81  F   UNL A   1      44.334  32.211  33.163  1.00  0.00    -0.206 F 
ATOM     82  C   UNL A   1      44.657  34.457  32.564  1.00  0.00     0.040 A 
ATOM     83  C   UNL A   1      44.887  35.066  30.247  1.00  0.00     0.040 A 
ATOM     84  F   UNL A   1      44.746  33.425  28.579  1.00  0.00    -0.206 F 
ATOM     85  C   UNL A   1      44.844  35.435  31.590  1.00  0.00     0.006 A 
ENDBRANCH  61  78
ENDBRANCH  35  36
ENDBRANCH  27  30
ENDBRANCH  25  26
ENDBRANCH  24  25
ENDBRANCH   1  24
TORSDOF 14
ENDMDL
MODEL 3
REMARK VINA RESULT:     -12.0      1.503      2.081
REMARK SMILES Cc1cc(C)cc(CSc2cc(C(=O)NCCCCNC(=O)c3ccc(-c4c5nc(c(-c6c(F)cccc6F)c6ccc([nH]6)c(-c6c(F)cccc6F)c6nc(c(-c7c(F)cccc7F)c7ccc4[nH]7)C=C6)C=C5)cc3)cc(Cl)n2)c1
REMARK SMILES IDX 17 1 16 2 15 3 13 4 14 5 12 7 10 8 11 9 80 10 78 11 77 12
REMARK SMILES IDX 79 13 9 14 8 15 7 16 1 17 2 18 3 19 81 20 4 21 5 22 6 23
REMARK SMILES IDX 18 24 19 25 20 26 21 27 22 29 23 30 24 31 76 32 25 33 75 34
REMARK SMILES IDX 26 35 27 36 28 37 69 38 29 39 74 40 68 41 70 42 30 43 73 44
REMARK SMILES IDX 67 45 66 46 31 48 57 49 40 50 56 51 41 52 44 53 55 54 71 55
REMARK SMILES IDX 42 56 43 57 54 59 72 60 45 61 32 62 33 63 38 64 34 65 35 66
REMARK SMILES IDX 37 67 39 68 36 69 58 70 59 71 64 72 60 73 61 74 63 75 65 76
REMARK SMILES IDX 62 77 46 78 47 79 52 80 48 81 49 82 51 83 53 84 50 85
REMARK H PARENT 15 6 20 28 70 47 44 58
REMARK Flexibility Score: inf
ROOT
ATOM      1  C   UNL A   1      36.492  20.696  25.099  1.00  0.00     0.023 C 
ENDROOT
BRANCH   1   2
ATOM      2  C   UNL A   1      36.686  22.087  25.703  1.00  0.00     0.116 C 
BRANCH   2   3
ATOM      3  N   UNL A   1      35.547  22.453  26.518  1.00  0.00    -0.352 N 
ATOM      4  C   UNL A   1      34.267  22.853  26.245  1.00  0.00     0.251 C 
ATOM      5  O   UNL A   1      33.550  23.090  27.218  1.00  0.00    -0.269 OA
ATOM      6  H   UNL A   1      35.734  22.404  27.484  1.00  0.00     0.163 HD
BRANCH   4   7
ATOM      7  C   UNL A   1      33.678  22.992  24.881  1.00  0.00     0.045 A 
ATOM      8  C   UNL A   1      33.183  24.486  23.054  1.00  0.00     0.099 A 
ATOM      9  C   UNL A   1      33.709  24.280  24.320  1.00  0.00     0.049 A 
ATOM     10  N   UNL A   1      32.638  23.495  22.332  1.00  0.00    -0.230 NA
ATOM     11  C   UNL A   1      32.613  22.276  22.884  1.00  0.00     0.131 A 
ATOM     12  C   UNL A   1      33.143  21.960  24.120  1.00  0.00     0.055 A 
ATOM     13  Cl  UNL A   1      31.851  21.076  21.924  1.00  0.00    -0.062 Cl
BRANCH   8  14
ATOM     14  S   UNL A   1      33.333  26.071  22.261  1.00  0.00    -0.102 SA
BRANCH  14  15
ATOM     15  C   UNL A   1      33.979  27.086  23.628  1.00  0.00     0.112 C 
BRANCH  15  16
ATOM     16  C   UNL A   1      33.053  28.145  24.175  1.00  0.00    -0.037 A 
ATOM     17  C   UNL A   1      32.931  30.555  27.132  1.00  0.00     0.044 C 
ATOM     18  C   UNL A   1      32.557  29.817  25.882  1.00  0.00    -0.051 A 
ATOM     19  C   UNL A   1      31.334  30.081  25.256  1.00  0.00     0.006 A 
ATOM     20  C   UNL A   1      33.408  28.850  25.336  1.00  0.00     0.008 A 
ATOM     21  C   UNL A   1      30.962  29.397  24.092  1.00  0.00    -0.051 A 
ATOM     22  C   UNL A   1      29.629  29.674  23.459  1.00  0.00     0.044 C 
ATOM     23  C   UNL A   1      31.833  28.447  23.548  1.00  0.00     0.008 A 
ENDBRANCH  15  16
ENDBRANCH  14  15
ENDBRANCH   8  14
ENDBRANCH   4   7
ENDBRANCH   2   3
ENDBRANCH   1   2
BRANCH   1  24
ATOM     24  C   UNL A   1      37.804  19.945  24.832  1.00  0.00     0.023 C 
BRANCH  24  25
ATOM     25  C   UNL A   1      38.966  20.323  25.749  1.00  0.00     0.116 C 
BRANCH  25  26
ATOM     26  N   UNL A   1      40.056  19.360  25.718  1.00  0.00    -0.352 N 
ATOM     27  C   UNL A   1      41.376  19.532  26.050  1.00  0.00     0.251 C 
ATOM     28  H   UNL A   1      39.810  18.455  25.416  1.00  0.00     0.163 HD
ATOM     29  O   UNL A   1      42.181  18.633  25.845  1.00  0.00    -0.269 OA
BRANCH  27  30
ATOM     30  C   UNL A   1      41.831  20.819  26.617  1.00  0.00     0.039 A 
ATOM     31  C   UNL A   1      42.259  21.816  25.738  1.00  0.00     0.014 A 
ATOM     32  C   UNL A   1      41.832  21.048  27.995  1.00  0.00     0.014 A 
ATOM     33  C   UNL A   1      42.633  23.063  26.240  1.00  0.00     0.010 A 
ATOM     34  C   UNL A   1      42.131  22.316  28.488  1.00  0.00     0.010 A 
ATOM     35  C   UNL A   1      42.537  23.335  27.616  1.00  0.00    -0.014 A 
BRANCH  35  36
ATOM     36  C   UNL A   1      42.839  24.694  28.133  1.00  0.00     0.031 A 
ATOM     37  C   UNL A   1      44.252  25.105  28.440  1.00  0.00     0.074 A 
ATOM     38  C   UNL A   1      41.824  25.553  28.350  1.00  0.00     0.049 A 
ATOM     39  N   UNL A   1      44.702  26.262  28.856  1.00  0.00    -0.248 NA
ATOM     40  C   UNL A   1      45.294  24.078  28.284  1.00  0.00     0.031 C 
ATOM     41  C   UNL A   1      40.404  25.248  28.155  1.00  0.00     0.029 A 
ATOM     42  N   UNL A   1      41.828  26.858  28.771  1.00  0.00    -0.354 N 
ATOM     43  C   UNL A   1      46.073  26.102  29.010  1.00  0.00     0.074 A 
ATOM     44  C   UNL A   1      46.374  24.720  28.706  1.00  0.00     0.031 C 
ATOM     45  C   UNL A   1      39.679  26.348  28.414  1.00  0.00     0.029 A 
ATOM     46  C   UNL A   1      40.576  27.423  28.823  1.00  0.00     0.049 A 
ATOM     47  H   UNL A   1      42.650  27.344  29.012  1.00  0.00     0.167 HD
ATOM     48  C   UNL A   1      47.001  27.030  29.347  1.00  0.00     0.037 A 
ATOM     49  C   UNL A   1      40.196  28.669  29.157  1.00  0.00     0.037 A 
ATOM     50  C   UNL A   1      46.699  28.407  29.639  1.00  0.00     0.049 A 
ATOM     51  C   UNL A   1      41.247  29.681  29.522  1.00  0.00     0.074 A 
ATOM     52  C   UNL A   1      47.572  29.438  29.936  1.00  0.00     0.029 A 
ATOM     53  N   UNL A   1      45.419  28.944  29.680  1.00  0.00    -0.354 N 
ATOM     54  N   UNL A   1      42.549  29.538  29.579  1.00  0.00    -0.248 NA
ATOM     55  C   UNL A   1      40.774  31.030  29.858  1.00  0.00     0.031 C 
ATOM     56  C   UNL A   1      46.820  30.587  30.208  1.00  0.00     0.029 A 
ATOM     57  C   UNL A   1      45.480  30.286  30.023  1.00  0.00     0.049 A 
ATOM     58  H   UNL A   1      44.592  28.445  29.493  1.00  0.00     0.167 HD
ATOM     59  C   UNL A   1      43.053  30.784  29.932  1.00  0.00     0.074 A 
ATOM     60  C   UNL A   1      41.916  31.674  30.048  1.00  0.00     0.031 C 
ATOM     61  C   UNL A   1      44.340  31.158  30.143  1.00  0.00     0.037 A 
BRANCH  48  62
ATOM     62  C   UNL A   1      48.435  26.583  29.413  1.00  0.00     0.057 A 
ATOM     63  C   UNL A   1      49.311  26.741  28.330  1.00  0.00     0.134 A 
ATOM     64  C   UNL A   1      48.958  26.026  30.588  1.00  0.00     0.134 A 
ATOM     65  F   UNL A   1      48.874  27.256  27.171  1.00  0.00    -0.206 F 
ATOM     66  C   UNL A   1      50.645  26.335  28.403  1.00  0.00     0.040 A 
ATOM     67  C   UNL A   1      50.298  25.644  30.682  1.00  0.00     0.040 A 
ATOM     68  F   UNL A   1      48.178  25.851  31.666  1.00  0.00    -0.206 F 
ATOM     69  C   UNL A   1      51.143  25.793  29.586  1.00  0.00     0.006 A 
ENDBRANCH  48  62
BRANCH  49  70
ATOM     70  C   UNL A   1      38.758  29.042  29.132  1.00  0.00     0.057 A 
ATOM     71  C   UNL A   1      38.150  29.511  27.961  1.00  0.00     0.134 A 
ATOM     72  C   UNL A   1      37.961  28.953  30.280  1.00  0.00     0.134 A 
ATOM     73  F   UNL A   1      38.865  29.634  26.833  1.00  0.00    -0.206 F 
ATOM     74  C   UNL A   1      36.811  29.902  27.937  1.00  0.00     0.040 A 
ATOM     75  C   UNL A   1      36.612  29.312  30.263  1.00  0.00     0.040 A 
ATOM     76  F   UNL A   1      38.479  28.503  31.432  1.00  0.00    -0.206 F 
ATOM     77  C   UNL A   1      36.036  29.798  29.091  1.00  0.00     0.006 A 
ENDBRANCH  49  70
BRANCH  61  78
ATOM     78  C   UNL A   1      44.579  32.598  30.495  1.00  0.00     0.057 A 
ATOM     79  C   UNL A   1      44.774  33.581  29.514  1.00  0.00     0.134 A 
ATOM     80  C   UNL A   1      44.614  33.009  31.833  1.00  0.00     0.134 A 
ATOM     81  F   UNL A   1      44.764  33.254  28.212  1.00  0.00    -0.206 F 
ATOM     82  C   UNL A   1      45.037  34.909  29.853  1.00  0.00     0.040 A 
ATOM     83  C   UNL A   1      44.842  34.341  32.183  1.00  0.00     0.040 A 
ATOM     84  F   UNL A   1      44.423  32.125  32.824  1.00  0.00    -0.206 F 
ATOM     85  C   UNL A   1      45.067  35.293  31.191  1.00  0.00     0.006 A 
ENDBRANCH  61  78
ENDBRANCH  35  36
ENDBRANCH  27  30
ENDBRANCH  25  26
ENDBRANCH  24  25
ENDBRANCH   1  24
TORSDOF 14
ENDMDL
