MODEL 1
REMARK VINA RESULT:     -10.8      0.000      0.000
REMARK SMILES CCC[C@H](C)[C@@H](Nc1ccc(Cl)c(Br)c1)C(=O)NCCCCNC(=O)c1ccc(-c2c3nc(c(-c4c(F)cccc4F)c4ccc([nH]4)c(-c4c(F)cccc4F)c4nc(c(-c5c(F)cccc5F)c5ccc2[nH]5)C=C4)C=C3)cc1
REMARK SMILES IDX 20 1 19 2 18 3 16 4 17 5 6 7 4 8 5 9 3 10 2 11 1 12 7 13
REMARK SMILES IDX 8 15 9 16 15 17 10 18 13 19 11 20 14 21 12 22 21 23 22 24
REMARK SMILES IDX 23 25 24 26 25 28 26 29 27 30 79 31 28 32 78 33 29 34 30 35
REMARK SMILES IDX 31 36 72 37 32 38 77 39 71 40 73 41 33 42 76 43 70 44 69 45
REMARK SMILES IDX 34 47 60 48 43 49 59 50 44 51 47 52 58 53 74 54 45 55 46 56
REMARK SMILES IDX 57 58 75 59 48 60 35 61 36 62 41 63 37 64 38 65 40 66 42 67
REMARK SMILES IDX 39 68 61 69 62 70 67 71 63 72 64 73 66 74 68 75 65 76 49 77
REMARK SMILES IDX 50 78 55 79 51 80 52 81 54 82 56 83 53 84
REMARK H PARENT 18 6 7 14 23 27 73 46 47 57
REMARK Flexibility Score: inf
ROOT
ATOM      1  C   UNL A   1      32.146  30.092  26.843  1.00  0.00     0.023 C 
ENDROOT
BRANCH   1   2
ATOM      2  C   UNL A   1      33.337  29.690  25.985  1.00  0.00     0.116 C 
BRANCH   2   3
ATOM      3  N   UNL A   1      33.026  29.735  24.569  1.00  0.00    -0.354 N 
ATOM      4  C   UNL A   1      32.532  28.749  23.760  1.00  0.00     0.242 C 
ATOM      5  O   UNL A   1      32.245  29.057  22.598  1.00  0.00    -0.273 OA
ATOM      6  H   UNL A   1      33.194  30.599  24.127  1.00  0.00     0.163 HD
BRANCH   4   7
ATOM      7  C   UNL A   1      32.369  27.283  24.256  1.00  0.00     0.171 C 
BRANCH   7   8
ATOM      8  C   UNL A   1      30.957  27.100  24.908  1.00  0.00     0.018 C 
ATOM      9  C   UNL A   1      29.873  26.651  23.920  1.00  0.00     0.010 C 
BRANCH   8  10
ATOM     10  C   UNL A   1      30.954  26.220  26.188  1.00  0.00     0.006 C 
BRANCH  10  11
ATOM     11  C   UNL A   1      30.598  24.736  26.056  1.00  0.00    -0.003 C 
ATOM     12  C   UNL A   1      31.609  23.775  26.651  1.00  0.00     0.004 C 
ENDBRANCH  10  11
ENDBRANCH   8  10
ENDBRANCH   7   8
BRANCH   7  13
ATOM     13  N   UNL A   1      32.596  26.282  23.182  1.00  0.00    -0.373 N 
ATOM     14  H   UNL A   1      32.320  26.536  22.271  1.00  0.00     0.161 HD
BRANCH  13  15
ATOM     15  C   UNL A   1      33.157  25.026  23.337  1.00  0.00     0.036 A 
ATOM     16  C   UNL A   1      32.555  23.847  22.892  1.00  0.00     0.027 A 
ATOM     17  C   UNL A   1      34.302  24.913  24.142  1.00  0.00     0.043 A 
ATOM     18  C   UNL A   1      33.031  22.594  23.299  1.00  0.00     0.024 A 
ATOM     19  C   UNL A   1      34.773  23.665  24.570  1.00  0.00     0.038 A 
ATOM     20  C   UNL A   1      34.125  22.500  24.158  1.00  0.00     0.055 A 
ATOM     21  Br  UNL A   1      36.245  23.655  25.771  1.00  0.00    -0.049 Br
ATOM     22  Cl  UNL A   1      34.592  20.928  24.698  1.00  0.00    -0.083 Cl
ENDBRANCH  13  15
ENDBRANCH   7  13
ENDBRANCH   4   7
ENDBRANCH   2   3
ENDBRANCH   1   2
BRANCH   1  23
ATOM     23  C   UNL A   1      31.817  31.582  26.801  1.00  0.00     0.023 C 
BRANCH  23  24
ATOM     24  C   UNL A   1      32.897  32.501  27.360  1.00  0.00     0.116 C 
BRANCH  24  25
ATOM     25  N   UNL A   1      32.439  33.860  27.612  1.00  0.00    -0.352 N 
ATOM     26  C   UNL A   1      32.979  34.793  28.467  1.00  0.00     0.251 C 
ATOM     27  H   UNL A   1      31.643  34.147  27.108  1.00  0.00     0.163 HD
ATOM     28  O   UNL A   1      32.427  35.873  28.653  1.00  0.00    -0.269 OA
BRANCH  26  29
ATOM     29  C   UNL A   1      34.210  34.446  29.204  1.00  0.00     0.039 A 
ATOM     30  C   UNL A   1      35.458  34.638  28.608  1.00  0.00     0.014 A 
ATOM     31  C   UNL A   1      34.104  33.830  30.453  1.00  0.00     0.014 A 
ATOM     32  C   UNL A   1      36.582  34.055  29.179  1.00  0.00     0.010 A 
ATOM     33  C   UNL A   1      35.249  33.315  31.064  1.00  0.00     0.010 A 
ATOM     34  C   UNL A   1      36.487  33.371  30.404  1.00  0.00    -0.014 A 
BRANCH  34  35
ATOM     35  C   UNL A   1      37.691  32.698  30.955  1.00  0.00     0.031 A 
ATOM     36  C   UNL A   1      38.285  33.137  32.267  1.00  0.00     0.074 A 
ATOM     37  C   UNL A   1      38.207  31.641  30.302  1.00  0.00     0.049 A 
ATOM     38  N   UNL A   1      39.316  32.649  32.911  1.00  0.00    -0.248 NA
ATOM     39  C   UNL A   1      37.642  34.274  32.946  1.00  0.00     0.031 C 
ATOM     40  C   UNL A   1      37.711  31.110  29.030  1.00  0.00     0.029 A 
ATOM     41  N   UNL A   1      39.243  30.806  30.630  1.00  0.00    -0.354 N 
ATOM     42  C   UNL A   1      39.457  33.426  34.053  1.00  0.00     0.074 A 
ATOM     43  C   UNL A   1      38.423  34.436  34.005  1.00  0.00     0.031 C 
ATOM     44  C   UNL A   1      38.407  30.008  28.714  1.00  0.00     0.029 A 
ATOM     45  C   UNL A   1      39.433  29.788  29.728  1.00  0.00     0.049 A 
ATOM     46  H   UNL A   1      39.798  30.923  31.436  1.00  0.00     0.167 HD
ATOM     47  C   UNL A   1      40.358  33.303  35.058  1.00  0.00     0.037 A 
ATOM     48  C   UNL A   1      40.339  28.795  29.712  1.00  0.00     0.037 A 
ATOM     49  C   UNL A   1      41.374  32.284  35.120  1.00  0.00     0.049 A 
ATOM     50  C   UNL A   1      41.348  28.705  30.819  1.00  0.00     0.074 A 
ATOM     51  C   UNL A   1      42.323  32.067  36.105  1.00  0.00     0.029 A 
ATOM     52  N   UNL A   1      41.569  31.305  34.157  1.00  0.00    -0.354 N 
ATOM     53  N   UNL A   1      41.468  29.450  31.890  1.00  0.00    -0.248 NA
ATOM     54  C   UNL A   1      42.356  27.642  30.705  1.00  0.00     0.031 C 
ATOM     55  C   UNL A   1      43.112  30.976  35.722  1.00  0.00     0.029 A 
ATOM     56  C   UNL A   1      42.633  30.493  34.516  1.00  0.00     0.049 A 
ATOM     57  H   UNL A   1      41.031  31.204  33.339  1.00  0.00     0.167 HD
ATOM     58  C   UNL A   1      42.557  28.941  32.584  1.00  0.00     0.074 A 
ATOM     59  C   UNL A   1      43.047  27.809  31.823  1.00  0.00     0.031 C 
ATOM     60  C   UNL A   1      43.108  29.376  33.743  1.00  0.00     0.037 A 
BRANCH  47  61
ATOM     61  C   UNL A   1      40.295  34.308  36.170  1.00  0.00     0.057 A 
ATOM     62  C   UNL A   1      39.551  34.047  37.328  1.00  0.00     0.134 A 
ATOM     63  C   UNL A   1      40.941  35.548  36.083  1.00  0.00     0.134 A 
ATOM     64  F   UNL A   1      38.903  32.881  37.473  1.00  0.00    -0.206 F 
ATOM     65  C   UNL A   1      39.449  34.983  38.359  1.00  0.00     0.040 A 
ATOM     66  C   UNL A   1      40.865  36.485  37.116  1.00  0.00     0.040 A 
ATOM     67  F   UNL A   1      41.681  35.854  35.008  1.00  0.00    -0.206 F 
ATOM     68  C   UNL A   1      40.112  36.205  38.256  1.00  0.00     0.006 A 
ENDBRANCH  47  61
BRANCH  48  69
ATOM     69  C   UNL A   1      40.338  27.809  28.605  1.00  0.00     0.057 A 
ATOM     70  C   UNL A   1      39.633  26.604  28.703  1.00  0.00     0.134 A 
ATOM     71  C   UNL A   1      41.039  28.055  27.419  1.00  0.00     0.134 A 
ATOM     72  F   UNL A   1      38.946  26.311  29.818  1.00  0.00    -0.206 F 
ATOM     73  C   UNL A   1      39.633  25.672  27.666  1.00  0.00     0.040 A 
ATOM     74  C   UNL A   1      41.028  27.143  26.364  1.00  0.00     0.040 A 
ATOM     75  F   UNL A   1      41.716  29.201  27.261  1.00  0.00    -0.206 F 
ATOM     76  C   UNL A   1      40.326  25.945  26.488  1.00  0.00     0.006 A 
ENDBRANCH  48  69
BRANCH  60  77
ATOM     77  C   UNL A   1      44.289  28.609  34.255  1.00  0.00     0.057 A 
ATOM     78  C   UNL A   1      44.115  27.500  35.092  1.00  0.00     0.134 A 
ATOM     79  C   UNL A   1      45.600  28.970  33.920  1.00  0.00     0.134 A 
ATOM     80  F   UNL A   1      42.885  27.106  35.453  1.00  0.00    -0.206 F 
ATOM     81  C   UNL A   1      45.204  26.774  35.573  1.00  0.00     0.040 A 
ATOM     82  C   UNL A   1      46.696  28.238  34.376  1.00  0.00     0.040 A 
ATOM     83  F   UNL A   1      45.831  30.013  33.107  1.00  0.00    -0.206 F 
ATOM     84  C   UNL A   1      46.500  27.137  35.209  1.00  0.00     0.006 A 
ENDBRANCH  60  77
ENDBRANCH  34  35
ENDBRANCH  26  29
ENDBRANCH  24  25
ENDBRANCH  23  24
ENDBRANCH   1  23
TORSDOF 16
ENDMDL
MODEL 2
REMARK VINA RESULT:     -10.7      0.638      6.267
REMARK SMILES CCC[C@H](C)[C@@H](Nc1ccc(Cl)c(Br)c1)C(=O)NCCCCNC(=O)c1ccc(-c2c3nc(c(-c4c(F)cccc4F)c4ccc([nH]4)c(-c4c(F)cccc4F)c4nc(c(-c5c(F)cccc5F)c5ccc2[nH]5)C=C4)C=C3)cc1
REMARK SMILES IDX 20 1 19 2 18 3 16 4 17 5 6 7 4 8 5 9 3 10 2 11 1 12 7 13
REMARK SMILES IDX 8 15 9 16 15 17 10 18 13 19 11 20 14 21 12 22 21 23 22 24
REMARK SMILES IDX 23 25 24 26 25 28 26 29 27 30 79 31 28 32 78 33 29 34 30 35
REMARK SMILES IDX 31 36 72 37 32 38 77 39 71 40 73 41 33 42 76 43 70 44 69 45
REMARK SMILES IDX 34 47 60 48 43 49 59 50 44 51 47 52 58 53 74 54 45 55 46 56
REMARK SMILES IDX 57 58 75 59 48 60 35 61 36 62 41 63 37 64 38 65 40 66 42 67
REMARK SMILES IDX 39 68 61 69 62 70 67 71 63 72 64 73 66 74 68 75 65 76 49 77
REMARK SMILES IDX 50 78 55 79 51 80 52 81 54 82 56 83 53 84
REMARK H PARENT 18 6 7 14 23 27 73 46 47 57
REMARK Flexibility Score: inf
ROOT
ATOM      1  C   UNL A   1      32.141  30.137  26.877  1.00  0.00     0.023 C 
ENDROOT
BRANCH   1   2
ATOM      2  C   UNL A   1      33.356  29.670  26.087  1.00  0.00     0.116 C 
BRANCH   2   3
ATOM      3  N   UNL A   1      33.140  29.759  24.655  1.00  0.00    -0.354 N 
ATOM      4  C   UNL A   1      32.647  28.818  23.794  1.00  0.00     0.242 C 
ATOM      5  O   UNL A   1      32.453  29.164  22.624  1.00  0.00    -0.273 OA
ATOM      6  H   UNL A   1      33.382  30.621  24.245  1.00  0.00     0.163 HD
BRANCH   4   7
ATOM      7  C   UNL A   1      32.374  27.354  24.246  1.00  0.00     0.171 C 
BRANCH   7   8
ATOM      8  C   UNL A   1      30.914  27.235  24.801  1.00  0.00     0.018 C 
ATOM      9  C   UNL A   1      29.893  26.762  23.760  1.00  0.00     0.010 C 
BRANCH   8  10
ATOM     10  C   UNL A   1      30.797  26.421  26.118  1.00  0.00     0.006 C 
BRANCH  10  11
ATOM     11  C   UNL A   1      30.396  24.946  26.034  1.00  0.00    -0.003 C 
ATOM     12  C   UNL A   1      31.455  23.963  26.495  1.00  0.00     0.004 C 
ENDBRANCH  10  11
ENDBRANCH   8  10
ENDBRANCH   7   8
BRANCH   7  13
ATOM     13  N   UNL A   1      32.617  26.362  23.166  1.00  0.00    -0.373 N 
ATOM     14  H   UNL A   1      32.372  26.631  22.251  1.00  0.00     0.161 HD
BRANCH  13  15
ATOM     15  C   UNL A   1      33.156  25.097  23.322  1.00  0.00     0.036 A 
ATOM     16  C   UNL A   1      32.533  23.929  22.878  1.00  0.00     0.027 A 
ATOM     17  C   UNL A   1      34.298  24.964  24.127  1.00  0.00     0.043 A 
ATOM     18  C   UNL A   1      32.985  22.667  23.285  1.00  0.00     0.024 A 
ATOM     19  C   UNL A   1      34.747  23.707  24.555  1.00  0.00     0.038 A 
ATOM     20  C   UNL A   1      34.077  22.554  24.145  1.00  0.00     0.055 A 
ATOM     21  Br  UNL A   1      36.218  23.671  25.757  1.00  0.00    -0.049 Br
ATOM     22  Cl  UNL A   1      34.516  20.973  24.685  1.00  0.00    -0.083 Cl
ENDBRANCH  13  15
ENDBRANCH   7  13
ENDBRANCH   4   7
ENDBRANCH   2   3
ENDBRANCH   1   2
BRANCH   1  23
ATOM     23  C   UNL A   1      31.870  31.636  26.783  1.00  0.00     0.023 C 
BRANCH  23  24
ATOM     24  C   UNL A   1      32.910  32.527  27.454  1.00  0.00     0.116 C 
BRANCH  24  25
ATOM     25  N   UNL A   1      32.480  33.908  27.621  1.00  0.00    -0.352 N 
ATOM     26  C   UNL A   1      32.980  34.854  28.487  1.00  0.00     0.251 C 
ATOM     27  H   UNL A   1      31.739  34.202  27.043  1.00  0.00     0.163 HD
ATOM     28  O   UNL A   1      32.453  35.957  28.590  1.00  0.00    -0.269 OA
BRANCH  26  29
ATOM     29  C   UNL A   1      34.134  34.494  29.335  1.00  0.00     0.039 A 
ATOM     30  C   UNL A   1      35.427  34.544  28.812  1.00  0.00     0.014 A 
ATOM     31  C   UNL A   1      33.905  34.008  30.624  1.00  0.00     0.014 A 
ATOM     32  C   UNL A   1      36.467  33.942  29.510  1.00  0.00     0.010 A 
ATOM     33  C   UNL A   1      34.968  33.475  31.356  1.00  0.00     0.010 A 
ATOM     34  C   UNL A   1      36.246  33.384  30.781  1.00  0.00    -0.014 A 
BRANCH  34  35
ATOM     35  C   UNL A   1      37.359  32.686  31.472  1.00  0.00     0.031 A 
ATOM     36  C   UNL A   1      38.060  31.523  30.821  1.00  0.00     0.074 A 
ATOM     37  C   UNL A   1      37.784  33.147  32.662  1.00  0.00     0.049 A 
ATOM     38  N   UNL A   1      39.066  30.812  31.266  1.00  0.00    -0.248 NA
ATOM     39  C   UNL A   1      37.567  31.099  29.500  1.00  0.00     0.031 C 
ATOM     40  C   UNL A   1      37.196  34.276  33.388  1.00  0.00     0.029 A 
ATOM     41  N   UNL A   1      38.825  32.745  33.458  1.00  0.00    -0.354 N 
ATOM     42  C   UNL A   1      39.313  29.850  30.295  1.00  0.00     0.074 A 
ATOM     43  C   UNL A   1      38.336  30.049  29.247  1.00  0.00     0.031 C 
ATOM     44  C   UNL A   1      37.918  34.510  34.494  1.00  0.00     0.029 A 
ATOM     45  C   UNL A   1      38.982  33.514  34.584  1.00  0.00     0.049 A 
ATOM     46  H   UNL A   1      39.405  31.979  33.242  1.00  0.00     0.167 HD
ATOM     47  C   UNL A   1      40.275  28.894  30.271  1.00  0.00     0.037 A 
ATOM     48  C   UNL A   1      39.875  33.423  35.585  1.00  0.00     0.037 A 
ATOM     49  C   UNL A   1      41.263  28.708  31.303  1.00  0.00     0.049 A 
ATOM     50  C   UNL A   1      40.905  32.332  35.551  1.00  0.00     0.074 A 
ATOM     51  C   UNL A   1      42.287  27.778  31.361  1.00  0.00     0.029 A 
ATOM     52  N   UNL A   1      41.352  29.474  32.455  1.00  0.00    -0.354 N 
ATOM     53  N   UNL A   1      41.123  31.430  34.626  1.00  0.00    -0.248 NA
ATOM     54  C   UNL A   1      41.804  32.241  36.709  1.00  0.00     0.031 C 
ATOM     55  C   UNL A   1      42.977  27.962  32.565  1.00  0.00     0.029 A 
ATOM     56  C   UNL A   1      42.404  29.027  33.239  1.00  0.00     0.049 A 
ATOM     57  H   UNL A   1      40.756  30.223  32.683  1.00  0.00     0.167 HD
ATOM     58  C   UNL A   1      42.190  30.670  35.084  1.00  0.00     0.074 A 
ATOM     59  C   UNL A   1      42.589  31.233  36.358  1.00  0.00     0.031 C 
ATOM     60  C   UNL A   1      42.782  29.596  34.506  1.00  0.00     0.037 A 
BRANCH  47  61
ATOM     61  C   UNL A   1      40.295  27.963  29.095  1.00  0.00     0.057 A 
ATOM     62  C   UNL A   1      41.043  28.273  27.952  1.00  0.00     0.134 A 
ATOM     63  C   UNL A   1      39.549  26.778  29.078  1.00  0.00     0.134 A 
ATOM     64  F   UNL A   1      41.775  29.396  27.900  1.00  0.00    -0.206 F 
ATOM     65  C   UNL A   1      41.047  27.438  26.832  1.00  0.00     0.040 A 
ATOM     66  C   UNL A   1      39.561  25.923  27.973  1.00  0.00     0.040 A 
ATOM     67  F   UNL A   1      38.823  26.417  30.146  1.00  0.00    -0.206 F 
ATOM     68  C   UNL A   1      40.307  26.256  26.844  1.00  0.00     0.006 A 
ENDBRANCH  47  61
BRANCH  48  69
ATOM     69  C   UNL A   1      39.830  34.388  36.709  1.00  0.00     0.057 A 
ATOM     70  C   UNL A   1      39.105  34.116  37.875  1.00  0.00     0.134 A 
ATOM     71  C   UNL A   1      40.520  35.603  36.644  1.00  0.00     0.134 A 
ATOM     72  F   UNL A   1      38.420  32.969  37.993  1.00  0.00    -0.206 F 
ATOM     73  C   UNL A   1      39.058  35.022  38.933  1.00  0.00     0.040 A 
ATOM     74  C   UNL A   1      40.502  36.510  37.705  1.00  0.00     0.040 A 
ATOM     75  F   UNL A   1      41.248  35.910  35.561  1.00  0.00    -0.206 F 
ATOM     76  C   UNL A   1      39.765  36.220  38.853  1.00  0.00     0.006 A 
ENDBRANCH  48  69
BRANCH  60  77
ATOM     77  C   UNL A   1      43.930  28.982  35.247  1.00  0.00     0.057 A 
ATOM     78  C   UNL A   1      43.712  27.989  36.210  1.00  0.00     0.134 A 
ATOM     79  C   UNL A   1      45.253  29.374  35.007  1.00  0.00     0.134 A 
ATOM     80  F   UNL A   1      42.468  27.573  36.489  1.00  0.00    -0.206 F 
ATOM     81  C   UNL A   1      44.771  27.404  36.904  1.00  0.00     0.040 A 
ATOM     82  C   UNL A   1      46.322  28.781  35.679  1.00  0.00     0.040 A 
ATOM     83  F   UNL A   1      45.527  30.308  34.083  1.00  0.00    -0.206 F 
ATOM     84  C   UNL A   1      46.081  27.794  36.634  1.00  0.00     0.006 A 
ENDBRANCH  60  77
ENDBRANCH  34  35
ENDBRANCH  26  29
ENDBRANCH  24  25
ENDBRANCH  23  24
ENDBRANCH   1  23
TORSDOF 16
ENDMDL
MODEL 3
REMARK VINA RESULT:     -10.6      4.474      9.344
REMARK SMILES CCC[C@H](C)[C@@H](Nc1ccc(Cl)c(Br)c1)C(=O)NCCCCNC(=O)c1ccc(-c2c3nc(c(-c4c(F)cccc4F)c4ccc([nH]4)c(-c4c(F)cccc4F)c4nc(c(-c5c(F)cccc5F)c5ccc2[nH]5)C=C4)C=C3)cc1
REMARK SMILES IDX 20 1 19 2 18 3 16 4 17 5 6 7 4 8 5 9 3 10 2 11 1 12 7 13
REMARK SMILES IDX 8 15 9 16 15 17 10 18 13 19 11 20 14 21 12 22 21 23 22 24
REMARK SMILES IDX 23 25 24 26 25 28 26 29 27 30 79 31 28 32 78 33 29 34 30 35
REMARK SMILES IDX 31 36 72 37 32 38 77 39 71 40 73 41 33 42 76 43 70 44 69 45
REMARK SMILES IDX 34 47 60 48 43 49 59 50 44 51 47 52 58 53 74 54 45 55 46 56
REMARK SMILES IDX 57 58 75 59 48 60 35 61 36 62 41 63 37 64 38 65 40 66 42 67
REMARK SMILES IDX 39 68 61 69 62 70 67 71 63 72 64 73 66 74 68 75 65 76 49 77
REMARK SMILES IDX 50 78 55 79 51 80 52 81 54 82 56 83 53 84
REMARK H PARENT 18 6 7 14 23 27 73 46 47 57
REMARK Flexibility Score: inf
ROOT
ATOM      1  C   UNL A   1      36.301  21.008  25.355  1.00  0.00     0.023 C 
ENDROOT
BRANCH   1   2
ATOM      2  C   UNL A   1      36.064  22.297  26.129  1.00  0.00     0.116 C 
BRANCH   2   3
ATOM      3  N   UNL A   1      35.014  22.150  27.119  1.00  0.00    -0.354 N 
ATOM      4  C   UNL A   1      33.744  22.657  27.115  1.00  0.00     0.242 C 
ATOM      5  O   UNL A   1      32.988  22.305  28.027  1.00  0.00    -0.273 OA
ATOM      6  H   UNL A   1      35.249  21.608  27.907  1.00  0.00     0.163 HD
BRANCH   4   7
ATOM      7  C   UNL A   1      33.266  23.668  26.032  1.00  0.00     0.171 C 
BRANCH   7   8
ATOM      8  C   UNL A   1      33.221  22.964  24.634  1.00  0.00     0.018 C 
ATOM      9  C   UNL A   1      31.863  22.335  24.301  1.00  0.00     0.010 C 
BRANCH   8  10
ATOM     10  C   UNL A   1      33.741  23.840  23.462  1.00  0.00     0.006 C 
BRANCH  10  11
ATOM     11  C   UNL A   1      32.723  24.447  22.493  1.00  0.00    -0.003 C 
ATOM     12  C   UNL A   1      33.003  25.877  22.075  1.00  0.00     0.004 C 
ENDBRANCH  10  11
ENDBRANCH   8  10
ENDBRANCH   7   8
BRANCH   7  13
ATOM     13  N   UNL A   1      31.956  24.287  26.360  1.00  0.00    -0.373 N 
ATOM     14  H   UNL A   1      31.379  23.801  26.993  1.00  0.00     0.161 HD
BRANCH  13  15
ATOM     15  C   UNL A   1      31.467  25.483  25.863  1.00  0.00     0.036 A 
ATOM     16  C   UNL A   1      30.259  25.599  25.172  1.00  0.00     0.027 A 
ATOM     17  C   UNL A   1      32.313  26.603  25.894  1.00  0.00     0.043 A 
ATOM     18  C   UNL A   1      29.936  26.767  24.469  1.00  0.00     0.024 A 
ATOM     19  C   UNL A   1      32.009  27.768  25.178  1.00  0.00     0.038 A 
ATOM     20  C   UNL A   1      30.822  27.845  24.450  1.00  0.00     0.055 A 
ATOM     21  Br  UNL A   1      33.303  29.159  25.188  1.00  0.00    -0.049 Br
ATOM     22  Cl  UNL A   1      30.404  29.211  23.480  1.00  0.00    -0.083 Cl
ENDBRANCH  13  15
ENDBRANCH   7  13
ENDBRANCH   4   7
ENDBRANCH   2   3
ENDBRANCH   1   2
BRANCH   1  23
ATOM     23  C   UNL A   1      37.701  20.883  24.758  1.00  0.00     0.023 C 
BRANCH  23  24
ATOM     24  C   UNL A   1      38.842  20.925  25.768  1.00  0.00     0.116 C 
BRANCH  24  25
ATOM     25  N   UNL A   1      39.746  19.787  25.679  1.00  0.00    -0.352 N 
ATOM     26  C   UNL A   1      41.080  19.734  26.015  1.00  0.00     0.251 C 
ATOM     27  H   UNL A   1      39.355  18.951  25.335  1.00  0.00     0.163 HD
ATOM     28  O   UNL A   1      41.747  18.728  25.796  1.00  0.00    -0.269 OA
BRANCH  26  29
ATOM     29  C   UNL A   1      41.709  20.936  26.597  1.00  0.00     0.039 A 
ATOM     30  C   UNL A   1      41.722  21.118  27.980  1.00  0.00     0.014 A 
ATOM     31  C   UNL A   1      42.194  21.930  25.743  1.00  0.00     0.014 A 
ATOM     32  C   UNL A   1      42.053  22.363  28.501  1.00  0.00     0.010 A 
ATOM     33  C   UNL A   1      42.603  23.154  26.276  1.00  0.00     0.010 A 
ATOM     34  C   UNL A   1      42.479  23.400  27.653  1.00  0.00    -0.014 A 
BRANCH  34  35
ATOM     35  C   UNL A   1      42.759  24.740  28.229  1.00  0.00     0.031 A 
ATOM     36  C   UNL A   1      44.168  25.157  28.560  1.00  0.00     0.074 A 
ATOM     37  C   UNL A   1      41.745  25.610  28.388  1.00  0.00     0.049 A 
ATOM     38  N   UNL A   1      44.600  26.295  29.044  1.00  0.00    -0.248 NA
ATOM     39  C   UNL A   1      45.232  24.168  28.321  1.00  0.00     0.031 C 
ATOM     40  C   UNL A   1      40.339  25.330  28.089  1.00  0.00     0.029 A 
ATOM     41  N   UNL A   1      41.742  26.913  28.812  1.00  0.00    -0.354 N 
ATOM     42  C   UNL A   1      45.974  26.153  29.185  1.00  0.00     0.074 A 
ATOM     43  C   UNL A   1      46.304  24.810  28.761  1.00  0.00     0.031 C 
ATOM     44  C   UNL A   1      39.618  26.443  28.287  1.00  0.00     0.029 A 
ATOM     45  C   UNL A   1      40.499  27.496  28.780  1.00  0.00     0.049 A 
ATOM     46  H   UNL A   1      42.553  27.386  29.110  1.00  0.00     0.167 HD
ATOM     47  C   UNL A   1      46.881  27.063  29.617  1.00  0.00     0.037 A 
ATOM     48  C   UNL A   1      40.110  28.737  29.121  1.00  0.00     0.037 A 
ATOM     49  C   UNL A   1      46.558  28.408  30.019  1.00  0.00     0.049 A 
ATOM     50  C   UNL A   1      41.131  29.712  29.631  1.00  0.00     0.074 A 
ATOM     51  C   UNL A   1      47.409  29.409  30.456  1.00  0.00     0.029 A 
ATOM     52  N   UNL A   1      45.278  28.942  30.025  1.00  0.00    -0.354 N 
ATOM     53  N   UNL A   1      42.426  29.560  29.760  1.00  0.00    -0.248 NA
ATOM     54  C   UNL A   1      40.630  31.026  30.055  1.00  0.00     0.031 C 
ATOM     55  C   UNL A   1      46.640  30.539  30.757  1.00  0.00     0.029 A 
ATOM     56  C   UNL A   1      45.315  30.253  30.474  1.00  0.00     0.049 A 
ATOM     57  H   UNL A   1      44.464  28.461  29.751  1.00  0.00     0.167 HD
ATOM     58  C   UNL A   1      42.897  30.762  30.270  1.00  0.00     0.074 A 
ATOM     59  C   UNL A   1      41.751  31.639  30.404  1.00  0.00     0.031 C 
ATOM     60  C   UNL A   1      44.164  31.107  30.606  1.00  0.00     0.037 A 
BRANCH  47  61
ATOM     61  C   UNL A   1      48.315  26.627  29.693  1.00  0.00     0.057 A 
ATOM     62  C   UNL A   1      49.191  26.863  28.625  1.00  0.00     0.134 A 
ATOM     63  C   UNL A   1      48.822  25.945  30.806  1.00  0.00     0.134 A 
ATOM     64  F   UNL A   1      48.768  27.506  27.526  1.00  0.00    -0.206 F 
ATOM     65  C   UNL A   1      50.519  26.433  28.661  1.00  0.00     0.040 A 
ATOM     66  C   UNL A   1      50.154  25.529  30.863  1.00  0.00     0.040 A 
ATOM     67  F   UNL A   1      48.039  25.701  31.868  1.00  0.00    -0.206 F 
ATOM     68  C   UNL A   1      51.005  25.768  29.785  1.00  0.00     0.006 A 
ENDBRANCH  47  61
BRANCH  48  69
ATOM     69  C   UNL A   1      38.685  29.127  28.998  1.00  0.00     0.057 A 
ATOM     70  C   UNL A   1      38.157  29.583  27.784  1.00  0.00     0.134 A 
ATOM     71  C   UNL A   1      37.817  29.044  30.092  1.00  0.00     0.134 A 
ATOM     72  F   UNL A   1      38.942  29.688  26.702  1.00  0.00    -0.206 F 
ATOM     73  C   UNL A   1      36.818  29.954  27.665  1.00  0.00     0.040 A 
ATOM     74  C   UNL A   1      36.470  29.389  29.981  1.00  0.00     0.040 A 
ATOM     75  F   UNL A   1      38.262  28.595  31.274  1.00  0.00    -0.206 F 
ATOM     76  C   UNL A   1      35.968  29.850  28.764  1.00  0.00     0.006 A 
ENDBRANCH  48  69
BRANCH  60  77
ATOM     77  C   UNL A   1      44.366  32.495  31.132  1.00  0.00     0.057 A 
ATOM     78  C   UNL A   1      44.614  33.562  30.261  1.00  0.00     0.134 A 
ATOM     79  C   UNL A   1      44.314  32.775  32.504  1.00  0.00     0.134 A 
ATOM     80  F   UNL A   1      44.680  33.359  28.937  1.00  0.00    -0.206 F 
ATOM     81  C   UNL A   1      44.800  34.861  30.735  1.00  0.00     0.040 A 
ATOM     82  C   UNL A   1      44.476  34.073  32.988  1.00  0.00     0.040 A 
ATOM     83  F   UNL A   1      44.062  31.797  33.387  1.00  0.00    -0.206 F 
ATOM     84  C   UNL A   1      44.723  35.121  32.103  1.00  0.00     0.006 A 
ENDBRANCH  60  77
ENDBRANCH  34  35
ENDBRANCH  26  29
ENDBRANCH  24  25
ENDBRANCH  23  24
ENDBRANCH   1  23
TORSDOF 16
ENDMDL
