MODEL 1
REMARK VINA RESULT:      -9.8      0.000      0.000
REMARK SMILES CCC(CC)C(O)(C(=O)NCCCCNC(=O)c1ccc(-c2c3nc(c(-c4c(F)cccc4F)c4ccc([nH]4)c(-c4c(F)cccc4F)c4nc(c(-c5c(F)cccc5F)c5ccc2[nH]5)C=C4)C=C3)cc1)C(CC)CC
REMARK SMILES IDX 12 1 11 2 10 3 8 4 9 5 6 7 3 8 2 9 1 10 4 11 5 12 7 13 72 15
REMARK SMILES IDX 73 16 74 17 75 18 76 19 13 20 14 21 15 22 16 23 17 25 18 26
REMARK SMILES IDX 19 27 71 28 20 29 70 30 21 31 22 32 23 33 64 34 24 35 69 36
REMARK SMILES IDX 63 37 65 38 25 39 68 40 62 41 61 42 26 44 52 45 35 46 51 47
REMARK SMILES IDX 36 48 39 49 50 50 66 51 37 52 38 53 49 55 67 56 40 57 27 58
REMARK SMILES IDX 28 59 33 60 29 61 30 62 32 63 34 64 31 65 53 66 54 67 59 68
REMARK SMILES IDX 55 69 56 70 58 71 60 72 57 73 41 74 42 75 47 76 43 77 44 78
REMARK SMILES IDX 46 79 48 80 45 81
REMARK H PARENT 10 6 7 14 15 24 65 43 39 54
REMARK Flexibility Score: inf
ROOT
ATOM      1  C   UNL A   1      36.529  19.961  24.953  1.00  0.00     0.023 C 
ENDROOT
BRANCH   1   2
ATOM      2  C   UNL A   1      36.347  21.406  25.423  1.00  0.00     0.116 C 
BRANCH   2   3
ATOM      3  N   UNL A   1      35.446  21.550  26.558  1.00  0.00    -0.354 N 
ATOM      4  C   UNL A   1      34.120  21.907  26.645  1.00  0.00     0.252 C 
ATOM      5  O   UNL A   1      33.599  21.759  27.755  1.00  0.00    -0.272 OA
ATOM      6  H   UNL A   1      35.865  21.356  27.428  1.00  0.00     0.163 HD
BRANCH   4   7
ATOM      7  C   UNL A   1      33.334  22.519  25.426  1.00  0.00     0.148 C 
BRANCH   7   8
ATOM      8  C   UNL A   1      32.069  23.297  25.953  1.00  0.00     0.030 C 
BRANCH   8   9
ATOM      9  C   UNL A   1      31.999  24.774  25.502  1.00  0.00     0.004 C 
ATOM     10  C   UNL A   1      30.964  25.058  24.420  1.00  0.00     0.004 C 
ENDBRANCH   8   9
BRANCH   8  11
ATOM     11  C   UNL A   1      30.702  22.542  26.046  1.00  0.00     0.004 C 
ATOM     12  C   UNL A   1      29.670  22.811  27.117  1.00  0.00     0.004 C 
ENDBRANCH   8  11
ENDBRANCH   7   8
BRANCH   7  13
ATOM     13  O   UNL A   1      34.296  23.484  24.910  1.00  0.00    -0.379 OA
ATOM     14  H   UNL A   1      35.176  23.287  25.269  1.00  0.00     0.212 HD
ENDBRANCH   7  13
BRANCH   7  15
ATOM     15  C   UNL A   1      33.193  21.482  24.223  1.00  0.00     0.030 C 
BRANCH  15  16
ATOM     16  C   UNL A   1      32.850  20.007  24.566  1.00  0.00     0.004 C 
ATOM     17  C   UNL A   1      32.515  19.078  23.405  1.00  0.00     0.004 C 
ENDBRANCH  15  16
BRANCH  15  18
ATOM     18  C   UNL A   1      32.349  21.896  22.975  1.00  0.00     0.004 C 
ATOM     19  C   UNL A   1      32.950  22.900  22.003  1.00  0.00     0.004 C 
ENDBRANCH  15  18
ENDBRANCH   7  15
ENDBRANCH   4   7
ENDBRANCH   2   3
ENDBRANCH   1   2
BRANCH   1  20
ATOM     20  C   UNL A   1      37.975  19.557  24.675  1.00  0.00     0.023 C 
BRANCH  20  21
ATOM     21  C   UNL A   1      38.923  19.879  25.819  1.00  0.00     0.116 C 
BRANCH  21  22
ATOM     22  N   UNL A   1      40.080  18.996  25.847  1.00  0.00    -0.352 N 
ATOM     23  C   UNL A   1      41.398  19.295  26.075  1.00  0.00     0.251 C 
ATOM     24  H   UNL A   1      39.889  18.046  25.676  1.00  0.00     0.163 HD
ATOM     25  O   UNL A   1      42.259  18.440  25.902  1.00  0.00    -0.269 OA
BRANCH  23  26
ATOM     26  C   UNL A   1      41.773  20.653  26.511  1.00  0.00     0.039 A 
ATOM     27  C   UNL A   1      41.920  21.649  25.543  1.00  0.00     0.014 A 
ATOM     28  C   UNL A   1      41.994  20.940  27.860  1.00  0.00     0.014 A 
ATOM     29  C   UNL A   1      42.263  22.941  25.937  1.00  0.00     0.010 A 
ATOM     30  C   UNL A   1      42.237  22.246  28.259  1.00  0.00     0.010 A 
ATOM     31  C   UNL A   1      42.409  23.252  27.299  1.00  0.00    -0.014 A 
BRANCH  31  32
ATOM     32  C   UNL A   1      42.801  24.613  27.730  1.00  0.00     0.031 A 
ATOM     33  C   UNL A   1      44.252  25.012  27.724  1.00  0.00     0.074 A 
ATOM     34  C   UNL A   1      41.856  25.475  28.152  1.00  0.00     0.049 A 
ATOM     35  N   UNL A   1      44.797  26.153  28.060  1.00  0.00    -0.248 NA
ATOM     36  C   UNL A   1      45.224  23.983  27.316  1.00  0.00     0.031 C 
ATOM     37  C   UNL A   1      40.426  25.182  28.253  1.00  0.00     0.029 A 
ATOM     38  N   UNL A   1      41.961  26.776  28.570  1.00  0.00    -0.354 N 
ATOM     39  C   UNL A   1      46.167  25.972  27.920  1.00  0.00     0.074 A 
ATOM     40  C   UNL A   1      46.377  24.594  27.536  1.00  0.00     0.031 C 
ATOM     41  C   UNL A   1      39.780  26.285  28.662  1.00  0.00     0.029 A 
ATOM     42  C   UNL A   1      40.753  27.349  28.885  1.00  0.00     0.049 A 
ATOM     43  H   UNL A   1      42.819  27.254  28.638  1.00  0.00     0.167 HD
ATOM     44  C   UNL A   1      47.161  26.879  28.068  1.00  0.00     0.037 A 
ATOM     45  C   UNL A   1      40.468  28.598  29.297  1.00  0.00     0.037 A 
ATOM     46  C   UNL A   1      46.941  28.256  28.422  1.00  0.00     0.049 A 
ATOM     47  C   UNL A   1      41.589  29.590  29.446  1.00  0.00     0.074 A 
ATOM     48  C   UNL A   1      47.868  29.275  28.537  1.00  0.00     0.029 A 
ATOM     49  N   UNL A   1      45.703  28.803  28.722  1.00  0.00    -0.354 N 
ATOM     50  N   UNL A   1      42.872  29.429  29.232  1.00  0.00    -0.248 NA
ATOM     51  C   UNL A   1      41.217  30.943  29.880  1.00  0.00     0.031 C 
ATOM     52  C   UNL A   1      47.197  30.428  28.957  1.00  0.00     0.029 A 
ATOM     53  C   UNL A   1      45.844  30.142  29.043  1.00  0.00     0.049 A 
ATOM     54  H   UNL A   1      44.849  28.313  28.707  1.00  0.00     0.167 HD
ATOM     55  C   UNL A   1      43.455  30.668  29.466  1.00  0.00     0.074 A 
ATOM     56  C   UNL A   1      42.382  31.571  29.827  1.00  0.00     0.031 C 
ATOM     57  C   UNL A   1      44.761  31.028  29.388  1.00  0.00     0.037 A 
BRANCH  44  58
ATOM     58  C   UNL A   1      48.570  26.406  27.850  1.00  0.00     0.057 A 
ATOM     59  C   UNL A   1      49.348  25.881  28.892  1.00  0.00     0.134 A 
ATOM     60  C   UNL A   1      49.151  26.457  26.578  1.00  0.00     0.134 A 
ATOM     61  F   UNL A   1      48.859  25.816  30.140  1.00  0.00    -0.206 F 
ATOM     62  C   UNL A   1      50.661  25.457  28.682  1.00  0.00     0.040 A 
ATOM     63  C   UNL A   1      50.452  26.005  26.349  1.00  0.00     0.040 A 
ATOM     64  F   UNL A   1      48.463  26.943  25.533  1.00  0.00    -0.206 F 
ATOM     65  C   UNL A   1      51.215  25.512  27.405  1.00  0.00     0.006 A 
ENDBRANCH  44  58
BRANCH  45  66
ATOM     66  C   UNL A   1      39.060  28.996  29.554  1.00  0.00     0.057 A 
ATOM     67  C   UNL A   1      38.270  29.549  28.537  1.00  0.00     0.134 A 
ATOM     68  C   UNL A   1      38.474  28.850  30.815  1.00  0.00     0.134 A 
ATOM     69  F   UNL A   1      38.779  29.727  27.309  1.00  0.00    -0.206 F 
ATOM     70  C   UNL A   1      36.960  29.966  28.772  1.00  0.00     0.040 A 
ATOM     71  C   UNL A   1      37.155  29.237  31.059  1.00  0.00     0.040 A 
ATOM     72  F   UNL A   1      39.172  28.317  31.829  1.00  0.00    -0.206 F 
ATOM     73  C   UNL A   1      36.397  29.806  30.038  1.00  0.00     0.006 A 
ENDBRANCH  45  66
BRANCH  57  74
ATOM     74  C   UNL A   1      45.088  32.471  29.644  1.00  0.00     0.057 A 
ATOM     75  C   UNL A   1      45.060  33.435  28.628  1.00  0.00     0.134 A 
ATOM     76  C   UNL A   1      45.415  32.905  30.936  1.00  0.00     0.134 A 
ATOM     77  F   UNL A   1      44.765  33.086  27.366  1.00  0.00    -0.206 F 
ATOM     78  C   UNL A   1      45.380  34.770  28.880  1.00  0.00     0.040 A 
ATOM     79  C   UNL A   1      45.704  34.241  31.207  1.00  0.00     0.040 A 
ATOM     80  F   UNL A   1      45.448  32.036  31.958  1.00  0.00    -0.206 F 
ATOM     81  C   UNL A   1      45.698  35.177  30.175  1.00  0.00     0.006 A 
ENDBRANCH  57  74
ENDBRANCH  31  32
ENDBRANCH  23  26
ENDBRANCH  21  22
ENDBRANCH  20  21
ENDBRANCH   1  20
TORSDOF 18
ENDMDL
MODEL 2
REMARK VINA RESULT:      -9.7      4.904      9.884
REMARK SMILES CCC(CC)C(O)(C(=O)NCCCCNC(=O)c1ccc(-c2c3nc(c(-c4c(F)cccc4F)c4ccc([nH]4)c(-c4c(F)cccc4F)c4nc(c(-c5c(F)cccc5F)c5ccc2[nH]5)C=C4)C=C3)cc1)C(CC)CC
REMARK SMILES IDX 12 1 11 2 10 3 8 4 9 5 6 7 3 8 2 9 1 10 4 11 5 12 7 13 72 15
REMARK SMILES IDX 73 16 74 17 75 18 76 19 13 20 14 21 15 22 16 23 17 25 18 26
REMARK SMILES IDX 19 27 71 28 20 29 70 30 21 31 22 32 23 33 64 34 24 35 69 36
REMARK SMILES IDX 63 37 65 38 25 39 68 40 62 41 61 42 26 44 52 45 35 46 51 47
REMARK SMILES IDX 36 48 39 49 50 50 66 51 37 52 38 53 49 55 67 56 40 57 27 58
REMARK SMILES IDX 28 59 33 60 29 61 30 62 32 63 34 64 31 65 53 66 54 67 59 68
REMARK SMILES IDX 55 69 56 70 58 71 60 72 57 73 41 74 42 75 47 76 43 77 44 78
REMARK SMILES IDX 46 79 48 80 45 81
REMARK H PARENT 10 6 7 14 15 24 65 43 39 54
REMARK Flexibility Score: inf
ROOT
ATOM      1  C   UNL A   1      31.380  30.942  25.830  1.00  0.00     0.023 C 
ENDROOT
BRANCH   1   2
ATOM      2  C   UNL A   1      32.541  30.031  26.238  1.00  0.00     0.116 C 
BRANCH   2   3
ATOM      3  N   UNL A   1      33.428  29.674  25.141  1.00  0.00    -0.354 N 
ATOM      4  C   UNL A   1      33.539  28.535  24.376  1.00  0.00     0.252 C 
ATOM      5  O   UNL A   1      34.285  28.621  23.396  1.00  0.00    -0.272 OA
ATOM      6  H   UNL A   1      34.071  30.380  24.900  1.00  0.00     0.163 HD
BRANCH   4   7
ATOM      7  C   UNL A   1      32.810  27.193  24.759  1.00  0.00     0.148 C 
BRANCH   7   8
ATOM      8  C   UNL A   1      33.588  25.975  24.132  1.00  0.00     0.030 C 
BRANCH   8   9
ATOM      9  C   UNL A   1      34.207  25.013  25.173  1.00  0.00     0.004 C 
ATOM     10  C   UNL A   1      33.443  23.709  25.364  1.00  0.00     0.004 C 
ENDBRANCH   8   9
BRANCH   8  11
ATOM     11  C   UNL A   1      33.029  25.310  22.831  1.00  0.00     0.004 C 
ATOM     12  C   UNL A   1      32.914  26.030  21.507  1.00  0.00     0.004 C 
ENDBRANCH   8  11
ENDBRANCH   7   8
BRANCH   7  13
ATOM     13  O   UNL A   1      32.985  27.166  26.205  1.00  0.00    -0.379 OA
ATOM     14  H   UNL A   1      33.189  26.261  26.489  1.00  0.00     0.212 HD
ENDBRANCH   7  13
BRANCH   7  15
ATOM     15  C   UNL A   1      31.228  27.303  24.595  1.00  0.00     0.030 C 
BRANCH  15  16
ATOM     16  C   UNL A   1      30.672  28.175  23.437  1.00  0.00     0.004 C 
ATOM     17  C   UNL A   1      29.193  28.031  23.099  1.00  0.00     0.004 C 
ENDBRANCH  15  16
BRANCH  15  18
ATOM     18  C   UNL A   1      30.376  25.995  24.664  1.00  0.00     0.004 C 
ATOM     19  C   UNL A   1      29.916  25.511  26.031  1.00  0.00     0.004 C 
ENDBRANCH  15  18
ENDBRANCH   7  15
ENDBRANCH   4   7
ENDBRANCH   2   3
ENDBRANCH   1   2
BRANCH   1  20
ATOM     20  C   UNL A   1      31.221  32.195  26.686  1.00  0.00     0.023 C 
BRANCH  20  21
ATOM     21  C   UNL A   1      32.536  32.896  26.986  1.00  0.00     0.116 C 
BRANCH  21  22
ATOM     22  N   UNL A   1      32.345  34.189  27.625  1.00  0.00    -0.352 N 
ATOM     23  C   UNL A   1      33.044  34.765  28.654  1.00  0.00     0.251 C 
ATOM     24  H   UNL A   1      31.604  34.730  27.268  1.00  0.00     0.163 HD
ATOM     25  O   UNL A   1      32.638  35.800  29.168  1.00  0.00    -0.269 OA
BRANCH  23  26
ATOM     26  C   UNL A   1      34.277  34.121  29.147  1.00  0.00     0.039 A 
ATOM     27  C   UNL A   1      34.172  33.152  30.146  1.00  0.00     0.014 A 
ATOM     28  C   UNL A   1      35.528  34.481  28.639  1.00  0.00     0.014 A 
ATOM     29  C   UNL A   1      35.325  32.526  30.616  1.00  0.00     0.010 A 
ATOM     30  C   UNL A   1      36.662  33.787  29.037  1.00  0.00     0.010 A 
ATOM     31  C   UNL A   1      36.575  32.827  30.054  1.00  0.00    -0.014 A 
BRANCH  31  32
ATOM     32  C   UNL A   1      37.811  32.190  30.563  1.00  0.00     0.031 A 
ATOM     33  C   UNL A   1      38.462  32.714  31.815  1.00  0.00     0.074 A 
ATOM     34  C   UNL A   1      38.359  31.164  29.884  1.00  0.00     0.049 A 
ATOM     35  N   UNL A   1      39.543  32.294  32.422  1.00  0.00    -0.248 NA
ATOM     36  C   UNL A   1      37.836  33.884  32.452  1.00  0.00     0.031 C 
ATOM     37  C   UNL A   1      37.847  30.608  28.631  1.00  0.00     0.029 A 
ATOM     38  N   UNL A   1      39.465  30.405  30.159  1.00  0.00    -0.354 N 
ATOM     39  C   UNL A   1      39.730  33.154  33.496  1.00  0.00     0.074 A 
ATOM     40  C   UNL A   1      38.695  34.161  33.420  1.00  0.00     0.031 C 
ATOM     41  C   UNL A   1      38.613  29.567  28.269  1.00  0.00     0.029 A 
ATOM     42  C   UNL A   1      39.687  29.406  29.243  1.00  0.00     0.049 A 
ATOM     43  H   UNL A   1      40.047  30.560  30.939  1.00  0.00     0.167 HD
ATOM     44  C   UNL A   1      40.662  33.095  34.476  1.00  0.00     0.037 A 
ATOM     45  C   UNL A   1      40.646  28.462  29.203  1.00  0.00     0.037 A 
ATOM     46  C   UNL A   1      41.670  32.073  34.560  1.00  0.00     0.049 A 
ATOM     47  C   UNL A   1      41.664  28.412  30.309  1.00  0.00     0.074 A 
ATOM     48  C   UNL A   1      42.623  31.881  35.545  1.00  0.00     0.029 A 
ATOM     49  N   UNL A   1      41.856  31.071  33.620  1.00  0.00    -0.354 N 
ATOM     50  N   UNL A   1      41.783  29.183  31.363  1.00  0.00    -0.248 NA
ATOM     51  C   UNL A   1      42.675  27.350  30.224  1.00  0.00     0.031 C 
ATOM     52  C   UNL A   1      43.419  30.793  35.173  1.00  0.00     0.029 A 
ATOM     53  C   UNL A   1      42.922  30.269  33.989  1.00  0.00     0.049 A 
ATOM     54  H   UNL A   1      41.310  30.946  32.811  1.00  0.00     0.167 HD
ATOM     55  C   UNL A   1      42.854  28.675  32.087  1.00  0.00     0.074 A 
ATOM     56  C   UNL A   1      43.341  27.524  31.356  1.00  0.00     0.031 C 
ATOM     57  C   UNL A   1      43.385  29.119  33.254  1.00  0.00     0.037 A 
BRANCH  44  58
ATOM     58  C   UNL A   1      40.631  34.168  35.528  1.00  0.00     0.057 A 
ATOM     59  C   UNL A   1      39.887  34.030  36.709  1.00  0.00     0.134 A 
ATOM     60  C   UNL A   1      41.371  35.345  35.368  1.00  0.00     0.134 A 
ATOM     61  F   UNL A   1      39.144  32.933  36.920  1.00  0.00    -0.206 F 
ATOM     62  C   UNL A   1      39.854  35.037  37.674  1.00  0.00     0.040 A 
ATOM     63  C   UNL A   1      41.371  36.346  36.342  1.00  0.00     0.040 A 
ATOM     64  F   UNL A   1      42.109  35.543  34.265  1.00  0.00    -0.206 F 
ATOM     65  C   UNL A   1      40.604  36.198  37.495  1.00  0.00     0.006 A 
ENDBRANCH  44  58
BRANCH  45  66
ATOM     66  C   UNL A   1      40.662  27.460  28.107  1.00  0.00     0.057 A 
ATOM     67  C   UNL A   1      39.970  26.248  28.229  1.00  0.00     0.134 A 
ATOM     68  C   UNL A   1      41.374  27.679  26.924  1.00  0.00     0.134 A 
ATOM     69  F   UNL A   1      39.280  25.974  29.345  1.00  0.00    -0.206 F 
ATOM     70  C   UNL A   1      40.010  25.279  27.226  1.00  0.00     0.040 A 
ATOM     71  C   UNL A   1      41.400  26.730  25.900  1.00  0.00     0.040 A 
ATOM     72  F   UNL A   1      42.047  28.824  26.739  1.00  0.00    -0.206 F 
ATOM     73  C   UNL A   1      40.724  25.521  26.054  1.00  0.00     0.006 A 
ENDBRANCH  45  66
BRANCH  57  74
ATOM     74  C   UNL A   1      44.517  28.323  33.836  1.00  0.00     0.057 A 
ATOM     75  C   UNL A   1      44.303  27.226  34.679  1.00  0.00     0.134 A 
ATOM     76  C   UNL A   1      45.845  28.648  33.525  1.00  0.00     0.134 A 
ATOM     77  F   UNL A   1      43.057  26.867  35.026  1.00  0.00    -0.206 F 
ATOM     78  C   UNL A   1      45.367  26.505  35.223  1.00  0.00     0.040 A 
ATOM     79  C   UNL A   1      46.915  27.914  34.034  1.00  0.00     0.040 A 
ATOM     80  F   UNL A   1      46.122  29.679  32.712  1.00  0.00    -0.206 F 
ATOM     81  C   UNL A   1      46.678  26.845  34.895  1.00  0.00     0.006 A 
ENDBRANCH  57  74
ENDBRANCH  31  32
ENDBRANCH  23  26
ENDBRANCH  21  22
ENDBRANCH  20  21
ENDBRANCH   1  20
TORSDOF 18
ENDMDL
MODEL 3
REMARK VINA RESULT:      -9.7      0.772      2.333
REMARK SMILES CCC(CC)C(O)(C(=O)NCCCCNC(=O)c1ccc(-c2c3nc(c(-c4c(F)cccc4F)c4ccc([nH]4)c(-c4c(F)cccc4F)c4nc(c(-c5c(F)cccc5F)c5ccc2[nH]5)C=C4)C=C3)cc1)C(CC)CC
REMARK SMILES IDX 12 1 11 2 10 3 8 4 9 5 6 7 3 8 2 9 1 10 4 11 5 12 7 13 72 15
REMARK SMILES IDX 73 16 74 17 75 18 76 19 13 20 14 21 15 22 16 23 17 25 18 26
REMARK SMILES IDX 19 27 71 28 20 29 70 30 21 31 22 32 23 33 64 34 24 35 69 36
REMARK SMILES IDX 63 37 65 38 25 39 68 40 62 41 61 42 26 44 52 45 35 46 51 47
REMARK SMILES IDX 36 48 39 49 50 50 66 51 37 52 38 53 49 55 67 56 40 57 27 58
REMARK SMILES IDX 28 59 33 60 29 61 30 62 32 63 34 64 31 65 53 66 54 67 59 68
REMARK SMILES IDX 55 69 56 70 58 71 60 72 57 73 41 74 42 75 47 76 43 77 44 78
REMARK SMILES IDX 46 79 48 80 45 81
REMARK H PARENT 10 6 7 14 15 24 65 43 39 54
REMARK Flexibility Score: inf
ROOT
ATOM      1  C   UNL A   1      36.330  19.892  24.962  1.00  0.00     0.023 C 
ENDROOT
BRANCH   1   2
ATOM      2  C   UNL A   1      35.745  21.286  25.201  1.00  0.00     0.116 C 
BRANCH   2   3
ATOM      3  N   UNL A   1      35.003  21.412  26.447  1.00  0.00    -0.354 N 
ATOM      4  C   UNL A   1      33.663  21.579  26.710  1.00  0.00     0.252 C 
ATOM      5  O   UNL A   1      33.334  21.470  27.895  1.00  0.00    -0.272 OA
ATOM      6  H   UNL A   1      35.566  21.369  27.254  1.00  0.00     0.163 HD
BRANCH   4   7
ATOM      7  C   UNL A   1      32.625  21.945  25.584  1.00  0.00     0.148 C 
BRANCH   7   8
ATOM      8  C   UNL A   1      32.880  21.037  24.320  1.00  0.00     0.030 C 
BRANCH   8   9
ATOM      9  C   UNL A   1      32.596  19.535  24.551  1.00  0.00     0.004 C 
ATOM     10  C   UNL A   1      32.378  18.728  23.276  1.00  0.00     0.004 C 
ENDBRANCH   8   9
BRANCH   8  11
ATOM     11  C   UNL A   1      32.519  21.595  22.904  1.00  0.00     0.004 C 
ATOM     12  C   UNL A   1      33.206  22.784  22.273  1.00  0.00     0.004 C 
ENDBRANCH   8  11
ENDBRANCH   7   8
BRANCH   7  13
ATOM     13  O   UNL A   1      31.368  21.545  26.201  1.00  0.00    -0.379 OA
ATOM     14  H   UNL A   1      31.517  20.769  26.764  1.00  0.00     0.212 HD
ENDBRANCH   7  13
BRANCH   7  15
ATOM     15  C   UNL A   1      32.454  23.521  25.416  1.00  0.00     0.030 C 
BRANCH  15  16
ATOM     16  C   UNL A   1      31.044  24.131  25.642  1.00  0.00     0.004 C 
ATOM     17  C   UNL A   1      30.976  25.573  26.133  1.00  0.00     0.004 C 
ENDBRANCH  15  16
BRANCH  15  18
ATOM     18  C   UNL A   1      33.502  24.463  26.092  1.00  0.00     0.004 C 
ATOM     19  C   UNL A   1      34.596  25.061  25.221  1.00  0.00     0.004 C 
ENDBRANCH  15  18
ENDBRANCH   7  15
ENDBRANCH   4   7
ENDBRANCH   2   3
ENDBRANCH   1   2
BRANCH   1  20
ATOM     20  C   UNL A   1      37.822  19.872  24.638  1.00  0.00     0.023 C 
BRANCH  20  21
ATOM     21  C   UNL A   1      38.708  20.076  25.857  1.00  0.00     0.116 C 
BRANCH  21  22
ATOM     22  N   UNL A   1      39.869  19.197  25.853  1.00  0.00    -0.352 N 
ATOM     23  C   UNL A   1      41.186  19.493  26.092  1.00  0.00     0.251 C 
ATOM     24  H   UNL A   1      39.681  18.253  25.647  1.00  0.00     0.163 HD
ATOM     25  O   UNL A   1      42.050  18.648  25.889  1.00  0.00    -0.269 OA
BRANCH  23  26
ATOM     26  C   UNL A   1      41.555  20.836  26.578  1.00  0.00     0.039 A 
ATOM     27  C   UNL A   1      41.847  21.829  25.641  1.00  0.00     0.014 A 
ATOM     28  C   UNL A   1      41.628  21.110  27.946  1.00  0.00     0.014 A 
ATOM     29  C   UNL A   1      42.188  23.107  26.082  1.00  0.00     0.010 A 
ATOM     30  C   UNL A   1      41.869  22.406  28.380  1.00  0.00     0.010 A 
ATOM     31  C   UNL A   1      42.185  23.408  27.453  1.00  0.00    -0.014 A 
BRANCH  31  32
ATOM     32  C   UNL A   1      42.573  24.753  27.936  1.00  0.00     0.031 A 
ATOM     33  C   UNL A   1      44.028  25.114  28.060  1.00  0.00     0.074 A 
ATOM     34  C   UNL A   1      41.616  25.634  28.289  1.00  0.00     0.049 A 
ATOM     35  N   UNL A   1      44.570  26.237  28.458  1.00  0.00    -0.248 NA
ATOM     36  C   UNL A   1      45.005  24.066  27.721  1.00  0.00     0.031 C 
ATOM     37  C   UNL A   1      40.176  25.376  28.263  1.00  0.00     0.029 A 
ATOM     38  N   UNL A   1      41.716  26.925  28.734  1.00  0.00    -0.354 N 
ATOM     39  C   UNL A   1      45.942  26.022  28.432  1.00  0.00     0.074 A 
ATOM     40  C   UNL A   1      46.150  24.644  28.047  1.00  0.00     0.031 C 
ATOM     41  C   UNL A   1      39.525  26.490  28.633  1.00  0.00     0.029 A 
ATOM     42  C   UNL A   1      40.500  27.525  28.953  1.00  0.00     0.049 A 
ATOM     43  H   UNL A   1      42.577  27.380  28.882  1.00  0.00     0.167 HD
ATOM     44  C   UNL A   1      46.941  26.902  28.678  1.00  0.00     0.037 A 
ATOM     45  C   UNL A   1      40.212  28.776  29.359  1.00  0.00     0.037 A 
ATOM     46  C   UNL A   1      46.725  28.279  29.033  1.00  0.00     0.049 A 
ATOM     47  C   UNL A   1      41.339  29.737  29.617  1.00  0.00     0.074 A 
ATOM     48  C   UNL A   1      47.664  29.273  29.241  1.00  0.00     0.029 A 
ATOM     49  N   UNL A   1      45.480  28.854  29.234  1.00  0.00    -0.354 N 
ATOM     50  N   UNL A   1      42.632  29.546  29.511  1.00  0.00    -0.248 NA
ATOM     51  C   UNL A   1      40.965  31.093  30.038  1.00  0.00     0.031 C 
ATOM     52  C   UNL A   1      46.988  30.437  29.620  1.00  0.00     0.029 A 
ATOM     53  C   UNL A   1      45.626  30.185  29.586  1.00  0.00     0.049 A 
ATOM     54  H   UNL A   1      44.619  28.387  29.140  1.00  0.00     0.167 HD
ATOM     55  C   UNL A   1      43.223  30.767  29.812  1.00  0.00     0.074 A 
ATOM     56  C   UNL A   1      42.145  31.692  30.094  1.00  0.00     0.031 C 
ATOM     57  C   UNL A   1      44.539  31.094  29.850  1.00  0.00     0.037 A 
BRANCH  44  58
ATOM     58  C   UNL A   1      48.352  26.396  28.574  1.00  0.00     0.057 A 
ATOM     59  C   UNL A   1      48.999  25.769  29.649  1.00  0.00     0.134 A 
ATOM     60  C   UNL A   1      49.067  26.518  27.377  1.00  0.00     0.134 A 
ATOM     61  F   UNL A   1      48.378  25.632  30.830  1.00  0.00    -0.206 F 
ATOM     62  C   UNL A   1      50.315  25.315  29.547  1.00  0.00     0.040 A 
ATOM     63  C   UNL A   1      50.372  26.037  27.252  1.00  0.00     0.040 A 
ATOM     64  F   UNL A   1      48.509  27.102  26.305  1.00  0.00    -0.206 F 
ATOM     65  C   UNL A   1      51.003  25.442  28.342  1.00  0.00     0.006 A 
ENDBRANCH  44  58
BRANCH  45  66
ATOM     66  C   UNL A   1      38.797  29.207  29.500  1.00  0.00     0.057 A 
ATOM     67  C   UNL A   1      38.142  29.135  30.737  1.00  0.00     0.134 A 
ATOM     68  C   UNL A   1      38.063  29.684  28.410  1.00  0.00     0.134 A 
ATOM     69  F   UNL A   1      38.788  28.674  31.817  1.00  0.00    -0.206 F 
ATOM     70  C   UNL A   1      36.802  29.497  30.877  1.00  0.00     0.040 A 
ATOM     71  C   UNL A   1      36.729  30.076  28.541  1.00  0.00     0.040 A 
ATOM     72  F   UNL A   1      38.634  29.788  27.201  1.00  0.00    -0.206 F 
ATOM     73  C   UNL A   1      36.092  29.973  29.776  1.00  0.00     0.006 A 
ENDBRANCH  45  66
BRANCH  57  74
ATOM     74  C   UNL A   1      44.878  32.525  30.155  1.00  0.00     0.057 A 
ATOM     75  C   UNL A   1      45.127  32.972  31.458  1.00  0.00     0.134 A 
ATOM     76  C   UNL A   1      44.981  33.464  29.119  1.00  0.00     0.134 A 
ATOM     77  F   UNL A   1      45.036  32.128  32.497  1.00  0.00    -0.206 F 
ATOM     78  C   UNL A   1      45.428  34.309  31.725  1.00  0.00     0.040 A 
ATOM     79  C   UNL A   1      45.314  34.794  29.369  1.00  0.00     0.040 A 
ATOM     80  F   UNL A   1      44.768  33.100  27.845  1.00  0.00    -0.206 F 
ATOM     81  C   UNL A   1      45.528  35.223  30.677  1.00  0.00     0.006 A 
ENDBRANCH  57  74
ENDBRANCH  31  32
ENDBRANCH  23  26
ENDBRANCH  21  22
ENDBRANCH  20  21
ENDBRANCH   1  20
TORSDOF 18
ENDMDL
