MODEL 1
REMARK VINA RESULT:      -9.5      0.000      0.000
REMARK SMILES O=C(/C=C/c1ccccc1Oc1cccc(Cl)c1)NCCCCNC(=O)c1ccc(-c2c3nc(c(-c4c(F)cccc4F)c4ccc([nH]4)c(-c4c(F)cccc4F)c4nc(c(-c5c(F)cccc5F)c5ccc2[nH]5)C=C4)C=C3)cc1
REMARK SMILES IDX 21 1 20 2 19 3 1 4 2 5 3 7 4 8 5 9 6 10 10 11 7 12 9 13 8 14
REMARK SMILES IDX 11 15 12 16 13 17 18 18 14 19 16 20 15 21 17 22 22 23 23 24
REMARK SMILES IDX 24 25 25 26 26 28 27 29 28 30 80 31 29 32 79 33 30 34 31 35
REMARK SMILES IDX 32 36 73 37 33 38 78 39 72 40 74 41 34 42 77 43 71 44 70 45
REMARK SMILES IDX 35 47 61 48 44 49 60 50 45 51 48 52 59 53 75 54 46 55 47 56
REMARK SMILES IDX 58 58 76 59 49 60 36 61 37 62 42 63 38 64 39 65 41 66 43 67
REMARK SMILES IDX 40 68 62 69 63 70 68 71 64 72 65 73 67 74 69 75 66 76 50 77
REMARK SMILES IDX 51 78 56 79 52 80 53 81 55 82 57 83 54 84
REMARK H PARENT 19 6 24 27 74 46 48 57
REMARK Flexibility Score: inf
ROOT
ATOM      1  C   UNL A   1      46.054  20.674  25.084  1.00  0.00     0.023 C 
ENDROOT
BRANCH   1   2
ATOM      2  C   UNL A   1      46.279  21.932  24.250  1.00  0.00     0.116 C 
BRANCH   2   3
ATOM      3  N   UNL A   1      45.416  23.030  24.631  1.00  0.00    -0.353 N 
ATOM      4  O   UNL A   1      47.104  24.523  25.062  1.00  0.00    -0.270 OA
ATOM      5  C   UNL A   1      45.910  24.264  24.978  1.00  0.00     0.244 C 
ATOM      6  H   UNL A   1      44.442  22.888  24.642  1.00  0.00     0.163 HD
BRANCH   5   7
ATOM      7  C   UNL A   1      44.903  25.347  25.151  1.00  0.00     0.072 C 
ATOM      8  C   UNL A   1      45.157  26.570  25.641  1.00  0.00     0.017 C 
BRANCH   8   9
ATOM      9  C   UNL A   1      44.116  27.563  25.942  1.00  0.00     0.017 A 
ATOM     10  C   UNL A   1      42.916  27.400  25.222  1.00  0.00     0.012 A 
ATOM     11  C   UNL A   1      44.235  28.663  26.817  1.00  0.00     0.134 A 
ATOM     12  C   UNL A   1      41.852  28.291  25.368  1.00  0.00     0.001 A 
ATOM     13  C   UNL A   1      43.149  29.547  26.957  1.00  0.00     0.048 A 
ATOM     14  C   UNL A   1      41.968  29.368  26.236  1.00  0.00     0.004 A 
BRANCH  11  15
ATOM     15  O   UNL A   1      45.276  29.008  27.656  1.00  0.00    -0.457 OA
BRANCH  15  16
ATOM     16  C   UNL A   1      46.106  30.059  27.380  1.00  0.00     0.128 A 
ATOM     17  C   UNL A   1      47.477  29.831  27.535  1.00  0.00     0.047 A 
ATOM     18  C   UNL A   1      45.635  31.321  27.023  1.00  0.00     0.067 A 
ATOM     19  C   UNL A   1      48.391  30.842  27.243  1.00  0.00     0.005 A 
ATOM     20  C   UNL A   1      46.556  32.324  26.721  1.00  0.00     0.044 A 
ATOM     21  C   UNL A   1      47.929  32.090  26.824  1.00  0.00     0.021 A 
ATOM     22  Cl  UNL A   1      45.996  33.846  26.146  1.00  0.00    -0.084 Cl
ENDBRANCH  15  16
ENDBRANCH  11  15
ENDBRANCH   8   9
ENDBRANCH   5   7
ENDBRANCH   2   3
ENDBRANCH   1   2
BRANCH   1  23
ATOM     23  C   UNL A   1      44.837  19.842  24.671  1.00  0.00     0.023 C 
BRANCH  23  24
ATOM     24  C   UNL A   1      44.195  19.027  25.789  1.00  0.00     0.116 C 
BRANCH  24  25
ATOM     25  N   UNL A   1      42.787  18.752  25.547  1.00  0.00    -0.352 N 
ATOM     26  C   UNL A   1      41.674  19.482  25.895  1.00  0.00     0.251 C 
ATOM     27  H   UNL A   1      42.603  17.917  25.060  1.00  0.00     0.163 HD
ATOM     28  O   UNL A   1      40.555  18.998  25.754  1.00  0.00    -0.269 OA
BRANCH  26  29
ATOM     29  C   UNL A   1      41.817  20.842  26.463  1.00  0.00     0.039 A 
ATOM     30  C   UNL A   1      41.705  21.009  27.846  1.00  0.00     0.014 A 
ATOM     31  C   UNL A   1      42.044  21.950  25.643  1.00  0.00     0.014 A 
ATOM     32  C   UNL A   1      41.894  22.274  28.412  1.00  0.00     0.010 A 
ATOM     33  C   UNL A   1      42.307  23.194  26.214  1.00  0.00     0.010 A 
ATOM     34  C   UNL A   1      42.237  23.370  27.604  1.00  0.00    -0.014 A 
BRANCH  34  35
ATOM     35  C   UNL A   1      42.539  24.700  28.197  1.00  0.00     0.031 A 
ATOM     36  C   UNL A   1      43.921  25.017  28.699  1.00  0.00     0.074 A 
ATOM     37  C   UNL A   1      41.550  25.604  28.345  1.00  0.00     0.049 A 
ATOM     38  N   UNL A   1      44.357  26.095  29.301  1.00  0.00    -0.248 NA
ATOM     39  C   UNL A   1      44.945  23.975  28.520  1.00  0.00     0.031 C 
ATOM     40  C   UNL A   1      40.156  25.408  27.941  1.00  0.00     0.029 A 
ATOM     41  N   UNL A   1      41.563  26.867  28.884  1.00  0.00    -0.354 N 
ATOM     42  C   UNL A   1      45.695  25.856  29.586  1.00  0.00     0.074 A 
ATOM     43  C   UNL A   1      45.988  24.511  29.138  1.00  0.00     0.031 C 
ATOM     44  C   UNL A   1      39.456  26.518  28.221  1.00  0.00     0.029 A 
ATOM     45  C   UNL A   1      40.337  27.489  28.863  1.00  0.00     0.049 A 
ATOM     46  H   UNL A   1      42.374  27.287  29.252  1.00  0.00     0.167 HD
ATOM     47  C   UNL A   1      46.603  26.687  30.150  1.00  0.00     0.037 A 
ATOM     48  C   UNL A   1      39.962  28.700  29.318  1.00  0.00     0.037 A 
ATOM     49  C   UNL A   1      46.317  28.032  30.577  1.00  0.00     0.049 A 
ATOM     50  C   UNL A   1      40.985  29.596  29.961  1.00  0.00     0.074 A 
ATOM     51  C   UNL A   1      47.187  28.974  31.102  1.00  0.00     0.029 A 
ATOM     52  N   UNL A   1      45.064  28.626  30.536  1.00  0.00    -0.354 N 
ATOM     53  N   UNL A   1      42.264  29.383  30.159  1.00  0.00    -0.248 NA
ATOM     54  C   UNL A   1      40.513  30.902  30.441  1.00  0.00     0.031 C 
ATOM     55  C   UNL A   1      46.449  30.116  31.429  1.00  0.00     0.029 A 
ATOM     56  C   UNL A   1      45.132  29.910  31.054  1.00  0.00     0.049 A 
ATOM     57  H   UNL A   1      44.248  28.199  30.190  1.00  0.00     0.167 HD
ATOM     58  C   UNL A   1      42.754  30.538  30.753  1.00  0.00     0.074 A 
ATOM     59  C   UNL A   1      41.639  31.453  30.872  1.00  0.00     0.031 C 
ATOM     60  C   UNL A   1      44.017  30.816  31.161  1.00  0.00     0.037 A 
BRANCH  47  61
ATOM     61  C   UNL A   1      47.998  26.163  30.345  1.00  0.00     0.057 A 
ATOM     62  C   UNL A   1      48.962  26.223  29.329  1.00  0.00     0.134 A 
ATOM     63  C   UNL A   1      48.395  25.628  31.577  1.00  0.00     0.134 A 
ATOM     64  F   UNL A   1      48.648  26.716  28.121  1.00  0.00    -0.206 F 
ATOM     65  C   UNL A   1      50.259  25.744  29.523  1.00  0.00     0.040 A 
ATOM     66  C   UNL A   1      49.697  25.173  31.792  1.00  0.00     0.040 A 
ATOM     67  F   UNL A   1      47.527  25.547  32.597  1.00  0.00    -0.206 F 
ATOM     68  C   UNL A   1      50.632  25.224  30.760  1.00  0.00     0.006 A 
ENDBRANCH  47  61
BRANCH  48  69
ATOM     69  C   UNL A   1      38.554  29.151  29.167  1.00  0.00     0.057 A 
ATOM     70  C   UNL A   1      38.080  29.633  27.941  1.00  0.00     0.134 A 
ATOM     71  C   UNL A   1      37.656  29.126  30.241  1.00  0.00     0.134 A 
ATOM     72  F   UNL A   1      38.897  29.700  26.881  1.00  0.00    -0.206 F 
ATOM     73  C   UNL A   1      36.771  30.096  27.793  1.00  0.00     0.040 A 
ATOM     74  C   UNL A   1      36.336  29.560  30.100  1.00  0.00     0.040 A 
ATOM     75  F   UNL A   1      38.046  28.670  31.440  1.00  0.00    -0.206 F 
ATOM     76  C   UNL A   1      35.893  30.054  28.875  1.00  0.00     0.006 A 
ENDBRANCH  48  69
BRANCH  60  77
ATOM     77  C   UNL A   1      44.272  32.179  31.737  1.00  0.00     0.057 A 
ATOM     78  C   UNL A   1      44.587  33.281  30.930  1.00  0.00     0.134 A 
ATOM     79  C   UNL A   1      44.163  32.400  33.116  1.00  0.00     0.134 A 
ATOM     80  F   UNL A   1      44.719  33.137  29.603  1.00  0.00    -0.206 F 
ATOM     81  C   UNL A   1      44.809  34.546  31.479  1.00  0.00     0.040 A 
ATOM     82  C   UNL A   1      44.353  33.666  33.672  1.00  0.00     0.040 A 
ATOM     83  F   UNL A   1      43.855  31.391  33.946  1.00  0.00    -0.206 F 
ATOM     84  C   UNL A   1      44.683  34.742  32.852  1.00  0.00     0.006 A 
ENDBRANCH  60  77
ENDBRANCH  34  35
ENDBRANCH  26  29
ENDBRANCH  24  25
ENDBRANCH  23  24
ENDBRANCH   1  23
TORSDOF 14
ENDMDL
MODEL 2
REMARK VINA RESULT:      -8.8      4.808     10.156
REMARK SMILES O=C(/C=C/c1ccccc1Oc1cccc(Cl)c1)NCCCCNC(=O)c1ccc(-c2c3nc(c(-c4c(F)cccc4F)c4ccc([nH]4)c(-c4c(F)cccc4F)c4nc(c(-c5c(F)cccc5F)c5ccc2[nH]5)C=C4)C=C3)cc1
REMARK SMILES IDX 21 1 20 2 19 3 1 4 2 5 3 7 4 8 5 9 6 10 10 11 7 12 9 13 8 14
REMARK SMILES IDX 11 15 12 16 13 17 18 18 14 19 16 20 15 21 17 22 22 23 23 24
REMARK SMILES IDX 24 25 25 26 26 28 27 29 28 30 80 31 29 32 79 33 30 34 31 35
REMARK SMILES IDX 32 36 73 37 33 38 78 39 72 40 74 41 34 42 77 43 71 44 70 45
REMARK SMILES IDX 35 47 61 48 44 49 60 50 45 51 48 52 59 53 75 54 46 55 47 56
REMARK SMILES IDX 58 58 76 59 49 60 36 61 37 62 42 63 38 64 39 65 41 66 43 67
REMARK SMILES IDX 40 68 62 69 63 70 68 71 64 72 65 73 67 74 69 75 66 76 50 77
REMARK SMILES IDX 51 78 56 79 52 80 53 81 55 82 57 83 54 84
REMARK H PARENT 19 6 24 27 74 46 48 57
REMARK Flexibility Score: inf
ROOT
ATOM      1  C   UNL A   1      32.764  27.803  24.933  1.00  0.00     0.023 C 
ENDROOT
BRANCH   1   2
ATOM      2  C   UNL A   1      33.175  27.216  23.587  1.00  0.00     0.116 C 
BRANCH   2   3
ATOM      3  N   UNL A   1      33.054  25.774  23.532  1.00  0.00    -0.353 N 
ATOM      4  O   UNL A   1      33.591  25.571  21.311  1.00  0.00    -0.270 OA
ATOM      5  C   UNL A   1      33.309  25.059  22.388  1.00  0.00     0.244 C 
ATOM      6  H   UNL A   1      32.778  25.290  24.344  1.00  0.00     0.163 HD
BRANCH   5   7
ATOM      7  C   UNL A   1      33.338  23.578  22.533  1.00  0.00     0.072 C 
ATOM      8  C   UNL A   1      32.404  22.842  23.154  1.00  0.00     0.017 C 
BRANCH   8   9
ATOM      9  C   UNL A   1      32.536  21.401  23.413  1.00  0.00     0.017 A 
ATOM     10  C   UNL A   1      32.105  20.569  22.362  1.00  0.00     0.012 A 
ATOM     11  C   UNL A   1      32.986  20.803  24.608  1.00  0.00     0.134 A 
ATOM     12  C   UNL A   1      32.130  19.178  22.477  1.00  0.00     0.001 A 
ATOM     13  C   UNL A   1      33.010  19.399  24.704  1.00  0.00     0.048 A 
ATOM     14  C   UNL A   1      32.582  18.591  23.651  1.00  0.00     0.004 A 
BRANCH  11  15
ATOM     15  O   UNL A   1      33.496  21.393  25.748  1.00  0.00    -0.457 OA
BRANCH  15  16
ATOM     16  C   UNL A   1      34.683  22.070  25.739  1.00  0.00     0.128 A 
ATOM     17  C   UNL A   1      34.610  23.463  25.846  1.00  0.00     0.047 A 
ATOM     18  C   UNL A   1      35.913  21.437  25.569  1.00  0.00     0.067 A 
ATOM     19  C   UNL A   1      35.778  24.223  25.876  1.00  0.00     0.005 A 
ATOM     20  C   UNL A   1      37.077  22.204  25.612  1.00  0.00     0.044 A 
ATOM     21  C   UNL A   1      37.016  23.590  25.770  1.00  0.00     0.021 A 
ATOM     22  Cl  UNL A   1      38.610  21.425  25.542  1.00  0.00    -0.084 Cl
ENDBRANCH  15  16
ENDBRANCH  11  15
ENDBRANCH   8   9
ENDBRANCH   5   7
ENDBRANCH   2   3
ENDBRANCH   1   2
BRANCH   1  23
ATOM     23  C   UNL A   1      33.918  28.369  25.765  1.00  0.00     0.023 C 
BRANCH  23  24
ATOM     24  C   UNL A   1      33.622  28.555  27.249  1.00  0.00     0.116 C 
BRANCH  24  25
ATOM     25  N   UNL A   1      33.619  29.954  27.650  1.00  0.00    -0.352 N 
ATOM     26  C   UNL A   1      34.599  30.696  28.266  1.00  0.00     0.251 C 
ATOM     27  H   UNL A   1      32.789  30.443  27.451  1.00  0.00     0.163 HD
ATOM     28  O   UNL A   1      34.346  31.821  28.683  1.00  0.00    -0.269 OA
BRANCH  26  29
ATOM     29  C   UNL A   1      35.957  30.135  28.453  1.00  0.00     0.039 A 
ATOM     30  C   UNL A   1      36.856  30.176  27.383  1.00  0.00     0.014 A 
ATOM     31  C   UNL A   1      36.343  29.559  29.666  1.00  0.00     0.014 A 
ATOM     32  C   UNL A   1      38.162  29.705  27.554  1.00  0.00     0.010 A 
ATOM     33  C   UNL A   1      37.665  29.162  29.858  1.00  0.00     0.010 A 
ATOM     34  C   UNL A   1      38.590  29.233  28.805  1.00  0.00    -0.014 A 
BRANCH  34  35
ATOM     35  C   UNL A   1      40.002  28.821  29.031  1.00  0.00     0.031 A 
ATOM     36  C   UNL A   1      40.986  29.779  29.645  1.00  0.00     0.074 A 
ATOM     37  C   UNL A   1      40.415  27.604  28.625  1.00  0.00     0.049 A 
ATOM     38  N   UNL A   1      42.269  29.622  29.861  1.00  0.00    -0.248 NA
ATOM     39  C   UNL A   1      40.467  31.096  30.047  1.00  0.00     0.031 C 
ATOM     40  C   UNL A   1      39.573  26.596  27.978  1.00  0.00     0.029 A 
ATOM     41  N   UNL A   1      41.652  27.011  28.688  1.00  0.00    -0.354 N 
ATOM     42  C   UNL A   1      42.710  30.820  30.408  1.00  0.00     0.074 A 
ATOM     43  C   UNL A   1      41.571  31.713  30.443  1.00  0.00     0.031 C 
ATOM     44  C   UNL A   1      40.309  25.502  27.729  1.00  0.00     0.029 A 
ATOM     45  C   UNL A   1      41.683  25.743  28.156  1.00  0.00     0.049 A 
ATOM     46  H   UNL A   1      42.441  27.452  29.076  1.00  0.00     0.167 HD
ATOM     47  C   UNL A   1      43.946  31.141  30.860  1.00  0.00     0.037 A 
ATOM     48  C   UNL A   1      42.706  24.877  28.020  1.00  0.00     0.037 A 
ATOM     49  C   UNL A   1      45.074  30.246  30.845  1.00  0.00     0.049 A 
ATOM     50  C   UNL A   1      44.073  25.266  28.510  1.00  0.00     0.074 A 
ATOM     51  C   UNL A   1      46.349  30.459  31.339  1.00  0.00     0.029 A 
ATOM     52  N   UNL A   1      45.064  28.971  30.301  1.00  0.00    -0.354 N 
ATOM     53  N   UNL A   1      44.459  26.377  29.090  1.00  0.00    -0.248 NA
ATOM     54  C   UNL A   1      45.147  24.280  28.329  1.00  0.00     0.031 C 
ATOM     55  C   UNL A   1      47.126  29.334  31.044  1.00  0.00     0.029 A 
ATOM     56  C   UNL A   1      46.319  28.396  30.420  1.00  0.00     0.049 A 
ATOM     57  H   UNL A   1      44.281  28.537  29.892  1.00  0.00     0.167 HD
ATOM     58  C   UNL A   1      45.808  26.209  29.373  1.00  0.00     0.074 A 
ATOM     59  C   UNL A   1      46.171  24.886  28.912  1.00  0.00     0.031 C 
ATOM     60  C   UNL A   1      46.668  27.074  29.965  1.00  0.00     0.037 A 
BRANCH  47  61
ATOM     61  C   UNL A   1      44.147  32.526  31.408  1.00  0.00     0.057 A 
ATOM     62  C   UNL A   1      43.989  32.816  32.770  1.00  0.00     0.134 A 
ATOM     63  C   UNL A   1      44.542  33.576  30.569  1.00  0.00     0.134 A 
ATOM     64  F   UNL A   1      43.604  31.859  33.629  1.00  0.00    -0.206 F 
ATOM     65  C   UNL A   1      44.189  34.103  33.272  1.00  0.00     0.040 A 
ATOM     66  C   UNL A   1      44.775  34.860  31.064  1.00  0.00     0.040 A 
ATOM     67  F   UNL A   1      44.721  33.369  29.255  1.00  0.00    -0.206 F 
ATOM     68  C   UNL A   1      44.591  35.129  32.419  1.00  0.00     0.006 A 
ENDBRANCH  47  61
BRANCH  48  69
ATOM     69  C   UNL A   1      42.475  23.542  27.408  1.00  0.00     0.057 A 
ATOM     70  C   UNL A   1      42.156  22.432  28.200  1.00  0.00     0.134 A 
ATOM     71  C   UNL A   1      42.584  23.339  26.027  1.00  0.00     0.134 A 
ATOM     72  F   UNL A   1      42.057  22.559  29.530  1.00  0.00    -0.206 F 
ATOM     73  C   UNL A   1      41.974  21.165  27.644  1.00  0.00     0.040 A 
ATOM     74  C   UNL A   1      42.378  22.082  25.455  1.00  0.00     0.040 A 
ATOM     75  F   UNL A   1      42.882  24.362  25.213  1.00  0.00    -0.206 F 
ATOM     76  C   UNL A   1      42.080  20.989  26.266  1.00  0.00     0.006 A 
ENDBRANCH  48  69
BRANCH  60  77
ATOM     77  C   UNL A   1      48.077  26.604  30.186  1.00  0.00     0.057 A 
ATOM     78  C   UNL A   1      48.455  25.902  31.339  1.00  0.00     0.134 A 
ATOM     79  C   UNL A   1      49.062  26.824  29.214  1.00  0.00     0.134 A 
ATOM     80  F   UNL A   1      47.565  25.668  32.315  1.00  0.00    -0.206 F 
ATOM     81  C   UNL A   1      49.766  25.458  31.526  1.00  0.00     0.040 A 
ATOM     82  C   UNL A   1      50.368  26.359  29.376  1.00  0.00     0.040 A 
ATOM     83  F   UNL A   1      48.766  27.481  28.082  1.00  0.00    -0.206 F 
ATOM     84  C   UNL A   1      50.724  25.680  30.539  1.00  0.00     0.006 A 
ENDBRANCH  60  77
ENDBRANCH  34  35
ENDBRANCH  26  29
ENDBRANCH  24  25
ENDBRANCH  23  24
ENDBRANCH   1  23
TORSDOF 14
ENDMDL
MODEL 3
REMARK VINA RESULT:      -8.8      1.527      2.822
REMARK SMILES O=C(/C=C/c1ccccc1Oc1cccc(Cl)c1)NCCCCNC(=O)c1ccc(-c2c3nc(c(-c4c(F)cccc4F)c4ccc([nH]4)c(-c4c(F)cccc4F)c4nc(c(-c5c(F)cccc5F)c5ccc2[nH]5)C=C4)C=C3)cc1
REMARK SMILES IDX 21 1 20 2 19 3 1 4 2 5 3 7 4 8 5 9 6 10 10 11 7 12 9 13 8 14
REMARK SMILES IDX 11 15 12 16 13 17 18 18 14 19 16 20 15 21 17 22 22 23 23 24
REMARK SMILES IDX 24 25 25 26 26 28 27 29 28 30 80 31 29 32 79 33 30 34 31 35
REMARK SMILES IDX 32 36 73 37 33 38 78 39 72 40 74 41 34 42 77 43 71 44 70 45
REMARK SMILES IDX 35 47 61 48 44 49 60 50 45 51 48 52 59 53 75 54 46 55 47 56
REMARK SMILES IDX 58 58 76 59 49 60 36 61 37 62 42 63 38 64 39 65 41 66 43 67
REMARK SMILES IDX 40 68 62 69 63 70 68 71 64 72 65 73 67 74 69 75 66 76 50 77
REMARK SMILES IDX 51 78 56 79 52 80 53 81 55 82 57 83 54 84
REMARK H PARENT 19 6 24 27 74 46 48 57
REMARK Flexibility Score: inf
ROOT
ATOM      1  C   UNL A   1      45.056  20.149  24.178  1.00  0.00     0.023 C 
ENDROOT
BRANCH   1   2
ATOM      2  C   UNL A   1      45.173  21.196  25.281  1.00  0.00     0.116 C 
BRANCH   2   3
ATOM      3  N   UNL A   1      46.260  22.129  25.068  1.00  0.00    -0.353 N 
ATOM      4  O   UNL A   1      44.958  23.836  24.260  1.00  0.00    -0.270 OA
ATOM      5  C   UNL A   1      46.052  23.403  24.600  1.00  0.00     0.244 C 
ATOM      6  H   UNL A   1      47.180  21.839  25.265  1.00  0.00     0.163 HD
BRANCH   5   7
ATOM      7  C   UNL A   1      47.233  24.310  24.620  1.00  0.00     0.072 C 
ATOM      8  C   UNL A   1      47.734  24.906  25.713  1.00  0.00     0.017 C 
BRANCH   8   9
ATOM      9  C   UNL A   1      48.804  25.913  25.678  1.00  0.00     0.017 A 
ATOM     10  C   UNL A   1      50.037  25.485  26.207  1.00  0.00     0.012 A 
ATOM     11  C   UNL A   1      48.687  27.245  25.228  1.00  0.00     0.134 A 
ATOM     12  C   UNL A   1      51.135  26.343  26.281  1.00  0.00     0.001 A 
ATOM     13  C   UNL A   1      49.807  28.093  25.304  1.00  0.00     0.048 A 
ATOM     14  C   UNL A   1      51.020  27.651  25.830  1.00  0.00     0.004 A 
BRANCH  11  15
ATOM     15  O   UNL A   1      47.614  27.880  24.634  1.00  0.00    -0.457 OA
BRANCH  15  16
ATOM     16  C   UNL A   1      46.432  28.066  25.295  1.00  0.00     0.128 A 
ATOM     17  C   UNL A   1      46.455  28.943  26.384  1.00  0.00     0.047 A 
ATOM     18  C   UNL A   1      45.264  27.382  24.963  1.00  0.00     0.067 A 
ATOM     19  C   UNL A   1      45.284  29.210  27.091  1.00  0.00     0.005 A 
ATOM     20  C   UNL A   1      44.094  27.664  25.668  1.00  0.00     0.044 A 
ATOM     21  C   UNL A   1      44.097  28.577  26.724  1.00  0.00     0.021 A 
ATOM     22  Cl  UNL A   1      42.613  26.933  25.183  1.00  0.00    -0.084 Cl
ENDBRANCH  15  16
ENDBRANCH  11  15
ENDBRANCH   8   9
ENDBRANCH   5   7
ENDBRANCH   2   3
ENDBRANCH   1   2
BRANCH   1  23
ATOM     23  C   UNL A   1      44.498  18.798  24.635  1.00  0.00     0.023 C 
BRANCH  23  24
ATOM     24  C   UNL A   1      43.704  18.829  25.937  1.00  0.00     0.116 C 
BRANCH  24  25
ATOM     25  N   UNL A   1      42.266  18.832  25.718  1.00  0.00    -0.352 N 
ATOM     26  C   UNL A   1      41.321  19.762  26.084  1.00  0.00     0.251 C 
ATOM     27  H   UNL A   1      41.915  18.049  25.235  1.00  0.00     0.163 HD
ATOM     28  O   UNL A   1      40.127  19.504  25.962  1.00  0.00    -0.269 OA
BRANCH  26  29
ATOM     29  C   UNL A   1      41.733  21.067  26.649  1.00  0.00     0.039 A 
ATOM     30  C   UNL A   1      41.974  22.133  25.777  1.00  0.00     0.014 A 
ATOM     31  C   UNL A   1      41.897  21.242  28.025  1.00  0.00     0.014 A 
ATOM     32  C   UNL A   1      42.308  23.390  26.290  1.00  0.00     0.010 A 
ATOM     33  C   UNL A   1      42.154  22.512  28.539  1.00  0.00     0.010 A 
ATOM     34  C   UNL A   1      42.361  23.600  27.678  1.00  0.00    -0.014 A 
BRANCH  34  35
ATOM     35  C   UNL A   1      42.616  24.952  28.243  1.00  0.00     0.031 A 
ATOM     36  C   UNL A   1      43.985  25.322  28.748  1.00  0.00     0.074 A 
ATOM     37  C   UNL A   1      41.600  25.829  28.362  1.00  0.00     0.049 A 
ATOM     38  N   UNL A   1      44.382  26.426  29.329  1.00  0.00    -0.248 NA
ATOM     39  C   UNL A   1      45.041  24.308  28.601  1.00  0.00     0.031 C 
ATOM     40  C   UNL A   1      40.216  25.581  27.951  1.00  0.00     0.029 A 
ATOM     41  N   UNL A   1      41.570  27.104  28.873  1.00  0.00    -0.354 N 
ATOM     42  C   UNL A   1      45.725  26.234  29.630  1.00  0.00     0.074 A 
ATOM     43  C   UNL A   1      46.062  24.889  29.215  1.00  0.00     0.031 C 
ATOM     44  C   UNL A   1      39.481  26.676  28.200  1.00  0.00     0.029 A 
ATOM     45  C   UNL A   1      40.326  27.687  28.828  1.00  0.00     0.049 A 
ATOM     46  H   UNL A   1      42.365  27.556  29.237  1.00  0.00     0.167 HD
ATOM     47  C   UNL A   1      46.603  27.105  30.182  1.00  0.00     0.037 A 
ATOM     48  C   UNL A   1      39.911  28.896  29.252  1.00  0.00     0.037 A 
ATOM     49  C   UNL A   1      46.272  28.450  30.576  1.00  0.00     0.049 A 
ATOM     50  C   UNL A   1      40.901  29.837  29.882  1.00  0.00     0.074 A 
ATOM     51  C   UNL A   1      47.109  29.429  31.085  1.00  0.00     0.029 A 
ATOM     52  N   UNL A   1      45.003  29.005  30.511  1.00  0.00    -0.354 N 
ATOM     53  N   UNL A   1      42.184  29.667  30.094  1.00  0.00    -0.248 NA
ATOM     54  C   UNL A   1      40.386  31.139  30.328  1.00  0.00     0.031 C 
ATOM     55  C   UNL A   1      46.334  30.556  31.381  1.00  0.00     0.029 A 
ATOM     56  C   UNL A   1      45.028  30.301  31.000  1.00  0.00     0.049 A 
ATOM     57  H   UNL A   1      44.202  28.546  30.168  1.00  0.00     0.167 HD
ATOM     58  C   UNL A   1      42.634  30.850  30.666  1.00  0.00     0.074 A 
ATOM     59  C   UNL A   1      41.491  31.733  30.755  1.00  0.00     0.031 C 
ATOM     60  C   UNL A   1      43.885  31.175  31.077  1.00  0.00     0.037 A 
BRANCH  47  61
ATOM     61  C   UNL A   1      48.011  26.628  30.399  1.00  0.00     0.057 A 
ATOM     62  C   UNL A   1      49.056  26.980  29.534  1.00  0.00     0.134 A 
ATOM     63  C   UNL A   1      48.335  25.840  31.511  1.00  0.00     0.134 A 
ATOM     64  F   UNL A   1      48.815  27.726  28.445  1.00  0.00    -0.206 F 
ATOM     65  C   UNL A   1      50.363  26.541  29.750  1.00  0.00     0.040 A 
ATOM     66  C   UNL A   1      49.644  25.420  31.754  1.00  0.00     0.040 A 
ATOM     67  F   UNL A   1      47.386  25.472  32.387  1.00  0.00    -0.206 F 
ATOM     68  C   UNL A   1      50.662  25.765  30.868  1.00  0.00     0.006 A 
ENDBRANCH  47  61
BRANCH  48  69
ATOM     69  C   UNL A   1      38.491  29.301  29.079  1.00  0.00     0.057 A 
ATOM     70  C   UNL A   1      37.597  29.269  30.155  1.00  0.00     0.134 A 
ATOM     71  C   UNL A   1      37.992  29.711  27.837  1.00  0.00     0.134 A 
ATOM     72  F   UNL A   1      38.011  28.866  31.364  1.00  0.00    -0.206 F 
ATOM     73  C   UNL A   1      36.252  29.609  29.999  1.00  0.00     0.040 A 
ATOM     74  C   UNL A   1      36.655  30.081  27.673  1.00  0.00     0.040 A 
ATOM     75  F   UNL A   1      38.798  29.769  26.766  1.00  0.00    -0.206 F 
ATOM     76  C   UNL A   1      35.779  30.022  28.755  1.00  0.00     0.006 A 
ENDBRANCH  48  69
BRANCH  60  77
ATOM     77  C   UNL A   1      44.093  32.558  31.624  1.00  0.00     0.057 A 
ATOM     78  C   UNL A   1      44.436  33.640  30.802  1.00  0.00     0.134 A 
ATOM     79  C   UNL A   1      43.912  32.819  32.989  1.00  0.00     0.134 A 
ATOM     80  F   UNL A   1      44.637  33.459  29.488  1.00  0.00    -0.206 F 
ATOM     81  C   UNL A   1      44.614  34.924  31.322  1.00  0.00     0.040 A 
ATOM     82  C   UNL A   1      44.058  34.103  33.515  1.00  0.00     0.040 A 
ATOM     83  F   UNL A   1      43.574  31.831  33.832  1.00  0.00    -0.206 F 
ATOM     84  C   UNL A   1      44.416  35.159  32.681  1.00  0.00     0.006 A 
ENDBRANCH  60  77
ENDBRANCH  34  35
ENDBRANCH  26  29
ENDBRANCH  24  25
ENDBRANCH  23  24
ENDBRANCH   1  23
TORSDOF 14
ENDMDL
