MODEL 1
REMARK VINA RESULT:     -11.4      0.000      0.000
REMARK SMILES C[NH2+][C@@]1(C(=O)NCCCCNC(=O)c2ccc(-c3c4nc(c(-c5c(F)cccc5F)c5ccc([nH]5)c(-c5c(F)cccc5F)c5nc(c(-c6c(F)cccc6F)c6ccc3[nH]6)C=C5)C=C4)cc2)CC[C@H](Sc2nccc(=O)[nH]2)C1
REMARK SMILES IDX 8 1 7 2 6 3 4 4 5 5 3 7 68 8 79 9 69 10 70 11 2 12 1 13
REMARK SMILES IDX 71 16 72 17 73 18 78 19 74 20 76 21 75 23 77 24 9 25 10 26
REMARK SMILES IDX 11 27 12 28 13 30 14 31 15 32 67 33 16 34 66 35 17 36 18 37
REMARK SMILES IDX 19 38 60 39 20 40 65 41 59 42 61 43 21 44 64 45 58 46 57 47
REMARK SMILES IDX 22 49 48 50 31 51 47 52 32 53 35 54 46 55 62 56 33 57 34 58
REMARK SMILES IDX 45 60 63 61 36 62 23 63 24 64 29 65 25 66 26 67 28 68 30 69
REMARK SMILES IDX 27 70 49 71 50 72 55 73 51 74 52 75 54 76 56 77 53 78 37 79
REMARK SMILES IDX 38 80 43 81 39 82 40 83 42 84 44 85 41 86
REMARK H PARENT 6 6 2 14 2 15 78 22 11 29 61 48 35 59
REMARK Flexibility Score: inf
ROOT
ATOM      1  C   UNL A   1      37.088  22.948  25.034  1.00  0.00     0.023 C 
ENDROOT
BRANCH   1   2
ATOM      2  C   UNL A   1      35.786  23.144  24.269  1.00  0.00     0.116 C 
BRANCH   2   3
ATOM      3  N   UNL A   1      35.108  24.364  24.608  1.00  0.00    -0.351 N 
ATOM      4  C   UNL A   1      33.982  24.582  25.343  1.00  0.00     0.281 C 
ATOM      5  O   UNL A   1      33.583  25.756  25.336  1.00  0.00    -0.268 OA
ATOM      6  H   UNL A   1      35.526  25.180  24.249  1.00  0.00     0.163 HD
BRANCH   4   7
ATOM      7  C   UNL A   1      33.175  23.438  26.112  1.00  0.00     0.176 C 
ATOM      8  C   UNL A   1      33.935  22.890  27.335  1.00  0.00     0.080 C 
ATOM      9  C   UNL A   1      32.932  22.238  25.173  1.00  0.00     0.094 C 
ATOM     10  C   UNL A   1      34.371  21.458  27.015  1.00  0.00     0.022 C 
ATOM     11  C   UNL A   1      33.472  20.975  25.879  1.00  0.00     0.062 C 
BRANCH   7  12
ATOM     12  N   UNL A   1      31.916  24.106  26.534  1.00  0.00    -0.336 N 
ATOM     13  C   UNL A   1      30.683  23.351  26.566  1.00  0.00     0.331 C 
ATOM     14  H   UNL A   1      32.071  24.460  27.477  1.00  0.00     0.346 HD
ATOM     15  H   UNL A   1      31.754  24.796  25.800  1.00  0.00     0.346 HD
ENDBRANCH   7  12
BRANCH  11  16
ATOM     16  S   UNL A   1      34.079  19.815  24.602  1.00  0.00    -0.084 SA
BRANCH  16  17
ATOM     17  C   UNL A   1      33.567  18.216  25.023  1.00  0.00     0.168 A 
ATOM     18  N   UNL A   1      32.352  17.884  25.298  1.00  0.00    -0.233 NA
ATOM     19  N   UNL A   1      34.606  17.333  24.987  1.00  0.00    -0.301 N 
ATOM     20  C   UNL A   1      32.134  16.554  25.573  1.00  0.00     0.120 A 
ATOM     21  C   UNL A   1      34.444  16.001  25.227  1.00  0.00     0.251 A 
ATOM     22  H   UNL A   1      35.507  17.671  24.781  1.00  0.00     0.172 HD
ATOM     23  C   UNL A   1      33.070  15.600  25.556  1.00  0.00     0.091 A 
ATOM     24  O   UNL A   1      35.368  15.199  25.165  1.00  0.00    -0.269 OA
ENDBRANCH  16  17
ENDBRANCH  11  16
ENDBRANCH   4   7
ENDBRANCH   2   3
ENDBRANCH   1   2
BRANCH   1  25
ATOM     25  C   UNL A   1      37.681  21.554  24.945  1.00  0.00     0.023 C 
BRANCH  25  26
ATOM     26  C   UNL A   1      38.689  21.202  26.032  1.00  0.00     0.116 C 
BRANCH  26  27
ATOM     27  N   UNL A   1      39.563  20.075  25.721  1.00  0.00    -0.352 N 
ATOM     28  C   UNL A   1      40.918  19.951  25.960  1.00  0.00     0.251 C 
ATOM     29  H   UNL A   1      39.131  19.305  25.285  1.00  0.00     0.163 HD
ATOM     30  O   UNL A   1      41.523  18.933  25.690  1.00  0.00    -0.269 OA
BRANCH  28  31
ATOM     31  C   UNL A   1      41.617  21.112  26.542  1.00  0.00     0.039 A 
ATOM     32  C   UNL A   1      42.108  22.106  25.693  1.00  0.00     0.014 A 
ATOM     33  C   UNL A   1      41.656  21.262  27.928  1.00  0.00     0.014 A 
ATOM     34  C   UNL A   1      42.565  23.304  26.245  1.00  0.00     0.010 A 
ATOM     35  C   UNL A   1      42.016  22.488  28.464  1.00  0.00     0.010 A 
ATOM     36  C   UNL A   1      42.475  23.522  27.629  1.00  0.00    -0.014 A 
BRANCH  36  37
ATOM     37  C   UNL A   1      42.866  24.809  28.252  1.00  0.00     0.031 A 
ATOM     38  C   UNL A   1      41.814  25.854  28.500  1.00  0.00     0.074 A 
ATOM     39  C   UNL A   1      44.165  25.082  28.491  1.00  0.00     0.049 A 
ATOM     40  N   UNL A   1      41.954  27.101  28.868  1.00  0.00    -0.248 NA
ATOM     41  C   UNL A   1      40.420  25.452  28.250  1.00  0.00     0.031 C 
ATOM     42  C   UNL A   1      45.287  24.175  28.241  1.00  0.00     0.029 A 
ATOM     43  N   UNL A   1      44.760  26.218  28.980  1.00  0.00    -0.354 N 
ATOM     44  C   UNL A   1      40.673  27.640  28.852  1.00  0.00     0.074 A 
ATOM     45  C   UNL A   1      39.780  26.603  28.388  1.00  0.00     0.031 C 
ATOM     46  C   UNL A   1      46.430  24.781  28.599  1.00  0.00     0.029 A 
ATOM     47  C   UNL A   1      46.129  26.131  29.064  1.00  0.00     0.049 A 
ATOM     48  H   UNL A   1      44.254  27.019  29.244  1.00  0.00     0.167 HD
ATOM     49  C   UNL A   1      40.273  28.880  29.219  1.00  0.00     0.037 A 
ATOM     50  C   UNL A   1      47.036  27.042  29.466  1.00  0.00     0.037 A 
ATOM     51  C   UNL A   1      41.157  29.888  29.738  1.00  0.00     0.049 A 
ATOM     52  C   UNL A   1      46.563  28.399  29.910  1.00  0.00     0.074 A 
ATOM     53  C   UNL A   1      40.845  31.149  30.210  1.00  0.00     0.029 A 
ATOM     54  N   UNL A   1      42.531  29.740  29.864  1.00  0.00    -0.354 N 
ATOM     55  N   UNL A   1      45.343  28.879  29.942  1.00  0.00    -0.248 NA
ATOM     56  C   UNL A   1      47.591  29.339  30.377  1.00  0.00     0.031 C 
ATOM     57  C   UNL A   1      42.034  31.776  30.597  1.00  0.00     0.029 A 
ATOM     58  C   UNL A   1      43.081  30.891  30.400  1.00  0.00     0.049 A 
ATOM     59  H   UNL A   1      43.038  28.935  29.609  1.00  0.00     0.167 HD
ATOM     60  C   UNL A   1      45.454  30.164  30.457  1.00  0.00     0.074 A 
ATOM     61  C   UNL A   1      46.858  30.383  30.735  1.00  0.00     0.031 C 
ATOM     62  C   UNL A   1      44.481  31.081  30.680  1.00  0.00     0.037 A 
BRANCH  49  63
ATOM     63  C   UNL A   1      38.814  29.200  29.084  1.00  0.00     0.057 A 
ATOM     64  C   UNL A   1      37.944  29.158  30.182  1.00  0.00     0.134 A 
ATOM     65  C   UNL A   1      38.274  29.563  27.844  1.00  0.00     0.134 A 
ATOM     66  F   UNL A   1      38.394  28.801  31.394  1.00  0.00    -0.206 F 
ATOM     67  C   UNL A   1      36.582  29.432  30.044  1.00  0.00     0.040 A 
ATOM     68  C   UNL A   1      36.919  29.869  27.701  1.00  0.00     0.040 A 
ATOM     69  F   UNL A   1      39.053  29.626  26.753  1.00  0.00    -0.206 F 
ATOM     70  C   UNL A   1      36.068  29.795  28.801  1.00  0.00     0.006 A 
ENDBRANCH  49  63
BRANCH  50  71
ATOM     71  C   UNL A   1      48.478  26.693  29.500  1.00  0.00     0.057 A 
ATOM     72  C   UNL A   1      49.036  26.062  30.618  1.00  0.00     0.134 A 
ATOM     73  C   UNL A   1      49.332  26.986  28.431  1.00  0.00     0.134 A 
ATOM     74  F   UNL A   1      48.272  25.773  31.682  1.00  0.00    -0.206 F 
ATOM     75  C   UNL A   1      50.395  25.750  30.681  1.00  0.00     0.040 A 
ATOM     76  C   UNL A   1      50.689  26.660  28.472  1.00  0.00     0.040 A 
ATOM     77  F   UNL A   1      48.858  27.584  27.329  1.00  0.00    -0.206 F 
ATOM     78  C   UNL A   1      51.226  26.046  29.602  1.00  0.00     0.006 A 
ENDBRANCH  50  71
BRANCH  62  79
ATOM     79  C   UNL A   1      44.897  32.386  31.288  1.00  0.00     0.057 A 
ATOM     80  C   UNL A   1      44.962  32.566  32.675  1.00  0.00     0.134 A 
ATOM     81  C   UNL A   1      45.281  33.460  30.475  1.00  0.00     0.134 A 
ATOM     82  F   UNL A   1      44.596  31.580  33.507  1.00  0.00    -0.206 F 
ATOM     83  C   UNL A   1      45.377  33.776  33.232  1.00  0.00     0.040 A 
ATOM     84  C   UNL A   1      45.720  34.666  31.020  1.00  0.00     0.040 A 
ATOM     85  F   UNL A   1      45.248  33.346  29.138  1.00  0.00    -0.206 F 
ATOM     86  C   UNL A   1      45.764  34.828  32.403  1.00  0.00     0.006 A 
ENDBRANCH  62  79
ENDBRANCH  36  37
ENDBRANCH  28  31
ENDBRANCH  26  27
ENDBRANCH  25  26
ENDBRANCH   1  25
TORSDOF 14
ENDMDL
MODEL 2
REMARK VINA RESULT:     -11.4      1.076      6.513
REMARK SMILES C[NH2+][C@@]1(C(=O)NCCCCNC(=O)c2ccc(-c3c4nc(c(-c5c(F)cccc5F)c5ccc([nH]5)c(-c5c(F)cccc5F)c5nc(c(-c6c(F)cccc6F)c6ccc3[nH]6)C=C5)C=C4)cc2)CC[C@H](Sc2nccc(=O)[nH]2)C1
REMARK SMILES IDX 8 1 7 2 6 3 4 4 5 5 3 7 68 8 79 9 69 10 70 11 2 12 1 13
REMARK SMILES IDX 71 16 72 17 73 18 78 19 74 20 76 21 75 23 77 24 9 25 10 26
REMARK SMILES IDX 11 27 12 28 13 30 14 31 15 32 67 33 16 34 66 35 17 36 18 37
REMARK SMILES IDX 19 38 60 39 20 40 65 41 59 42 61 43 21 44 64 45 58 46 57 47
REMARK SMILES IDX 22 49 48 50 31 51 47 52 32 53 35 54 46 55 62 56 33 57 34 58
REMARK SMILES IDX 45 60 63 61 36 62 23 63 24 64 29 65 25 66 26 67 28 68 30 69
REMARK SMILES IDX 27 70 49 71 50 72 55 73 51 74 52 75 54 76 56 77 53 78 37 79
REMARK SMILES IDX 38 80 43 81 39 82 40 83 42 84 44 85 41 86
REMARK H PARENT 6 6 2 14 2 15 78 22 11 29 61 48 35 59
REMARK Flexibility Score: inf
ROOT
ATOM      1  C   UNL A   1      37.310  21.795  24.519  1.00  0.00     0.023 C 
ENDROOT
BRANCH   1   2
ATOM      2  C   UNL A   1      36.803  22.727  25.610  1.00  0.00     0.116 C 
BRANCH   2   3
ATOM      3  N   UNL A   1      35.958  22.071  26.569  1.00  0.00    -0.351 N 
ATOM      4  C   UNL A   1      34.611  22.136  26.760  1.00  0.00     0.281 C 
ATOM      5  O   UNL A   1      34.207  21.541  27.770  1.00  0.00    -0.268 OA
ATOM      6  H   UNL A   1      36.432  21.476  27.194  1.00  0.00     0.163 HD
BRANCH   4   7
ATOM      7  C   UNL A   1      33.608  22.952  25.823  1.00  0.00     0.176 C 
ATOM      8  C   UNL A   1      32.153  22.909  26.327  1.00  0.00     0.080 C 
ATOM      9  C   UNL A   1      33.598  22.348  24.403  1.00  0.00     0.094 C 
ATOM     10  C   UNL A   1      31.340  22.060  25.347  1.00  0.00     0.022 C 
ATOM     11  C   UNL A   1      32.130  22.030  24.041  1.00  0.00     0.062 C 
BRANCH   7  12
ATOM     12  N   UNL A   1      34.134  24.342  25.855  1.00  0.00    -0.336 N 
ATOM     13  C   UNL A   1      33.266  25.443  25.501  1.00  0.00     0.331 C 
ATOM     14  H   UNL A   1      34.457  24.513  26.807  1.00  0.00     0.346 HD
ATOM     15  H   UNL A   1      34.839  24.347  25.118  1.00  0.00     0.346 HD
ENDBRANCH   7  12
BRANCH  11  16
ATOM     16  S   UNL A   1      32.112  20.567  22.942  1.00  0.00    -0.084 SA
BRANCH  16  17
ATOM     17  C   UNL A   1      32.545  19.173  23.874  1.00  0.00     0.168 A 
ATOM     18  N   UNL A   1      32.273  19.015  25.124  1.00  0.00    -0.233 NA
ATOM     19  N   UNL A   1      33.175  18.237  23.109  1.00  0.00    -0.301 N 
ATOM     20  C   UNL A   1      32.666  17.821  25.683  1.00  0.00     0.120 A 
ATOM     21  C   UNL A   1      33.565  17.028  23.603  1.00  0.00     0.251 A 
ATOM     22  H   UNL A   1      33.357  18.443  22.164  1.00  0.00     0.172 HD
ATOM     23  C   UNL A   1      33.279  16.828  25.030  1.00  0.00     0.091 A 
ATOM     24  O   UNL A   1      34.103  16.172  22.913  1.00  0.00    -0.269 OA
ENDBRANCH  16  17
ENDBRANCH  11  16
ENDBRANCH   4   7
ENDBRANCH   2   3
ENDBRANCH   1   2
BRANCH   1  25
ATOM     25  C   UNL A   1      37.894  20.484  25.015  1.00  0.00     0.023 C 
BRANCH  25  26
ATOM     26  C   UNL A   1      39.115  20.613  25.918  1.00  0.00     0.116 C 
BRANCH  26  27
ATOM     27  N   UNL A   1      40.091  19.536  25.792  1.00  0.00    -0.352 N 
ATOM     28  C   UNL A   1      41.435  19.556  26.113  1.00  0.00     0.251 C 
ATOM     29  H   UNL A   1      39.748  18.686  25.433  1.00  0.00     0.163 HD
ATOM     30  O   UNL A   1      42.133  18.569  26.001  1.00  0.00    -0.269 OA
BRANCH  28  31
ATOM     31  C   UNL A   1      42.004  20.832  26.583  1.00  0.00     0.039 A 
ATOM     32  C   UNL A   1      42.437  21.771  25.645  1.00  0.00     0.014 A 
ATOM     33  C   UNL A   1      41.976  21.133  27.945  1.00  0.00     0.014 A 
ATOM     34  C   UNL A   1      42.764  23.059  26.074  1.00  0.00     0.010 A 
ATOM     35  C   UNL A   1      42.204  22.438  28.353  1.00  0.00     0.010 A 
ATOM     36  C   UNL A   1      42.601  23.414  27.422  1.00  0.00    -0.014 A 
BRANCH  36  37
ATOM     37  C   UNL A   1      42.851  24.792  27.911  1.00  0.00     0.031 A 
ATOM     38  C   UNL A   1      44.244  25.182  28.323  1.00  0.00     0.074 A 
ATOM     39  C   UNL A   1      41.825  25.648  28.087  1.00  0.00     0.049 A 
ATOM     40  N   UNL A   1      44.656  26.262  28.935  1.00  0.00    -0.248 NA
ATOM     41  C   UNL A   1      45.307  24.199  28.055  1.00  0.00     0.031 C 
ATOM     42  C   UNL A   1      40.421  25.371  27.779  1.00  0.00     0.029 A 
ATOM     43  N   UNL A   1      41.807  26.924  28.592  1.00  0.00    -0.354 N 
ATOM     44  C   UNL A   1      46.013  26.068  29.160  1.00  0.00     0.074 A 
ATOM     45  C   UNL A   1      46.342  24.748  28.669  1.00  0.00     0.031 C 
ATOM     46  C   UNL A   1      39.683  26.451  28.081  1.00  0.00     0.029 A 
ATOM     47  C   UNL A   1      40.552  27.481  28.640  1.00  0.00     0.049 A 
ATOM     48  H   UNL A   1      42.617  27.395  28.892  1.00  0.00     0.167 HD
ATOM     49  C   UNL A   1      46.911  26.924  29.702  1.00  0.00     0.037 A 
ATOM     50  C   UNL A   1      40.151  28.685  29.090  1.00  0.00     0.037 A 
ATOM     51  C   UNL A   1      46.590  28.257  30.133  1.00  0.00     0.049 A 
ATOM     52  C   UNL A   1      41.174  29.636  29.649  1.00  0.00     0.074 A 
ATOM     53  C   UNL A   1      47.438  29.232  30.625  1.00  0.00     0.029 A 
ATOM     54  N   UNL A   1      45.316  28.805  30.110  1.00  0.00    -0.354 N 
ATOM     55  N   UNL A   1      42.464  29.462  29.807  1.00  0.00    -0.248 NA
ATOM     56  C   UNL A   1      40.687  30.951  30.087  1.00  0.00     0.031 C 
ATOM     57  C   UNL A   1      46.672  30.363  30.925  1.00  0.00     0.029 A 
ATOM     58  C   UNL A   1      45.354  30.104  30.585  1.00  0.00     0.049 A 
ATOM     59  H   UNL A   1      44.505  28.339  29.801  1.00  0.00     0.167 HD
ATOM     60  C   UNL A   1      42.946  30.652  30.336  1.00  0.00     0.074 A 
ATOM     61  C   UNL A   1      41.812  31.544  30.460  1.00  0.00     0.031 C 
ATOM     62  C   UNL A   1      44.214  30.978  30.688  1.00  0.00     0.037 A 
BRANCH  49  63
ATOM     63  C   UNL A   1      48.324  26.441  29.840  1.00  0.00     0.057 A 
ATOM     64  C   UNL A   1      49.272  26.631  28.825  1.00  0.00     0.134 A 
ATOM     65  C   UNL A   1      48.745  25.787  31.004  1.00  0.00     0.134 A 
ATOM     66  F   UNL A   1      48.928  27.236  27.678  1.00  0.00    -0.206 F 
ATOM     67  C   UNL A   1      50.579  26.157  28.950  1.00  0.00     0.040 A 
ATOM     68  C   UNL A   1      50.058  25.334  31.151  1.00  0.00     0.040 A 
ATOM     69  F   UNL A   1      47.890  25.575  32.015  1.00  0.00    -0.206 F 
ATOM     70  C   UNL A   1      50.977  25.512  30.119  1.00  0.00     0.006 A 
ENDBRANCH  49  63
BRANCH  50  71
ATOM     71  C   UNL A   1      38.722  29.076  29.003  1.00  0.00     0.057 A 
ATOM     72  C   UNL A   1      38.178  29.540  27.800  1.00  0.00     0.134 A 
ATOM     73  C   UNL A   1      37.870  29.003  30.110  1.00  0.00     0.134 A 
ATOM     74  F   UNL A   1      38.950  29.650  26.708  1.00  0.00    -0.206 F 
ATOM     75  C   UNL A   1      36.844  29.938  27.703  1.00  0.00     0.040 A 
ATOM     76  C   UNL A   1      36.527  29.377  30.023  1.00  0.00     0.040 A 
ATOM     77  F   UNL A   1      38.328  28.560  31.290  1.00  0.00    -0.206 F 
ATOM     78  C   UNL A   1      36.012  29.853  28.818  1.00  0.00     0.006 A 
ENDBRANCH  50  71
BRANCH  62  79
ATOM     79  C   UNL A   1      44.445  32.367  31.202  1.00  0.00     0.057 A 
ATOM     80  C   UNL A   1      44.725  33.434  30.341  1.00  0.00     0.134 A 
ATOM     81  C   UNL A   1      44.341  32.645  32.571  1.00  0.00     0.134 A 
ATOM     82  F   UNL A   1      44.850  33.230  29.022  1.00  0.00    -0.206 F 
ATOM     83  C   UNL A   1      44.913  34.729  30.827  1.00  0.00     0.040 A 
ATOM     84  C   UNL A   1      44.503  33.939  33.065  1.00  0.00     0.040 A 
ATOM     85  F   UNL A   1      44.066  31.665  33.445  1.00  0.00    -0.206 F 
ATOM     86  C   UNL A   1      44.795  34.985  32.192  1.00  0.00     0.006 A 
ENDBRANCH  62  79
ENDBRANCH  36  37
ENDBRANCH  28  31
ENDBRANCH  26  27
ENDBRANCH  25  26
ENDBRANCH   1  25
TORSDOF 14
ENDMDL
MODEL 3
REMARK VINA RESULT:     -11.4      5.233     10.069
REMARK SMILES C[NH2+][C@@]1(C(=O)NCCCCNC(=O)c2ccc(-c3c4nc(c(-c5c(F)cccc5F)c5ccc([nH]5)c(-c5c(F)cccc5F)c5nc(c(-c6c(F)cccc6F)c6ccc3[nH]6)C=C5)C=C4)cc2)CC[C@H](Sc2nccc(=O)[nH]2)C1
REMARK SMILES IDX 8 1 7 2 6 3 4 4 5 5 3 7 68 8 79 9 69 10 70 11 2 12 1 13
REMARK SMILES IDX 71 16 72 17 73 18 78 19 74 20 76 21 75 23 77 24 9 25 10 26
REMARK SMILES IDX 11 27 12 28 13 30 14 31 15 32 67 33 16 34 66 35 17 36 18 37
REMARK SMILES IDX 19 38 60 39 20 40 65 41 59 42 61 43 21 44 64 45 58 46 57 47
REMARK SMILES IDX 22 49 48 50 31 51 47 52 32 53 35 54 46 55 62 56 33 57 34 58
REMARK SMILES IDX 45 60 63 61 36 62 23 63 24 64 29 65 25 66 26 67 28 68 30 69
REMARK SMILES IDX 27 70 49 71 50 72 55 73 51 74 52 75 54 76 56 77 53 78 37 79
REMARK SMILES IDX 38 80 43 81 39 82 40 83 42 84 44 85 41 86
REMARK H PARENT 6 6 2 14 2 15 78 22 11 29 61 48 35 59
REMARK Flexibility Score: inf
ROOT
ATOM      1  C   UNL A   1      32.602  29.056  26.982  1.00  0.00     0.023 C 
ENDROOT
BRANCH   1   2
ATOM      2  C   UNL A   1      32.005  27.828  26.309  1.00  0.00     0.116 C 
BRANCH   2   3
ATOM      3  N   UNL A   1      32.969  26.791  26.063  1.00  0.00    -0.351 N 
ATOM      4  C   UNL A   1      33.473  26.304  24.896  1.00  0.00     0.281 C 
ATOM      5  O   UNL A   1      34.198  25.307  25.027  1.00  0.00    -0.268 OA
ATOM      6  H   UNL A   1      33.324  26.361  26.874  1.00  0.00     0.163 HD
BRANCH   4   7
ATOM      7  C   UNL A   1      33.131  26.894  23.452  1.00  0.00     0.176 C 
ATOM      8  C   UNL A   1      33.813  28.251  23.186  1.00  0.00     0.080 C 
ATOM      9  C   UNL A   1      31.613  27.135  23.323  1.00  0.00     0.094 C 
ATOM     10  C   UNL A   1      32.725  29.328  23.163  1.00  0.00     0.022 C 
ATOM     11  C   UNL A   1      31.406  28.606  22.899  1.00  0.00     0.062 C 
BRANCH   7  12
ATOM     12  N   UNL A   1      33.635  25.861  22.510  1.00  0.00    -0.336 N 
ATOM     13  C   UNL A   1      32.779  25.386  21.445  1.00  0.00     0.331 C 
ATOM     14  H   UNL A   1      34.471  26.245  22.070  1.00  0.00     0.346 HD
ATOM     15  H   UNL A   1      33.758  25.039  23.102  1.00  0.00     0.346 HD
ENDBRANCH   7  12
BRANCH  11  16
ATOM     16  S   UNL A   1      29.830  29.196  23.614  1.00  0.00    -0.084 SA
BRANCH  16  17
ATOM     17  C   UNL A   1      29.127  30.343  22.524  1.00  0.00     0.168 A 
ATOM     18  N   UNL A   1      28.577  30.042  21.398  1.00  0.00    -0.233 NA
ATOM     19  N   UNL A   1      29.187  31.610  23.026  1.00  0.00    -0.301 N 
ATOM     20  C   UNL A   1      28.039  31.089  20.687  1.00  0.00     0.120 A 
ATOM     21  C   UNL A   1      28.649  32.681  22.376  1.00  0.00     0.251 A 
ATOM     22  H   UNL A   1      29.636  31.757  23.889  1.00  0.00     0.172 HD
ATOM     23  C   UNL A   1      28.029  32.366  21.083  1.00  0.00     0.091 A 
ATOM     24  O   UNL A   1      28.673  33.815  22.836  1.00  0.00    -0.269 OA
ENDBRANCH  16  17
ENDBRANCH  11  16
ENDBRANCH   4   7
ENDBRANCH   2   3
ENDBRANCH   1   2
BRANCH   1  25
ATOM     25  C   UNL A   1      31.767  30.318  26.873  1.00  0.00     0.023 C 
BRANCH  25  26
ATOM     26  C   UNL A   1      32.502  31.545  26.348  1.00  0.00     0.116 C 
BRANCH  26  27
ATOM     27  N   UNL A   1      32.170  32.797  27.019  1.00  0.00    -0.352 N 
ATOM     28  C   UNL A   1      32.931  33.513  27.923  1.00  0.00     0.251 C 
ATOM     29  H   UNL A   1      31.290  33.182  26.799  1.00  0.00     0.163 HD
ATOM     30  O   UNL A   1      32.553  34.574  28.378  1.00  0.00    -0.269 OA
BRANCH  28  31
ATOM     31  C   UNL A   1      34.222  32.933  28.337  1.00  0.00     0.039 A 
ATOM     32  C   UNL A   1      35.359  33.744  28.355  1.00  0.00     0.014 A 
ATOM     33  C   UNL A   1      34.258  31.628  28.829  1.00  0.00     0.014 A 
ATOM     34  C   UNL A   1      36.524  33.265  28.956  1.00  0.00     0.010 A 
ATOM     35  C   UNL A   1      35.384  31.195  29.511  1.00  0.00     0.010 A 
ATOM     36  C   UNL A   1      36.529  32.008  29.581  1.00  0.00    -0.014 A 
BRANCH  36  37
ATOM     37  C   UNL A   1      37.715  31.493  30.307  1.00  0.00     0.031 A 
ATOM     38  C   UNL A   1      38.613  30.494  29.630  1.00  0.00     0.074 A 
ATOM     39  C   UNL A   1      37.924  31.830  31.595  1.00  0.00     0.049 A 
ATOM     40  N   UNL A   1      39.593  29.788  30.129  1.00  0.00    -0.248 NA
ATOM     41  C   UNL A   1      38.334  30.219  28.210  1.00  0.00     0.031 C 
ATOM     42  C   UNL A   1      37.094  32.743  32.383  1.00  0.00     0.029 A 
ATOM     43  N   UNL A   1      38.893  31.421  32.477  1.00  0.00    -0.354 N 
ATOM     44  C   UNL A   1      40.017  28.958  29.098  1.00  0.00     0.074 A 
ATOM     45  C   UNL A   1      39.155  29.210  27.965  1.00  0.00     0.031 C 
ATOM     46  C   UNL A   1      37.602  32.842  33.622  1.00  0.00     0.029 A 
ATOM     47  C   UNL A   1      38.768  31.971  33.729  1.00  0.00     0.049 A 
ATOM     48  H   UNL A   1      39.611  30.793  32.234  1.00  0.00     0.167 HD
ATOM     49  C   UNL A   1      41.051  28.085  29.087  1.00  0.00     0.037 A 
ATOM     50  C   UNL A   1      39.507  31.785  34.840  1.00  0.00     0.037 A 
ATOM     51  C   UNL A   1      41.943  27.882  30.196  1.00  0.00     0.049 A 
ATOM     52  C   UNL A   1      40.677  30.841  34.790  1.00  0.00     0.074 A 
ATOM     53  C   UNL A   1      43.066  27.079  30.264  1.00  0.00     0.029 A 
ATOM     54  N   UNL A   1      41.817  28.503  31.429  1.00  0.00    -0.354 N 
ATOM     55  N   UNL A   1      41.101  30.102  33.793  1.00  0.00    -0.248 NA
ATOM     56  C   UNL A   1      41.473  30.708  36.018  1.00  0.00     0.031 C 
ATOM     57  C   UNL A   1      43.605  27.192  31.550  1.00  0.00     0.029 A 
ATOM     58  C   UNL A   1      42.839  28.095  32.269  1.00  0.00     0.049 A 
ATOM     59  H   UNL A   1      41.105  29.140  31.672  1.00  0.00     0.167 HD
ATOM     60  C   UNL A   1      42.227  29.440  34.264  1.00  0.00     0.074 A 
ATOM     61  C   UNL A   1      42.427  29.873  35.631  1.00  0.00     0.031 C 
ATOM     62  C   UNL A   1      43.024  28.551  33.622  1.00  0.00     0.037 A 
BRANCH  49  63
ATOM     63  C   UNL A   1      41.274  27.299  27.829  1.00  0.00     0.057 A 
ATOM     64  C   UNL A   1      42.055  27.796  26.776  1.00  0.00     0.134 A 
ATOM     65  C   UNL A   1      40.710  26.028  27.671  1.00  0.00     0.134 A 
ATOM     66  F   UNL A   1      42.610  29.015  26.857  1.00  0.00    -0.206 F 
ATOM     67  C   UNL A   1      42.238  27.071  25.598  1.00  0.00     0.040 A 
ATOM     68  C   UNL A   1      40.910  25.281  26.508  1.00  0.00     0.040 A 
ATOM     69  F   UNL A   1      39.954  25.491  28.641  1.00  0.00    -0.206 F 
ATOM     70  C   UNL A   1      41.669  25.806  25.464  1.00  0.00     0.006 A 
ENDBRANCH  49  63
BRANCH  50  71
ATOM     71  C   UNL A   1      39.186  32.530  36.082  1.00  0.00     0.057 A 
ATOM     72  C   UNL A   1      38.329  31.984  37.045  1.00  0.00     0.134 A 
ATOM     73  C   UNL A   1      39.716  33.800  36.337  1.00  0.00     0.134 A 
ATOM     74  F   UNL A   1      37.775  30.778  36.848  1.00  0.00    -0.206 F 
ATOM     75  C   UNL A   1      37.994  32.680  38.207  1.00  0.00     0.040 A 
ATOM     76  C   UNL A   1      39.407  34.499  37.506  1.00  0.00     0.040 A 
ATOM     77  F   UNL A   1      40.549  34.375  35.457  1.00  0.00    -0.206 F 
ATOM     78  C   UNL A   1      38.538  33.942  38.442  1.00  0.00     0.006 A 
ENDBRANCH  50  71
BRANCH  62  79
ATOM     79  C   UNL A   1      44.206  28.022  34.378  1.00  0.00     0.057 A 
ATOM     80  C   UNL A   1      45.435  28.691  34.387  1.00  0.00     0.134 A 
ATOM     81  C   UNL A   1      44.096  26.853  35.143  1.00  0.00     0.134 A 
ATOM     82  F   UNL A   1      45.607  29.808  33.665  1.00  0.00    -0.206 F 
ATOM     83  C   UNL A   1      46.522  28.204  35.115  1.00  0.00     0.040 A 
ATOM     84  C   UNL A   1      45.167  26.371  35.894  1.00  0.00     0.040 A 
ATOM     85  F   UNL A   1      42.940  26.172  35.181  1.00  0.00    -0.206 F 
ATOM     86  C   UNL A   1      46.386  27.045  35.877  1.00  0.00     0.006 A 
ENDBRANCH  62  79
ENDBRANCH  36  37
ENDBRANCH  28  31
ENDBRANCH  26  27
ENDBRANCH  25  26
ENDBRANCH   1  25
TORSDOF 14
ENDMDL
