MODEL 1
REMARK VINA RESULT:     -11.0      0.000      0.000
REMARK SMILES COc1cc(C(C)C)cc([C@H]([NH3+])C(=O)NCCCCNC(=O)c2ccc(-c3c4nc(c(-c5c(F)cccc5F)c5ccc([nH]5)c(-c5c(F)cccc5F)c5nc(c(-c6c(F)cccc6F)c6ccc3[nH]6)C=C5)C=C4)cc2)c1O
REMARK SMILES IDX 17 1 16 2 15 3 13 4 14 5 11 7 10 8 3 9 4 10 77 11 5 12 9 13
REMARK SMILES IDX 2 14 1 15 78 16 6 18 7 19 8 20 12 21 18 25 19 26 20 27 21 28
REMARK SMILES IDX 22 30 23 31 24 32 76 33 25 34 75 35 26 36 27 37 28 38 69 39
REMARK SMILES IDX 29 40 74 41 68 42 70 43 30 44 73 45 67 46 66 47 31 49 57 50
REMARK SMILES IDX 40 51 56 52 41 53 44 54 55 55 71 56 42 57 43 58 54 60 72 61
REMARK SMILES IDX 45 62 32 63 33 64 38 65 34 66 35 67 37 68 39 69 36 70 58 71
REMARK SMILES IDX 59 72 64 73 60 74 61 75 63 76 65 77 62 78 46 79 47 80 52 81
REMARK SMILES IDX 48 82 49 83 51 84 53 85 50 86
REMARK H PARENT 15 6 78 17 12 22 12 23 12 24 20 29 70 48 44 59
REMARK Flexibility Score: inf
ROOT
ATOM      1  C   UNL A   1      36.352  20.560  25.051  1.00  0.00     0.023 C 
ENDROOT
BRANCH   1   2
ATOM      2  C   UNL A   1      36.101  21.912  25.703  1.00  0.00     0.116 C 
BRANCH   2   3
ATOM      3  N   UNL A   1      35.251  21.859  26.872  1.00  0.00    -0.351 N 
ATOM      4  C   UNL A   1      33.892  22.028  26.960  1.00  0.00     0.283 C 
ATOM      5  O   UNL A   1      33.378  21.817  28.065  1.00  0.00    -0.268 OA
ATOM      6  H   UNL A   1      35.712  21.677  27.724  1.00  0.00     0.163 HD
BRANCH   4   7
ATOM      7  C   UNL A   1      33.022  22.470  25.740  1.00  0.00     0.306 C 
BRANCH   7   8
ATOM      8  C   UNL A   1      32.944  23.985  25.627  1.00  0.00     0.065 A 
ATOM      9  C   UNL A   1      31.865  26.085  26.240  1.00  0.00     0.161 A 
ATOM     10  C   UNL A   1      32.429  26.714  25.128  1.00  0.00     0.054 A 
ATOM     11  C   UNL A   1      32.066  24.713  26.436  1.00  0.00     0.167 A 
ATOM     12  C   UNL A   1      33.270  26.002  24.266  1.00  0.00    -0.041 A 
ATOM     13  C   UNL A   1      33.603  24.681  24.600  1.00  0.00     0.018 A 
BRANCH   9  14
ATOM     14  O   UNL A   1      31.022  26.843  27.011  1.00  0.00    -0.493 OA
ATOM     15  C   UNL A   1      31.586  28.087  27.432  1.00  0.00     0.278 C 
ENDBRANCH   9  14
BRANCH  11  16
ATOM     16  O   UNL A   1      31.347  24.040  27.386  1.00  0.00    -0.504 OA
ATOM     17  H   UNL A   1      31.722  23.299  27.819  1.00  0.00     0.293 HD
ENDBRANCH  11  16
BRANCH  12  18
ATOM     18  C   UNL A   1      33.737  26.551  22.926  1.00  0.00     0.013 C 
ATOM     19  C   UNL A   1      32.980  25.905  21.759  1.00  0.00     0.012 C 
ATOM     20  C   UNL A   1      33.672  28.072  22.858  1.00  0.00     0.012 C 
ENDBRANCH  12  18
ENDBRANCH   7   8
BRANCH   7  21
ATOM     21  N   UNL A   1      31.704  21.790  25.752  1.00  0.00    -0.343 N 
ATOM     22  H   UNL A   1      31.237  21.969  26.641  1.00  0.00     0.345 HD
ATOM     23  H   UNL A   1      31.837  20.786  25.634  1.00  0.00     0.345 HD
ATOM     24  H   UNL A   1      31.129  22.149  24.989  1.00  0.00     0.345 HD
ENDBRANCH   7  21
ENDBRANCH   4   7
ENDBRANCH   2   3
ENDBRANCH   1   2
BRANCH   1  25
ATOM     25  C   UNL A   1      37.793  20.281  24.648  1.00  0.00     0.023 C 
BRANCH  25  26
ATOM     26  C   UNL A   1      38.829  20.460  25.751  1.00  0.00     0.116 C 
BRANCH  26  27
ATOM     27  N   UNL A   1      39.871  19.443  25.746  1.00  0.00    -0.352 N 
ATOM     28  C   UNL A   1      41.204  19.540  26.084  1.00  0.00     0.251 C 
ATOM     29  H   UNL A   1      39.579  18.549  25.457  1.00  0.00     0.163 HD
ATOM     30  O   UNL A   1      41.955  18.591  25.916  1.00  0.00    -0.269 OA
BRANCH  28  31
ATOM     31  C   UNL A   1      41.731  20.817  26.613  1.00  0.00     0.039 A 
ATOM     32  C   UNL A   1      42.234  21.764  25.717  1.00  0.00     0.014 A 
ATOM     33  C   UNL A   1      41.689  21.095  27.979  1.00  0.00     0.014 A 
ATOM     34  C   UNL A   1      42.604  23.027  26.184  1.00  0.00     0.010 A 
ATOM     35  C   UNL A   1      41.967  22.381  28.428  1.00  0.00     0.010 A 
ATOM     36  C   UNL A   1      42.424  23.363  27.536  1.00  0.00    -0.014 A 
BRANCH  36  37
ATOM     37  C   UNL A   1      42.699  24.733  28.041  1.00  0.00     0.031 A 
ATOM     38  C   UNL A   1      44.096  25.125  28.432  1.00  0.00     0.074 A 
ATOM     39  C   UNL A   1      41.682  25.597  28.222  1.00  0.00     0.049 A 
ATOM     40  N   UNL A   1      44.525  26.242  28.964  1.00  0.00    -0.248 NA
ATOM     41  C   UNL A   1      45.146  24.115  28.230  1.00  0.00     0.031 C 
ATOM     42  C   UNL A   1      40.273  25.325  27.927  1.00  0.00     0.029 A 
ATOM     43  N   UNL A   1      41.676  26.882  28.706  1.00  0.00    -0.354 N 
ATOM     44  C   UNL A   1      45.885  26.061  29.176  1.00  0.00     0.074 A 
ATOM     45  C   UNL A   1      46.198  24.706  28.775  1.00  0.00     0.031 C 
ATOM     46  C   UNL A   1      39.547  26.421  28.198  1.00  0.00     0.029 A 
ATOM     47  C   UNL A   1      40.429  27.458  28.725  1.00  0.00     0.049 A 
ATOM     48  H   UNL A   1      42.489  27.346  29.010  1.00  0.00     0.167 HD
ATOM     49  C   UNL A   1      46.798  26.949  29.638  1.00  0.00     0.037 A 
ATOM     50  C   UNL A   1      40.042  28.684  29.123  1.00  0.00     0.037 A 
ATOM     51  C   UNL A   1      46.491  28.303  30.013  1.00  0.00     0.049 A 
ATOM     52  C   UNL A   1      41.068  29.646  29.651  1.00  0.00     0.074 A 
ATOM     53  C   UNL A   1      47.354  29.301  30.429  1.00  0.00     0.029 A 
ATOM     54  N   UNL A   1      45.215  28.848  30.022  1.00  0.00    -0.354 N 
ATOM     55  N   UNL A   1      42.362  29.486  29.781  1.00  0.00    -0.248 NA
ATOM     56  C   UNL A   1      40.578  30.960  30.089  1.00  0.00     0.031 C 
ATOM     57  C   UNL A   1      46.595  30.437  30.732  1.00  0.00     0.029 A 
ATOM     58  C   UNL A   1      45.264  30.162  30.460  1.00  0.00     0.049 A 
ATOM     59  H   UNL A   1      44.395  28.372  29.755  1.00  0.00     0.167 HD
ATOM     60  C   UNL A   1      42.847  30.687  30.283  1.00  0.00     0.074 A 
ATOM     61  C   UNL A   1      41.707  31.569  30.428  1.00  0.00     0.031 C 
ATOM     62  C   UNL A   1      44.121  31.029  30.593  1.00  0.00     0.037 A 
BRANCH  49  63
ATOM     63  C   UNL A   1      48.216  26.468  29.760  1.00  0.00     0.057 A 
ATOM     64  C   UNL A   1      48.687  25.835  30.919  1.00  0.00     0.134 A 
ATOM     65  C   UNL A   1      49.125  26.645  28.708  1.00  0.00     0.134 A 
ATOM     66  F   UNL A   1      47.872  25.647  31.968  1.00  0.00    -0.206 F 
ATOM     67  C   UNL A   1      50.017  25.434  31.044  1.00  0.00     0.040 A 
ATOM     68  C   UNL A   1      50.450  26.220  28.810  1.00  0.00     0.040 A 
ATOM     69  F   UNL A   1      48.740  27.237  27.567  1.00  0.00    -0.206 F 
ATOM     70  C   UNL A   1      50.903  25.623  29.986  1.00  0.00     0.006 A 
ENDBRANCH  49  63
BRANCH  50  71
ATOM     71  C   UNL A   1      38.620  29.093  28.992  1.00  0.00     0.057 A 
ATOM     72  C   UNL A   1      37.749  29.003  30.083  1.00  0.00     0.134 A 
ATOM     73  C   UNL A   1      38.099  29.581  27.787  1.00  0.00     0.134 A 
ATOM     74  F   UNL A   1      38.186  28.524  31.258  1.00  0.00    -0.206 F 
ATOM     75  C   UNL A   1      36.407  29.371  29.981  1.00  0.00     0.040 A 
ATOM     76  C   UNL A   1      36.764  29.973  27.677  1.00  0.00     0.040 A 
ATOM     77  F   UNL A   1      38.884  29.696  26.707  1.00  0.00    -0.206 F 
ATOM     78  C   UNL A   1      35.912  29.863  28.776  1.00  0.00     0.006 A 
ENDBRANCH  50  71
BRANCH  62  79
ATOM     79  C   UNL A   1      44.355  32.428  31.082  1.00  0.00     0.057 A 
ATOM     80  C   UNL A   1      44.359  32.745  32.446  1.00  0.00     0.134 A 
ATOM     81  C   UNL A   1      44.615  33.464  30.176  1.00  0.00     0.134 A 
ATOM     82  F   UNL A   1      44.102  31.801  33.364  1.00  0.00    -0.206 F 
ATOM     83  C   UNL A   1      44.592  34.047  32.891  1.00  0.00     0.040 A 
ATOM     84  C   UNL A   1      44.875  34.765  30.610  1.00  0.00     0.040 A 
ATOM     85  F   UNL A   1      44.633  33.227  28.856  1.00  0.00    -0.206 F 
ATOM     86  C   UNL A   1      44.857  35.060  31.972  1.00  0.00     0.006 A 
ENDBRANCH  62  79
ENDBRANCH  36  37
ENDBRANCH  28  31
ENDBRANCH  26  27
ENDBRANCH  25  26
ENDBRANCH   1  25
TORSDOF 16
ENDMDL
MODEL 2
REMARK VINA RESULT:     -10.9      1.005      2.274
REMARK SMILES COc1cc(C(C)C)cc([C@H]([NH3+])C(=O)NCCCCNC(=O)c2ccc(-c3c4nc(c(-c5c(F)cccc5F)c5ccc([nH]5)c(-c5c(F)cccc5F)c5nc(c(-c6c(F)cccc6F)c6ccc3[nH]6)C=C5)C=C4)cc2)c1O
REMARK SMILES IDX 17 1 16 2 15 3 13 4 14 5 11 7 10 8 3 9 4 10 77 11 5 12 9 13
REMARK SMILES IDX 2 14 1 15 78 16 6 18 7 19 8 20 12 21 18 25 19 26 20 27 21 28
REMARK SMILES IDX 22 30 23 31 24 32 76 33 25 34 75 35 26 36 27 37 28 38 69 39
REMARK SMILES IDX 29 40 74 41 68 42 70 43 30 44 73 45 67 46 66 47 31 49 57 50
REMARK SMILES IDX 40 51 56 52 41 53 44 54 55 55 71 56 42 57 43 58 54 60 72 61
REMARK SMILES IDX 45 62 32 63 33 64 38 65 34 66 35 67 37 68 39 69 36 70 58 71
REMARK SMILES IDX 59 72 64 73 60 74 61 75 63 76 65 77 62 78 46 79 47 80 52 81
REMARK SMILES IDX 48 82 49 83 51 84 53 85 50 86
REMARK H PARENT 15 6 78 17 12 22 12 23 12 24 20 29 70 48 44 59
REMARK Flexibility Score: inf
ROOT
ATOM      1  C   UNL A   1      36.073  20.722  25.334  1.00  0.00     0.023 C 
ENDROOT
BRANCH   1   2
ATOM      2  C   UNL A   1      35.938  22.152  25.840  1.00  0.00     0.116 C 
BRANCH   2   3
ATOM      3  N   UNL A   1      35.103  22.292  27.013  1.00  0.00    -0.351 N 
ATOM      4  C   UNL A   1      33.735  22.363  27.094  1.00  0.00     0.283 C 
ATOM      5  O   UNL A   1      33.248  22.362  28.231  1.00  0.00    -0.268 OA
ATOM      6  H   UNL A   1      35.583  22.343  27.871  1.00  0.00     0.163 HD
BRANCH   4   7
ATOM      7  C   UNL A   1      32.824  22.448  25.829  1.00  0.00     0.306 C 
BRANCH   7   8
ATOM      8  C   UNL A   1      32.868  23.832  25.199  1.00  0.00     0.065 A 
ATOM      9  C   UNL A   1      33.450  25.263  23.311  1.00  0.00     0.161 A 
ATOM     10  C   UNL A   1      33.416  26.389  24.138  1.00  0.00     0.054 A 
ATOM     11  C   UNL A   1      33.250  23.992  23.862  1.00  0.00     0.167 A 
ATOM     12  C   UNL A   1      33.089  26.259  25.492  1.00  0.00    -0.041 A 
ATOM     13  C   UNL A   1      32.708  24.996  25.968  1.00  0.00     0.018 A 
BRANCH   9  14
ATOM     14  O   UNL A   1      33.815  25.472  22.007  1.00  0.00    -0.493 OA
ATOM     15  C   UNL A   1      32.710  25.633  21.114  1.00  0.00     0.278 C 
ENDBRANCH   9  14
BRANCH  11  16
ATOM     16  O   UNL A   1      33.497  22.871  23.118  1.00  0.00    -0.504 OA
ATOM     17  H   UNL A   1      34.365  22.689  22.817  1.00  0.00     0.293 HD
ENDBRANCH  11  16
BRANCH  12  18
ATOM     18  C   UNL A   1      33.249  27.394  26.493  1.00  0.00     0.013 C 
ATOM     19  C   UNL A   1      33.908  28.622  25.851  1.00  0.00     0.012 C 
ATOM     20  C   UNL A   1      31.941  27.761  27.181  1.00  0.00     0.012 C 
ENDBRANCH  12  18
ENDBRANCH   7   8
BRANCH   7  21
ATOM     21  N   UNL A   1      31.456  21.955  26.124  1.00  0.00    -0.343 N 
ATOM     22  H   UNL A   1      30.952  21.807  25.249  1.00  0.00     0.345 HD
ATOM     23  H   UNL A   1      30.960  22.643  26.689  1.00  0.00     0.345 HD
ATOM     24  H   UNL A   1      31.515  21.074  26.635  1.00  0.00     0.345 HD
ENDBRANCH   7  21
ENDBRANCH   4   7
ENDBRANCH   2   3
ENDBRANCH   1   2
BRANCH   1  25
ATOM     25  C   UNL A   1      37.434  20.351  24.764  1.00  0.00     0.023 C 
BRANCH  25  26
ATOM     26  C   UNL A   1      38.627  20.657  25.662  1.00  0.00     0.116 C 
BRANCH  26  27
ATOM     27  N   UNL A   1      39.646  19.617  25.656  1.00  0.00    -0.352 N 
ATOM     28  C   UNL A   1      40.974  19.677  26.019  1.00  0.00     0.251 C 
ATOM     29  H   UNL A   1      39.339  18.734  25.347  1.00  0.00     0.163 HD
ATOM     30  O   UNL A   1      41.706  18.714  25.847  1.00  0.00    -0.269 OA
BRANCH  28  31
ATOM     31  C   UNL A   1      41.521  20.932  26.579  1.00  0.00     0.039 A 
ATOM     32  C   UNL A   1      42.039  21.893  25.708  1.00  0.00     0.014 A 
ATOM     33  C   UNL A   1      41.483  21.177  27.952  1.00  0.00     0.014 A 
ATOM     34  C   UNL A   1      42.427  23.139  26.206  1.00  0.00     0.010 A 
ATOM     35  C   UNL A   1      41.780  22.446  28.434  1.00  0.00     0.010 A 
ATOM     36  C   UNL A   1      42.253  23.443  27.566  1.00  0.00    -0.014 A 
BRANCH  36  37
ATOM     37  C   UNL A   1      42.549  24.796  28.105  1.00  0.00     0.031 A 
ATOM     38  C   UNL A   1      43.947  25.149  28.527  1.00  0.00     0.074 A 
ATOM     39  C   UNL A   1      41.547  25.677  28.288  1.00  0.00     0.049 A 
ATOM     40  N   UNL A   1      44.391  26.245  29.090  1.00  0.00    -0.248 NA
ATOM     41  C   UNL A   1      44.978  24.121  28.320  1.00  0.00     0.031 C 
ATOM     42  C   UNL A   1      40.138  25.443  27.965  1.00  0.00     0.029 A 
ATOM     43  N   UNL A   1      41.561  26.952  28.800  1.00  0.00    -0.354 N 
ATOM     44  C   UNL A   1      45.743  26.029  29.320  1.00  0.00     0.074 A 
ATOM     45  C   UNL A   1      46.034  24.677  28.894  1.00  0.00     0.031 C 
ATOM     46  C   UNL A   1      39.431  26.549  28.249  1.00  0.00     0.029 A 
ATOM     47  C   UNL A   1      40.326  27.554  28.812  1.00  0.00     0.049 A 
ATOM     48  H   UNL A   1      42.378  27.391  29.127  1.00  0.00     0.167 HD
ATOM     49  C   UNL A   1      46.667  26.887  29.815  1.00  0.00     0.037 A 
ATOM     50  C   UNL A   1      39.959  28.780  29.230  1.00  0.00     0.037 A 
ATOM     51  C   UNL A   1      46.383  28.239  30.215  1.00  0.00     0.049 A 
ATOM     52  C   UNL A   1      40.997  29.708  29.795  1.00  0.00     0.074 A 
ATOM     53  C   UNL A   1      47.260  29.209  30.666  1.00  0.00     0.029 A 
ATOM     54  N   UNL A   1      45.119  28.811  30.215  1.00  0.00    -0.354 N 
ATOM     55  N   UNL A   1      42.285  29.516  29.942  1.00  0.00    -0.248 NA
ATOM     56  C   UNL A   1      40.528  31.022  30.254  1.00  0.00     0.031 C 
ATOM     57  C   UNL A   1      46.521  30.355  30.981  1.00  0.00     0.029 A 
ATOM     58  C   UNL A   1      45.189  30.114  30.682  1.00  0.00     0.049 A 
ATOM     59  H   UNL A   1      44.293  28.359  29.924  1.00  0.00     0.167 HD
ATOM     60  C   UNL A   1      42.787  30.695  30.478  1.00  0.00     0.074 A 
ATOM     61  C   UNL A   1      41.664  31.599  30.624  1.00  0.00     0.031 C 
ATOM     62  C   UNL A   1      44.063  31.004  30.815  1.00  0.00     0.037 A 
BRANCH  49  63
ATOM     63  C   UNL A   1      48.072  26.374  29.949  1.00  0.00     0.057 A 
ATOM     64  C   UNL A   1      48.997  26.462  28.898  1.00  0.00     0.134 A 
ATOM     65  C   UNL A   1      48.507  25.779  31.140  1.00  0.00     0.134 A 
ATOM     66  F   UNL A   1      48.641  27.007  27.725  1.00  0.00    -0.206 F 
ATOM     67  C   UNL A   1      50.286  25.940  29.013  1.00  0.00     0.040 A 
ATOM     68  C   UNL A   1      49.804  25.281  31.277  1.00  0.00     0.040 A 
ATOM     69  F   UNL A   1      47.678  25.668  32.189  1.00  0.00    -0.206 F 
ATOM     70  C   UNL A   1      50.694  25.350  30.207  1.00  0.00     0.006 A 
ENDBRANCH  49  63
BRANCH  50  71
ATOM     71  C   UNL A   1      38.549  29.222  29.085  1.00  0.00     0.057 A 
ATOM     72  C   UNL A   1      38.069  29.685  27.855  1.00  0.00     0.134 A 
ATOM     73  C   UNL A   1      37.652  29.193  30.159  1.00  0.00     0.134 A 
ATOM     74  F   UNL A   1      38.888  29.753  26.794  1.00  0.00    -0.206 F 
ATOM     75  C   UNL A   1      36.752  30.116  27.698  1.00  0.00     0.040 A 
ATOM     76  C   UNL A   1      36.324  29.601  30.011  1.00  0.00     0.040 A 
ATOM     77  F   UNL A   1      38.049  28.755  31.363  1.00  0.00    -0.206 F 
ATOM     78  C   UNL A   1      35.873  30.069  28.778  1.00  0.00     0.006 A 
ENDBRANCH  50  71
BRANCH  62  79
ATOM     79  C   UNL A   1      44.319  32.386  31.339  1.00  0.00     0.057 A 
ATOM     80  C   UNL A   1      44.592  33.463  30.487  1.00  0.00     0.134 A 
ATOM     81  C   UNL A   1      44.256  32.648  32.714  1.00  0.00     0.134 A 
ATOM     82  F   UNL A   1      44.681  33.275  29.161  1.00  0.00    -0.206 F 
ATOM     83  C   UNL A   1      44.814  34.748  30.984  1.00  0.00     0.040 A 
ATOM     84  C   UNL A   1      44.450  33.933  33.221  1.00  0.00     0.040 A 
ATOM     85  F   UNL A   1      43.991  31.663  33.584  1.00  0.00    -0.206 F 
ATOM     86  C   UNL A   1      44.737  34.987  32.355  1.00  0.00     0.006 A 
ENDBRANCH  62  79
ENDBRANCH  36  37
ENDBRANCH  28  31
ENDBRANCH  26  27
ENDBRANCH  25  26
ENDBRANCH   1  25
TORSDOF 16
ENDMDL
MODEL 3
REMARK VINA RESULT:     -10.9      1.034      6.550
REMARK SMILES COc1cc(C(C)C)cc([C@H]([NH3+])C(=O)NCCCCNC(=O)c2ccc(-c3c4nc(c(-c5c(F)cccc5F)c5ccc([nH]5)c(-c5c(F)cccc5F)c5nc(c(-c6c(F)cccc6F)c6ccc3[nH]6)C=C5)C=C4)cc2)c1O
REMARK SMILES IDX 17 1 16 2 15 3 13 4 14 5 11 7 10 8 3 9 4 10 77 11 5 12 9 13
REMARK SMILES IDX 2 14 1 15 78 16 6 18 7 19 8 20 12 21 18 25 19 26 20 27 21 28
REMARK SMILES IDX 22 30 23 31 24 32 76 33 25 34 75 35 26 36 27 37 28 38 69 39
REMARK SMILES IDX 29 40 74 41 68 42 70 43 30 44 73 45 67 46 66 47 31 49 57 50
REMARK SMILES IDX 40 51 56 52 41 53 44 54 55 55 71 56 42 57 43 58 54 60 72 61
REMARK SMILES IDX 45 62 32 63 33 64 38 65 34 66 35 67 37 68 39 69 36 70 58 71
REMARK SMILES IDX 59 72 64 73 60 74 61 75 63 76 65 77 62 78 46 79 47 80 52 81
REMARK SMILES IDX 48 82 49 83 51 84 53 85 50 86
REMARK H PARENT 15 6 78 17 12 22 12 23 12 24 20 29 70 48 44 59
REMARK Flexibility Score: inf
ROOT
ATOM      1  C   UNL A   1      35.912  21.076  25.441  1.00  0.00     0.023 C 
ENDROOT
BRANCH   1   2
ATOM      2  C   UNL A   1      35.758  22.447  26.084  1.00  0.00     0.116 C 
BRANCH   2   3
ATOM      3  N   UNL A   1      34.856  22.476  27.214  1.00  0.00    -0.351 N 
ATOM      4  C   UNL A   1      33.484  22.452  27.223  1.00  0.00     0.283 C 
ATOM      5  O   UNL A   1      32.940  22.365  28.331  1.00  0.00    -0.268 OA
ATOM      6  H   UNL A   1      35.286  22.517  28.099  1.00  0.00     0.163 HD
BRANCH   4   7
ATOM      7  C   UNL A   1      32.635  22.537  25.915  1.00  0.00     0.306 C 
BRANCH   7   8
ATOM      8  C   UNL A   1      32.730  23.913  25.274  1.00  0.00     0.065 A 
ATOM      9  C   UNL A   1      33.397  25.312  23.391  1.00  0.00     0.161 A 
ATOM     10  C   UNL A   1      33.367  26.446  24.206  1.00  0.00     0.054 A 
ATOM     11  C   UNL A   1      33.153  24.051  23.948  1.00  0.00     0.167 A 
ATOM     12  C   UNL A   1      33.000  26.337  25.552  1.00  0.00    -0.041 A 
ATOM     13  C   UNL A   1      32.576  25.088  26.029  1.00  0.00     0.018 A 
BRANCH   9  14
ATOM     14  O   UNL A   1      33.803  25.500  22.095  1.00  0.00    -0.493 OA
ATOM     15  C   UNL A   1      32.733  25.763  21.185  1.00  0.00     0.278 C 
ENDBRANCH   9  14
BRANCH  11  16
ATOM     16  O   UNL A   1      33.393  22.917  23.220  1.00  0.00    -0.504 OA
ATOM     17  H   UNL A   1      34.176  22.844  22.712  1.00  0.00     0.293 HD
ENDBRANCH  11  16
BRANCH  12  18
ATOM     18  C   UNL A   1      33.159  27.477  26.546  1.00  0.00     0.013 C 
ATOM     19  C   UNL A   1      33.917  28.660  25.930  1.00  0.00     0.012 C 
ATOM     20  C   UNL A   1      31.834  27.920  27.152  1.00  0.00     0.012 C 
ENDBRANCH  12  18
ENDBRANCH   7   8
BRANCH   7  21
ATOM     21  N   UNL A   1      31.248  22.066  26.149  1.00  0.00    -0.343 N 
ATOM     22  H   UNL A   1      31.250  21.346  26.872  1.00  0.00     0.345 HD
ATOM     23  H   UNL A   1      30.869  21.680  25.285  1.00  0.00     0.345 HD
ATOM     24  H   UNL A   1      30.669  22.850  26.454  1.00  0.00     0.345 HD
ENDBRANCH   7  21
ENDBRANCH   4   7
ENDBRANCH   2   3
ENDBRANCH   1   2
BRANCH   1  25
ATOM     25  C   UNL A   1      37.255  20.808  24.776  1.00  0.00     0.023 C 
BRANCH  25  26
ATOM     26  C   UNL A   1      38.477  21.006  25.664  1.00  0.00     0.116 C 
BRANCH  26  27
ATOM     27  N   UNL A   1      39.416  19.894  25.624  1.00  0.00    -0.352 N 
ATOM     28  C   UNL A   1      40.746  19.845  25.981  1.00  0.00     0.251 C 
ATOM     29  H   UNL A   1      39.044  19.045  25.291  1.00  0.00     0.163 HD
ATOM     30  O   UNL A   1      41.405  18.836  25.780  1.00  0.00    -0.269 OA
BRANCH  28  31
ATOM     31  C   UNL A   1      41.386  21.040  26.574  1.00  0.00     0.039 A 
ATOM     32  C   UNL A   1      41.947  21.997  25.726  1.00  0.00     0.014 A 
ATOM     33  C   UNL A   1      41.394  21.235  27.956  1.00  0.00     0.014 A 
ATOM     34  C   UNL A   1      42.428  23.196  26.260  1.00  0.00     0.010 A 
ATOM     35  C   UNL A   1      41.784  22.463  28.476  1.00  0.00     0.010 A 
ATOM     36  C   UNL A   1      42.303  23.459  27.634  1.00  0.00    -0.014 A 
BRANCH  36  37
ATOM     37  C   UNL A   1      42.699  24.768  28.214  1.00  0.00     0.031 A 
ATOM     38  C   UNL A   1      41.666  25.837  28.437  1.00  0.00     0.074 A 
ATOM     39  C   UNL A   1      43.997  25.023  28.467  1.00  0.00     0.049 A 
ATOM     40  N   UNL A   1      41.824  27.066  28.860  1.00  0.00    -0.248 NA
ATOM     41  C   UNL A   1      40.275  25.489  28.110  1.00  0.00     0.031 C 
ATOM     42  C   UNL A   1      45.105  24.089  28.250  1.00  0.00     0.029 A 
ATOM     43  N   UNL A   1      44.607  26.152  28.957  1.00  0.00    -0.354 N 
ATOM     44  C   UNL A   1      40.560  27.640  28.830  1.00  0.00     0.074 A 
ATOM     45  C   UNL A   1      39.658  26.646  28.289  1.00  0.00     0.031 C 
ATOM     46  C   UNL A   1      46.251  24.668  28.642  1.00  0.00     0.029 A 
ATOM     47  C   UNL A   1      45.968  26.026  29.097  1.00  0.00     0.049 A 
ATOM     48  H   UNL A   1      44.116  26.973  29.186  1.00  0.00     0.167 HD
ATOM     49  C   UNL A   1      40.177  28.873  29.240  1.00  0.00     0.037 A 
ATOM     50  C   UNL A   1      46.883  26.906  29.543  1.00  0.00     0.037 A 
ATOM     51  C   UNL A   1      41.071  29.852  29.801  1.00  0.00     0.049 A 
ATOM     52  C   UNL A   1      46.440  28.276  29.973  1.00  0.00     0.074 A 
ATOM     53  C   UNL A   1      40.772  31.103  30.308  1.00  0.00     0.029 A 
ATOM     54  N   UNL A   1      42.443  29.687  29.923  1.00  0.00    -0.354 N 
ATOM     55  N   UNL A   1      45.231  28.782  30.006  1.00  0.00    -0.248 NA
ATOM     56  C   UNL A   1      47.489  29.197  30.429  1.00  0.00     0.031 C 
ATOM     57  C   UNL A   1      41.969  31.715  30.697  1.00  0.00     0.029 A 
ATOM     58  C   UNL A   1      43.009  30.825  30.475  1.00  0.00     0.049 A 
ATOM     59  H   UNL A   1      42.941  28.880  29.658  1.00  0.00     0.167 HD
ATOM     60  C   UNL A   1      45.369  30.066  30.515  1.00  0.00     0.074 A 
ATOM     61  C   UNL A   1      46.780  30.260  30.784  1.00  0.00     0.031 C 
ATOM     62  C   UNL A   1      44.414  31.000  30.743  1.00  0.00     0.037 A 
BRANCH  49  63
ATOM     63  C   UNL A   1      38.724  29.222  29.091  1.00  0.00     0.057 A 
ATOM     64  C   UNL A   1      37.834  29.168  30.173  1.00  0.00     0.134 A 
ATOM     65  C   UNL A   1      38.205  29.612  27.849  1.00  0.00     0.134 A 
ATOM     66  F   UNL A   1      38.263  28.789  31.386  1.00  0.00    -0.206 F 
ATOM     67  C   UNL A   1      36.476  29.448  30.017  1.00  0.00     0.040 A 
ATOM     68  C   UNL A   1      36.855  29.924  27.688  1.00  0.00     0.040 A 
ATOM     69  F   UNL A   1      39.002  29.692  26.773  1.00  0.00    -0.206 F 
ATOM     70  C   UNL A   1      35.983  29.830  28.772  1.00  0.00     0.006 A 
ENDBRANCH  49  63
BRANCH  50  71
ATOM     71  C   UNL A   1      48.309  26.505  29.651  1.00  0.00     0.057 A 
ATOM     72  C   UNL A   1      49.208  26.782  28.616  1.00  0.00     0.134 A 
ATOM     73  C   UNL A   1      48.806  25.842  30.780  1.00  0.00     0.134 A 
ATOM     74  F   UNL A   1      48.785  27.398  27.502  1.00  0.00    -0.206 F 
ATOM     75  C   UNL A   1      50.549  26.405  28.691  1.00  0.00     0.040 A 
ATOM     76  C   UNL A   1      50.151  25.478  30.878  1.00  0.00     0.040 A 
ATOM     77  F   UNL A   1      47.995  25.553  31.808  1.00  0.00    -0.206 F 
ATOM     78  C   UNL A   1      51.026  25.756  29.828  1.00  0.00     0.006 A 
ENDBRANCH  50  71
BRANCH  62  79
ATOM     79  C   UNL A   1      44.857  32.300  31.346  1.00  0.00     0.057 A 
ATOM     80  C   UNL A   1      45.211  33.401  30.557  1.00  0.00     0.134 A 
ATOM     81  C   UNL A   1      44.894  32.462  32.738  1.00  0.00     0.134 A 
ATOM     82  F   UNL A   1      45.211  33.307  29.219  1.00  0.00    -0.206 F 
ATOM     83  C   UNL A   1      45.608  34.611  31.129  1.00  0.00     0.040 A 
ATOM     84  C   UNL A   1      45.264  33.674  33.321  1.00  0.00     0.040 A 
ATOM     85  F   UNL A   1      44.560  31.450  33.551  1.00  0.00    -0.206 F 
ATOM     86  C   UNL A   1      45.629  34.752  32.516  1.00  0.00     0.006 A 
ENDBRANCH  62  79
ENDBRANCH  36  37
ENDBRANCH  28  31
ENDBRANCH  26  27
ENDBRANCH  25  26
ENDBRANCH   1  25
TORSDOF 16
ENDMDL
