MODEL 1
REMARK VINA RESULT:     -11.7      0.000      0.000
REMARK SMILES Cc1cc(Cl)cc2c1O[C@H](C(F)(F)F)C(C(=O)NCCCCNC(=O)c1ccc(-c3c4nc(c(-c5c(F)cccc5F)c5ccc([nH]5)c(-c5c(F)cccc5F)c5nc(c(-c6c(F)cccc6F)c6ccc3[nH]6)C=C5)C=C4)cc1)=C2
REMARK SMILES IDX 21 1 20 2 19 3 18 4 16 5 17 6 15 8 1 9 2 10 3 11 8 12 4 13
REMARK SMILES IDX 7 14 9 15 5 16 6 17 80 18 10 19 11 20 12 21 13 22 14 23
REMARK SMILES IDX 22 24 23 25 24 26 25 28 26 29 27 30 79 31 28 32 78 33 29 34
REMARK SMILES IDX 30 35 31 36 72 37 32 38 77 39 71 40 73 41 33 42 76 43 70 44
REMARK SMILES IDX 69 45 34 47 60 48 43 49 59 50 44 51 47 52 58 53 74 54 45 55
REMARK SMILES IDX 46 56 57 58 75 59 48 60 35 61 36 62 41 63 37 64 38 65 40 66
REMARK SMILES IDX 42 67 39 68 61 69 62 70 67 71 63 72 64 73 66 74 68 75 65 76
REMARK SMILES IDX 49 77 50 78 55 79 51 80 52 81 54 82 56 83 53 84
REMARK H PARENT 18 7 23 27 73 46 47 57
REMARK Flexibility Score: inf
ROOT
ATOM      1  C   UNL A   1      39.175  21.420  25.771  1.00  0.00     0.023 C 
ENDROOT
BRANCH   1   2
ATOM      2  C   UNL A   1      39.196  22.768  26.495  1.00  0.00     0.023 C 
BRANCH   2   3
ATOM      3  C   UNL A   1      38.103  23.733  26.045  1.00  0.00     0.116 C 
BRANCH   3   4
ATOM      4  N   UNL A   1      37.623  23.424  24.711  1.00  0.00    -0.352 N 
ATOM      5  C   UNL A   1      36.425  23.355  24.085  1.00  0.00     0.251 C 
ATOM      6  O   UNL A   1      36.475  23.034  22.893  1.00  0.00    -0.270 OA
ATOM      7  H   UNL A   1      38.364  23.207  24.100  1.00  0.00     0.163 HD
BRANCH   5   8
ATOM      8  C   UNL A   1      35.101  23.632  24.718  1.00  0.00     0.067 C 
ATOM      9  C   UNL A   1      30.274  23.541  26.520  1.00  0.00     0.048 C 
ATOM     10  C   UNL A   1      31.299  24.605  26.251  1.00  0.00    -0.007 A 
ATOM     11  C   UNL A   1      31.035  25.935  26.608  1.00  0.00     0.027 A 
ATOM     12  C   UNL A   1      32.554  24.291  25.707  1.00  0.00     0.131 A 
ATOM     13  C   UNL A   1      31.992  26.925  26.389  1.00  0.00     0.042 A 
ATOM     14  C   UNL A   1      33.510  25.286  25.477  1.00  0.00     0.019 A 
ATOM     15  O   UNL A   1      32.780  22.987  25.367  1.00  0.00    -0.475 OA
ATOM     16  Cl  UNL A   1      31.643  28.555  26.819  1.00  0.00    -0.084 Cl
ATOM     17  C   UNL A   1      33.224  26.610  25.820  1.00  0.00     0.032 A 
ATOM     18  C   UNL A   1      34.777  24.931  24.848  1.00  0.00     0.025 C 
ATOM     19  C   UNL A   1      34.167  22.575  25.235  1.00  0.00     0.314 C 
BRANCH  19  20
ATOM     20  C   UNL A   1      34.642  21.961  26.565  1.00  0.00     0.429 C 
ATOM     21  F   UNL A   1      34.896  22.936  27.474  1.00  0.00    -0.167 F 
ATOM     22  F   UNL A   1      33.710  21.153  27.125  1.00  0.00    -0.167 F 
ATOM     23  F   UNL A   1      35.769  21.227  26.430  1.00  0.00    -0.167 F 
ENDBRANCH  19  20
ENDBRANCH   5   8
ENDBRANCH   3   4
ENDBRANCH   2   3
ENDBRANCH   1   2
BRANCH   1  24
ATOM     24  C   UNL A   1      39.666  20.229  26.593  1.00  0.00     0.116 C 
BRANCH  24  25
ATOM     25  N   UNL A   1      40.726  19.464  25.951  1.00  0.00    -0.352 N 
ATOM     26  C   UNL A   1      42.050  19.805  25.814  1.00  0.00     0.251 C 
ATOM     27  H   UNL A   1      40.461  18.597  25.567  1.00  0.00     0.163 HD
ATOM     28  O   UNL A   1      42.824  19.093  25.186  1.00  0.00    -0.269 OA
BRANCH  26  29
ATOM     29  C   UNL A   1      42.512  21.075  26.403  1.00  0.00     0.039 A 
ATOM     30  C   UNL A   1      42.862  22.121  25.547  1.00  0.00     0.014 A 
ATOM     31  C   UNL A   1      42.511  21.249  27.788  1.00  0.00     0.014 A 
ATOM     32  C   UNL A   1      43.141  23.377  26.084  1.00  0.00     0.010 A 
ATOM     33  C   UNL A   1      42.730  22.516  28.318  1.00  0.00     0.010 A 
ATOM     34  C   UNL A   1      43.038  23.591  27.469  1.00  0.00    -0.014 A 
BRANCH  34  35
ATOM     35  C   UNL A   1      43.245  24.937  28.049  1.00  0.00     0.031 A 
ATOM     36  C   UNL A   1      44.622  25.374  28.451  1.00  0.00     0.074 A 
ATOM     37  C   UNL A   1      42.185  25.741  28.259  1.00  0.00     0.049 A 
ATOM     38  N   UNL A   1      45.000  26.490  29.019  1.00  0.00    -0.248 NA
ATOM     39  C   UNL A   1      45.716  24.422  28.203  1.00  0.00     0.031 C 
ATOM     40  C   UNL A   1      40.794  25.409  27.947  1.00  0.00     0.029 A 
ATOM     41  N   UNL A   1      42.115  27.005  28.788  1.00  0.00    -0.354 N 
ATOM     42  C   UNL A   1      46.371  26.371  29.202  1.00  0.00     0.074 A 
ATOM     43  C   UNL A   1      46.750  25.056  28.735  1.00  0.00     0.031 C 
ATOM     44  C   UNL A   1      40.013  26.456  28.257  1.00  0.00     0.029 A 
ATOM     45  C   UNL A   1      40.842  27.519  28.817  1.00  0.00     0.049 A 
ATOM     46  H   UNL A   1      42.903  27.496  29.115  1.00  0.00     0.167 HD
ATOM     47  C   UNL A   1      47.238  27.287  29.690  1.00  0.00     0.037 A 
ATOM     48  C   UNL A   1      40.397  28.716  29.242  1.00  0.00     0.037 A 
ATOM     49  C   UNL A   1      46.862  28.604  30.129  1.00  0.00     0.049 A 
ATOM     50  C   UNL A   1      41.379  29.714  29.790  1.00  0.00     0.074 A 
ATOM     51  C   UNL A   1      47.674  29.621  30.598  1.00  0.00     0.029 A 
ATOM     52  N   UNL A   1      45.562  29.085  30.148  1.00  0.00    -0.354 N 
ATOM     53  N   UNL A   1      42.679  29.605  29.918  1.00  0.00    -0.248 NA
ATOM     54  C   UNL A   1      40.833  30.998  30.251  1.00  0.00     0.031 C 
ATOM     55  C   UNL A   1      46.862  30.711  30.926  1.00  0.00     0.029 A 
ATOM     56  C   UNL A   1      45.548  30.382  30.632  1.00  0.00     0.049 A 
ATOM     57  H   UNL A   1      44.768  28.581  29.859  1.00  0.00     0.167 HD
ATOM     58  C   UNL A   1      43.109  30.809  30.457  1.00  0.00     0.074 A 
ATOM     59  C   UNL A   1      41.933  31.639  30.621  1.00  0.00     0.031 C 
ATOM     60  C   UNL A   1      44.366  31.192  30.786  1.00  0.00     0.037 A 
BRANCH  47  61
ATOM     61  C   UNL A   1      48.683  26.896  29.753  1.00  0.00     0.057 A 
ATOM     62  C   UNL A   1      49.564  27.180  28.701  1.00  0.00     0.134 A 
ATOM     63  C   UNL A   1      49.205  26.252  30.881  1.00  0.00     0.134 A 
ATOM     64  F   UNL A   1      49.121  27.783  27.587  1.00  0.00    -0.206 F 
ATOM     65  C   UNL A   1      50.910  26.816  28.759  1.00  0.00     0.040 A 
ATOM     66  C   UNL A   1      50.554  25.902  30.959  1.00  0.00     0.040 A 
ATOM     67  F   UNL A   1      48.415  25.953  31.922  1.00  0.00    -0.206 F 
ATOM     68  C   UNL A   1      51.409  26.180  29.893  1.00  0.00     0.006 A 
ENDBRANCH  47  61
BRANCH  48  69
ATOM     69  C   UNL A   1      38.957  29.052  29.123  1.00  0.00     0.057 A 
ATOM     70  C   UNL A   1      38.111  28.967  30.234  1.00  0.00     0.134 A 
ATOM     71  C   UNL A   1      38.400  29.482  27.914  1.00  0.00     0.134 A 
ATOM     72  F   UNL A   1      38.588  28.546  31.415  1.00  0.00    -0.206 F 
ATOM     73  C   UNL A   1      36.756  29.290  30.146  1.00  0.00     0.040 A 
ATOM     74  C   UNL A   1      37.050  29.825  27.816  1.00  0.00     0.040 A 
ATOM     75  F   UNL A   1      39.163  29.590  26.817  1.00  0.00    -0.206 F 
ATOM     76  C   UNL A   1      36.224  29.727  28.934  1.00  0.00     0.006 A 
ENDBRANCH  48  69
BRANCH  60  77
ATOM     77  C   UNL A   1      44.542  32.571  31.344  1.00  0.00     0.057 A 
ATOM     78  C   UNL A   1      44.499  32.812  32.722  1.00  0.00     0.134 A 
ATOM     79  C   UNL A   1      44.830  33.651  30.502  1.00  0.00     0.134 A 
ATOM     80  F   UNL A   1      44.216  31.819  33.578  1.00  0.00    -0.206 F 
ATOM     81  C   UNL A   1      44.728  34.086  33.244  1.00  0.00     0.040 A 
ATOM     82  C   UNL A   1      45.081  34.925  31.012  1.00  0.00     0.040 A 
ATOM     83  F   UNL A   1      44.894  33.481  29.173  1.00  0.00    -0.206 F 
ATOM     84  C   UNL A   1      45.029  35.145  32.388  1.00  0.00     0.006 A 
ENDBRANCH  60  77
ENDBRANCH  34  35
ENDBRANCH  26  29
ENDBRANCH  24  25
ENDBRANCH   1  24
TORSDOF 12
ENDMDL
MODEL 2
REMARK VINA RESULT:     -11.7      4.781      9.374
REMARK SMILES Cc1cc(Cl)cc2c1O[C@H](C(F)(F)F)C(C(=O)NCCCCNC(=O)c1ccc(-c3c4nc(c(-c5c(F)cccc5F)c5ccc([nH]5)c(-c5c(F)cccc5F)c5nc(c(-c6c(F)cccc6F)c6ccc3[nH]6)C=C5)C=C4)cc1)=C2
REMARK SMILES IDX 21 1 20 2 19 3 18 4 16 5 17 6 15 8 1 9 2 10 3 11 8 12 4 13
REMARK SMILES IDX 7 14 9 15 5 16 6 17 80 18 10 19 11 20 12 21 13 22 14 23
REMARK SMILES IDX 22 24 23 25 24 26 25 28 26 29 27 30 79 31 28 32 78 33 29 34
REMARK SMILES IDX 30 35 31 36 72 37 32 38 77 39 71 40 73 41 33 42 76 43 70 44
REMARK SMILES IDX 69 45 34 47 60 48 43 49 59 50 44 51 47 52 58 53 74 54 45 55
REMARK SMILES IDX 46 56 57 58 75 59 48 60 35 61 36 62 41 63 37 64 38 65 40 66
REMARK SMILES IDX 42 67 39 68 61 69 62 70 67 71 63 72 64 73 66 74 68 75 65 76
REMARK SMILES IDX 49 77 50 78 55 79 51 80 52 81 54 82 56 83 53 84
REMARK H PARENT 18 7 23 27 73 46 47 57
REMARK Flexibility Score: inf
ROOT
ATOM      1  C   UNL A   1      31.620  31.933  26.719  1.00  0.00     0.023 C 
ENDROOT
BRANCH   1   2
ATOM      2  C   UNL A   1      31.778  30.417  26.858  1.00  0.00     0.023 C 
BRANCH   2   3
ATOM      3  C   UNL A   1      33.225  29.935  26.822  1.00  0.00     0.116 C 
BRANCH   3   4
ATOM      4  N   UNL A   1      33.653  29.606  25.475  1.00  0.00    -0.352 N 
ATOM      5  C   UNL A   1      33.616  28.523  24.664  1.00  0.00     0.251 C 
ATOM      6  O   UNL A   1      34.123  28.687  23.549  1.00  0.00    -0.270 OA
ATOM      7  H   UNL A   1      34.085  30.374  25.034  1.00  0.00     0.163 HD
BRANCH   5   8
ATOM      8  C   UNL A   1      33.025  27.198  25.017  1.00  0.00     0.067 C 
ATOM      9  C   UNL A   1      30.278  23.254  26.876  1.00  0.00     0.048 C 
ATOM     10  C   UNL A   1      31.615  23.412  26.209  1.00  0.00    -0.007 A 
ATOM     11  C   UNL A   1      32.369  22.276  25.882  1.00  0.00     0.027 A 
ATOM     12  C   UNL A   1      32.105  24.674  25.843  1.00  0.00     0.131 A 
ATOM     13  C   UNL A   1      33.599  22.411  25.237  1.00  0.00     0.042 A 
ATOM     14  C   UNL A   1      33.344  24.809  25.206  1.00  0.00     0.019 A 
ATOM     15  O   UNL A   1      31.349  25.761  26.179  1.00  0.00    -0.475 OA
ATOM     16  Cl  UNL A   1      34.517  21.005  24.856  1.00  0.00    -0.084 Cl
ATOM     17  C   UNL A   1      34.093  23.669  24.903  1.00  0.00     0.032 A 
ATOM     18  C   UNL A   1      33.851  26.143  24.900  1.00  0.00     0.025 C 
ATOM     19  C   UNL A   1      31.600  26.987  25.440  1.00  0.00     0.314 C 
BRANCH  19  20
ATOM     20  C   UNL A   1      30.610  27.082  24.264  1.00  0.00     0.429 C 
ATOM     21  F   UNL A   1      30.262  28.374  24.041  1.00  0.00    -0.167 F 
ATOM     22  F   UNL A   1      31.139  26.624  23.104  1.00  0.00    -0.167 F 
ATOM     23  F   UNL A   1      29.472  26.385  24.479  1.00  0.00    -0.167 F 
ENDBRANCH  19  20
ENDBRANCH   5   8
ENDBRANCH   3   4
ENDBRANCH   2   3
ENDBRANCH   1   2
BRANCH   1  24
ATOM     24  C   UNL A   1      32.766  32.764  27.292  1.00  0.00     0.116 C 
BRANCH  24  25
ATOM     25  N   UNL A   1      32.395  34.132  27.626  1.00  0.00    -0.352 N 
ATOM     26  C   UNL A   1      32.990  34.972  28.537  1.00  0.00     0.251 C 
ATOM     27  H   UNL A   1      31.623  34.501  27.139  1.00  0.00     0.163 HD
ATOM     28  O   UNL A   1      32.528  36.083  28.769  1.00  0.00    -0.269 OA
BRANCH  26  29
ATOM     29  C   UNL A   1      34.174  34.487  29.268  1.00  0.00     0.039 A 
ATOM     30  C   UNL A   1      33.988  33.842  30.493  1.00  0.00     0.014 A 
ATOM     31  C   UNL A   1      35.445  34.595  28.699  1.00  0.00     0.014 A 
ATOM     32  C   UNL A   1      35.076  33.233  31.116  1.00  0.00     0.010 A 
ATOM     33  C   UNL A   1      36.516  33.936  29.291  1.00  0.00     0.010 A 
ATOM     34  C   UNL A   1      36.338  33.243  30.498  1.00  0.00    -0.014 A 
BRANCH  34  35
ATOM     35  C   UNL A   1      37.485  32.528  31.102  1.00  0.00     0.031 A 
ATOM     36  C   UNL A   1      38.049  32.989  32.413  1.00  0.00     0.074 A 
ATOM     37  C   UNL A   1      38.050  31.499  30.442  1.00  0.00     0.049 A 
ATOM     38  N   UNL A   1      39.077  32.528  33.077  1.00  0.00    -0.248 NA
ATOM     39  C   UNL A   1      37.381  34.134  33.052  1.00  0.00     0.031 C 
ATOM     40  C   UNL A   1      37.616  30.986  29.141  1.00  0.00     0.029 A 
ATOM     41  N   UNL A   1      39.113  30.699  30.776  1.00  0.00    -0.354 N 
ATOM     42  C   UNL A   1      39.184  33.330  34.205  1.00  0.00     0.074 A 
ATOM     43  C   UNL A   1      38.151  34.339  34.110  1.00  0.00     0.031 C 
ATOM     44  C   UNL A   1      38.383  29.937  28.804  1.00  0.00     0.029 A 
ATOM     45  C   UNL A   1      39.380  29.722  29.849  1.00  0.00     0.049 A 
ATOM     46  H   UNL A   1      39.635  30.815  31.603  1.00  0.00     0.167 HD
ATOM     47  C   UNL A   1      40.047  33.217  35.240  1.00  0.00     0.037 A 
ATOM     48  C   UNL A   1      40.320  28.759  29.847  1.00  0.00     0.037 A 
ATOM     49  C   UNL A   1      41.056  32.198  35.344  1.00  0.00     0.049 A 
ATOM     50  C   UNL A   1      41.275  28.660  31.002  1.00  0.00     0.074 A 
ATOM     51  C   UNL A   1      41.951  31.973  36.375  1.00  0.00     0.029 A 
ATOM     52  N   UNL A   1      41.299  31.230  34.382  1.00  0.00    -0.354 N 
ATOM     53  N   UNL A   1      41.338  29.399  32.084  1.00  0.00    -0.248 NA
ATOM     54  C   UNL A   1      42.288  27.597  30.938  1.00  0.00     0.031 C 
ATOM     55  C   UNL A   1      42.755  30.884  36.024  1.00  0.00     0.029 A 
ATOM     56  C   UNL A   1      42.339  30.412  34.789  1.00  0.00     0.049 A 
ATOM     57  H   UNL A   1      40.805  31.138  33.535  1.00  0.00     0.167 HD
ATOM     58  C   UNL A   1      42.383  28.880  32.836  1.00  0.00     0.074 A 
ATOM     59  C   UNL A   1      42.918  27.758  32.094  1.00  0.00     0.031 C 
ATOM     60  C   UNL A   1      42.855  29.298  34.035  1.00  0.00     0.037 A 
BRANCH  47  61
ATOM     61  C   UNL A   1      39.920  34.216  36.349  1.00  0.00     0.057 A 
ATOM     62  C   UNL A   1      40.596  35.443  36.309  1.00  0.00     0.134 A 
ATOM     63  C   UNL A   1      39.100  33.963  37.455  1.00  0.00     0.134 A 
ATOM     64  F   UNL A   1      41.409  35.738  35.283  1.00  0.00    -0.206 F 
ATOM     65  C   UNL A   1      40.479  36.374  37.343  1.00  0.00     0.040 A 
ATOM     66  C   UNL A   1      38.958  34.896  38.484  1.00  0.00     0.040 A 
ATOM     67  F   UNL A   1      38.425  32.808  37.553  1.00  0.00    -0.206 F 
ATOM     68  C   UNL A   1      39.653  36.103  38.431  1.00  0.00     0.006 A 
ENDBRANCH  47  61
BRANCH  48  69
ATOM     69  C   UNL A   1      40.372  27.782  28.731  1.00  0.00     0.057 A 
ATOM     70  C   UNL A   1      39.638  26.592  28.790  1.00  0.00     0.134 A 
ATOM     71  C   UNL A   1      41.132  28.019  27.581  1.00  0.00     0.134 A 
ATOM     72  F   UNL A   1      38.903  26.306  29.876  1.00  0.00    -0.206 F 
ATOM     73  C   UNL A   1      39.663  25.666  27.747  1.00  0.00     0.040 A 
ATOM     74  C   UNL A   1      41.153  27.109  26.522  1.00  0.00     0.040 A 
ATOM     75  F   UNL A   1      41.852  29.144  27.464  1.00  0.00    -0.206 F 
ATOM     76  C   UNL A   1      40.418  25.927  26.605  1.00  0.00     0.006 A 
ENDBRANCH  48  69
BRANCH  60  77
ATOM     77  C   UNL A   1      43.999  28.535  34.628  1.00  0.00     0.057 A 
ATOM     78  C   UNL A   1      43.789  27.396  35.415  1.00  0.00     0.134 A 
ATOM     79  C   UNL A   1      45.322  28.899  34.350  1.00  0.00     0.134 A 
ATOM     80  F   UNL A   1      42.544  27.004  35.725  1.00  0.00    -0.206 F 
ATOM     81  C   UNL A   1      44.857  26.649  35.911  1.00  0.00     0.040 A 
ATOM     82  C   UNL A   1      46.398  28.148  34.823  1.00  0.00     0.040 A 
ATOM     83  F   UNL A   1      45.588  29.976  33.595  1.00  0.00    -0.206 F 
ATOM     84  C   UNL A   1      46.167  27.020  35.608  1.00  0.00     0.006 A 
ENDBRANCH  60  77
ENDBRANCH  34  35
ENDBRANCH  26  29
ENDBRANCH  24  25
ENDBRANCH   1  24
TORSDOF 12
ENDMDL
MODEL 3
REMARK VINA RESULT:     -11.7      0.055      1.019
REMARK SMILES Cc1cc(Cl)cc2c1O[C@H](C(F)(F)F)C(C(=O)NCCCCNC(=O)c1ccc(-c3c4nc(c(-c5c(F)cccc5F)c5ccc([nH]5)c(-c5c(F)cccc5F)c5nc(c(-c6c(F)cccc6F)c6ccc3[nH]6)C=C5)C=C4)cc1)=C2
REMARK SMILES IDX 21 1 20 2 19 3 18 4 16 5 17 6 15 8 1 9 2 10 3 11 8 12 4 13
REMARK SMILES IDX 7 14 9 15 5 16 6 17 80 18 10 19 11 20 12 21 13 22 14 23
REMARK SMILES IDX 22 24 23 25 24 26 25 28 26 29 27 30 79 31 28 32 78 33 29 34
REMARK SMILES IDX 30 35 31 36 72 37 32 38 77 39 71 40 73 41 33 42 76 43 70 44
REMARK SMILES IDX 69 45 34 47 60 48 43 49 59 50 44 51 47 52 58 53 74 54 45 55
REMARK SMILES IDX 46 56 57 58 75 59 48 60 35 61 36 62 41 63 37 64 38 65 40 66
REMARK SMILES IDX 42 67 39 68 61 69 62 70 67 71 63 72 64 73 66 74 68 75 65 76
REMARK SMILES IDX 49 77 50 78 55 79 51 80 52 81 54 82 56 83 53 84
REMARK H PARENT 18 7 23 27 73 46 47 57
REMARK Flexibility Score: inf
ROOT
ATOM      1  C   UNL A   1      39.157  21.403  25.773  1.00  0.00     0.023 C 
ENDROOT
BRANCH   1   2
ATOM      2  C   UNL A   1      39.207  22.772  26.454  1.00  0.00     0.023 C 
BRANCH   2   3
ATOM      3  C   UNL A   1      38.078  23.714  26.043  1.00  0.00     0.116 C 
BRANCH   3   4
ATOM      4  N   UNL A   1      37.596  23.429  24.705  1.00  0.00    -0.352 N 
ATOM      5  C   UNL A   1      36.398  23.381  24.077  1.00  0.00     0.251 C 
ATOM      6  O   UNL A   1      36.446  23.077  22.881  1.00  0.00    -0.270 OA
ATOM      7  H   UNL A   1      38.335  23.215  24.090  1.00  0.00     0.163 HD
BRANCH   5   8
ATOM      8  C   UNL A   1      35.076  23.659  24.714  1.00  0.00     0.067 C 
ATOM      9  C   UNL A   1      30.257  23.573  26.538  1.00  0.00     0.048 C 
ATOM     10  C   UNL A   1      31.279  24.637  26.256  1.00  0.00    -0.007 A 
ATOM     11  C   UNL A   1      31.013  25.968  26.603  1.00  0.00     0.027 A 
ATOM     12  C   UNL A   1      32.532  24.320  25.709  1.00  0.00     0.131 A 
ATOM     13  C   UNL A   1      31.968  26.959  26.372  1.00  0.00     0.042 A 
ATOM     14  C   UNL A   1      33.485  25.316  25.466  1.00  0.00     0.019 A 
ATOM     15  O   UNL A   1      32.759  23.014  25.378  1.00  0.00    -0.475 OA
ATOM     16  Cl  UNL A   1      31.617  28.591  26.791  1.00  0.00    -0.084 Cl
ATOM     17  C   UNL A   1      33.198  26.642  25.800  1.00  0.00     0.032 A 
ATOM     18  C   UNL A   1      34.750  24.959  24.835  1.00  0.00     0.025 C 
ATOM     19  C   UNL A   1      34.146  22.605  25.243  1.00  0.00     0.314 C 
BRANCH  19  20
ATOM     20  C   UNL A   1      34.629  22.002  26.576  1.00  0.00     0.429 C 
ATOM     21  F   UNL A   1      35.721  21.223  26.375  1.00  0.00    -0.167 F 
ATOM     22  F   UNL A   1      34.997  22.950  27.471  1.00  0.00    -0.167 F 
ATOM     23  F   UNL A   1      33.689  21.238  27.176  1.00  0.00    -0.167 F 
ENDBRANCH  19  20
ENDBRANCH   5   8
ENDBRANCH   3   4
ENDBRANCH   2   3
ENDBRANCH   1   2
BRANCH   1  24
ATOM     24  C   UNL A   1      39.681  20.237  26.609  1.00  0.00     0.116 C 
BRANCH  24  25
ATOM     25  N   UNL A   1      40.739  19.474  25.962  1.00  0.00    -0.352 N 
ATOM     26  C   UNL A   1      42.063  19.815  25.820  1.00  0.00     0.251 C 
ATOM     27  H   UNL A   1      40.473  18.607  25.579  1.00  0.00     0.163 HD
ATOM     28  O   UNL A   1      42.835  19.105  25.187  1.00  0.00    -0.269 OA
BRANCH  26  29
ATOM     29  C   UNL A   1      42.526  21.085  26.407  1.00  0.00     0.039 A 
ATOM     30  C   UNL A   1      42.899  22.123  25.551  1.00  0.00     0.014 A 
ATOM     31  C   UNL A   1      42.506  21.268  27.792  1.00  0.00     0.014 A 
ATOM     32  C   UNL A   1      43.180  23.380  26.085  1.00  0.00     0.010 A 
ATOM     33  C   UNL A   1      42.727  22.536  28.317  1.00  0.00     0.010 A 
ATOM     34  C   UNL A   1      43.057  23.603  27.467  1.00  0.00    -0.014 A 
BRANCH  34  35
ATOM     35  C   UNL A   1      43.267  24.951  28.041  1.00  0.00     0.031 A 
ATOM     36  C   UNL A   1      44.646  25.391  28.434  1.00  0.00     0.074 A 
ATOM     37  C   UNL A   1      42.208  25.756  28.254  1.00  0.00     0.049 A 
ATOM     38  N   UNL A   1      45.026  26.509  28.997  1.00  0.00    -0.248 NA
ATOM     39  C   UNL A   1      45.739  24.438  28.183  1.00  0.00     0.031 C 
ATOM     40  C   UNL A   1      40.815  25.422  27.951  1.00  0.00     0.029 A 
ATOM     41  N   UNL A   1      42.140  27.021  28.780  1.00  0.00    -0.354 N 
ATOM     42  C   UNL A   1      46.398  26.391  29.173  1.00  0.00     0.074 A 
ATOM     43  C   UNL A   1      46.776  25.074  28.708  1.00  0.00     0.031 C 
ATOM     44  C   UNL A   1      40.035  26.469  28.262  1.00  0.00     0.029 A 
ATOM     45  C   UNL A   1      40.867  27.535  28.814  1.00  0.00     0.049 A 
ATOM     46  H   UNL A   1      42.929  27.514  29.101  1.00  0.00     0.167 HD
ATOM     47  C   UNL A   1      47.268  27.309  29.653  1.00  0.00     0.037 A 
ATOM     48  C   UNL A   1      40.424  28.733  29.239  1.00  0.00     0.037 A 
ATOM     49  C   UNL A   1      46.894  28.627  30.090  1.00  0.00     0.049 A 
ATOM     50  C   UNL A   1      41.408  29.732  29.777  1.00  0.00     0.074 A 
ATOM     51  C   UNL A   1      47.708  29.645  30.551  1.00  0.00     0.029 A 
ATOM     52  N   UNL A   1      45.594  29.107  30.115  1.00  0.00    -0.354 N 
ATOM     53  N   UNL A   1      42.709  29.624  29.899  1.00  0.00    -0.248 NA
ATOM     54  C   UNL A   1      40.864  31.018  30.238  1.00  0.00     0.031 C 
ATOM     55  C   UNL A   1      46.897  30.735  30.881  1.00  0.00     0.029 A 
ATOM     56  C   UNL A   1      45.581  30.406  30.595  1.00  0.00     0.049 A 
ATOM     57  H   UNL A   1      44.798  28.602  29.832  1.00  0.00     0.167 HD
ATOM     58  C   UNL A   1      43.141  30.831  30.432  1.00  0.00     0.074 A 
ATOM     59  C   UNL A   1      41.966  31.660  30.600  1.00  0.00     0.031 C 
ATOM     60  C   UNL A   1      44.400  31.215  30.753  1.00  0.00     0.037 A 
BRANCH  47  61
ATOM     61  C   UNL A   1      48.713  26.918  29.709  1.00  0.00     0.057 A 
ATOM     62  C   UNL A   1      49.579  27.165  28.636  1.00  0.00     0.134 A 
ATOM     63  C   UNL A   1      49.251  26.313  30.851  1.00  0.00     0.134 A 
ATOM     64  F   UNL A   1      49.121  27.729  27.508  1.00  0.00    -0.206 F 
ATOM     65  C   UNL A   1      50.926  26.801  28.687  1.00  0.00     0.040 A 
ATOM     66  C   UNL A   1      50.601  25.965  30.923  1.00  0.00     0.040 A 
ATOM     67  F   UNL A   1      48.475  26.051  31.913  1.00  0.00    -0.206 F 
ATOM     68  C   UNL A   1      51.440  26.205  29.836  1.00  0.00     0.006 A 
ENDBRANCH  47  61
BRANCH  48  69
ATOM     69  C   UNL A   1      38.983  29.068  29.126  1.00  0.00     0.057 A 
ATOM     70  C   UNL A   1      38.436  29.461  27.900  1.00  0.00     0.134 A 
ATOM     71  C   UNL A   1      38.121  28.985  30.224  1.00  0.00     0.134 A 
ATOM     72  F   UNL A   1      39.219  29.572  26.816  1.00  0.00    -0.206 F 
ATOM     73  C   UNL A   1      37.081  29.769  27.770  1.00  0.00     0.040 A 
ATOM     74  C   UNL A   1      36.760  29.273  30.105  1.00  0.00     0.040 A 
ATOM     75  F   UNL A   1      38.586  28.608  31.424  1.00  0.00    -0.206 F 
ATOM     76  C   UNL A   1      36.237  29.668  28.874  1.00  0.00     0.006 A 
ENDBRANCH  48  69
BRANCH  60  77
ATOM     77  C   UNL A   1      44.578  32.595  31.306  1.00  0.00     0.057 A 
ATOM     78  C   UNL A   1      44.578  32.836  32.685  1.00  0.00     0.134 A 
ATOM     79  C   UNL A   1      44.824  33.680  30.455  1.00  0.00     0.134 A 
ATOM     80  F   UNL A   1      44.336  31.839  33.549  1.00  0.00    -0.206 F 
ATOM     81  C   UNL A   1      44.810  34.112  33.200  1.00  0.00     0.040 A 
ATOM     82  C   UNL A   1      45.078  34.956  30.958  1.00  0.00     0.040 A 
ATOM     83  F   UNL A   1      44.845  33.511  29.125  1.00  0.00    -0.206 F 
ATOM     84  C   UNL A   1      45.070  35.175  32.334  1.00  0.00     0.006 A 
ENDBRANCH  60  77
ENDBRANCH  34  35
ENDBRANCH  26  29
ENDBRANCH  24  25
ENDBRANCH   1  24
TORSDOF 12
ENDMDL
