MODEL 1
REMARK VINA RESULT:     -13.1      0.000      0.000
REMARK SMILES Cc1cc(C)c(S(=O)(=O)n2cc([C@@H](C)[C@@H]([NH3+])C(=O)NCCCCNC(=O)c3ccc(-c4c5nc(c(-c6c(F)cccc6F)c6ccc([nH]6)c(-c6c(F)cccc6F)c6nc(c(-c7c(F)cccc7F)c7ccc4[nH]7)C=C6)C=C5)cc3)c3ccccc32)c(C)c1
REMARK SMILES IDX 20 1 19 2 17 3 18 4 15 6 13 7 14 8 12 9 10 10 11 11 86 12
REMARK SMILES IDX 81 13 85 14 82 15 84 16 83 17 7 18 8 19 9 20 6 21 1 22 2 23
REMARK SMILES IDX 3 24 89 25 4 26 87 27 5 28 88 29 16 30 21 34 22 35 23 36
REMARK SMILES IDX 24 37 25 38 26 40 27 41 28 42 80 43 29 44 79 45 30 46 31 47
REMARK SMILES IDX 32 48 73 49 33 50 78 51 72 52 74 53 34 54 77 55 71 56 70 57
REMARK SMILES IDX 35 59 61 60 44 61 60 62 45 63 48 64 59 65 75 66 46 67 47 68
REMARK SMILES IDX 58 70 76 71 49 72 36 73 37 74 42 75 38 76 39 77 41 78 43 79
REMARK SMILES IDX 40 80 62 81 63 82 68 83 64 84 65 85 67 86 69 87 66 88 50 89
REMARK SMILES IDX 51 90 56 91 52 92 53 93 55 94 57 95 54 96
REMARK H PARENT 19 5 16 31 16 32 16 33 24 39 74 58 48 69
REMARK Flexibility Score: inf
ROOT
ATOM      1  C   UNL A   1      39.760  21.487  26.328  1.00  0.00     0.116 C 
ENDROOT
BRANCH   1   2
ATOM      2  N   UNL A   1      39.223  22.835  26.294  1.00  0.00    -0.351 N 
ATOM      3  C   UNL A   1      37.950  23.252  26.045  1.00  0.00     0.278 C 
ATOM      4  O   UNL A   1      37.720  24.465  26.081  1.00  0.00    -0.268 OA
ATOM      5  H   UNL A   1      39.873  23.552  26.477  1.00  0.00     0.163 HD
BRANCH   3   6
ATOM      6  C   UNL A   1      36.822  22.247  25.740  1.00  0.00     0.278 C 
BRANCH   6   7
ATOM      7  C   UNL A   1      35.440  22.734  26.254  1.00  0.00     0.086 C 
ATOM      8  C   UNL A   1      34.802  21.758  27.249  1.00  0.00     0.020 C 
BRANCH   7   9
ATOM      9  C   UNL A   1      34.499  23.067  25.117  1.00  0.00    -0.012 A 
ATOM     10  N   UNL A   1      33.400  24.248  23.585  1.00  0.00    -0.241 N 
ATOM     11  C   UNL A   1      34.297  24.337  24.615  1.00  0.00     0.109 A 
ATOM     12  C   UNL A   1      33.074  22.934  23.321  1.00  0.00     0.064 A 
ATOM     13  C   UNL A   1      33.695  22.178  24.329  1.00  0.00     0.004 A 
ATOM     14  C   UNL A   1      32.252  22.340  22.347  1.00  0.00     0.028 A 
ATOM     15  C   UNL A   1      33.443  20.792  24.380  1.00  0.00     0.010 A 
ATOM     16  C   UNL A   1      32.015  20.966  22.434  1.00  0.00     0.002 A 
ATOM     17  C   UNL A   1      32.591  20.202  23.442  1.00  0.00     0.001 A 
BRANCH  10  18
ATOM     18  S   UNL A   1      32.768  25.607  22.793  1.00  0.00     0.268 S 
ATOM     19  O   UNL A   1      31.441  25.198  22.390  1.00  0.00    -0.201 OA
ATOM     20  O   UNL A   1      33.782  25.976  21.811  1.00  0.00    -0.201 OA
BRANCH  18  21
ATOM     21  C   UNL A   1      32.595  27.014  23.895  1.00  0.00     0.094 A 
ATOM     22  C   UNL A   1      32.233  30.039  26.980  1.00  0.00     0.044 C 
ATOM     23  C   UNL A   1      32.343  29.002  25.904  1.00  0.00    -0.051 A 
ATOM     24  C   UNL A   1      31.585  27.838  25.967  1.00  0.00     0.008 A 
ATOM     25  C   UNL A   1      33.178  29.192  24.808  1.00  0.00     0.008 A 
ATOM     26  C   UNL A   1      31.690  26.839  24.981  1.00  0.00    -0.030 A 
ATOM     27  C   UNL A   1      33.290  28.241  23.769  1.00  0.00    -0.030 A 
ATOM     28  C   UNL A   1      30.770  25.654  25.171  1.00  0.00     0.046 C 
ATOM     29  C   UNL A   1      34.157  28.684  22.628  1.00  0.00     0.046 C 
ENDBRANCH  18  21
ENDBRANCH  10  18
ENDBRANCH   7   9
ENDBRANCH   6   7
BRANCH   6  30
ATOM     30  N   UNL A   1      36.856  21.923  24.289  1.00  0.00    -0.347 N 
ATOM     31  H   UNL A   1      36.823  22.785  23.746  1.00  0.00     0.345 HD
ATOM     32  H   UNL A   1      36.053  21.340  24.052  1.00  0.00     0.345 HD
ATOM     33  H   UNL A   1      37.716  21.418  24.072  1.00  0.00     0.345 HD
ENDBRANCH   6  30
ENDBRANCH   3   6
ENDBRANCH   1   2
BRANCH   1  34
ATOM     34  C   UNL A   1      40.726  21.313  27.500  1.00  0.00     0.023 C 
BRANCH  34  35
ATOM     35  C   UNL A   1      41.795  20.235  27.279  1.00  0.00     0.023 C 
BRANCH  35  36
ATOM     36  C   UNL A   1      41.804  19.639  25.870  1.00  0.00     0.116 C 
BRANCH  36  37
ATOM     37  N   UNL A   1      43.114  19.660  25.251  1.00  0.00    -0.352 N 
ATOM     38  C   UNL A   1      44.144  20.554  25.211  1.00  0.00     0.251 C 
ATOM     39  H   UNL A   1      43.304  18.840  24.740  1.00  0.00     0.163 HD
ATOM     40  O   UNL A   1      45.179  20.167  24.663  1.00  0.00    -0.269 OA
BRANCH  38  41
ATOM     41  C   UNL A   1      44.084  21.951  25.717  1.00  0.00     0.039 A 
ATOM     42  C   UNL A   1      44.790  22.446  26.812  1.00  0.00     0.014 A 
ATOM     43  C   UNL A   1      43.169  22.801  25.065  1.00  0.00     0.014 A 
ATOM     44  C   UNL A   1      44.516  23.711  27.310  1.00  0.00     0.010 A 
ATOM     45  C   UNL A   1      42.901  24.074  25.548  1.00  0.00     0.010 A 
ATOM     46  C   UNL A   1      43.539  24.503  26.706  1.00  0.00    -0.014 A 
BRANCH  46  47
ATOM     47  C   UNL A   1      43.271  25.798  27.311  1.00  0.00     0.031 A 
ATOM     48  C   UNL A   1      44.269  26.859  26.998  1.00  0.00     0.074 A 
ATOM     49  C   UNL A   1      42.173  26.051  28.049  1.00  0.00     0.049 A 
ATOM     50  N   UNL A   1      45.045  27.492  27.817  1.00  0.00    -0.248 NA
ATOM     51  C   UNL A   1      44.510  27.173  25.582  1.00  0.00     0.031 C 
ATOM     52  C   UNL A   1      40.982  25.221  28.231  1.00  0.00     0.029 A 
ATOM     53  N   UNL A   1      41.861  27.186  28.733  1.00  0.00    -0.354 N 
ATOM     54  C   UNL A   1      45.757  28.409  27.046  1.00  0.00     0.074 A 
ATOM     55  C   UNL A   1      45.482  28.081  25.670  1.00  0.00     0.031 C 
ATOM     56  C   UNL A   1      39.994  25.975  28.766  1.00  0.00     0.029 A 
ATOM     57  C   UNL A   1      40.525  27.291  29.083  1.00  0.00     0.049 A 
ATOM     58  H   UNL A   1      42.529  27.872  28.960  1.00  0.00     0.167 HD
ATOM     59  C   UNL A   1      46.366  29.494  27.600  1.00  0.00     0.037 A 
ATOM     60  C   UNL A   1      39.896  28.410  29.521  1.00  0.00     0.037 A 
ATOM     61  C   UNL A   1      46.576  29.319  29.012  1.00  0.00     0.049 A 
ATOM     62  C   UNL A   1      40.936  29.344  30.025  1.00  0.00     0.074 A 
ATOM     63  C   UNL A   1      47.268  28.405  29.785  1.00  0.00     0.029 A 
ATOM     64  N   UNL A   1      45.740  29.972  29.885  1.00  0.00    -0.354 N 
ATOM     65  N   UNL A   1      41.635  29.138  31.107  1.00  0.00    -0.248 NA
ATOM     66  C   UNL A   1      41.527  30.274  29.071  1.00  0.00     0.031 C 
ATOM     67  C   UNL A   1      46.447  28.200  30.932  1.00  0.00     0.029 A 
ATOM     68  C   UNL A   1      45.343  29.044  30.811  1.00  0.00     0.049 A 
ATOM     69  H   UNL A   1      45.479  30.921  29.851  1.00  0.00     0.167 HD
ATOM     70  C   UNL A   1      42.919  29.552  30.785  1.00  0.00     0.074 A 
ATOM     71  C   UNL A   1      42.774  30.315  29.546  1.00  0.00     0.031 C 
ATOM     72  C   UNL A   1      44.019  29.007  31.384  1.00  0.00     0.037 A 
BRANCH  59  73
ATOM     73  C   UNL A   1      46.445  30.848  26.939  1.00  0.00     0.057 A 
ATOM     74  C   UNL A   1      45.318  31.619  26.592  1.00  0.00     0.134 A 
ATOM     75  C   UNL A   1      47.668  31.544  26.938  1.00  0.00     0.134 A 
ATOM     76  F   UNL A   1      44.075  31.121  26.608  1.00  0.00    -0.206 F 
ATOM     77  C   UNL A   1      45.392  32.985  26.308  1.00  0.00     0.040 A 
ATOM     78  C   UNL A   1      47.747  32.923  26.704  1.00  0.00     0.040 A 
ATOM     79  F   UNL A   1      48.815  30.924  27.254  1.00  0.00    -0.206 F 
ATOM     80  C   UNL A   1      46.603  33.650  26.402  1.00  0.00     0.006 A 
ENDBRANCH  59  73
BRANCH  60  81
ATOM     81  C   UNL A   1      38.509  28.835  29.224  1.00  0.00     0.057 A 
ATOM     82  C   UNL A   1      38.154  29.371  27.972  1.00  0.00     0.134 A 
ATOM     83  C   UNL A   1      37.548  28.962  30.237  1.00  0.00     0.134 A 
ATOM     84  F   UNL A   1      39.025  29.393  26.953  1.00  0.00    -0.206 F 
ATOM     85  C   UNL A   1      36.922  29.988  27.738  1.00  0.00     0.040 A 
ATOM     86  C   UNL A   1      36.312  29.588  30.019  1.00  0.00     0.040 A 
ATOM     87  F   UNL A   1      37.809  28.532  31.481  1.00  0.00    -0.206 F 
ATOM     88  C   UNL A   1      35.999  30.109  28.766  1.00  0.00     0.006 A 
ENDBRANCH  60  81
BRANCH  72  89
ATOM     89  C   UNL A   1      43.813  28.090  32.557  1.00  0.00     0.057 A 
ATOM     90  C   UNL A   1      43.847  28.626  33.849  1.00  0.00     0.134 A 
ATOM     91  C   UNL A   1      43.746  26.692  32.455  1.00  0.00     0.134 A 
ATOM     92  F   UNL A   1      43.976  29.950  34.030  1.00  0.00    -0.206 F 
ATOM     93  C   UNL A   1      43.802  27.816  34.986  1.00  0.00     0.040 A 
ATOM     94  C   UNL A   1      43.663  25.872  33.584  1.00  0.00     0.040 A 
ATOM     95  F   UNL A   1      43.824  26.077  31.268  1.00  0.00    -0.206 F 
ATOM     96  C   UNL A   1      43.697  26.434  34.856  1.00  0.00     0.006 A 
ENDBRANCH  72  89
ENDBRANCH  46  47
ENDBRANCH  38  41
ENDBRANCH  36  37
ENDBRANCH  35  36
ENDBRANCH  34  35
ENDBRANCH   1  34
TORSDOF 16
ENDMDL
MODEL 2
REMARK VINA RESULT:     -12.7      2.859      8.052
REMARK SMILES Cc1cc(C)c(S(=O)(=O)n2cc([C@@H](C)[C@@H]([NH3+])C(=O)NCCCCNC(=O)c3ccc(-c4c5nc(c(-c6c(F)cccc6F)c6ccc([nH]6)c(-c6c(F)cccc6F)c6nc(c(-c7c(F)cccc7F)c7ccc4[nH]7)C=C6)C=C5)cc3)c3ccccc32)c(C)c1
REMARK SMILES IDX 20 1 19 2 17 3 18 4 15 6 13 7 14 8 12 9 10 10 11 11 86 12
REMARK SMILES IDX 81 13 85 14 82 15 84 16 83 17 7 18 8 19 9 20 6 21 1 22 2 23
REMARK SMILES IDX 3 24 89 25 4 26 87 27 5 28 88 29 16 30 21 34 22 35 23 36
REMARK SMILES IDX 24 37 25 38 26 40 27 41 28 42 80 43 29 44 79 45 30 46 31 47
REMARK SMILES IDX 32 48 73 49 33 50 78 51 72 52 74 53 34 54 77 55 71 56 70 57
REMARK SMILES IDX 35 59 61 60 44 61 60 62 45 63 48 64 59 65 75 66 46 67 47 68
REMARK SMILES IDX 58 70 76 71 49 72 36 73 37 74 42 75 38 76 39 77 41 78 43 79
REMARK SMILES IDX 40 80 62 81 63 82 68 83 64 84 65 85 67 86 69 87 66 88 50 89
REMARK SMILES IDX 51 90 56 91 52 92 53 93 55 94 57 95 54 96
REMARK H PARENT 19 5 16 31 16 32 16 33 24 39 74 58 48 69
REMARK Flexibility Score: inf
ROOT
ATOM      1  C   UNL A   1      32.513  29.194  25.363  1.00  0.00     0.116 C 
ENDROOT
BRANCH   1   2
ATOM      2  N   UNL A   1      31.316  29.969  25.094  1.00  0.00    -0.351 N 
ATOM      3  C   UNL A   1      30.536  29.998  23.977  1.00  0.00     0.278 C 
ATOM      4  O   UNL A   1      29.547  30.737  23.979  1.00  0.00    -0.268 OA
ATOM      5  H   UNL A   1      31.025  30.562  25.826  1.00  0.00     0.163 HD
BRANCH   3   6
ATOM      6  C   UNL A   1      30.865  29.128  22.748  1.00  0.00     0.278 C 
BRANCH   6   7
ATOM      7  C   UNL A   1      29.977  27.856  22.669  1.00  0.00     0.086 C 
ATOM      8  C   UNL A   1      28.688  27.984  23.489  1.00  0.00     0.020 C 
BRANCH   7   9
ATOM      9  C   UNL A   1      30.747  26.605  23.031  1.00  0.00    -0.012 A 
ATOM     10  N   UNL A   1      31.525  24.895  24.222  1.00  0.00    -0.241 N 
ATOM     11  C   UNL A   1      30.732  26.009  24.275  1.00  0.00     0.109 A 
ATOM     12  C   UNL A   1      31.990  24.675  22.943  1.00  0.00     0.064 A 
ATOM     13  C   UNL A   1      31.576  25.788  22.192  1.00  0.00     0.004 A 
ATOM     14  C   UNL A   1      32.780  23.655  22.385  1.00  0.00     0.028 A 
ATOM     15  C   UNL A   1      32.010  25.894  20.854  1.00  0.00     0.010 A 
ATOM     16  C   UNL A   1      33.201  23.797  21.060  1.00  0.00     0.002 A 
ATOM     17  C   UNL A   1      32.833  24.906  20.307  1.00  0.00     0.001 A 
BRANCH  10  18
ATOM     18  S   UNL A   1      31.892  23.959  25.587  1.00  0.00     0.268 S 
ATOM     19  O   UNL A   1      31.048  22.793  25.456  1.00  0.00    -0.201 OA
ATOM     20  O   UNL A   1      31.759  24.872  26.717  1.00  0.00    -0.201 OA
BRANCH  18  21
ATOM     21  C   UNL A   1      33.599  23.401  25.587  1.00  0.00     0.094 A 
ATOM     22  C   UNL A   1      37.809  22.446  25.991  1.00  0.00     0.044 C 
ATOM     23  C   UNL A   1      36.356  22.775  25.832  1.00  0.00    -0.051 A 
ATOM     24  C   UNL A   1      35.945  24.096  25.680  1.00  0.00     0.008 A 
ATOM     25  C   UNL A   1      35.393  21.772  25.801  1.00  0.00     0.008 A 
ATOM     26  C   UNL A   1      34.584  24.430  25.554  1.00  0.00    -0.030 A 
ATOM     27  C   UNL A   1      34.018  22.050  25.635  1.00  0.00    -0.030 A 
ATOM     28  C   UNL A   1      34.304  25.903  25.354  1.00  0.00     0.046 C 
ATOM     29  C   UNL A   1      33.158  20.825  25.519  1.00  0.00     0.046 C 
ENDBRANCH  18  21
ENDBRANCH  10  18
ENDBRANCH   7   9
ENDBRANCH   6   7
BRANCH   6  30
ATOM     30  N   UNL A   1      30.817  29.985  21.533  1.00  0.00    -0.347 N 
ATOM     31  H   UNL A   1      31.382  29.563  20.797  1.00  0.00     0.345 HD
ATOM     32  H   UNL A   1      31.183  30.910  21.755  1.00  0.00     0.345 HD
ATOM     33  H   UNL A   1      29.851  30.069  21.214  1.00  0.00     0.345 HD
ENDBRANCH   6  30
ENDBRANCH   3   6
ENDBRANCH   1   2
BRANCH   1  34
ATOM     34  C   UNL A   1      32.674  28.939  26.861  1.00  0.00     0.023 C 
BRANCH  34  35
ATOM     35  C   UNL A   1      34.022  29.391  27.436  1.00  0.00     0.023 C 
BRANCH  35  36
ATOM     36  C   UNL A   1      34.264  30.900  27.354  1.00  0.00     0.116 C 
BRANCH  36  37
ATOM     37  N   UNL A   1      34.119  31.570  28.631  1.00  0.00    -0.352 N 
ATOM     38  C   UNL A   1      34.942  31.795  29.697  1.00  0.00     0.251 C 
ATOM     39  H   UNL A   1      33.220  31.950  28.759  1.00  0.00     0.163 HD
ATOM     40  O   UNL A   1      34.493  32.524  30.584  1.00  0.00    -0.269 OA
BRANCH  38  41
ATOM     41  C   UNL A   1      36.285  31.185  29.885  1.00  0.00     0.039 A 
ATOM     42  C   UNL A   1      37.501  31.811  29.623  1.00  0.00     0.014 A 
ATOM     43  C   UNL A   1      36.295  29.834  30.286  1.00  0.00     0.014 A 
ATOM     44  C   UNL A   1      38.684  31.087  29.654  1.00  0.00     0.010 A 
ATOM     45  C   UNL A   1      37.476  29.108  30.335  1.00  0.00     0.010 A 
ATOM     46  C   UNL A   1      38.663  29.727  29.963  1.00  0.00    -0.014 A 
BRANCH  46  47
ATOM     47  C   UNL A   1      39.935  29.022  29.929  1.00  0.00     0.031 A 
ATOM     48  C   UNL A   1      40.611  28.877  31.249  1.00  0.00     0.074 A 
ATOM     49  C   UNL A   1      40.444  28.479  28.807  1.00  0.00     0.049 A 
ATOM     50  N   UNL A   1      41.756  29.354  31.616  1.00  0.00    -0.248 NA
ATOM     51  C   UNL A   1      39.866  28.212  32.328  1.00  0.00     0.031 C 
ATOM     52  C   UNL A   1      39.801  28.298  27.505  1.00  0.00     0.029 A 
ATOM     53  N   UNL A   1      41.654  27.879  28.636  1.00  0.00    -0.354 N 
ATOM     54  C   UNL A   1      41.960  28.909  32.921  1.00  0.00     0.074 A 
ATOM     55  C   UNL A   1      40.716  28.323  33.350  1.00  0.00     0.031 C 
ATOM     56  C   UNL A   1      40.529  27.428  26.769  1.00  0.00     0.029 A 
ATOM     57  C   UNL A   1      41.746  27.101  27.494  1.00  0.00     0.049 A 
ATOM     58  H   UNL A   1      42.398  27.990  29.269  1.00  0.00     0.167 HD
ATOM     59  C   UNL A   1      43.200  28.881  33.484  1.00  0.00     0.037 A 
ATOM     60  C   UNL A   1      42.717  26.196  27.217  1.00  0.00     0.037 A 
ATOM     61  C   UNL A   1      44.114  29.752  32.794  1.00  0.00     0.049 A 
ATOM     62  C   UNL A   1      43.892  26.518  28.069  1.00  0.00     0.074 A 
ATOM     63  C   UNL A   1      44.151  31.108  32.530  1.00  0.00     0.029 A 
ATOM     64  N   UNL A   1      45.038  29.192  31.946  1.00  0.00    -0.354 N 
ATOM     65  N   UNL A   1      44.634  27.579  27.911  1.00  0.00    -0.248 NA
ATOM     66  C   UNL A   1      43.956  25.905  29.389  1.00  0.00     0.031 C 
ATOM     67  C   UNL A   1      44.682  31.209  31.211  1.00  0.00     0.029 A 
ATOM     68  C   UNL A   1      44.988  29.917  30.785  1.00  0.00     0.049 A 
ATOM     69  H   UNL A   1      45.622  28.421  32.136  1.00  0.00     0.167 HD
ATOM     70  C   UNL A   1      44.908  28.016  29.198  1.00  0.00     0.074 A 
ATOM     71  C   UNL A   1      44.532  26.902  30.068  1.00  0.00     0.031 C 
ATOM     72  C   UNL A   1      45.144  29.333  29.474  1.00  0.00     0.037 A 
BRANCH  59  73
ATOM     73  C   UNL A   1      43.676  27.803  34.428  1.00  0.00     0.057 A 
ATOM     74  C   UNL A   1      43.910  26.469  34.041  1.00  0.00     0.134 A 
ATOM     75  C   UNL A   1      44.220  28.168  35.673  1.00  0.00     0.134 A 
ATOM     76  F   UNL A   1      43.514  25.985  32.857  1.00  0.00    -0.206 F 
ATOM     77  C   UNL A   1      44.664  25.579  34.810  1.00  0.00     0.040 A 
ATOM     78  C   UNL A   1      45.018  27.299  36.428  1.00  0.00     0.040 A 
ATOM     79  F   UNL A   1      44.069  29.412  36.154  1.00  0.00    -0.206 F 
ATOM     80  C   UNL A   1      45.254  26.003  35.989  1.00  0.00     0.006 A 
ENDBRANCH  59  73
BRANCH  60  81
ATOM     81  C   UNL A   1      42.565  24.900  26.516  1.00  0.00     0.057 A 
ATOM     82  C   UNL A   1      41.828  23.840  27.078  1.00  0.00     0.134 A 
ATOM     83  C   UNL A   1      43.341  24.577  25.394  1.00  0.00     0.134 A 
ATOM     84  F   UNL A   1      41.124  24.005  28.207  1.00  0.00    -0.206 F 
ATOM     85  C   UNL A   1      41.856  22.543  26.557  1.00  0.00     0.040 A 
ATOM     86  C   UNL A   1      43.386  23.277  24.867  1.00  0.00     0.040 A 
ATOM     87  F   UNL A   1      44.121  25.502  24.816  1.00  0.00    -0.206 F 
ATOM     88  C   UNL A   1      42.645  22.254  25.454  1.00  0.00     0.006 A 
ENDBRANCH  60  81
BRANCH  72  89
ATOM     89  C   UNL A   1      45.309  30.285  28.323  1.00  0.00     0.057 A 
ATOM     90  C   UNL A   1      46.599  30.687  27.957  1.00  0.00     0.134 A 
ATOM     91  C   UNL A   1      44.241  30.931  27.682  1.00  0.00     0.134 A 
ATOM     92  F   UNL A   1      47.672  30.162  28.570  1.00  0.00    -0.206 F 
ATOM     93  C   UNL A   1      46.819  31.671  26.991  1.00  0.00     0.040 A 
ATOM     94  C   UNL A   1      44.448  31.892  26.688  1.00  0.00     0.040 A 
ATOM     95  F   UNL A   1      42.973  30.701  28.043  1.00  0.00    -0.206 F 
ATOM     96  C   UNL A   1      45.741  32.269  26.343  1.00  0.00     0.006 A 
ENDBRANCH  72  89
ENDBRANCH  46  47
ENDBRANCH  38  41
ENDBRANCH  36  37
ENDBRANCH  35  36
ENDBRANCH  34  35
ENDBRANCH   1  34
TORSDOF 16
ENDMDL
MODEL 3
REMARK VINA RESULT:     -12.7      2.334      3.516
REMARK SMILES Cc1cc(C)c(S(=O)(=O)n2cc([C@@H](C)[C@@H]([NH3+])C(=O)NCCCCNC(=O)c3ccc(-c4c5nc(c(-c6c(F)cccc6F)c6ccc([nH]6)c(-c6c(F)cccc6F)c6nc(c(-c7c(F)cccc7F)c7ccc4[nH]7)C=C6)C=C5)cc3)c3ccccc32)c(C)c1
REMARK SMILES IDX 20 1 19 2 17 3 18 4 15 6 13 7 14 8 12 9 10 10 11 11 86 12
REMARK SMILES IDX 81 13 85 14 82 15 84 16 83 17 7 18 8 19 9 20 6 21 1 22 2 23
REMARK SMILES IDX 3 24 89 25 4 26 87 27 5 28 88 29 16 30 21 34 22 35 23 36
REMARK SMILES IDX 24 37 25 38 26 40 27 41 28 42 80 43 29 44 79 45 30 46 31 47
REMARK SMILES IDX 32 48 73 49 33 50 78 51 72 52 74 53 34 54 77 55 71 56 70 57
REMARK SMILES IDX 35 59 61 60 44 61 60 62 45 63 48 64 59 65 75 66 46 67 47 68
REMARK SMILES IDX 58 70 76 71 49 72 36 73 37 74 42 75 38 76 39 77 41 78 43 79
REMARK SMILES IDX 40 80 62 81 63 82 68 83 64 84 65 85 67 86 69 87 66 88 50 89
REMARK SMILES IDX 51 90 56 91 52 92 53 93 55 94 57 95 54 96
REMARK H PARENT 19 5 16 31 16 32 16 33 24 39 74 58 48 69
REMARK Flexibility Score: inf
ROOT
ATOM      1  C   UNL A   1      35.683  21.709  25.731  1.00  0.00     0.116 C 
ENDROOT
BRANCH   1   2
ATOM      2  N   UNL A   1      35.649  20.394  25.119  1.00  0.00    -0.351 N 
ATOM      3  C   UNL A   1      34.619  19.506  25.034  1.00  0.00     0.278 C 
ATOM      4  O   UNL A   1      34.823  18.437  24.449  1.00  0.00    -0.268 OA
ATOM      5  H   UNL A   1      36.494  20.100  24.707  1.00  0.00     0.163 HD
BRANCH   3   6
ATOM      6  C   UNL A   1      33.236  19.823  25.634  1.00  0.00     0.278 C 
BRANCH   6   7
ATOM      7  C   UNL A   1      32.203  20.242  24.552  1.00  0.00     0.086 C 
ATOM      8  C   UNL A   1      32.531  19.667  23.170  1.00  0.00     0.020 C 
BRANCH   7   9
ATOM      9  C   UNL A   1      32.014  21.742  24.503  1.00  0.00    -0.012 A 
ATOM     10  N   UNL A   1      32.200  23.856  23.833  1.00  0.00    -0.241 N 
ATOM     11  C   UNL A   1      32.620  22.577  23.586  1.00  0.00     0.109 A 
ATOM     12  C   UNL A   1      31.248  23.882  24.831  1.00  0.00     0.064 A 
ATOM     13  C   UNL A   1      31.175  22.568  25.322  1.00  0.00     0.004 A 
ATOM     14  C   UNL A   1      30.495  24.928  25.394  1.00  0.00     0.028 A 
ATOM     15  C   UNL A   1      30.354  22.314  26.440  1.00  0.00     0.010 A 
ATOM     16  C   UNL A   1      29.700  24.643  26.506  1.00  0.00     0.002 A 
ATOM     17  C   UNL A   1      29.638  23.358  27.032  1.00  0.00     0.001 A 
BRANCH  10  18
ATOM     18  S   UNL A   1      32.825  25.205  23.021  1.00  0.00     0.268 S 
ATOM     19  O   UNL A   1      31.848  25.486  21.993  1.00  0.00    -0.201 OA
ATOM     20  O   UNL A   1      34.198  24.842  22.687  1.00  0.00    -0.201 OA
BRANCH  18  21
ATOM     21  C   UNL A   1      32.929  26.649  24.084  1.00  0.00     0.094 A 
ATOM     22  C   UNL A   1      33.744  30.048  26.650  1.00  0.00     0.044 C 
ATOM     23  C   UNL A   1      33.447  28.868  25.775  1.00  0.00    -0.051 A 
ATOM     24  C   UNL A   1      34.005  27.625  26.056  1.00  0.00     0.008 A 
ATOM     25  C   UNL A   1      32.588  28.981  24.687  1.00  0.00     0.008 A 
ATOM     26  C   UNL A   1      33.760  26.509  25.233  1.00  0.00    -0.030 A 
ATOM     27  C   UNL A   1      32.276  27.883  23.854  1.00  0.00    -0.030 A 
ATOM     28  C   UNL A   1      34.404  25.222  25.696  1.00  0.00     0.046 C 
ATOM     29  C   UNL A   1      31.247  28.187  22.805  1.00  0.00     0.046 C 
ENDBRANCH  18  21
ENDBRANCH  10  18
ENDBRANCH   7   9
ENDBRANCH   6   7
BRANCH   6  30
ATOM     30  N   UNL A   1      32.809  18.673  26.476  1.00  0.00    -0.347 N 
ATOM     31  H   UNL A   1      32.266  18.021  25.911  1.00  0.00     0.345 HD
ATOM     32  H   UNL A   1      32.236  19.012  27.249  1.00  0.00     0.345 HD
ATOM     33  H   UNL A   1      33.632  18.198  26.846  1.00  0.00     0.345 HD
ENDBRANCH   6  30
ENDBRANCH   3   6
ENDBRANCH   1   2
BRANCH   1  34
ATOM     34  C   UNL A   1      36.975  22.444  25.377  1.00  0.00     0.023 C 
BRANCH  34  35
ATOM     35  C   UNL A   1      38.198  21.529  25.225  1.00  0.00     0.023 C 
BRANCH  35  36
ATOM     36  C   UNL A   1      39.224  21.661  26.352  1.00  0.00     0.116 C 
BRANCH  36  37
ATOM     37  N   UNL A   1      40.564  21.933  25.874  1.00  0.00    -0.352 N 
ATOM     38  C   UNL A   1      41.480  22.922  26.091  1.00  0.00     0.251 C 
ATOM     39  H   UNL A   1      40.889  21.247  25.247  1.00  0.00     0.163 HD
ATOM     40  O   UNL A   1      42.592  22.754  25.585  1.00  0.00    -0.269 OA
BRANCH  38  41
ATOM     41  C   UNL A   1      41.215  24.186  26.828  1.00  0.00     0.039 A 
ATOM     42  C   UNL A   1      40.284  25.156  26.462  1.00  0.00     0.014 A 
ATOM     43  C   UNL A   1      42.045  24.435  27.939  1.00  0.00     0.014 A 
ATOM     44  C   UNL A   1      40.252  26.380  27.114  1.00  0.00     0.010 A 
ATOM     45  C   UNL A   1      42.008  25.651  28.606  1.00  0.00     0.010 A 
ATOM     46  C   UNL A   1      41.146  26.641  28.152  1.00  0.00    -0.014 A 
BRANCH  46  47
ATOM     47  C   UNL A   1      41.088  27.964  28.756  1.00  0.00     0.031 A 
ATOM     48  C   UNL A   1      42.195  28.883  28.370  1.00  0.00     0.074 A 
ATOM     49  C   UNL A   1      40.081  28.361  29.556  1.00  0.00     0.049 A 
ATOM     50  N   UNL A   1      43.097  29.411  29.132  1.00  0.00    -0.248 NA
ATOM     51  C   UNL A   1      42.387  29.157  26.938  1.00  0.00     0.031 C 
ATOM     52  C   UNL A   1      38.805  27.696  29.821  1.00  0.00     0.029 A 
ATOM     53  N   UNL A   1      39.964  29.530  30.244  1.00  0.00    -0.354 N 
ATOM     54  C   UNL A   1      43.873  30.224  28.307  1.00  0.00     0.074 A 
ATOM     55  C   UNL A   1      43.473  29.929  26.955  1.00  0.00     0.031 C 
ATOM     56  C   UNL A   1      37.960  28.575  30.406  1.00  0.00     0.029 A 
ATOM     57  C   UNL A   1      38.677  29.811  30.673  1.00  0.00     0.049 A 
ATOM     58  H   UNL A   1      40.728  30.124  30.421  1.00  0.00     0.167 HD
ATOM     59  C   UNL A   1      44.652  31.222  28.809  1.00  0.00     0.037 A 
ATOM     60  C   UNL A   1      38.228  31.005  31.135  1.00  0.00     0.037 A 
ATOM     61  C   UNL A   1      44.925  31.027  30.209  1.00  0.00     0.049 A 
ATOM     62  C   UNL A   1      39.411  31.797  31.563  1.00  0.00     0.074 A 
ATOM     63  C   UNL A   1      45.539  30.033  30.949  1.00  0.00     0.029 A 
ATOM     64  N   UNL A   1      44.238  31.788  31.123  1.00  0.00    -0.354 N 
ATOM     65  N   UNL A   1      40.142  31.505  32.604  1.00  0.00    -0.248 NA
ATOM     66  C   UNL A   1      40.057  32.637  30.564  1.00  0.00     0.031 C 
ATOM     67  C   UNL A   1      44.770  29.942  32.146  1.00  0.00     0.029 A 
ATOM     68  C   UNL A   1      43.781  30.923  32.082  1.00  0.00     0.049 A 
ATOM     69  H   UNL A   1      44.101  32.763  31.093  1.00  0.00     0.167 HD
ATOM     70  C   UNL A   1      41.447  31.746  32.199  1.00  0.00     0.074 A 
ATOM     71  C   UNL A   1      41.327  32.516  30.961  1.00  0.00     0.031 C 
ATOM     72  C   UNL A   1      42.502  31.063  32.736  1.00  0.00     0.037 A 
BRANCH  59  73
ATOM     73  C   UNL A   1      44.866  32.551  28.129  1.00  0.00     0.057 A 
ATOM     74  C   UNL A   1      45.951  32.829  27.273  1.00  0.00     0.134 A 
ATOM     75  C   UNL A   1      43.805  33.473  28.066  1.00  0.00     0.134 A 
ATOM     76  F   UNL A   1      47.008  32.015  27.168  1.00  0.00    -0.206 F 
ATOM     77  C   UNL A   1      45.961  33.912  26.391  1.00  0.00     0.040 A 
ATOM     78  C   UNL A   1      43.784  34.533  27.150  1.00  0.00     0.040 A 
ATOM     79  F   UNL A   1      42.712  33.319  28.828  1.00  0.00    -0.206 F 
ATOM     80  C   UNL A   1      44.860  34.746  26.299  1.00  0.00     0.006 A 
ENDBRANCH  59  73
BRANCH  60  81
ATOM     81  C   UNL A   1      36.893  31.607  30.919  1.00  0.00     0.057 A 
ATOM     82  C   UNL A   1      36.499  32.093  29.658  1.00  0.00     0.134 A 
ATOM     83  C   UNL A   1      36.061  31.952  31.993  1.00  0.00     0.134 A 
ATOM     84  F   UNL A   1      37.264  31.909  28.572  1.00  0.00    -0.206 F 
ATOM     85  C   UNL A   1      35.349  32.867  29.474  1.00  0.00     0.040 A 
ATOM     86  C   UNL A   1      34.910  32.736  31.824  1.00  0.00     0.040 A 
ATOM     87  F   UNL A   1      36.376  31.583  33.244  1.00  0.00    -0.206 F 
ATOM     88  C   UNL A   1      34.555  33.201  30.561  1.00  0.00     0.006 A 
ENDBRANCH  60  81
BRANCH  72  89
ATOM     89  C   UNL A   1      42.251  30.186  33.930  1.00  0.00     0.057 A 
ATOM     90  C   UNL A   1      42.605  30.655  35.200  1.00  0.00     0.134 A 
ATOM     91  C   UNL A   1      41.827  28.851  33.846  1.00  0.00     0.134 A 
ATOM     92  F   UNL A   1      43.081  31.901  35.354  1.00  0.00    -0.206 F 
ATOM     93  C   UNL A   1      42.529  29.844  36.335  1.00  0.00     0.040 A 
ATOM     94  C   UNL A   1      41.712  28.039  34.978  1.00  0.00     0.040 A 
ATOM     95  F   UNL A   1      41.577  28.275  32.663  1.00  0.00    -0.206 F 
ATOM     96  C   UNL A   1      42.069  28.534  36.228  1.00  0.00     0.006 A 
ENDBRANCH  72  89
ENDBRANCH  46  47
ENDBRANCH  38  41
ENDBRANCH  36  37
ENDBRANCH  35  36
ENDBRANCH  34  35
ENDBRANCH   1  34
TORSDOF 16
ENDMDL
