MODEL 1
REMARK VINA RESULT:      -9.6      0.000      0.000
REMARK SMILES C[C@@H](C(=O)NCCCNC(=O)c1ccc(-c2c3nc(c(-c4c(F)cccc4F)c4ccc([nH]4)c(-c4c(F)cccc4F)c4nc(c(-c5c(F)cccc5F)c5ccc2[nH]5)C=C4)C=C3)cc1)c1ccc(Cc2ccco2)cc1F
REMARK SMILES IDX 6 1 5 2 3 3 4 4 2 6 1 7 66 8 67 9 77 10 68 11 76 12 78 13
REMARK SMILES IDX 69 14 70 15 71 16 72 17 75 18 73 19 74 20 7 21 8 22 9 23
REMARK SMILES IDX 10 24 11 26 12 27 13 28 65 29 14 30 64 31 15 32 16 33 17 34
REMARK SMILES IDX 58 35 18 36 63 37 57 38 59 39 19 40 62 41 56 42 55 43 20 45
REMARK SMILES IDX 46 46 29 47 45 48 30 49 33 50 44 51 60 52 31 53 32 54 43 56
REMARK SMILES IDX 61 57 34 58 21 59 22 60 27 61 23 62 24 63 26 64 28 65 25 66
REMARK SMILES IDX 47 67 48 68 53 69 49 70 50 71 52 72 54 73 51 74 35 75 36 76
REMARK SMILES IDX 41 77 37 78 38 79 40 80 42 81 39 82
REMARK H PARENT 5 5 9 25 59 44 33 55
REMARK Flexibility Score: inf
ROOT
ATOM      1  C   UNL A   1      45.184  22.407  24.007  1.00  0.00     0.117 C 
ENDROOT
BRANCH   1   2
ATOM      2  N   UNL A   1      45.855  22.715  25.258  1.00  0.00    -0.356 N 
ATOM      3  C   UNL A   1      46.581  23.810  25.633  1.00  0.00     0.227 C 
ATOM      4  O   UNL A   1      47.235  23.698  26.672  1.00  0.00    -0.274 OA
ATOM      5  H   UNL A   1      45.773  22.019  25.949  1.00  0.00     0.163 HD
BRANCH   3   6
ATOM      6  C   UNL A   1      46.531  25.104  24.794  1.00  0.00     0.108 C 
ATOM      7  C   UNL A   1      47.964  25.490  24.414  1.00  0.00     0.023 C 
BRANCH   6   8
ATOM      8  C   UNL A   1      45.733  26.231  25.465  1.00  0.00    -0.000 A 
ATOM      9  C   UNL A   1      46.389  27.168  26.282  1.00  0.00     0.008 A 
ATOM     10  C   UNL A   1      44.341  26.369  25.350  1.00  0.00     0.127 A 
ATOM     11  C   UNL A   1      45.700  28.231  26.878  1.00  0.00     0.005 A 
ATOM     12  C   UNL A   1      43.641  27.408  25.969  1.00  0.00     0.043 A 
ATOM     13  F   UNL A   1      43.615  25.502  24.633  1.00  0.00    -0.207 F 
ATOM     14  C   UNL A   1      44.315  28.362  26.735  1.00  0.00    -0.038 A 
BRANCH  14  15
ATOM     15  C   UNL A   1      43.563  29.523  27.347  1.00  0.00     0.111 C 
BRANCH  15  16
ATOM     16  C   UNL A   1      44.202  30.852  27.131  1.00  0.00     0.108 A 
ATOM     17  C   UNL A   1      45.174  31.568  27.801  1.00  0.00     0.046 A 
ATOM     18  O   UNL A   1      43.814  31.539  26.015  1.00  0.00    -0.469 OA
ATOM     19  C   UNL A   1      45.379  32.759  27.065  1.00  0.00     0.042 A 
ATOM     20  C   UNL A   1      44.533  32.690  25.986  1.00  0.00     0.195 A 
ENDBRANCH  15  16
ENDBRANCH  14  15
ENDBRANCH   6   8
ENDBRANCH   3   6
ENDBRANCH   1   2
BRANCH   1  21
ATOM     21  C   UNL A   1      45.006  20.897  23.828  1.00  0.00     0.042 C 
BRANCH  21  22
ATOM     22  C   UNL A   1      44.715  20.139  25.120  1.00  0.00     0.118 C 
BRANCH  22  23
ATOM     23  N   UNL A   1      43.394  19.530  25.128  1.00  0.00    -0.352 N 
ATOM     24  C   UNL A   1      42.250  19.914  25.783  1.00  0.00     0.251 C 
ATOM     25  H   UNL A   1      43.307  18.717  24.580  1.00  0.00     0.163 HD
ATOM     26  O   UNL A   1      41.285  19.154  25.818  1.00  0.00    -0.269 OA
BRANCH  24  27
ATOM     27  C   UNL A   1      42.179  21.219  26.477  1.00  0.00     0.039 A 
ATOM     28  C   UNL A   1      42.097  21.235  27.872  1.00  0.00     0.014 A 
ATOM     29  C   UNL A   1      42.186  22.423  25.765  1.00  0.00     0.014 A 
ATOM     30  C   UNL A   1      42.119  22.452  28.557  1.00  0.00     0.010 A 
ATOM     31  C   UNL A   1      42.275  23.633  26.451  1.00  0.00     0.010 A 
ATOM     32  C   UNL A   1      42.265  23.660  27.853  1.00  0.00    -0.014 A 
BRANCH  32  33
ATOM     33  C   UNL A   1      42.483  24.946  28.567  1.00  0.00     0.031 A 
ATOM     34  C   UNL A   1      41.379  25.958  28.685  1.00  0.00     0.074 A 
ATOM     35  C   UNL A   1      43.718  25.236  29.028  1.00  0.00     0.049 A 
ATOM     36  N   UNL A   1      41.423  27.171  29.175  1.00  0.00    -0.248 NA
ATOM     37  C   UNL A   1      40.058  25.567  28.171  1.00  0.00     0.031 C 
ATOM     38  C   UNL A   1      44.884  24.354  28.936  1.00  0.00     0.029 A 
ATOM     39  N   UNL A   1      44.206  26.363  29.644  1.00  0.00    -0.354 N 
ATOM     40  C   UNL A   1      40.147  27.694  29.013  1.00  0.00     0.074 A 
ATOM     41  C   UNL A   1      39.355  26.678  28.353  1.00  0.00     0.031 C 
ATOM     42  C   UNL A   1      45.947  24.970  29.476  1.00  0.00     0.029 A 
ATOM     43  C   UNL A   1      45.555  26.307  29.908  1.00  0.00     0.049 A 
ATOM     44  H   UNL A   1      43.644  27.137  29.875  1.00  0.00     0.167 HD
ATOM     45  C   UNL A   1      39.679  28.907  29.389  1.00  0.00     0.037 A 
ATOM     46  C   UNL A   1      46.390  27.237  30.411  1.00  0.00     0.037 A 
ATOM     47  C   UNL A   1      40.463  29.904  30.072  1.00  0.00     0.049 A 
ATOM     48  C   UNL A   1      45.843  28.587  30.788  1.00  0.00     0.074 A 
ATOM     49  C   UNL A   1      40.046  31.123  30.580  1.00  0.00     0.029 A 
ATOM     50  N   UNL A   1      41.821  29.806  30.327  1.00  0.00    -0.354 N 
ATOM     51  N   UNL A   1      44.610  29.026  30.723  1.00  0.00    -0.248 NA
ATOM     52  C   UNL A   1      46.804  29.573  31.304  1.00  0.00     0.031 C 
ATOM     53  C   UNL A   1      41.165  31.792  31.084  1.00  0.00     0.029 A 
ATOM     54  C   UNL A   1      42.267  30.966  30.940  1.00  0.00     0.049 A 
ATOM     55  H   UNL A   1      42.384  29.030  30.105  1.00  0.00     0.167 HD
ATOM     56  C   UNL A   1      44.645  30.328  31.206  1.00  0.00     0.074 A 
ATOM     57  C   UNL A   1      46.014  30.599  31.585  1.00  0.00     0.031 C 
ATOM     58  C   UNL A   1      43.633  31.222  31.317  1.00  0.00     0.037 A 
BRANCH  45  59
ATOM     59  C   UNL A   1      38.251  29.247  29.078  1.00  0.00     0.057 A 
ATOM     60  C   UNL A   1      37.255  29.229  30.061  1.00  0.00     0.134 A 
ATOM     61  C   UNL A   1      37.893  29.705  27.803  1.00  0.00     0.134 A 
ATOM     62  F   UNL A   1      37.530  28.797  31.302  1.00  0.00    -0.206 F 
ATOM     63  C   UNL A   1      35.951  29.648  29.786  1.00  0.00     0.040 A 
ATOM     64  C   UNL A   1      36.600  30.149  27.522  1.00  0.00     0.040 A 
ATOM     65  F   UNL A   1      38.803  29.756  26.818  1.00  0.00    -0.206 F 
ATOM     66  C   UNL A   1      35.625  30.122  28.517  1.00  0.00     0.006 A 
ENDBRANCH  45  59
BRANCH  46  67
ATOM     67  C   UNL A   1      47.841  26.949  30.558  1.00  0.00     0.057 A 
ATOM     68  C   UNL A   1      48.772  27.415  29.622  1.00  0.00     0.134 A 
ATOM     69  C   UNL A   1      48.326  26.158  31.607  1.00  0.00     0.134 A 
ATOM     70  F   UNL A   1      48.368  28.160  28.582  1.00  0.00    -0.206 F 
ATOM     71  C   UNL A   1      50.123  27.077  29.702  1.00  0.00     0.040 A 
ATOM     72  C   UNL A   1      49.680  25.838  31.718  1.00  0.00     0.040 A 
ATOM     73  F   UNL A   1      47.489  25.684  32.542  1.00  0.00    -0.206 F 
ATOM     74  C   UNL A   1      50.581  26.286  30.755  1.00  0.00     0.006 A 
ENDBRANCH  46  67
BRANCH  58  75
ATOM     75  C   UNL A   1      43.963  32.571  31.885  1.00  0.00     0.057 A 
ATOM     76  C   UNL A   1      44.195  32.755  33.254  1.00  0.00     0.134 A 
ATOM     77  C   UNL A   1      44.102  33.687  31.050  1.00  0.00     0.134 A 
ATOM     78  F   UNL A   1      44.062  31.731  34.110  1.00  0.00    -0.206 F 
ATOM     79  C   UNL A   1      44.537  34.004  33.774  1.00  0.00     0.040 A 
ATOM     80  C   UNL A   1      44.472  34.934  31.553  1.00  0.00     0.040 A 
ATOM     81  F   UNL A   1      43.901  33.577  29.727  1.00  0.00    -0.206 F 
ATOM     82  C   UNL A   1      44.686  35.096  32.920  1.00  0.00     0.006 A 
ENDBRANCH  58  75
ENDBRANCH  32  33
ENDBRANCH  24  27
ENDBRANCH  22  23
ENDBRANCH  21  22
ENDBRANCH   1  21
TORSDOF 13
ENDMDL
MODEL 2
REMARK VINA RESULT:      -9.3      0.917      6.357
REMARK SMILES C[C@@H](C(=O)NCCCNC(=O)c1ccc(-c2c3nc(c(-c4c(F)cccc4F)c4ccc([nH]4)c(-c4c(F)cccc4F)c4nc(c(-c5c(F)cccc5F)c5ccc2[nH]5)C=C4)C=C3)cc1)c1ccc(Cc2ccco2)cc1F
REMARK SMILES IDX 6 1 5 2 3 3 4 4 2 6 1 7 66 8 67 9 77 10 68 11 76 12 78 13
REMARK SMILES IDX 69 14 70 15 71 16 72 17 75 18 73 19 74 20 7 21 8 22 9 23
REMARK SMILES IDX 10 24 11 26 12 27 13 28 65 29 14 30 64 31 15 32 16 33 17 34
REMARK SMILES IDX 58 35 18 36 63 37 57 38 59 39 19 40 62 41 56 42 55 43 20 45
REMARK SMILES IDX 46 46 29 47 45 48 30 49 33 50 44 51 60 52 31 53 32 54 43 56
REMARK SMILES IDX 61 57 34 58 21 59 22 60 27 61 23 62 24 63 26 64 28 65 25 66
REMARK SMILES IDX 47 67 48 68 53 69 49 70 50 71 52 72 54 73 51 74 35 75 36 76
REMARK SMILES IDX 41 77 37 78 38 79 40 80 42 81 39 82
REMARK H PARENT 5 5 9 25 59 44 33 55
REMARK Flexibility Score: inf
ROOT
ATOM      1  C   UNL A   1      45.364  22.213  24.051  1.00  0.00     0.117 C 
ENDROOT
BRANCH   1   2
ATOM      2  N   UNL A   1      45.911  22.582  25.345  1.00  0.00    -0.356 N 
ATOM      3  C   UNL A   1      46.516  23.735  25.760  1.00  0.00     0.227 C 
ATOM      4  O   UNL A   1      47.096  23.684  26.847  1.00  0.00    -0.274 OA
ATOM      5  H   UNL A   1      45.834  21.886  26.037  1.00  0.00     0.163 HD
BRANCH   3   6
ATOM      6  C   UNL A   1      46.425  25.016  24.903  1.00  0.00     0.108 C 
ATOM      7  C   UNL A   1      47.844  25.435  24.509  1.00  0.00     0.023 C 
BRANCH   6   8
ATOM      8  C   UNL A   1      45.600  26.129  25.564  1.00  0.00    -0.000 A 
ATOM      9  C   UNL A   1      44.293  26.394  25.119  1.00  0.00     0.008 A 
ATOM     10  C   UNL A   1      46.092  26.954  26.586  1.00  0.00     0.127 A 
ATOM     11  C   UNL A   1      43.498  27.376  25.725  1.00  0.00     0.005 A 
ATOM     12  C   UNL A   1      45.316  27.958  27.173  1.00  0.00     0.043 A 
ATOM     13  F   UNL A   1      47.341  26.816  27.050  1.00  0.00    -0.207 F 
ATOM     14  C   UNL A   1      44.001  28.175  26.757  1.00  0.00    -0.038 A 
BRANCH  14  15
ATOM     15  C   UNL A   1      43.143  29.217  27.440  1.00  0.00     0.111 C 
BRANCH  15  16
ATOM     16  C   UNL A   1      43.740  30.582  27.470  1.00  0.00     0.108 A 
ATOM     17  C   UNL A   1      44.133  31.434  28.483  1.00  0.00     0.046 A 
ATOM     18  O   UNL A   1      44.025  31.147  26.259  1.00  0.00    -0.469 OA
ATOM     19  C   UNL A   1      44.672  32.583  27.859  1.00  0.00     0.042 A 
ATOM     20  C   UNL A   1      44.589  32.356  26.507  1.00  0.00     0.195 A 
ENDBRANCH  15  16
ENDBRANCH  14  15
ENDBRANCH   6   8
ENDBRANCH   3   6
ENDBRANCH   1   2
BRANCH   1  21
ATOM     21  C   UNL A   1      45.133  20.702  23.956  1.00  0.00     0.042 C 
BRANCH  21  22
ATOM     22  C   UNL A   1      44.746  20.039  25.274  1.00  0.00     0.118 C 
BRANCH  22  23
ATOM     23  N   UNL A   1      43.414  19.453  25.238  1.00  0.00    -0.352 N 
ATOM     24  C   UNL A   1      42.245  19.887  25.811  1.00  0.00     0.251 C 
ATOM     25  H   UNL A   1      43.341  18.617  24.722  1.00  0.00     0.163 HD
ATOM     26  O   UNL A   1      41.264  19.145  25.827  1.00  0.00    -0.269 OA
BRANCH  24  27
ATOM     27  C   UNL A   1      42.162  21.223  26.440  1.00  0.00     0.039 A 
ATOM     28  C   UNL A   1      41.931  21.305  27.816  1.00  0.00     0.014 A 
ATOM     29  C   UNL A   1      42.304  22.392  25.687  1.00  0.00     0.014 A 
ATOM     30  C   UNL A   1      41.937  22.550  28.450  1.00  0.00     0.010 A 
ATOM     31  C   UNL A   1      42.377  23.628  26.329  1.00  0.00     0.010 A 
ATOM     32  C   UNL A   1      42.216  23.718  27.720  1.00  0.00    -0.014 A 
BRANCH  32  33
ATOM     33  C   UNL A   1      42.418  25.023  28.401  1.00  0.00     0.031 A 
ATOM     34  C   UNL A   1      43.689  25.312  29.151  1.00  0.00     0.074 A 
ATOM     35  C   UNL A   1      41.405  25.915  28.420  1.00  0.00     0.049 A 
ATOM     36  N   UNL A   1      43.990  26.348  29.892  1.00  0.00    -0.248 NA
ATOM     37  C   UNL A   1      44.753  24.299  29.075  1.00  0.00     0.031 C 
ATOM     38  C   UNL A   1      40.107  25.733  27.766  1.00  0.00     0.029 A 
ATOM     39  N   UNL A   1      41.298  27.140  29.030  1.00  0.00    -0.354 N 
ATOM     40  C   UNL A   1      45.266  26.106  30.384  1.00  0.00     0.074 A 
ATOM     41  C   UNL A   1      45.673  24.811  29.881  1.00  0.00     0.031 C 
ATOM     42  C   UNL A   1      39.338  26.806  28.008  1.00  0.00     0.029 A 
ATOM     43  C   UNL A   1      40.064  27.729  28.872  1.00  0.00     0.049 A 
ATOM     44  H   UNL A   1      42.033  27.559  29.533  1.00  0.00     0.167 HD
ATOM     45  C   UNL A   1      46.028  26.898  31.174  1.00  0.00     0.037 A 
ATOM     46  C   UNL A   1      39.562  28.866  29.390  1.00  0.00     0.037 A 
ATOM     47  C   UNL A   1      45.630  28.198  31.647  1.00  0.00     0.049 A 
ATOM     48  C   UNL A   1      40.426  29.706  30.292  1.00  0.00     0.074 A 
ATOM     49  C   UNL A   1      46.376  29.113  32.370  1.00  0.00     0.029 A 
ATOM     50  N   UNL A   1      44.378  28.760  31.459  1.00  0.00    -0.354 N 
ATOM     51  N   UNL A   1      41.667  29.511  30.662  1.00  0.00    -0.248 NA
ATOM     52  C   UNL A   1      39.817  30.922  30.853  1.00  0.00     0.031 C 
ATOM     53  C   UNL A   1      45.554  30.202  32.678  1.00  0.00     0.029 A 
ATOM     54  C   UNL A   1      44.315  29.989  32.098  1.00  0.00     0.049 A 
ATOM     55  H   UNL A   1      43.643  28.349  30.950  1.00  0.00     0.167 HD
ATOM     56  C   UNL A   1      41.993  30.586  31.480  1.00  0.00     0.074 A 
ATOM     57  C   UNL A   1      40.828  31.443  31.531  1.00  0.00     0.031 C 
ATOM     58  C   UNL A   1      43.151  30.835  32.138  1.00  0.00     0.037 A 
BRANCH  45  59
ATOM     59  C   UNL A   1      47.379  26.396  31.593  1.00  0.00     0.057 A 
ATOM     60  C   UNL A   1      47.554  25.615  32.741  1.00  0.00     0.134 A 
ATOM     61  C   UNL A   1      48.497  26.605  30.775  1.00  0.00     0.134 A 
ATOM     62  F   UNL A   1      46.525  25.380  33.569  1.00  0.00    -0.206 F 
ATOM     63  C   UNL A   1      48.797  25.065  33.065  1.00  0.00     0.040 A 
ATOM     64  C   UNL A   1      49.739  26.042  31.076  1.00  0.00     0.040 A 
ATOM     65  F   UNL A   1      48.395  27.337  29.655  1.00  0.00    -0.206 F 
ATOM     66  C   UNL A   1      49.889  25.267  32.224  1.00  0.00     0.006 A 
ENDBRANCH  45  59
BRANCH  46  67
ATOM     67  C   UNL A   1      38.160  29.271  29.107  1.00  0.00     0.057 A 
ATOM     68  C   UNL A   1      37.789  29.776  27.855  1.00  0.00     0.134 A 
ATOM     69  C   UNL A   1      37.168  29.213  30.095  1.00  0.00     0.134 A 
ATOM     70  F   UNL A   1      38.697  29.878  26.872  1.00  0.00    -0.206 F 
ATOM     71  C   UNL A   1      36.497  30.241  27.605  1.00  0.00     0.040 A 
ATOM     72  C   UNL A   1      35.864  29.644  29.850  1.00  0.00     0.040 A 
ATOM     73  F   UNL A   1      37.454  28.733  31.314  1.00  0.00    -0.206 F 
ATOM     74  C   UNL A   1      35.529  30.173  28.606  1.00  0.00     0.006 A 
ENDBRANCH  46  67
BRANCH  58  75
ATOM     75  C   UNL A   1      43.224  32.091  32.956  1.00  0.00     0.057 A 
ATOM     76  C   UNL A   1      43.617  33.312  32.394  1.00  0.00     0.134 A 
ATOM     77  C   UNL A   1      42.847  32.091  34.305  1.00  0.00     0.134 A 
ATOM     78  F   UNL A   1      44.006  33.376  31.111  1.00  0.00    -0.206 F 
ATOM     79  C   UNL A   1      43.649  34.485  33.148  1.00  0.00     0.040 A 
ATOM     80  C   UNL A   1      42.846  33.263  35.062  1.00  0.00     0.040 A 
ATOM     81  F   UNL A   1      42.451  30.956  34.902  1.00  0.00    -0.206 F 
ATOM     82  C   UNL A   1      43.253  34.464  34.485  1.00  0.00     0.006 A 
ENDBRANCH  58  75
ENDBRANCH  32  33
ENDBRANCH  24  27
ENDBRANCH  22  23
ENDBRANCH  21  22
ENDBRANCH   1  21
TORSDOF 13
ENDMDL
MODEL 3
REMARK VINA RESULT:      -9.2      5.000     10.521
REMARK SMILES C[C@@H](C(=O)NCCCNC(=O)c1ccc(-c2c3nc(c(-c4c(F)cccc4F)c4ccc([nH]4)c(-c4c(F)cccc4F)c4nc(c(-c5c(F)cccc5F)c5ccc2[nH]5)C=C4)C=C3)cc1)c1ccc(Cc2ccco2)cc1F
REMARK SMILES IDX 6 1 5 2 3 3 4 4 2 6 1 7 66 8 67 9 77 10 68 11 76 12 78 13
REMARK SMILES IDX 69 14 70 15 71 16 72 17 75 18 73 19 74 20 7 21 8 22 9 23
REMARK SMILES IDX 10 24 11 26 12 27 13 28 65 29 14 30 64 31 15 32 16 33 17 34
REMARK SMILES IDX 58 35 18 36 63 37 57 38 59 39 19 40 62 41 56 42 55 43 20 45
REMARK SMILES IDX 46 46 29 47 45 48 30 49 33 50 44 51 60 52 31 53 32 54 43 56
REMARK SMILES IDX 61 57 34 58 21 59 22 60 27 61 23 62 24 63 26 64 28 65 25 66
REMARK SMILES IDX 47 67 48 68 53 69 49 70 50 71 52 72 54 73 51 74 35 75 36 76
REMARK SMILES IDX 41 77 37 78 38 79 40 80 42 81 39 82
REMARK H PARENT 5 5 9 25 59 44 33 55
REMARK Flexibility Score: inf
ROOT
ATOM      1  C   UNL A   1      33.787  27.113  25.446  1.00  0.00     0.117 C 
ENDROOT
BRANCH   1   2
ATOM      2  N   UNL A   1      34.038  26.989  24.021  1.00  0.00    -0.356 N 
ATOM      3  C   UNL A   1      33.432  26.211  23.075  1.00  0.00     0.227 C 
ATOM      4  O   UNL A   1      34.007  26.133  21.987  1.00  0.00    -0.274 OA
ATOM      5  H   UNL A   1      34.764  27.560  23.681  1.00  0.00     0.163 HD
BRANCH   3   6
ATOM      6  C   UNL A   1      32.090  25.515  23.380  1.00  0.00     0.108 C 
ATOM      7  C   UNL A   1      31.980  24.267  22.497  1.00  0.00     0.023 C 
BRANCH   6   8
ATOM      8  C   UNL A   1      30.883  26.459  23.287  1.00  0.00    -0.000 A 
ATOM      9  C   UNL A   1      30.968  27.637  22.523  1.00  0.00     0.008 A 
ATOM     10  C   UNL A   1      29.676  26.242  23.968  1.00  0.00     0.127 A 
ATOM     11  C   UNL A   1      29.875  28.501  22.384  1.00  0.00     0.005 A 
ATOM     12  C   UNL A   1      28.592  27.117  23.861  1.00  0.00     0.043 A 
ATOM     13  F   UNL A   1      29.507  25.175  24.760  1.00  0.00    -0.207 F 
ATOM     14  C   UNL A   1      28.673  28.256  23.056  1.00  0.00    -0.038 A 
BRANCH  14  15
ATOM     15  C   UNL A   1      27.475  29.164  22.889  1.00  0.00     0.111 C 
BRANCH  15  16
ATOM     16  C   UNL A   1      27.817  30.596  22.659  1.00  0.00     0.108 A 
ATOM     17  C   UNL A   1      28.194  31.636  23.487  1.00  0.00     0.046 A 
ATOM     18  O   UNL A   1      27.818  31.020  21.361  1.00  0.00    -0.469 OA
ATOM     19  C   UNL A   1      28.423  32.755  22.652  1.00  0.00     0.042 A 
ATOM     20  C   UNL A   1      28.187  32.326  21.368  1.00  0.00     0.195 A 
ENDBRANCH  15  16
ENDBRANCH  14  15
ENDBRANCH   6   8
ENDBRANCH   3   6
ENDBRANCH   1   2
BRANCH   1  21
ATOM     21  C   UNL A   1      33.667  28.581  25.865  1.00  0.00     0.042 C 
BRANCH  21  22
ATOM     22  C   UNL A   1      33.556  28.801  27.370  1.00  0.00     0.118 C 
BRANCH  22  23
ATOM     23  N   UNL A   1      33.681  30.202  27.744  1.00  0.00    -0.352 N 
ATOM     24  C   UNL A   1      34.719  30.863  28.350  1.00  0.00     0.251 C 
ATOM     25  H   UNL A   1      32.899  30.761  27.528  1.00  0.00     0.163 HD
ATOM     26  O   UNL A   1      34.552  32.011  28.759  1.00  0.00    -0.269 OA
BRANCH  24  27
ATOM     27  C   UNL A   1      36.027  30.199  28.546  1.00  0.00     0.039 A 
ATOM     28  C   UNL A   1      36.934  30.174  27.482  1.00  0.00     0.014 A 
ATOM     29  C   UNL A   1      36.361  29.597  29.762  1.00  0.00     0.014 A 
ATOM     30  C   UNL A   1      38.208  29.633  27.668  1.00  0.00     0.010 A 
ATOM     31  C   UNL A   1      37.655  29.118  29.966  1.00  0.00     0.010 A 
ATOM     32  C   UNL A   1      38.598  29.151  28.929  1.00  0.00    -0.014 A 
BRANCH  32  33
ATOM     33  C   UNL A   1      40.004  28.750  29.199  1.00  0.00     0.031 A 
ATOM     34  C   UNL A   1      40.982  29.725  29.793  1.00  0.00     0.074 A 
ATOM     35  C   UNL A   1      40.420  27.525  28.816  1.00  0.00     0.049 A 
ATOM     36  N   UNL A   1      42.267  29.582  29.995  1.00  0.00    -0.248 NA
ATOM     37  C   UNL A   1      40.454  31.036  30.198  1.00  0.00     0.031 C 
ATOM     38  C   UNL A   1      39.577  26.503  28.188  1.00  0.00     0.029 A 
ATOM     39  N   UNL A   1      41.661  26.938  28.874  1.00  0.00    -0.354 N 
ATOM     40  C   UNL A   1      42.705  30.786  30.531  1.00  0.00     0.074 A 
ATOM     41  C   UNL A   1      41.554  31.661  30.598  1.00  0.00     0.031 C 
ATOM     42  C   UNL A   1      40.322  25.419  27.923  1.00  0.00     0.029 A 
ATOM     43  C   UNL A   1      41.703  25.681  28.313  1.00  0.00     0.049 A 
ATOM     44  H   UNL A   1      42.445  27.373  29.278  1.00  0.00     0.167 HD
ATOM     45  C   UNL A   1      43.951  31.124  30.937  1.00  0.00     0.037 A 
ATOM     46  C   UNL A   1      42.740  24.848  28.106  1.00  0.00     0.037 A 
ATOM     47  C   UNL A   1      45.087  30.240  30.894  1.00  0.00     0.049 A 
ATOM     48  C   UNL A   1      44.118  25.269  28.540  1.00  0.00     0.074 A 
ATOM     49  C   UNL A   1      46.366  30.463  31.376  1.00  0.00     0.029 A 
ATOM     50  N   UNL A   1      45.087  28.976  30.328  1.00  0.00    -0.354 N 
ATOM     51  N   UNL A   1      44.494  26.372  29.140  1.00  0.00    -0.248 NA
ATOM     52  C   UNL A   1      45.218  24.333  28.263  1.00  0.00     0.031 C 
ATOM     53  C   UNL A   1      47.158  29.361  31.042  1.00  0.00     0.029 A 
ATOM     54  C   UNL A   1      46.358  28.429  30.402  1.00  0.00     0.049 A 
ATOM     55  H   UNL A   1      44.302  28.534  29.931  1.00  0.00     0.167 HD
ATOM     56  C   UNL A   1      45.865  26.253  29.329  1.00  0.00     0.074 A 
ATOM     57  C   UNL A   1      46.251  24.961  28.805  1.00  0.00     0.031 C 
ATOM     58  C   UNL A   1      46.729  27.139  29.880  1.00  0.00     0.037 A 
BRANCH  45  59
ATOM     59  C   UNL A   1      44.175  32.511  31.466  1.00  0.00     0.057 A 
ATOM     60  C   UNL A   1      44.085  32.805  32.831  1.00  0.00     0.134 A 
ATOM     61  C   UNL A   1      44.595  33.536  30.609  1.00  0.00     0.134 A 
ATOM     62  F   UNL A   1      43.685  31.868  33.705  1.00  0.00    -0.206 F 
ATOM     63  C   UNL A   1      44.399  34.073  33.325  1.00  0.00     0.040 A 
ATOM     64  C   UNL A   1      44.934  34.801  31.093  1.00  0.00     0.040 A 
ATOM     65  F   UNL A   1      44.711  33.317  29.290  1.00  0.00    -0.206 F 
ATOM     66  C   UNL A   1      44.837  35.071  32.457  1.00  0.00     0.006 A 
ENDBRANCH  45  59
BRANCH  46  67
ATOM     67  C   UNL A   1      42.536  23.543  27.425  1.00  0.00     0.057 A 
ATOM     68  C   UNL A   1      42.277  22.376  28.153  1.00  0.00     0.134 A 
ATOM     69  C   UNL A   1      42.647  23.420  26.033  1.00  0.00     0.134 A 
ATOM     70  F   UNL A   1      42.181  22.423  29.490  1.00  0.00    -0.206 F 
ATOM     71  C   UNL A   1      42.171  21.131  27.531  1.00  0.00     0.040 A 
ATOM     72  C   UNL A   1      42.511  22.187  25.394  1.00  0.00     0.040 A 
ATOM     73  F   UNL A   1      42.887  24.499  25.274  1.00  0.00    -0.206 F 
ATOM     74  C   UNL A   1      42.287  21.035  26.145  1.00  0.00     0.006 A 
ENDBRANCH  46  67
BRANCH  58  75
ATOM     75  C   UNL A   1      48.172  26.738  29.961  1.00  0.00     0.057 A 
ATOM     76  C   UNL A   1      48.659  25.950  31.011  1.00  0.00     0.134 A 
ATOM     77  C   UNL A   1      49.074  27.099  28.951  1.00  0.00     0.134 A 
ATOM     78  F   UNL A   1      47.851  25.584  32.018  1.00  0.00    -0.206 F 
ATOM     79  C   UNL A   1      49.995  25.549  31.063  1.00  0.00     0.040 A 
ATOM     80  C   UNL A   1      50.404  26.679  28.977  1.00  0.00     0.040 A 
ATOM     81  F   UNL A   1      48.670  27.846  27.912  1.00  0.00    -0.206 F 
ATOM     82  C   UNL A   1      50.869  25.906  30.038  1.00  0.00     0.006 A 
ENDBRANCH  58  75
ENDBRANCH  32  33
ENDBRANCH  24  27
ENDBRANCH  22  23
ENDBRANCH  21  22
ENDBRANCH   1  21
TORSDOF 13
ENDMDL
