MODEL 1
REMARK VINA RESULT:     -12.1      0.000      0.000
REMARK SMILES Cc1nccn1CCC[NH+]1CCC2(CC1)[C@@H](C(=O)NCCCNC(=O)c1ccc(-c3c4nc(c(-c5c(F)cccc5F)c5ccc([nH]5)c(-c5c(F)cccc5F)c5nc(c(-c6c(F)cccc6F)c6ccc3[nH]6)C=C5)C=C4)cc1)CC(=O)N2C
REMARK SMILES IDX 20 1 19 2 17 3 18 4 16 6 10 7 11 8 15 9 12 11 14 12 13 13
REMARK SMILES IDX 83 14 80 15 81 16 84 17 82 18 9 19 8 20 7 21 6 22 1 23 2 24
REMARK SMILES IDX 3 25 4 26 5 27 21 28 22 29 23 30 24 31 25 33 26 34 27 35
REMARK SMILES IDX 79 36 28 37 78 38 29 39 30 40 31 41 72 42 32 43 77 44 71 45
REMARK SMILES IDX 73 46 33 47 76 48 70 49 69 50 34 52 60 53 43 54 59 55 44 56
REMARK SMILES IDX 47 57 58 58 74 59 45 60 46 61 57 63 75 64 48 65 35 66 36 67
REMARK SMILES IDX 41 68 37 69 38 70 40 71 42 72 39 73 61 74 62 75 67 76 63 77
REMARK SMILES IDX 64 78 66 79 68 80 65 81 49 82 50 83 55 84 51 85 52 86 54 87
REMARK SMILES IDX 56 88 53 89
REMARK H PARENT 19 5 10 10 23 32 73 51 47 62
REMARK Flexibility Score: inf
ROOT
ATOM      1  C   UNL A   1      37.789  22.414  25.713  1.00  0.00     0.117 C 
ENDROOT
BRANCH   1   2
ATOM      2  N   UNL A   1      37.500  22.799  24.338  1.00  0.00    -0.356 N 
ATOM      3  C   UNL A   1      36.398  22.807  23.548  1.00  0.00     0.226 C 
ATOM      4  O   UNL A   1      36.657  23.063  22.365  1.00  0.00    -0.275 OA
ATOM      5  H   UNL A   1      38.298  23.135  23.870  1.00  0.00     0.163 HD
BRANCH   3   6
ATOM      6  C   UNL A   1      34.978  22.377  23.977  1.00  0.00     0.114 C 
ATOM      7  N   UNL A   1      32.796  26.089  24.484  1.00  0.00    -0.335 N 
ATOM      8  C   UNL A   1      31.980  24.908  24.313  1.00  0.00     0.264 C 
ATOM      9  C   UNL A   1      33.885  25.961  25.426  1.00  0.00     0.264 C 
ATOM     10  H   UNL A   1      32.187  26.702  25.024  1.00  0.00     0.348 HD
ATOM     11  C   UNL A   1      32.786  23.678  23.920  1.00  0.00     0.091 C 
ATOM     12  C   UNL A   1      34.779  24.748  25.161  1.00  0.00     0.091 C 
ATOM     13  C   UNL A   1      34.064  23.426  24.773  1.00  0.00     0.065 C 
ATOM     14  N   UNL A   1      33.643  22.639  25.960  1.00  0.00    -0.339 N 
ATOM     15  C   UNL A   1      34.897  21.096  24.791  1.00  0.00     0.116 C 
ATOM     16  C   UNL A   1      33.866  21.286  25.836  1.00  0.00     0.223 C 
ATOM     17  C   UNL A   1      32.941  23.126  27.126  1.00  0.00     0.147 C 
ATOM     18  O   UNL A   1      33.426  20.394  26.540  1.00  0.00    -0.275 OA
BRANCH   7  19
ATOM     19  C   UNL A   1      32.869  27.052  23.401  1.00  0.00     0.264 C 
BRANCH  19  20
ATOM     20  C   UNL A   1      33.037  28.557  23.662  1.00  0.00     0.083 C 
BRANCH  20  21
ATOM     21  C   UNL A   1      32.371  29.227  24.864  1.00  0.00     0.129 C 
BRANCH  21  22
ATOM     22  N   UNL A   1      33.141  29.818  25.939  1.00  0.00    -0.335 N 
ATOM     23  C   UNL A   1      31.423  31.608  26.495  1.00  0.00     0.087 C 
ATOM     24  C   UNL A   1      32.687  30.861  26.734  1.00  0.00     0.105 A 
ATOM     25  N   UNL A   1      33.506  31.072  27.744  1.00  0.00    -0.242 NA
ATOM     26  C   UNL A   1      34.519  30.171  27.594  1.00  0.00     0.131 A 
ATOM     27  C   UNL A   1      34.326  29.402  26.472  1.00  0.00     0.107 A 
ENDBRANCH  21  22
ENDBRANCH  20  21
ENDBRANCH  19  20
ENDBRANCH   7  19
ENDBRANCH   3   6
ENDBRANCH   1   2
BRANCH   1  28
ATOM     28  C   UNL A   1      38.876  21.352  25.827  1.00  0.00     0.042 C 
BRANCH  28  29
ATOM     29  C   UNL A   1      40.032  21.773  26.709  1.00  0.00     0.118 C 
BRANCH  29  30
ATOM     30  N   UNL A   1      41.266  22.021  25.967  1.00  0.00    -0.352 N 
ATOM     31  C   UNL A   1      41.948  23.220  25.850  1.00  0.00     0.251 C 
ATOM     32  H   UNL A   1      41.656  21.249  25.496  1.00  0.00     0.163 HD
ATOM     33  O   UNL A   1      42.828  23.386  25.031  1.00  0.00    -0.269 OA
BRANCH  31  34
ATOM     34  C   UNL A   1      41.528  24.311  26.748  1.00  0.00     0.039 A 
ATOM     35  C   UNL A   1      42.148  24.476  27.985  1.00  0.00     0.014 A 
ATOM     36  C   UNL A   1      40.651  25.264  26.241  1.00  0.00     0.014 A 
ATOM     37  C   UNL A   1      41.966  25.677  28.668  1.00  0.00     0.010 A 
ATOM     38  C   UNL A   1      40.590  26.498  26.850  1.00  0.00     0.010 A 
ATOM     39  C   UNL A   1      41.220  26.709  28.078  1.00  0.00    -0.014 A 
BRANCH  39  40
ATOM     40  C   UNL A   1      41.180  28.034  28.705  1.00  0.00     0.031 A 
ATOM     41  C   UNL A   1      42.273  28.996  28.351  1.00  0.00     0.074 A 
ATOM     42  C   UNL A   1      40.124  28.496  29.408  1.00  0.00     0.049 A 
ATOM     43  N   UNL A   1      43.139  29.545  29.141  1.00  0.00    -0.248 NA
ATOM     44  C   UNL A   1      42.441  29.369  26.938  1.00  0.00     0.031 C 
ATOM     45  C   UNL A   1      38.813  27.875  29.629  1.00  0.00     0.029 A 
ATOM     46  N   UNL A   1      39.982  29.714  29.999  1.00  0.00    -0.354 N 
ATOM     47  C   UNL A   1      43.867  30.452  28.368  1.00  0.00     0.074 A 
ATOM     48  C   UNL A   1      43.463  30.226  27.001  1.00  0.00     0.031 C 
ATOM     49  C   UNL A   1      37.946  28.803  30.089  1.00  0.00     0.029 A 
ATOM     50  C   UNL A   1      38.685  30.017  30.376  1.00  0.00     0.049 A 
ATOM     51  H   UNL A   1      40.739  30.327  30.146  1.00  0.00     0.167 HD
ATOM     52  C   UNL A   1      44.631  31.437  28.923  1.00  0.00     0.037 A 
ATOM     53  C   UNL A   1      38.239  31.187  30.882  1.00  0.00     0.037 A 
ATOM     54  C   UNL A   1      44.897  31.184  30.314  1.00  0.00     0.049 A 
ATOM     55  C   UNL A   1      39.409  31.906  31.439  1.00  0.00     0.074 A 
ATOM     56  C   UNL A   1      45.500  30.162  31.022  1.00  0.00     0.029 A 
ATOM     57  N   UNL A   1      44.222  31.921  31.257  1.00  0.00    -0.354 N 
ATOM     58  N   UNL A   1      40.068  31.520  32.495  1.00  0.00    -0.248 NA
ATOM     59  C   UNL A   1      40.106  32.847  30.576  1.00  0.00     0.031 C 
ATOM     60  C   UNL A   1      44.722  30.036  32.213  1.00  0.00     0.029 A 
ATOM     61  C   UNL A   1      43.733  31.018  32.164  1.00  0.00     0.049 A 
ATOM     62  H   UNL A   1      44.112  32.900  31.275  1.00  0.00     0.167 HD
ATOM     63  C   UNL A   1      41.392  31.827  32.218  1.00  0.00     0.074 A 
ATOM     64  C   UNL A   1      41.338  32.738  31.077  1.00  0.00     0.031 C 
ATOM     65  C   UNL A   1      42.419  31.105  32.756  1.00  0.00     0.037 A 
BRANCH  52  66
ATOM     66  C   UNL A   1      44.901  32.784  28.299  1.00  0.00     0.057 A 
ATOM     67  C   UNL A   1      43.854  33.717  28.162  1.00  0.00     0.134 A 
ATOM     68  C   UNL A   1      46.070  33.090  27.575  1.00  0.00     0.134 A 
ATOM     69  F   UNL A   1      42.679  33.530  28.781  1.00  0.00    -0.206 F 
ATOM     70  C   UNL A   1      43.944  34.834  27.320  1.00  0.00     0.040 A 
ATOM     71  C   UNL A   1      46.188  34.230  26.772  1.00  0.00     0.040 A 
ATOM     72  F   UNL A   1      47.114  32.254  27.529  1.00  0.00    -0.206 F 
ATOM     73  C   UNL A   1      45.114  35.091  26.617  1.00  0.00     0.006 A 
ENDBRANCH  52  66
BRANCH  53  74
ATOM     74  C   UNL A   1      36.910  31.809  30.726  1.00  0.00     0.057 A 
ATOM     75  C   UNL A   1      35.997  31.839  31.786  1.00  0.00     0.134 A 
ATOM     76  C   UNL A   1      36.603  32.617  29.616  1.00  0.00     0.134 A 
ATOM     77  F   UNL A   1      36.221  31.126  32.899  1.00  0.00    -0.206 F 
ATOM     78  C   UNL A   1      34.855  32.649  31.759  1.00  0.00     0.040 A 
ATOM     79  C   UNL A   1      35.462  33.424  29.573  1.00  0.00     0.040 A 
ATOM     80  F   UNL A   1      37.443  32.716  28.575  1.00  0.00    -0.206 F 
ATOM     81  C   UNL A   1      34.592  33.455  30.655  1.00  0.00     0.006 A 
ENDBRANCH  53  74
BRANCH  65  82
ATOM     82  C   UNL A   1      42.102  30.119  33.846  1.00  0.00     0.057 A 
ATOM     83  C   UNL A   1      41.730  28.787  33.608  1.00  0.00     0.134 A 
ATOM     84  C   UNL A   1      42.336  30.479  35.177  1.00  0.00     0.134 A 
ATOM     85  F   UNL A   1      41.590  28.317  32.364  1.00  0.00    -0.206 F 
ATOM     86  C   UNL A   1      41.554  27.871  34.650  1.00  0.00     0.040 A 
ATOM     87  C   UNL A   1      42.195  29.565  36.225  1.00  0.00     0.040 A 
ATOM     88  F   UNL A   1      42.757  31.718  35.479  1.00  0.00    -0.206 F 
ATOM     89  C   UNL A   1      41.792  28.258  35.964  1.00  0.00     0.006 A 
ENDBRANCH  65  82
ENDBRANCH  39  40
ENDBRANCH  31  34
ENDBRANCH  29  30
ENDBRANCH  28  29
ENDBRANCH   1  28
TORSDOF 14
ENDMDL
MODEL 2
REMARK VINA RESULT:     -12.0      3.617      8.546
REMARK SMILES Cc1nccn1CCC[NH+]1CCC2(CC1)[C@@H](C(=O)NCCCNC(=O)c1ccc(-c3c4nc(c(-c5c(F)cccc5F)c5ccc([nH]5)c(-c5c(F)cccc5F)c5nc(c(-c6c(F)cccc6F)c6ccc3[nH]6)C=C5)C=C4)cc1)CC(=O)N2C
REMARK SMILES IDX 20 1 19 2 17 3 18 4 16 6 10 7 11 8 15 9 12 11 14 12 13 13
REMARK SMILES IDX 83 14 80 15 81 16 84 17 82 18 9 19 8 20 7 21 6 22 1 23 2 24
REMARK SMILES IDX 3 25 4 26 5 27 21 28 22 29 23 30 24 31 25 33 26 34 27 35
REMARK SMILES IDX 79 36 28 37 78 38 29 39 30 40 31 41 72 42 32 43 77 44 71 45
REMARK SMILES IDX 73 46 33 47 76 48 70 49 69 50 34 52 60 53 43 54 59 55 44 56
REMARK SMILES IDX 47 57 58 58 74 59 45 60 46 61 57 63 75 64 48 65 35 66 36 67
REMARK SMILES IDX 41 68 37 69 38 70 40 71 42 72 39 73 61 74 62 75 67 76 63 77
REMARK SMILES IDX 64 78 66 79 68 80 65 81 49 82 50 83 55 84 51 85 52 86 54 87
REMARK SMILES IDX 56 88 53 89
REMARK H PARENT 19 5 10 10 23 32 73 51 47 62
REMARK Flexibility Score: inf
ROOT
ATOM      1  C   UNL A   1      33.299  28.550  25.629  1.00  0.00     0.117 C 
ENDROOT
BRANCH   1   2
ATOM      2  N   UNL A   1      32.644  27.524  26.430  1.00  0.00    -0.356 N 
ATOM      3  C   UNL A   1      31.702  26.575  26.201  1.00  0.00     0.226 C 
ATOM      4  O   UNL A   1      31.314  26.024  27.240  1.00  0.00    -0.275 OA
ATOM      5  H   UNL A   1      32.962  27.518  27.361  1.00  0.00     0.163 HD
BRANCH   3   6
ATOM      6  C   UNL A   1      31.017  26.292  24.846  1.00  0.00     0.114 C 
ATOM      7  N   UNL A   1      32.809  22.601  23.445  1.00  0.00    -0.335 N 
ATOM      8  C   UNL A   1      31.545  22.948  22.836  1.00  0.00     0.264 C 
ATOM      9  C   UNL A   1      33.771  23.676  23.537  1.00  0.00     0.264 C 
ATOM     10  H   UNL A   1      33.259  22.043  22.720  1.00  0.00     0.348 HD
ATOM     11  C   UNL A   1      30.857  24.123  23.515  1.00  0.00     0.091 C 
ATOM     12  C   UNL A   1      33.210  24.940  24.192  1.00  0.00     0.091 C 
ATOM     13  C   UNL A   1      31.770  25.355  23.786  1.00  0.00     0.065 C 
ATOM     14  N   UNL A   1      31.745  26.188  22.557  1.00  0.00    -0.339 N 
ATOM     15  C   UNL A   1      30.598  27.518  24.052  1.00  0.00     0.116 C 
ATOM     16  C   UNL A   1      30.867  27.247  22.622  1.00  0.00     0.223 C 
ATOM     17  C   UNL A   1      32.435  25.931  21.312  1.00  0.00     0.147 C 
ATOM     18  O   UNL A   1      30.480  27.949  21.704  1.00  0.00    -0.275 OA
BRANCH   7  19
ATOM     19  C   UNL A   1      32.855  21.491  24.379  1.00  0.00     0.264 C 
BRANCH  19  20
ATOM     20  C   UNL A   1      32.804  20.029  23.909  1.00  0.00     0.083 C 
BRANCH  20  21
ATOM     21  C   UNL A   1      33.713  18.970  24.534  1.00  0.00     0.129 C 
BRANCH  21  22
ATOM     22  N   UNL A   1      33.252  17.623  24.800  1.00  0.00    -0.335 N 
ATOM     23  C   UNL A   1      34.405  16.582  22.787  1.00  0.00     0.087 C 
ATOM     24  C   UNL A   1      33.620  16.516  24.048  1.00  0.00     0.105 A 
ATOM     25  N   UNL A   1      33.209  15.403  24.621  1.00  0.00    -0.242 NA
ATOM     26  C   UNL A   1      32.547  15.788  25.750  1.00  0.00     0.131 A 
ATOM     27  C   UNL A   1      32.541  17.157  25.867  1.00  0.00     0.107 A 
ENDBRANCH  21  22
ENDBRANCH  20  21
ENDBRANCH  19  20
ENDBRANCH   7  19
ENDBRANCH   3   6
ENDBRANCH   1   2
BRANCH   1  28
ATOM     28  C   UNL A   1      33.883  29.684  26.462  1.00  0.00     0.042 C 
BRANCH  28  29
ATOM     29  C   UNL A   1      35.004  29.237  27.377  1.00  0.00     0.118 C 
BRANCH  29  30
ATOM     30  N   UNL A   1      35.206  30.124  28.521  1.00  0.00    -0.352 N 
ATOM     31  C   UNL A   1      36.298  30.159  29.371  1.00  0.00     0.251 C 
ATOM     32  H   UNL A   1      34.485  30.767  28.708  1.00  0.00     0.163 HD
ATOM     33  O   UNL A   1      36.277  30.763  30.424  1.00  0.00    -0.269 OA
BRANCH  31  34
ATOM     34  C   UNL A   1      37.486  29.393  28.956  1.00  0.00     0.039 A 
ATOM     35  C   UNL A   1      38.187  29.756  27.807  1.00  0.00     0.014 A 
ATOM     36  C   UNL A   1      37.984  28.442  29.841  1.00  0.00     0.014 A 
ATOM     37  C   UNL A   1      39.463  29.233  27.610  1.00  0.00     0.010 A 
ATOM     38  C   UNL A   1      39.296  28.041  29.715  1.00  0.00     0.010 A 
ATOM     39  C   UNL A   1      40.037  28.406  28.589  1.00  0.00    -0.014 A 
BRANCH  39  40
ATOM     40  C   UNL A   1      41.443  28.006  28.476  1.00  0.00     0.031 A 
ATOM     41  C   UNL A   1      41.740  26.742  27.728  1.00  0.00     0.074 A 
ATOM     42  C   UNL A   1      42.476  28.802  28.823  1.00  0.00     0.049 A 
ATOM     43  N   UNL A   1      42.316  25.669  28.170  1.00  0.00    -0.248 NA
ATOM     44  C   UNL A   1      41.317  26.649  26.322  1.00  0.00     0.031 C 
ATOM     45  C   UNL A   1      42.462  30.197  29.279  1.00  0.00     0.029 A 
ATOM     46  N   UNL A   1      43.807  28.532  28.728  1.00  0.00    -0.354 N 
ATOM     47  C   UNL A   1      42.474  24.819  27.074  1.00  0.00     0.074 A 
ATOM     48  C   UNL A   1      41.750  25.431  25.986  1.00  0.00     0.031 C 
ATOM     49  C   UNL A   1      43.706  30.713  29.190  1.00  0.00     0.029 A 
ATOM     50  C   UNL A   1      44.625  29.641  28.862  1.00  0.00     0.049 A 
ATOM     51  H   UNL A   1      44.159  27.624  28.576  1.00  0.00     0.167 HD
ATOM     52  C   UNL A   1      43.326  23.754  27.093  1.00  0.00     0.037 A 
ATOM     53  C   UNL A   1      45.966  29.685  28.707  1.00  0.00     0.037 A 
ATOM     54  C   UNL A   1      43.709  23.401  28.435  1.00  0.00     0.049 A 
ATOM     55  C   UNL A   1      46.479  28.304  28.873  1.00  0.00     0.074 A 
ATOM     56  C   UNL A   1      43.027  23.021  29.576  1.00  0.00     0.029 A 
ATOM     57  N   UNL A   1      44.971  23.730  28.866  1.00  0.00    -0.354 N 
ATOM     58  N   UNL A   1      46.473  27.654  30.002  1.00  0.00    -0.248 NA
ATOM     59  C   UNL A   1      46.631  27.486  27.681  1.00  0.00     0.031 C 
ATOM     60  C   UNL A   1      43.729  23.655  30.646  1.00  0.00     0.029 A 
ATOM     61  C   UNL A   1      44.809  24.335  30.085  1.00  0.00     0.049 A 
ATOM     62  H   UNL A   1      45.819  23.565  28.393  1.00  0.00     0.167 HD
ATOM     63  C   UNL A   1      46.199  26.340  29.653  1.00  0.00     0.074 A 
ATOM     64  C   UNL A   1      46.416  26.279  28.210  1.00  0.00     0.031 C 
ATOM     65  C   UNL A   1      45.557  25.493  30.512  1.00  0.00     0.037 A 
BRANCH  52  66
ATOM     66  C   UNL A   1      44.055  23.201  25.893  1.00  0.00     0.057 A 
ATOM     67  C   UNL A   1      44.007  21.821  25.616  1.00  0.00     0.134 A 
ATOM     68  C   UNL A   1      45.028  23.920  25.170  1.00  0.00     0.134 A 
ATOM     69  F   UNL A   1      43.141  21.020  26.255  1.00  0.00    -0.206 F 
ATOM     70  C   UNL A   1      44.899  21.196  24.733  1.00  0.00     0.040 A 
ATOM     71  C   UNL A   1      45.889  23.315  24.249  1.00  0.00     0.040 A 
ATOM     72  F   UNL A   1      45.259  25.220  25.392  1.00  0.00    -0.206 F 
ATOM     73  C   UNL A   1      45.849  21.944  24.049  1.00  0.00     0.006 A 
ENDBRANCH  52  66
BRANCH  53  74
ATOM     74  C   UNL A   1      46.798  30.801  28.220  1.00  0.00     0.057 A 
ATOM     75  C   UNL A   1      46.679  31.273  26.907  1.00  0.00     0.134 A 
ATOM     76  C   UNL A   1      47.544  31.603  29.104  1.00  0.00     0.134 A 
ATOM     77  F   UNL A   1      45.960  30.594  26.002  1.00  0.00    -0.206 F 
ATOM     78  C   UNL A   1      47.244  32.488  26.501  1.00  0.00     0.040 A 
ATOM     79  C   UNL A   1      48.121  32.813  28.709  1.00  0.00     0.040 A 
ATOM     80  F   UNL A   1      47.664  31.279  30.400  1.00  0.00    -0.206 F 
ATOM     81  C   UNL A   1      47.957  33.268  27.407  1.00  0.00     0.006 A 
ENDBRANCH  53  74
BRANCH  65  82
ATOM     82  C   UNL A   1      45.363  25.936  31.936  1.00  0.00     0.057 A 
ATOM     83  C   UNL A   1      44.220  26.608  32.396  1.00  0.00     0.134 A 
ATOM     84  C   UNL A   1      46.286  25.528  32.906  1.00  0.00     0.134 A 
ATOM     85  F   UNL A   1      43.229  26.942  31.561  1.00  0.00    -0.206 F 
ATOM     86  C   UNL A   1      44.028  26.901  33.749  1.00  0.00     0.040 A 
ATOM     87  C   UNL A   1      46.091  25.786  34.265  1.00  0.00     0.040 A 
ATOM     88  F   UNL A   1      47.373  24.824  32.551  1.00  0.00    -0.206 F 
ATOM     89  C   UNL A   1      44.963  26.484  34.690  1.00  0.00     0.006 A 
ENDBRANCH  65  82
ENDBRANCH  39  40
ENDBRANCH  31  34
ENDBRANCH  29  30
ENDBRANCH  28  29
ENDBRANCH   1  28
TORSDOF 14
ENDMDL
MODEL 3
REMARK VINA RESULT:     -12.0      3.282      8.014
REMARK SMILES Cc1nccn1CCC[NH+]1CCC2(CC1)[C@@H](C(=O)NCCCNC(=O)c1ccc(-c3c4nc(c(-c5c(F)cccc5F)c5ccc([nH]5)c(-c5c(F)cccc5F)c5nc(c(-c6c(F)cccc6F)c6ccc3[nH]6)C=C5)C=C4)cc1)CC(=O)N2C
REMARK SMILES IDX 20 1 19 2 17 3 18 4 16 6 10 7 11 8 15 9 12 11 14 12 13 13
REMARK SMILES IDX 83 14 80 15 81 16 84 17 82 18 9 19 8 20 7 21 6 22 1 23 2 24
REMARK SMILES IDX 3 25 4 26 5 27 21 28 22 29 23 30 24 31 25 33 26 34 27 35
REMARK SMILES IDX 79 36 28 37 78 38 29 39 30 40 31 41 72 42 32 43 77 44 71 45
REMARK SMILES IDX 73 46 33 47 76 48 70 49 69 50 34 52 60 53 43 54 59 55 44 56
REMARK SMILES IDX 47 57 58 58 74 59 45 60 46 61 57 63 75 64 48 65 35 66 36 67
REMARK SMILES IDX 41 68 37 69 38 70 40 71 42 72 39 73 61 74 62 75 67 76 63 77
REMARK SMILES IDX 64 78 66 79 68 80 65 81 49 82 50 83 55 84 51 85 52 86 54 87
REMARK SMILES IDX 56 88 53 89
REMARK H PARENT 19 5 10 10 23 32 73 51 47 62
REMARK Flexibility Score: inf
ROOT
ATOM      1  C   UNL A   1      32.292  29.005  27.097  1.00  0.00     0.117 C 
ENDROOT
BRANCH   1   2
ATOM      2  N   UNL A   1      31.730  27.663  27.180  1.00  0.00    -0.356 N 
ATOM      3  C   UNL A   1      31.204  26.780  26.295  1.00  0.00     0.226 C 
ATOM      4  O   UNL A   1      30.682  25.802  26.847  1.00  0.00    -0.275 OA
ATOM      5  H   UNL A   1      31.735  27.313  28.100  1.00  0.00     0.163 HD
BRANCH   3   6
ATOM      6  C   UNL A   1      31.076  26.997  24.772  1.00  0.00     0.114 C 
ATOM      7  N   UNL A   1      33.631  23.976  23.000  1.00  0.00    -0.335 N 
ATOM      8  C   UNL A   1      32.634  24.541  22.118  1.00  0.00     0.264 C 
ATOM      9  C   UNL A   1      34.378  24.932  23.787  1.00  0.00     0.264 C 
ATOM     10  H   UNL A   1      34.365  23.693  22.351  1.00  0.00     0.348 HD
ATOM     11  C   UNL A   1      31.629  25.425  22.843  1.00  0.00     0.091 C 
ATOM     12  C   UNL A   1      33.489  25.904  24.565  1.00  0.00     0.091 C 
ATOM     13  C   UNL A   1      32.250  26.467  23.819  1.00  0.00     0.065 C 
ATOM     14  N   UNL A   1      32.571  27.673  23.014  1.00  0.00    -0.339 N 
ATOM     15  C   UNL A   1      30.834  28.431  24.330  1.00  0.00     0.116 C 
ATOM     16  C   UNL A   1      31.618  28.664  23.096  1.00  0.00     0.223 C 
ATOM     17  C   UNL A   1      33.678  27.845  22.101  1.00  0.00     0.147 C 
ATOM     18  O   UNL A   1      31.507  29.648  22.386  1.00  0.00    -0.275 OA
BRANCH   7  19
ATOM     19  C   UNL A   1      33.464  22.612  23.465  1.00  0.00     0.264 C 
BRANCH  19  20
ATOM     20  C   UNL A   1      34.159  22.094  24.733  1.00  0.00     0.083 C 
BRANCH  20  21
ATOM     21  C   UNL A   1      35.529  21.420  24.661  1.00  0.00     0.129 C 
BRANCH  21  22
ATOM     22  N   UNL A   1      36.693  21.973  25.321  1.00  0.00    -0.335 N 
ATOM     23  C   UNL A   1      38.138  19.904  25.013  1.00  0.00     0.087 C 
ATOM     24  C   UNL A   1      37.910  21.314  25.425  1.00  0.00     0.105 A 
ATOM     25  N   UNL A   1      38.839  22.117  25.904  1.00  0.00    -0.242 NA
ATOM     26  C   UNL A   1      38.216  23.309  26.135  1.00  0.00     0.131 A 
ATOM     27  C   UNL A   1      36.885  23.235  25.805  1.00  0.00     0.107 A 
ENDBRANCH  21  22
ENDBRANCH  20  21
ENDBRANCH  19  20
ENDBRANCH   7  19
ENDBRANCH   3   6
ENDBRANCH   1   2
BRANCH   1  28
ATOM     28  C   UNL A   1      33.646  29.051  26.401  1.00  0.00     0.042 C 
BRANCH  28  29
ATOM     29  C   UNL A   1      34.808  28.814  27.342  1.00  0.00     0.118 C 
BRANCH  29  30
ATOM     30  N   UNL A   1      35.013  29.903  28.295  1.00  0.00    -0.352 N 
ATOM     31  C   UNL A   1      36.147  30.154  29.050  1.00  0.00     0.251 C 
ATOM     32  H   UNL A   1      34.261  30.527  28.414  1.00  0.00     0.163 HD
ATOM     33  O   UNL A   1      36.144  30.936  29.978  1.00  0.00    -0.269 OA
BRANCH  31  34
ATOM     34  C   UNL A   1      37.359  29.394  28.698  1.00  0.00     0.039 A 
ATOM     35  C   UNL A   1      38.085  29.726  27.555  1.00  0.00     0.014 A 
ATOM     36  C   UNL A   1      37.848  28.487  29.632  1.00  0.00     0.014 A 
ATOM     37  C   UNL A   1      39.375  29.219  27.414  1.00  0.00     0.010 A 
ATOM     38  C   UNL A   1      39.170  28.107  29.557  1.00  0.00     0.010 A 
ATOM     39  C   UNL A   1      39.937  28.442  28.439  1.00  0.00    -0.014 A 
BRANCH  39  40
ATOM     40  C   UNL A   1      41.352  28.064  28.380  1.00  0.00     0.031 A 
ATOM     41  C   UNL A   1      41.697  26.804  27.646  1.00  0.00     0.074 A 
ATOM     42  C   UNL A   1      42.358  28.876  28.765  1.00  0.00     0.049 A 
ATOM     43  N   UNL A   1      42.272  25.741  28.112  1.00  0.00    -0.248 NA
ATOM     44  C   UNL A   1      41.330  26.703  26.226  1.00  0.00     0.031 C 
ATOM     45  C   UNL A   1      42.305  30.271  29.218  1.00  0.00     0.029 A 
ATOM     46  N   UNL A   1      43.696  28.627  28.721  1.00  0.00    -0.354 N 
ATOM     47  C   UNL A   1      42.485  24.892  27.024  1.00  0.00     0.074 A 
ATOM     48  C   UNL A   1      41.794  25.491  25.908  1.00  0.00     0.031 C 
ATOM     49  C   UNL A   1      43.543  30.807  29.176  1.00  0.00     0.029 A 
ATOM     50  C   UNL A   1      44.490  29.749  28.884  1.00  0.00     0.049 A 
ATOM     51  H   UNL A   1      44.068  27.725  28.585  1.00  0.00     0.167 HD
ATOM     52  C   UNL A   1      43.353  23.841  27.077  1.00  0.00     0.037 A 
ATOM     53  C   UNL A   1      45.836  29.814  28.781  1.00  0.00     0.037 A 
ATOM     54  C   UNL A   1      43.690  23.496  28.433  1.00  0.00     0.049 A 
ATOM     55  C   UNL A   1      46.363  28.442  28.968  1.00  0.00     0.074 A 
ATOM     56  C   UNL A   1      42.971  23.106  29.548  1.00  0.00     0.029 A 
ATOM     57  N   UNL A   1      44.929  23.844  28.911  1.00  0.00    -0.354 N 
ATOM     58  N   UNL A   1      46.325  27.793  30.098  1.00  0.00    -0.248 NA
ATOM     59  C   UNL A   1      46.573  27.625  27.784  1.00  0.00     0.031 C 
ATOM     60  C   UNL A   1      43.621  23.752  30.643  1.00  0.00     0.029 A 
ATOM     61  C   UNL A   1      44.712  24.448  30.122  1.00  0.00     0.049 A 
ATOM     62  H   UNL A   1      45.797  23.692  28.471  1.00  0.00     0.167 HD
ATOM     63  C   UNL A   1      46.085  26.475  29.741  1.00  0.00     0.074 A 
ATOM     64  C   UNL A   1      46.358  26.416  28.307  1.00  0.00     0.031 C 
ATOM     65  C   UNL A   1      45.424  25.619  30.576  1.00  0.00     0.037 A 
BRANCH  52  66
ATOM     66  C   UNL A   1      44.136  23.299  25.906  1.00  0.00     0.057 A 
ATOM     67  C   UNL A   1      44.151  21.913  25.653  1.00  0.00     0.134 A 
ATOM     68  C   UNL A   1      45.097  24.045  25.196  1.00  0.00     0.134 A 
ATOM     69  F   UNL A   1      43.302  21.087  26.284  1.00  0.00    -0.206 F 
ATOM     70  C   UNL A   1      45.091  21.311  24.806  1.00  0.00     0.040 A 
ATOM     71  C   UNL A   1      46.007  23.460  24.309  1.00  0.00     0.040 A 
ATOM     72  F   UNL A   1      45.269  25.357  25.401  1.00  0.00    -0.206 F 
ATOM     73  C   UNL A   1      46.028  22.086  24.133  1.00  0.00     0.006 A 
ENDBRANCH  52  66
BRANCH  53  74
ATOM     74  C   UNL A   1      46.668  30.943  28.324  1.00  0.00     0.057 A 
ATOM     75  C   UNL A   1      46.545  31.454  27.026  1.00  0.00     0.134 A 
ATOM     76  C   UNL A   1      47.419  31.716  29.228  1.00  0.00     0.134 A 
ATOM     77  F   UNL A   1      45.821  30.804  26.104  1.00  0.00    -0.206 F 
ATOM     78  C   UNL A   1      47.111  32.680  26.655  1.00  0.00     0.040 A 
ATOM     79  C   UNL A   1      47.997  32.937  28.868  1.00  0.00     0.040 A 
ATOM     80  F   UNL A   1      47.543  31.355  30.514  1.00  0.00    -0.206 F 
ATOM     81  C   UNL A   1      47.829  33.431  27.581  1.00  0.00     0.006 A 
ENDBRANCH  53  74
BRANCH  65  82
ATOM     82  C   UNL A   1      45.169  26.060  31.991  1.00  0.00     0.057 A 
ATOM     83  C   UNL A   1      44.022  26.759  32.395  1.00  0.00     0.134 A 
ATOM     84  C   UNL A   1      46.030  25.623  33.004  1.00  0.00     0.134 A 
ATOM     85  F   UNL A   1      43.084  27.123  31.513  1.00  0.00    -0.206 F 
ATOM     86  C   UNL A   1      43.769  27.051  33.739  1.00  0.00     0.040 A 
ATOM     87  C   UNL A   1      45.773  25.880  34.353  1.00  0.00     0.040 A 
ATOM     88  F   UNL A   1      47.116  24.893  32.701  1.00  0.00    -0.206 F 
ATOM     89  C   UNL A   1      44.644  26.605  34.724  1.00  0.00     0.006 A 
ENDBRANCH  65  82
ENDBRANCH  39  40
ENDBRANCH  31  34
ENDBRANCH  29  30
ENDBRANCH  28  29
ENDBRANCH   1  28
TORSDOF 14
ENDMDL
