MODEL 1
REMARK VINA RESULT:     -12.1      0.000      0.000
REMARK SMILES O=C(COc1cc(-c2ccccc2)nc(Nc2ccccc2Br)n1)NCCCNC(=O)c1ccc(-c2c3nc(c(-c4c(F)cccc4F)c4ccc([nH]4)c(-c4c(F)cccc4F)c4nc(c(-c5c(F)cccc5F)c5ccc2[nH]5)C=C4)C=C3)cc1
REMARK SMILES IDX 26 1 25 2 1 3 2 4 3 6 4 7 5 8 6 9 24 10 7 11 15 12 14 13
REMARK SMILES IDX 8 14 9 15 13 16 10 17 12 18 11 19 16 20 17 22 18 23 22 24
REMARK SMILES IDX 19 25 21 26 23 27 20 28 27 29 28 30 29 31 30 32 31 34 32 35
REMARK SMILES IDX 33 36 85 37 34 38 84 39 35 40 36 41 37 42 78 43 38 44 83 45
REMARK SMILES IDX 77 46 79 47 39 48 82 49 76 50 75 51 40 53 66 54 49 55 65 56
REMARK SMILES IDX 50 57 53 58 64 59 80 60 51 61 52 62 63 64 81 65 54 66 41 67
REMARK SMILES IDX 42 68 47 69 43 70 44 71 46 72 48 73 45 74 67 75 68 76 73 77
REMARK SMILES IDX 69 78 70 79 72 80 74 81 71 82 55 83 56 84 61 85 57 86 58 87
REMARK SMILES IDX 60 88 62 89 59 90
REMARK H PARENT 25 5 16 21 29 33 79 52 53 63
REMARK Flexibility Score: inf
ROOT
ATOM      1  C   UNL A   1      32.586  26.708  25.594  1.00  0.00     0.117 C 
ENDROOT
BRANCH   1   2
ATOM      2  N   UNL A   1      32.365  25.348  26.039  1.00  0.00    -0.353 N 
ATOM      3  O   UNL A   1      30.121  25.578  26.485  1.00  0.00    -0.271 OA
ATOM      4  C   UNL A   1      31.100  24.859  26.311  1.00  0.00     0.258 C 
ATOM      5  H   UNL A   1      33.140  24.751  26.153  1.00  0.00     0.163 HD
BRANCH   4   6
ATOM      6  C   UNL A   1      31.018  23.329  26.317  1.00  0.00     0.331 C 
BRANCH   6   7
ATOM      7  O   UNL A   1      31.178  22.746  25.023  1.00  0.00    -0.467 OA
BRANCH   7   8
ATOM      8  C   UNL A   1      32.282  21.931  24.937  1.00  0.00     0.219 A 
ATOM      9  C   UNL A   1      32.167  20.567  24.977  1.00  0.00     0.097 A 
ATOM     10  N   UNL A   1      33.429  22.552  24.657  1.00  0.00    -0.177 NA
ATOM     11  C   UNL A   1      33.308  19.845  24.725  1.00  0.00     0.080 A 
ATOM     12  C   UNL A   1      34.510  21.782  24.457  1.00  0.00     0.231 A 
ATOM     13  N   UNL A   1      34.489  20.438  24.470  1.00  0.00    -0.212 NA
BRANCH  11  14
ATOM     14  C   UNL A   1      33.261  18.377  24.721  1.00  0.00     0.000 A 
ATOM     15  C   UNL A   1      33.993  17.631  23.786  1.00  0.00     0.010 A 
ATOM     16  C   UNL A   1      32.547  17.677  25.715  1.00  0.00     0.010 A 
ATOM     17  C   UNL A   1      34.039  16.235  23.864  1.00  0.00     0.001 A 
ATOM     18  C   UNL A   1      32.590  16.285  25.790  1.00  0.00     0.001 A 
ATOM     19  C   UNL A   1      33.344  15.565  24.869  1.00  0.00     0.000 A 
ENDBRANCH  11  14
BRANCH  12  20
ATOM     20  N   UNL A   1      35.734  22.361  24.138  1.00  0.00    -0.323 N 
ATOM     21  H   UNL A   1      35.829  22.647  23.200  1.00  0.00     0.170 HD
BRANCH  20  22
ATOM     22  C   UNL A   1      36.851  22.598  24.946  1.00  0.00     0.055 A 
ATOM     23  C   UNL A   1      37.043  23.904  25.431  1.00  0.00     0.027 A 
ATOM     24  C   UNL A   1      37.770  21.608  25.344  1.00  0.00     0.041 A 
ATOM     25  C   UNL A   1      38.099  24.213  26.292  1.00  0.00     0.002 A 
ATOM     26  C   UNL A   1      38.831  21.921  26.203  1.00  0.00     0.018 A 
ATOM     27  Br  UNL A   1      37.736  19.836  24.646  1.00  0.00    -0.049 Br
ATOM     28  C   UNL A   1      38.992  23.220  26.681  1.00  0.00     0.001 A 
ENDBRANCH  20  22
ENDBRANCH  12  20
ENDBRANCH   7   8
ENDBRANCH   6   7
ENDBRANCH   4   6
ENDBRANCH   1   2
BRANCH   1  29
ATOM     29  C   UNL A   1      33.349  27.560  26.589  1.00  0.00     0.042 C 
BRANCH  29  30
ATOM     30  C   UNL A   1      34.113  28.723  25.967  1.00  0.00     0.118 C 
BRANCH  30  31
ATOM     31  N   UNL A   1      33.783  30.016  26.552  1.00  0.00    -0.352 N 
ATOM     32  C   UNL A   1      34.433  30.746  27.512  1.00  0.00     0.251 C 
ATOM     33  H   UNL A   1      32.962  30.431  26.200  1.00  0.00     0.163 HD
ATOM     34  O   UNL A   1      33.909  31.778  27.937  1.00  0.00    -0.269 OA
BRANCH  32  35
ATOM     35  C   UNL A   1      35.734  30.308  28.068  1.00  0.00     0.039 A 
ATOM     36  C   UNL A   1      35.749  29.687  29.320  1.00  0.00     0.014 A 
ATOM     37  C   UNL A   1      36.937  30.528  27.391  1.00  0.00     0.014 A 
ATOM     38  C   UNL A   1      36.954  29.243  29.867  1.00  0.00     0.010 A 
ATOM     39  C   UNL A   1      38.129  30.013  27.900  1.00  0.00     0.010 A 
ATOM     40  C   UNL A   1      38.152  29.377  29.148  1.00  0.00    -0.014 A 
BRANCH  40  41
ATOM     41  C   UNL A   1      39.436  28.878  29.705  1.00  0.00     0.031 A 
ATOM     42  C   UNL A   1      40.024  29.504  30.941  1.00  0.00     0.074 A 
ATOM     43  C   UNL A   1      40.096  27.886  29.077  1.00  0.00     0.049 A 
ATOM     44  N   UNL A   1      41.139  29.217  31.564  1.00  0.00    -0.248 NA
ATOM     45  C   UNL A   1      39.273  30.618  31.541  1.00  0.00     0.031 C 
ATOM     46  C   UNL A   1      39.666  27.232  27.840  1.00  0.00     0.029 A 
ATOM     47  N   UNL A   1      41.273  27.256  29.395  1.00  0.00    -0.354 N 
ATOM     48  C   UNL A   1      41.231  30.120  32.615  1.00  0.00     0.074 A 
ATOM     49  C   UNL A   1      40.086  31.000  32.515  1.00  0.00     0.031 C 
ATOM     50  C   UNL A   1      40.550  26.273  27.520  1.00  0.00     0.029 A 
ATOM     51  C   UNL A   1      41.620  26.260  28.513  1.00  0.00     0.049 A 
ATOM     52  H   UNL A   1      41.818  27.493  30.179  1.00  0.00     0.167 HD
ATOM     53  C   UNL A   1      42.167  30.197  33.590  1.00  0.00     0.037 A 
ATOM     54  C   UNL A   1      42.677  25.426  28.511  1.00  0.00     0.037 A 
ATOM     55  C   UNL A   1      43.289  29.304  33.711  1.00  0.00     0.049 A 
ATOM     56  C   UNL A   1      43.683  25.507  29.624  1.00  0.00     0.074 A 
ATOM     57  C   UNL A   1      44.265  29.269  34.692  1.00  0.00     0.029 A 
ATOM     58  N   UNL A   1      43.583  28.283  32.820  1.00  0.00    -0.354 N 
ATOM     59  N   UNL A   1      43.720  26.325  30.648  1.00  0.00    -0.248 NA
ATOM     60  C   UNL A   1      44.785  24.536  29.590  1.00  0.00     0.031 C 
ATOM     61  C   UNL A   1      45.164  28.244  34.380  1.00  0.00     0.029 A 
ATOM     62  C   UNL A   1      44.727  27.615  33.226  1.00  0.00     0.049 A 
ATOM     63  H   UNL A   1      43.056  28.065  32.017  1.00  0.00     0.167 HD
ATOM     64  C   UNL A   1      44.827  25.948  31.396  1.00  0.00     0.074 A 
ATOM     65  C   UNL A   1      45.428  24.820  30.714  1.00  0.00     0.031 C 
ATOM     66  C   UNL A   1      45.305  26.486  32.545  1.00  0.00     0.037 A 
BRANCH  53  67
ATOM     67  C   UNL A   1      42.006  31.283  34.613  1.00  0.00     0.057 A 
ATOM     68  C   UNL A   1      42.626  32.532  34.465  1.00  0.00     0.134 A 
ATOM     69  C   UNL A   1      41.207  31.090  35.746  1.00  0.00     0.134 A 
ATOM     70  F   UNL A   1      43.416  32.777  33.409  1.00  0.00    -0.206 F 
ATOM     71  C   UNL A   1      42.479  33.538  35.421  1.00  0.00     0.040 A 
ATOM     72  C   UNL A   1      41.032  32.098  36.696  1.00  0.00     0.040 A 
ATOM     73  F   UNL A   1      40.581  29.920  35.948  1.00  0.00    -0.206 F 
ATOM     74  C   UNL A   1      41.675  33.324  36.537  1.00  0.00     0.006 A 
ENDBRANCH  53  67
BRANCH  54  75
ATOM     75  C   UNL A   1      42.814  24.406  27.443  1.00  0.00     0.057 A 
ATOM     76  C   UNL A   1      43.336  24.743  26.188  1.00  0.00     0.134 A 
ATOM     77  C   UNL A   1      42.418  23.079  27.643  1.00  0.00     0.134 A 
ATOM     78  F   UNL A   1      43.715  26.004  25.933  1.00  0.00    -0.206 F 
ATOM     79  C   UNL A   1      43.441  23.803  25.163  1.00  0.00     0.040 A 
ATOM     80  C   UNL A   1      42.538  22.122  26.634  1.00  0.00     0.040 A 
ATOM     81  F   UNL A   1      41.917  22.693  28.825  1.00  0.00    -0.206 F 
ATOM     82  C   UNL A   1      43.045  22.486  25.386  1.00  0.00     0.006 A 
ENDBRANCH  54  75
BRANCH  66  83
ATOM     83  C   UNL A   1      46.507  25.831  33.157  1.00  0.00     0.057 A 
ATOM     84  C   UNL A   1      46.392  24.779  34.075  1.00  0.00     0.134 A 
ATOM     85  C   UNL A   1      47.797  26.251  32.811  1.00  0.00     0.134 A 
ATOM     86  F   UNL A   1      45.183  24.340  34.457  1.00  0.00    -0.206 F 
ATOM     87  C   UNL A   1      47.517  24.187  34.649  1.00  0.00     0.040 A 
ATOM     88  C   UNL A   1      48.931  25.650  33.360  1.00  0.00     0.040 A 
ATOM     89  F   UNL A   1      47.977  27.248  31.932  1.00  0.00    -0.206 F 
ATOM     90  C   UNL A   1      48.792  24.620  34.288  1.00  0.00     0.006 A 
ENDBRANCH  66  83
ENDBRANCH  40  41
ENDBRANCH  32  35
ENDBRANCH  30  31
ENDBRANCH  29  30
ENDBRANCH   1  29
TORSDOF 15
ENDMDL
MODEL 2
REMARK VINA RESULT:     -12.0      2.076      3.875
REMARK SMILES O=C(COc1cc(-c2ccccc2)nc(Nc2ccccc2Br)n1)NCCCNC(=O)c1ccc(-c2c3nc(c(-c4c(F)cccc4F)c4ccc([nH]4)c(-c4c(F)cccc4F)c4nc(c(-c5c(F)cccc5F)c5ccc2[nH]5)C=C4)C=C3)cc1
REMARK SMILES IDX 26 1 25 2 1 3 2 4 3 6 4 7 5 8 6 9 24 10 7 11 15 12 14 13
REMARK SMILES IDX 8 14 9 15 13 16 10 17 12 18 11 19 16 20 17 22 18 23 22 24
REMARK SMILES IDX 19 25 21 26 23 27 20 28 27 29 28 30 29 31 30 32 31 34 32 35
REMARK SMILES IDX 33 36 85 37 34 38 84 39 35 40 36 41 37 42 78 43 38 44 83 45
REMARK SMILES IDX 77 46 79 47 39 48 82 49 76 50 75 51 40 53 66 54 49 55 65 56
REMARK SMILES IDX 50 57 53 58 64 59 80 60 51 61 52 62 63 64 81 65 54 66 41 67
REMARK SMILES IDX 42 68 47 69 43 70 44 71 46 72 48 73 45 74 67 75 68 76 73 77
REMARK SMILES IDX 69 78 70 79 72 80 74 81 71 82 55 83 56 84 61 85 57 86 58 87
REMARK SMILES IDX 60 88 62 89 59 90
REMARK H PARENT 25 5 16 21 29 33 79 52 53 63
REMARK Flexibility Score: inf
ROOT
ATOM      1  C   UNL A   1      32.718  28.155  24.862  1.00  0.00     0.117 C 
ENDROOT
BRANCH   1   2
ATOM      2  N   UNL A   1      31.780  27.289  25.544  1.00  0.00    -0.353 N 
ATOM      3  O   UNL A   1      31.362  25.898  23.761  1.00  0.00    -0.271 OA
ATOM      4  C   UNL A   1      31.289  26.133  24.963  1.00  0.00     0.258 C 
ATOM      5  H   UNL A   1      31.480  27.529  26.450  1.00  0.00     0.163 HD
BRANCH   4   6
ATOM      6  C   UNL A   1      30.698  25.140  25.968  1.00  0.00     0.331 C 
BRANCH   6   7
ATOM      7  O   UNL A   1      31.652  24.647  26.910  1.00  0.00    -0.467 OA
BRANCH   7   8
ATOM      8  C   UNL A   1      32.438  23.642  26.399  1.00  0.00     0.219 A 
ATOM      9  C   UNL A   1      33.798  23.776  26.306  1.00  0.00     0.097 A 
ATOM     10  N   UNL A   1      31.807  22.492  26.155  1.00  0.00    -0.177 NA
ATOM     11  C   UNL A   1      34.503  22.659  25.929  1.00  0.00     0.080 A 
ATOM     12  C   UNL A   1      32.557  21.452  25.758  1.00  0.00     0.231 A 
ATOM     13  N   UNL A   1      33.897  21.491  25.646  1.00  0.00    -0.212 NA
BRANCH  11  14
ATOM     14  C   UNL A   1      35.968  22.714  25.834  1.00  0.00     0.000 A 
ATOM     15  C   UNL A   1      36.673  23.873  26.187  1.00  0.00     0.010 A 
ATOM     16  C   UNL A   1      36.709  21.572  25.470  1.00  0.00     0.010 A 
ATOM     17  C   UNL A   1      38.071  23.879  26.210  1.00  0.00     0.001 A 
ATOM     18  C   UNL A   1      38.104  21.579  25.489  1.00  0.00     0.001 A 
ATOM     19  C   UNL A   1      38.784  22.732  25.868  1.00  0.00     0.000 A 
ENDBRANCH  11  14
BRANCH  12  20
ATOM     20  N   UNL A   1      31.968  20.216  25.510  1.00  0.00    -0.323 N 
ATOM     21  H   UNL A   1      31.069  20.097  25.893  1.00  0.00     0.170 HD
BRANCH  20  22
ATOM     22  C   UNL A   1      32.461  19.116  24.800  1.00  0.00     0.055 A 
ATOM     23  C   UNL A   1      32.920  18.012  25.539  1.00  0.00     0.027 A 
ATOM     24  C   UNL A   1      32.487  19.024  23.395  1.00  0.00     0.041 A 
ATOM     25  C   UNL A   1      33.373  16.851  24.907  1.00  0.00     0.002 A 
ATOM     26  C   UNL A   1      32.946  17.861  22.763  1.00  0.00     0.018 A 
ATOM     27  Br  UNL A   1      32.051  20.491  22.260  1.00  0.00    -0.049 Br
ATOM     28  C   UNL A   1      33.383  16.774  23.518  1.00  0.00     0.001 A 
ENDBRANCH  20  22
ENDBRANCH  12  20
ENDBRANCH   7   8
ENDBRANCH   6   7
ENDBRANCH   4   6
ENDBRANCH   1   2
BRANCH   1  29
ATOM     29  C   UNL A   1      33.998  28.399  25.638  1.00  0.00     0.042 C 
BRANCH  29  30
ATOM     30  C   UNL A   1      33.810  28.501  27.146  1.00  0.00     0.118 C 
BRANCH  30  31
ATOM     31  N   UNL A   1      33.720  29.872  27.631  1.00  0.00    -0.352 N 
ATOM     32  C   UNL A   1      34.650  30.649  28.271  1.00  0.00     0.251 C 
ATOM     33  H   UNL A   1      32.852  30.309  27.474  1.00  0.00     0.163 HD
ATOM     34  O   UNL A   1      34.315  31.760  28.691  1.00  0.00    -0.269 OA
BRANCH  32  35
ATOM     35  C   UNL A   1      36.035  30.174  28.490  1.00  0.00     0.039 A 
ATOM     36  C   UNL A   1      36.952  30.285  27.441  1.00  0.00     0.014 A 
ATOM     37  C   UNL A   1      36.433  29.593  29.698  1.00  0.00     0.014 A 
ATOM     38  C   UNL A   1      38.272  29.865  27.618  1.00  0.00     0.010 A 
ATOM     39  C   UNL A   1      37.769  29.249  29.900  1.00  0.00     0.010 A 
ATOM     40  C   UNL A   1      38.699  29.369  28.859  1.00  0.00    -0.014 A 
BRANCH  40  41
ATOM     41  C   UNL A   1      40.110  28.951  29.069  1.00  0.00     0.031 A 
ATOM     42  C   UNL A   1      41.086  29.877  29.743  1.00  0.00     0.074 A 
ATOM     43  C   UNL A   1      40.524  27.752  28.617  1.00  0.00     0.049 A 
ATOM     44  N   UNL A   1      42.357  29.695  29.999  1.00  0.00    -0.248 NA
ATOM     45  C   UNL A   1      40.573  31.191  30.161  1.00  0.00     0.031 C 
ATOM     46  C   UNL A   1      39.696  26.784  27.897  1.00  0.00     0.029 A 
ATOM     47  N   UNL A   1      41.752  27.144  28.698  1.00  0.00    -0.354 N 
ATOM     48  C   UNL A   1      42.797  30.872  30.590  1.00  0.00     0.074 A 
ATOM     49  C   UNL A   1      41.671  31.781  30.608  1.00  0.00     0.031 C 
ATOM     50  C   UNL A   1      40.429  25.692  27.628  1.00  0.00     0.029 A 
ATOM     51  C   UNL A   1      41.784  25.891  28.133  1.00  0.00     0.049 A 
ATOM     52  H   UNL A   1      42.536  27.564  29.119  1.00  0.00     0.167 HD
ATOM     53  C   UNL A   1      44.018  31.164  31.097  1.00  0.00     0.037 A 
ATOM     54  C   UNL A   1      42.790  25.001  28.042  1.00  0.00     0.037 A 
ATOM     55  C   UNL A   1      45.131  30.251  31.110  1.00  0.00     0.049 A 
ATOM     56  C   UNL A   1      44.126  25.333  28.644  1.00  0.00     0.074 A 
ATOM     57  C   UNL A   1      46.394  30.434  31.646  1.00  0.00     0.029 A 
ATOM     58  N   UNL A   1      45.110  28.976  30.565  1.00  0.00    -0.354 N 
ATOM     59  N   UNL A   1      44.508  26.426  29.259  1.00  0.00    -0.248 NA
ATOM     60  C   UNL A   1      45.166  24.299  28.554  1.00  0.00     0.031 C 
ATOM     61  C   UNL A   1      47.147  29.281  31.400  1.00  0.00     0.029 A 
ATOM     62  C   UNL A   1      46.340  28.364  30.747  1.00  0.00     0.049 A 
ATOM     63  H   UNL A   1      44.337  28.566  30.115  1.00  0.00     0.167 HD
ATOM     64  C   UNL A   1      45.819  26.200  29.657  1.00  0.00     0.074 A 
ATOM     65  C   UNL A   1      46.162  24.862  29.225  1.00  0.00     0.031 C 
ATOM     66  C   UNL A   1      46.663  27.027  30.322  1.00  0.00     0.037 A 
BRANCH  53  67
ATOM     67  C   UNL A   1      44.209  32.528  31.691  1.00  0.00     0.057 A 
ATOM     68  C   UNL A   1      44.660  33.610  30.922  1.00  0.00     0.134 A 
ATOM     69  C   UNL A   1      43.916  32.772  33.039  1.00  0.00     0.134 A 
ATOM     70  F   UNL A   1      44.971  33.441  29.628  1.00  0.00    -0.206 F 
ATOM     71  C   UNL A   1      44.841  34.877  31.479  1.00  0.00     0.040 A 
ATOM     72  C   UNL A   1      44.069  34.042  33.600  1.00  0.00     0.040 A 
ATOM     73  F   UNL A   1      43.475  31.783  33.830  1.00  0.00    -0.206 F 
ATOM     74  C   UNL A   1      44.539  35.097  32.820  1.00  0.00     0.006 A 
ENDBRANCH  53  67
BRANCH  54  75
ATOM     75  C   UNL A   1      42.560  23.686  27.394  1.00  0.00     0.057 A 
ATOM     76  C   UNL A   1      42.173  22.572  28.147  1.00  0.00     0.134 A 
ATOM     77  C   UNL A   1      42.732  23.509  26.017  1.00  0.00     0.134 A 
ATOM     78  F   UNL A   1      42.011  22.678  29.474  1.00  0.00    -0.206 F 
ATOM     79  C   UNL A   1      41.985  21.321  27.558  1.00  0.00     0.040 A 
ATOM     80  C   UNL A   1      42.525  22.269  25.410  1.00  0.00     0.040 A 
ATOM     81  F   UNL A   1      43.095  24.540  25.241  1.00  0.00    -0.206 F 
ATOM     82  C   UNL A   1      42.156  21.168  26.184  1.00  0.00     0.006 A 
ENDBRANCH  54  75
BRANCH  66  83
ATOM     83  C   UNL A   1      48.020  26.486  30.661  1.00  0.00     0.057 A 
ATOM     84  C   UNL A   1      48.271  25.809  31.861  1.00  0.00     0.134 A 
ATOM     85  C   UNL A   1      49.087  26.634  29.765  1.00  0.00     0.134 A 
ATOM     86  F   UNL A   1      47.295  25.646  32.766  1.00  0.00    -0.206 F 
ATOM     87  C   UNL A   1      49.542  25.323  32.171  1.00  0.00     0.040 A 
ATOM     88  C   UNL A   1      50.356  26.131  30.053  1.00  0.00     0.040 A 
ATOM     89  F   UNL A   1      48.911  27.265  28.594  1.00  0.00    -0.206 F 
ATOM     90  C   UNL A   1      50.588  25.481  31.263  1.00  0.00     0.006 A 
ENDBRANCH  66  83
ENDBRANCH  40  41
ENDBRANCH  32  35
ENDBRANCH  30  31
ENDBRANCH  29  30
ENDBRANCH   1  29
TORSDOF 15
ENDMDL
MODEL 3
REMARK VINA RESULT:     -11.9      2.216      6.645
REMARK SMILES O=C(COc1cc(-c2ccccc2)nc(Nc2ccccc2Br)n1)NCCCNC(=O)c1ccc(-c2c3nc(c(-c4c(F)cccc4F)c4ccc([nH]4)c(-c4c(F)cccc4F)c4nc(c(-c5c(F)cccc5F)c5ccc2[nH]5)C=C4)C=C3)cc1
REMARK SMILES IDX 26 1 25 2 1 3 2 4 3 6 4 7 5 8 6 9 24 10 7 11 15 12 14 13
REMARK SMILES IDX 8 14 9 15 13 16 10 17 12 18 11 19 16 20 17 22 18 23 22 24
REMARK SMILES IDX 19 25 21 26 23 27 20 28 27 29 28 30 29 31 30 32 31 34 32 35
REMARK SMILES IDX 33 36 85 37 34 38 84 39 35 40 36 41 37 42 78 43 38 44 83 45
REMARK SMILES IDX 77 46 79 47 39 48 82 49 76 50 75 51 40 53 66 54 49 55 65 56
REMARK SMILES IDX 50 57 53 58 64 59 80 60 51 61 52 62 63 64 81 65 54 66 41 67
REMARK SMILES IDX 42 68 47 69 43 70 44 71 46 72 48 73 45 74 67 75 68 76 73 77
REMARK SMILES IDX 69 78 70 79 72 80 74 81 71 82 55 83 56 84 61 85 57 86 58 87
REMARK SMILES IDX 60 88 62 89 59 90
REMARK H PARENT 25 5 16 21 29 33 79 52 53 63
REMARK Flexibility Score: inf
ROOT
ATOM      1  C   UNL A   1      31.821  27.121  25.675  1.00  0.00     0.117 C 
ENDROOT
BRANCH   1   2
ATOM      2  N   UNL A   1      32.484  25.929  26.160  1.00  0.00    -0.353 N 
ATOM      3  O   UNL A   1      30.575  24.749  26.658  1.00  0.00    -0.271 OA
ATOM      4  C   UNL A   1      31.787  24.777  26.477  1.00  0.00     0.258 C 
ATOM      5  H   UNL A   1      33.463  25.939  26.269  1.00  0.00     0.163 HD
BRANCH   4   6
ATOM      6  C   UNL A   1      32.663  23.520  26.525  1.00  0.00     0.331 C 
BRANCH   6   7
ATOM      7  O   UNL A   1      34.056  23.791  26.362  1.00  0.00    -0.467 OA
BRANCH   7   8
ATOM      8  C   UNL A   1      34.776  22.682  25.987  1.00  0.00     0.219 A 
ATOM      9  C   UNL A   1      34.156  21.513  25.637  1.00  0.00     0.097 A 
ATOM     10  N   UNL A   1      36.088  22.878  25.838  1.00  0.00    -0.177 NA
ATOM     11  C   UNL A   1      34.957  20.519  25.128  1.00  0.00     0.080 A 
ATOM     12  C   UNL A   1      36.812  21.850  25.368  1.00  0.00     0.231 A 
ATOM     13  N   UNL A   1      36.287  20.670  24.993  1.00  0.00    -0.212 NA
BRANCH  11  14
ATOM     14  C   UNL A   1      34.363  19.244  24.703  1.00  0.00     0.000 A 
ATOM     15  C   UNL A   1      35.164  18.124  24.440  1.00  0.00     0.010 A 
ATOM     16  C   UNL A   1      32.964  19.090  24.635  1.00  0.00     0.010 A 
ATOM     17  C   UNL A   1      34.585  16.884  24.155  1.00  0.00     0.001 A 
ATOM     18  C   UNL A   1      32.387  17.853  24.346  1.00  0.00     0.001 A 
ATOM     19  C   UNL A   1      33.199  16.748  24.115  1.00  0.00     0.000 A 
ENDBRANCH  11  14
BRANCH  12  20
ATOM     20  N   UNL A   1      38.181  21.991  25.165  1.00  0.00    -0.323 N 
ATOM     21  H   UNL A   1      38.441  22.298  24.266  1.00  0.00     0.170 HD
BRANCH  20  22
ATOM     22  C   UNL A   1      39.245  21.763  26.045  1.00  0.00     0.055 A 
ATOM     23  C   UNL A   1      39.805  20.474  26.074  1.00  0.00     0.027 A 
ATOM     24  C   UNL A   1      39.821  22.749  26.870  1.00  0.00     0.041 A 
ATOM     25  C   UNL A   1      40.907  20.177  26.880  1.00  0.00     0.002 A 
ATOM     26  C   UNL A   1      40.922  22.449  27.681  1.00  0.00     0.018 A 
ATOM     27  Br  UNL A   1      39.076  24.492  27.060  1.00  0.00    -0.049 Br
ATOM     28  C   UNL A   1      41.468  21.166  27.682  1.00  0.00     0.001 A 
ENDBRANCH  20  22
ENDBRANCH  12  20
ENDBRANCH   7   8
ENDBRANCH   6   7
ENDBRANCH   4   6
ENDBRANCH   1   2
BRANCH   1  29
ATOM     29  C   UNL A   1      32.543  27.796  24.525  1.00  0.00     0.042 C 
BRANCH  29  30
ATOM     30  C   UNL A   1      33.347  29.027  24.923  1.00  0.00     0.118 C 
BRANCH  30  31
ATOM     31  N   UNL A   1      32.537  30.092  25.498  1.00  0.00    -0.352 N 
ATOM     32  C   UNL A   1      32.741  30.856  26.618  1.00  0.00     0.251 C 
ATOM     33  H   UNL A   1      31.710  30.296  25.003  1.00  0.00     0.163 HD
ATOM     34  O   UNL A   1      31.857  31.637  26.979  1.00  0.00    -0.269 OA
BRANCH  32  35
ATOM     35  C   UNL A   1      33.984  30.742  27.414  1.00  0.00     0.039 A 
ATOM     36  C   UNL A   1      34.342  29.487  27.916  1.00  0.00     0.014 A 
ATOM     37  C   UNL A   1      34.781  31.854  27.701  1.00  0.00     0.014 A 
ATOM     38  C   UNL A   1      35.517  29.339  28.655  1.00  0.00     0.010 A 
ATOM     39  C   UNL A   1      35.994  31.691  28.368  1.00  0.00     0.010 A 
ATOM     40  C   UNL A   1      36.369  30.435  28.863  1.00  0.00    -0.014 A 
BRANCH  40  41
ATOM     41  C   UNL A   1      37.639  30.281  29.619  1.00  0.00     0.031 A 
ATOM     42  C   UNL A   1      38.807  29.557  29.006  1.00  0.00     0.074 A 
ATOM     43  C   UNL A   1      37.730  30.758  30.875  1.00  0.00     0.049 A 
ATOM     44  N   UNL A   1      39.987  29.310  29.515  1.00  0.00    -0.248 NA
ATOM     45  C   UNL A   1      38.615  29.017  27.650  1.00  0.00     0.031 C 
ATOM     46  C   UNL A   1      36.655  31.428  31.608  1.00  0.00     0.029 A 
ATOM     47  N   UNL A   1      38.780  30.751  31.759  1.00  0.00    -0.354 N 
ATOM     48  C   UNL A   1      40.669  28.575  28.554  1.00  0.00     0.074 A 
ATOM     49  C   UNL A   1      39.754  28.371  27.452  1.00  0.00     0.031 C 
ATOM     50  C   UNL A   1      37.108  31.794  32.818  1.00  0.00     0.029 A 
ATOM     51  C   UNL A   1      38.497  31.364  32.956  1.00  0.00     0.049 A 
ATOM     52  H   UNL A   1      39.653  30.345  31.556  1.00  0.00     0.167 HD
ATOM     53  C   UNL A   1      41.949  28.132  28.572  1.00  0.00     0.037 A 
ATOM     54  C   UNL A   1      39.271  31.563  34.039  1.00  0.00     0.037 A 
ATOM     55  C   UNL A   1      42.872  28.361  29.653  1.00  0.00     0.049 A 
ATOM     56  C   UNL A   1      40.699  31.094  34.021  1.00  0.00     0.074 A 
ATOM     57  C   UNL A   1      44.204  27.996  29.744  1.00  0.00     0.029 A 
ATOM     58  N   UNL A   1      42.558  29.022  30.831  1.00  0.00    -0.354 N 
ATOM     59  N   UNL A   1      41.349  30.458  33.077  1.00  0.00    -0.248 NA
ATOM     60  C   UNL A   1      41.505  31.387  35.214  1.00  0.00     0.031 C 
ATOM     61  C   UNL A   1      44.688  28.412  30.989  1.00  0.00     0.029 A 
ATOM     62  C   UNL A   1      43.669  29.070  31.656  1.00  0.00     0.049 A 
ATOM     63  H   UNL A   1      41.675  29.400  31.048  1.00  0.00     0.167 HD
ATOM     64  C   UNL A   1      42.647  30.303  33.547  1.00  0.00     0.074 A 
ATOM     65  C   UNL A   1      42.694  30.923  34.855  1.00  0.00     0.031 C 
ATOM     66  C   UNL A   1      43.705  29.702  32.950  1.00  0.00     0.037 A 
BRANCH  53  67
ATOM     67  C   UNL A   1      42.427  27.361  27.377  1.00  0.00     0.057 A 
ATOM     68  C   UNL A   1      42.510  25.962  27.389  1.00  0.00     0.134 A 
ATOM     69  C   UNL A   1      42.787  28.020  26.195  1.00  0.00     0.134 A 
ATOM     70  F   UNL A   1      42.193  25.271  28.494  1.00  0.00    -0.206 F 
ATOM     71  C   UNL A   1      42.960  25.248  26.276  1.00  0.00     0.040 A 
ATOM     72  C   UNL A   1      43.213  27.314  25.068  1.00  0.00     0.040 A 
ATOM     73  F   UNL A   1      42.726  29.357  26.114  1.00  0.00    -0.206 F 
ATOM     74  C   UNL A   1      43.307  25.924  25.110  1.00  0.00     0.006 A 
ENDBRANCH  53  67
BRANCH  54  75
ATOM     75  C   UNL A   1      38.729  32.285  35.216  1.00  0.00     0.057 A 
ATOM     76  C   UNL A   1      38.724  33.683  35.263  1.00  0.00     0.134 A 
ATOM     77  C   UNL A   1      38.215  31.599  36.322  1.00  0.00     0.134 A 
ATOM     78  F   UNL A   1      39.221  34.394  34.239  1.00  0.00    -0.206 F 
ATOM     79  C   UNL A   1      38.248  34.376  36.376  1.00  0.00     0.040 A 
ATOM     80  C   UNL A   1      37.714  32.278  37.433  1.00  0.00     0.040 A 
ATOM     81  F   UNL A   1      38.185  30.258  36.334  1.00  0.00    -0.206 F 
ATOM     82  C   UNL A   1      37.736  33.673  37.464  1.00  0.00     0.006 A 
ENDBRANCH  54  75
BRANCH  66  83
ATOM     83  C   UNL A   1      45.010  29.729  33.687  1.00  0.00     0.057 A 
ATOM     84  C   UNL A   1      45.960  30.737  33.477  1.00  0.00     0.134 A 
ATOM     85  C   UNL A   1      45.313  28.740  34.631  1.00  0.00     0.134 A 
ATOM     86  F   UNL A   1      45.735  31.706  32.577  1.00  0.00    -0.206 F 
ATOM     87  C   UNL A   1      47.178  30.744  34.159  1.00  0.00     0.040 A 
ATOM     88  C   UNL A   1      46.517  28.749  35.337  1.00  0.00     0.040 A 
ATOM     89  F   UNL A   1      44.443  27.751  34.885  1.00  0.00    -0.206 F 
ATOM     90  C   UNL A   1      47.457  29.749  35.095  1.00  0.00     0.006 A 
ENDBRANCH  66  83
ENDBRANCH  40  41
ENDBRANCH  32  35
ENDBRANCH  30  31
ENDBRANCH  29  30
ENDBRANCH   1  29
TORSDOF 15
ENDMDL
