MODEL 1
REMARK VINA RESULT:     -12.6      0.000      0.000
REMARK SMILES Cc1cc2c(c(C)c1Cl)C=C(C(=O)NCCCNC(=O)c1ccc(-c3c4nc(c(-c5c(F)cccc5F)c5ccc([nH]5)c(-c5c(F)cccc5F)c5nc(c(-c6c(F)cccc6F)c6ccc3[nH]6)C=C5)C=C4)cc1)[C@@H](C(F)(F)F)O2
REMARK SMILES IDX 16 1 15 2 14 3 12 4 13 5 11 7 1 8 2 9 3 10 8 11 4 12 6 13
REMARK SMILES IDX 9 14 5 15 80 16 7 17 10 18 75 19 76 20 77 21 78 22 79 23
REMARK SMILES IDX 17 24 18 25 19 26 20 28 21 29 22 30 74 31 23 32 73 33 24 34
REMARK SMILES IDX 25 35 26 36 67 37 27 38 72 39 66 40 68 41 28 42 71 43 65 44
REMARK SMILES IDX 64 45 29 47 55 48 38 49 54 50 39 51 42 52 53 53 69 54 40 55
REMARK SMILES IDX 41 56 52 58 70 59 43 60 30 61 31 62 36 63 32 64 33 65 35 66
REMARK SMILES IDX 37 67 34 68 56 69 57 70 62 71 58 72 59 73 61 74 63 75 60 76
REMARK SMILES IDX 44 77 45 78 50 79 46 80 47 81 49 82 51 83 48 84
REMARK H PARENT 14 6 18 27 68 46 42 57
REMARK Flexibility Score: inf
ROOT
ATOM      1  C   UNL A   1      37.748  19.825  24.830  1.00  0.00     0.042 C 
ENDROOT
BRANCH   1   2
ATOM      2  C   UNL A   1      36.433  20.554  25.055  1.00  0.00     0.118 C 
BRANCH   2   3
ATOM      3  N   UNL A   1      35.294  19.652  24.974  1.00  0.00    -0.352 N 
ATOM      4  C   UNL A   1      33.945  19.755  24.953  1.00  0.00     0.251 C 
ATOM      5  O   UNL A   1      33.340  18.682  24.874  1.00  0.00    -0.270 OA
ATOM      6  H   UNL A   1      35.583  18.713  24.919  1.00  0.00     0.163 HD
BRANCH   4   7
ATOM      7  C   UNL A   1      33.182  21.034  25.021  1.00  0.00     0.067 C 
ATOM      8  C   UNL A   1      29.920  26.575  24.068  1.00  0.00     0.046 C 
ATOM      9  C   UNL A   1      30.816  25.373  23.949  1.00  0.00    -0.028 A 
ATOM     10  C   UNL A   1      30.814  24.471  25.017  1.00  0.00     0.052 A 
ATOM     11  C   UNL A   1      31.593  25.073  22.811  1.00  0.00     0.047 A 
ATOM     12  C   UNL A   1      31.585  23.317  24.971  1.00  0.00     0.128 A 
ATOM     13  C   UNL A   1      32.391  23.902  22.755  1.00  0.00    -0.021 A 
ATOM     14  Cl  UNL A   1      31.535  26.158  21.453  1.00  0.00    -0.084 Cl
ATOM     15  C   UNL A   1      32.371  23.012  23.856  1.00  0.00     0.022 A 
ATOM     16  O   UNL A   1      31.470  22.502  26.059  1.00  0.00    -0.475 OA
ATOM     17  C   UNL A   1      33.247  23.573  21.553  1.00  0.00     0.047 C 
ATOM     18  C   UNL A   1      33.097  21.736  23.876  1.00  0.00     0.026 C 
ATOM     19  C   UNL A   1      32.546  21.558  26.272  1.00  0.00     0.314 C 
BRANCH  19  20
ATOM     20  C   UNL A   1      33.568  22.155  27.257  1.00  0.00     0.429 C 
ATOM     21  F   UNL A   1      32.929  22.702  28.322  1.00  0.00    -0.167 F 
ATOM     22  F   UNL A   1      34.416  21.226  27.757  1.00  0.00    -0.167 F 
ATOM     23  F   UNL A   1      34.330  23.121  26.699  1.00  0.00    -0.167 F 
ENDBRANCH  19  20
ENDBRANCH   4   7
ENDBRANCH   2   3
ENDBRANCH   1   2
BRANCH   1  24
ATOM     24  C   UNL A   1      38.852  20.348  25.738  1.00  0.00     0.118 C 
BRANCH  24  25
ATOM     25  N   UNL A   1      39.941  19.383  25.876  1.00  0.00    -0.352 N 
ATOM     26  C   UNL A   1      41.275  19.585  26.119  1.00  0.00     0.251 C 
ATOM     27  H   UNL A   1      39.675  18.441  25.778  1.00  0.00     0.163 HD
ATOM     28  O   UNL A   1      42.080  18.679  25.914  1.00  0.00    -0.269 OA
BRANCH  26  29
ATOM     29  C   UNL A   1      41.741  20.889  26.624  1.00  0.00     0.039 A 
ATOM     30  C   UNL A   1      42.222  21.843  25.724  1.00  0.00     0.014 A 
ATOM     31  C   UNL A   1      41.719  21.158  27.994  1.00  0.00     0.014 A 
ATOM     32  C   UNL A   1      42.618  23.093  26.199  1.00  0.00     0.010 A 
ATOM     33  C   UNL A   1      42.012  22.434  28.451  1.00  0.00     0.010 A 
ATOM     34  C   UNL A   1      42.482  23.408  27.561  1.00  0.00    -0.014 A 
BRANCH  34  35
ATOM     35  C   UNL A   1      42.858  24.741  28.089  1.00  0.00     0.031 A 
ATOM     36  C   UNL A   1      41.796  25.785  28.293  1.00  0.00     0.074 A 
ATOM     37  C   UNL A   1      44.152  25.020  28.332  1.00  0.00     0.049 A 
ATOM     38  N   UNL A   1      41.926  27.029  28.678  1.00  0.00    -0.248 NA
ATOM     39  C   UNL A   1      40.407  25.393  27.997  1.00  0.00     0.031 C 
ATOM     40  C   UNL A   1      45.271  24.096  28.133  1.00  0.00     0.029 A 
ATOM     41  N   UNL A   1      44.747  26.164  28.800  1.00  0.00    -0.354 N 
ATOM     42  C   UNL A   1      40.643  27.561  28.668  1.00  0.00     0.074 A 
ATOM     43  C   UNL A   1      39.757  26.535  28.170  1.00  0.00     0.031 C 
ATOM     44  C   UNL A   1      46.410  24.695  28.515  1.00  0.00     0.029 A 
ATOM     45  C   UNL A   1      46.109  26.058  28.944  1.00  0.00     0.049 A 
ATOM     46  H   UNL A   1      44.246  26.984  29.011  1.00  0.00     0.167 HD
ATOM     47  C   UNL A   1      40.236  28.784  29.076  1.00  0.00     0.037 A 
ATOM     48  C   UNL A   1      47.011  26.959  29.374  1.00  0.00     0.037 A 
ATOM     49  C   UNL A   1      41.119  29.790  29.600  1.00  0.00     0.049 A 
ATOM     50  C   UNL A   1      46.534  28.324  29.791  1.00  0.00     0.074 A 
ATOM     51  C   UNL A   1      40.802  31.049  30.076  1.00  0.00     0.029 A 
ATOM     52  N   UNL A   1      42.493  29.646  29.723  1.00  0.00    -0.354 N 
ATOM     53  N   UNL A   1      45.312  28.797  29.824  1.00  0.00    -0.248 NA
ATOM     54  C   UNL A   1      47.560  29.280  30.232  1.00  0.00     0.031 C 
ATOM     55  C   UNL A   1      41.989  31.684  30.448  1.00  0.00     0.029 A 
ATOM     56  C   UNL A   1      43.040  30.802  30.251  1.00  0.00     0.049 A 
ATOM     57  H   UNL A   1      43.003  28.842  29.472  1.00  0.00     0.167 HD
ATOM     58  C   UNL A   1      45.417  30.092  30.313  1.00  0.00     0.074 A 
ATOM     59  C   UNL A   1      46.822  30.325  30.578  1.00  0.00     0.031 C 
ATOM     60  C   UNL A   1      44.440  31.007  30.521  1.00  0.00     0.037 A 
BRANCH  47  61
ATOM     61  C   UNL A   1      38.771  29.094  29.004  1.00  0.00     0.057 A 
ATOM     62  C   UNL A   1      37.944  28.987  30.131  1.00  0.00     0.134 A 
ATOM     63  C   UNL A   1      38.193  29.574  27.822  1.00  0.00     0.134 A 
ATOM     64  F   UNL A   1      38.431  28.520  31.290  1.00  0.00    -0.206 F 
ATOM     65  C   UNL A   1      36.593  29.335  30.081  1.00  0.00     0.040 A 
ATOM     66  C   UNL A   1      36.850  29.951  27.767  1.00  0.00     0.040 A 
ATOM     67  F   UNL A   1      38.928  29.704  26.708  1.00  0.00    -0.206 F 
ATOM     68  C   UNL A   1      36.047  29.831  28.899  1.00  0.00     0.006 A 
ENDBRANCH  47  61
BRANCH  48  69
ATOM     69  C   UNL A   1      48.447  26.591  29.471  1.00  0.00     0.057 A 
ATOM     70  C   UNL A   1      49.328  26.848  28.415  1.00  0.00     0.134 A 
ATOM     71  C   UNL A   1      48.975  25.978  30.614  1.00  0.00     0.134 A 
ATOM     72  F   UNL A   1      48.880  27.419  27.287  1.00  0.00    -0.206 F 
ATOM     73  C   UNL A   1      50.676  26.495  28.482  1.00  0.00     0.040 A 
ATOM     74  C   UNL A   1      50.328  25.643  30.706  1.00  0.00     0.040 A 
ATOM     75  F   UNL A   1      48.187  25.711  31.667  1.00  0.00    -0.206 F 
ATOM     76  C   UNL A   1      51.181  25.896  29.634  1.00  0.00     0.006 A 
ENDBRANCH  48  69
BRANCH  60  77
ATOM     77  C   UNL A   1      44.842  32.338  31.084  1.00  0.00     0.057 A 
ATOM     78  C   UNL A   1      44.941  32.552  32.464  1.00  0.00     0.134 A 
ATOM     79  C   UNL A   1      45.221  33.385  30.235  1.00  0.00     0.134 A 
ATOM     80  F   UNL A   1      44.584  31.591  33.329  1.00  0.00    -0.206 F 
ATOM     81  C   UNL A   1      45.391  33.768  32.981  1.00  0.00     0.040 A 
ATOM     82  C   UNL A   1      45.701  34.595  30.740  1.00  0.00     0.040 A 
ATOM     83  F   UNL A   1      45.164  33.239  28.903  1.00  0.00    -0.206 F 
ATOM     84  C   UNL A   1      45.784  34.789  32.118  1.00  0.00     0.006 A 
ENDBRANCH  60  77
ENDBRANCH  34  35
ENDBRANCH  26  29
ENDBRANCH  24  25
ENDBRANCH   1  24
TORSDOF 11
ENDMDL
MODEL 2
REMARK VINA RESULT:     -12.6      0.301      6.222
REMARK SMILES Cc1cc2c(c(C)c1Cl)C=C(C(=O)NCCCNC(=O)c1ccc(-c3c4nc(c(-c5c(F)cccc5F)c5ccc([nH]5)c(-c5c(F)cccc5F)c5nc(c(-c6c(F)cccc6F)c6ccc3[nH]6)C=C5)C=C4)cc1)[C@@H](C(F)(F)F)O2
REMARK SMILES IDX 16 1 15 2 14 3 12 4 13 5 11 7 1 8 2 9 3 10 8 11 4 12 6 13
REMARK SMILES IDX 9 14 5 15 80 16 7 17 10 18 75 19 76 20 77 21 78 22 79 23
REMARK SMILES IDX 17 24 18 25 19 26 20 28 21 29 22 30 74 31 23 32 73 33 24 34
REMARK SMILES IDX 25 35 26 36 67 37 27 38 72 39 66 40 68 41 28 42 71 43 65 44
REMARK SMILES IDX 64 45 29 47 55 48 38 49 54 50 39 51 42 52 53 53 69 54 40 55
REMARK SMILES IDX 41 56 52 58 70 59 43 60 30 61 31 62 36 63 32 64 33 65 35 66
REMARK SMILES IDX 37 67 34 68 56 69 57 70 62 71 58 72 59 73 61 74 63 75 60 76
REMARK SMILES IDX 44 77 45 78 50 79 46 80 47 81 49 82 51 83 48 84
REMARK H PARENT 14 6 18 27 68 46 42 57
REMARK Flexibility Score: inf
ROOT
ATOM      1  C   UNL A   1      37.583  19.527  24.864  1.00  0.00     0.042 C 
ENDROOT
BRANCH   1   2
ATOM      2  C   UNL A   1      36.314  20.348  25.031  1.00  0.00     0.118 C 
BRANCH   2   3
ATOM      3  N   UNL A   1      35.122  19.514  24.988  1.00  0.00    -0.352 N 
ATOM      4  C   UNL A   1      33.781  19.697  24.994  1.00  0.00     0.251 C 
ATOM      5  O   UNL A   1      33.111  18.660  24.945  1.00  0.00    -0.270 OA
ATOM      6  H   UNL A   1      35.353  18.559  24.944  1.00  0.00     0.163 HD
BRANCH   4   7
ATOM      7  C   UNL A   1      33.097  21.020  25.054  1.00  0.00     0.067 C 
ATOM      8  C   UNL A   1      30.144  26.727  24.071  1.00  0.00     0.046 C 
ATOM      9  C   UNL A   1      30.965  25.471  23.954  1.00  0.00    -0.028 A 
ATOM     10  C   UNL A   1      30.936  24.592  25.039  1.00  0.00     0.052 A 
ATOM     11  C   UNL A   1      31.693  25.105  22.804  1.00  0.00     0.047 A 
ATOM     12  C   UNL A   1      31.637  23.393  24.998  1.00  0.00     0.128 A 
ATOM     13  C   UNL A   1      32.419  23.888  22.752  1.00  0.00    -0.021 A 
ATOM     14  Cl  UNL A   1      31.664  26.166  21.426  1.00  0.00    -0.084 Cl
ATOM     15  C   UNL A   1      32.375  23.021  23.871  1.00  0.00     0.022 A 
ATOM     16  O   UNL A   1      31.501  22.607  26.105  1.00  0.00    -0.475 OA
ATOM     17  C   UNL A   1      33.223  23.486  21.536  1.00  0.00     0.047 C 
ATOM     18  C   UNL A   1      33.024  21.705  23.898  1.00  0.00     0.026 C 
ATOM     19  C   UNL A   1      32.525  21.604  26.310  1.00  0.00     0.314 C 
BRANCH  19  20
ATOM     20  C   UNL A   1      33.605  22.157  27.257  1.00  0.00     0.429 C 
ATOM     21  F   UNL A   1      33.030  22.697  28.362  1.00  0.00    -0.167 F 
ATOM     22  F   UNL A   1      34.453  21.199  27.699  1.00  0.00    -0.167 F 
ATOM     23  F   UNL A   1      34.364  23.117  26.684  1.00  0.00    -0.167 F 
ENDBRANCH  19  20
ENDBRANCH   4   7
ENDBRANCH   2   3
ENDBRANCH   1   2
BRANCH   1  24
ATOM     24  C   UNL A   1      38.788  20.208  25.497  1.00  0.00     0.118 C 
BRANCH  24  25
ATOM     25  N   UNL A   1      39.881  19.266  25.731  1.00  0.00    -0.352 N 
ATOM     26  C   UNL A   1      41.189  19.496  26.068  1.00  0.00     0.251 C 
ATOM     27  H   UNL A   1      39.639  18.317  25.630  1.00  0.00     0.163 HD
ATOM     28  O   UNL A   1      42.023  18.602  25.938  1.00  0.00    -0.269 OA
BRANCH  26  29
ATOM     29  C   UNL A   1      41.594  20.816  26.584  1.00  0.00     0.039 A 
ATOM     30  C   UNL A   1      42.137  21.760  25.709  1.00  0.00     0.014 A 
ATOM     31  C   UNL A   1      41.453  21.111  27.942  1.00  0.00     0.014 A 
ATOM     32  C   UNL A   1      42.476  23.024  26.190  1.00  0.00     0.010 A 
ATOM     33  C   UNL A   1      41.690  22.399  28.395  1.00  0.00     0.010 A 
ATOM     34  C   UNL A   1      42.221  23.363  27.529  1.00  0.00    -0.014 A 
BRANCH  34  35
ATOM     35  C   UNL A   1      42.534  24.710  28.060  1.00  0.00     0.031 A 
ATOM     36  C   UNL A   1      43.950  25.050  28.436  1.00  0.00     0.074 A 
ATOM     37  C   UNL A   1      41.541  25.600  28.248  1.00  0.00     0.049 A 
ATOM     38  N   UNL A   1      44.419  26.144  28.978  1.00  0.00    -0.248 NA
ATOM     39  C   UNL A   1      44.970  24.015  28.199  1.00  0.00     0.031 C 
ATOM     40  C   UNL A   1      40.125  25.364  27.956  1.00  0.00     0.029 A 
ATOM     41  N   UNL A   1      41.570  26.883  28.732  1.00  0.00    -0.354 N 
ATOM     42  C   UNL A   1      45.780  25.926  29.147  1.00  0.00     0.074 A 
ATOM     43  C   UNL A   1      46.053  24.573  28.720  1.00  0.00     0.031 C 
ATOM     44  C   UNL A   1      39.428  26.479  28.227  1.00  0.00     0.029 A 
ATOM     45  C   UNL A   1      40.339  27.492  28.752  1.00  0.00     0.049 A 
ATOM     46  H   UNL A   1      42.395  27.325  29.037  1.00  0.00     0.167 HD
ATOM     47  C   UNL A   1      46.724  26.791  29.581  1.00  0.00     0.037 A 
ATOM     48  C   UNL A   1      39.987  28.729  29.150  1.00  0.00     0.037 A 
ATOM     49  C   UNL A   1      46.449  28.146  29.975  1.00  0.00     0.049 A 
ATOM     50  C   UNL A   1      41.053  29.660  29.661  1.00  0.00     0.074 A 
ATOM     51  C   UNL A   1      47.341  29.116  30.396  1.00  0.00     0.029 A 
ATOM     52  N   UNL A   1      45.188  28.723  29.988  1.00  0.00    -0.354 N 
ATOM     53  N   UNL A   1      42.344  29.457  29.768  1.00  0.00    -0.248 NA
ATOM     54  C   UNL A   1      40.615  30.991  30.105  1.00  0.00     0.031 C 
ATOM     55  C   UNL A   1      46.614  30.268  30.705  1.00  0.00     0.029 A 
ATOM     56  C   UNL A   1      45.276  30.032  30.429  1.00  0.00     0.049 A 
ATOM     57  H   UNL A   1      44.355  28.269  29.725  1.00  0.00     0.167 HD
ATOM     58  C   UNL A   1      42.876  30.640  30.263  1.00  0.00     0.074 A 
ATOM     59  C   UNL A   1      41.769  31.561  30.421  1.00  0.00     0.031 C 
ATOM     60  C   UNL A   1      44.163  30.936  30.564  1.00  0.00     0.037 A 
BRANCH  47  61
ATOM     61  C   UNL A   1      48.144  26.313  29.626  1.00  0.00     0.057 A 
ATOM     62  C   UNL A   1      49.003  26.471  28.529  1.00  0.00     0.134 A 
ATOM     63  C   UNL A   1      48.682  25.758  30.793  1.00  0.00     0.134 A 
ATOM     64  F   UNL A   1      48.547  26.983  27.376  1.00  0.00    -0.206 F 
ATOM     65  C   UNL A   1      50.343  26.084  28.590  1.00  0.00     0.040 A 
ATOM     66  C   UNL A   1      50.026  25.392  30.874  1.00  0.00     0.040 A 
ATOM     67  F   UNL A   1      47.915  25.581  31.880  1.00  0.00    -0.206 F 
ATOM     68  C   UNL A   1      50.860  25.554  29.770  1.00  0.00     0.006 A 
ENDBRANCH  47  61
BRANCH  48  69
ATOM     69  C   UNL A   1      38.573  29.173  29.046  1.00  0.00     0.057 A 
ATOM     70  C   UNL A   1      38.058  29.651  27.836  1.00  0.00     0.134 A 
ATOM     71  C   UNL A   1      37.704  29.129  30.142  1.00  0.00     0.134 A 
ATOM     72  F   UNL A   1      38.844  29.731  26.753  1.00  0.00    -0.206 F 
ATOM     73  C   UNL A   1      36.737  30.086  27.723  1.00  0.00     0.040 A 
ATOM     74  C   UNL A   1      36.372  29.537  30.038  1.00  0.00     0.040 A 
ATOM     75  F   UNL A   1      38.131  28.674  31.330  1.00  0.00    -0.206 F 
ATOM     76  C   UNL A   1      35.888  30.024  28.826  1.00  0.00     0.006 A 
ENDBRANCH  48  69
BRANCH  60  77
ATOM     77  C   UNL A   1      44.459  32.317  31.071  1.00  0.00     0.057 A 
ATOM     78  C   UNL A   1      44.522  32.599  32.441  1.00  0.00     0.134 A 
ATOM     79  C   UNL A   1      44.772  33.350  30.180  1.00  0.00     0.134 A 
ATOM     80  F   UNL A   1      44.224  31.654  33.344  1.00  0.00    -0.206 F 
ATOM     81  C   UNL A   1      44.874  33.866  32.906  1.00  0.00     0.040 A 
ATOM     82  C   UNL A   1      45.155  34.614  30.633  1.00  0.00     0.040 A 
ATOM     83  F   UNL A   1      44.745  33.141  28.855  1.00  0.00    -0.206 F 
ATOM     84  C   UNL A   1      45.204  34.874  32.002  1.00  0.00     0.006 A 
ENDBRANCH  60  77
ENDBRANCH  34  35
ENDBRANCH  26  29
ENDBRANCH  24  25
ENDBRANCH   1  24
TORSDOF 11
ENDMDL
MODEL 3
REMARK VINA RESULT:     -12.5      1.106      1.856
REMARK SMILES Cc1cc2c(c(C)c1Cl)C=C(C(=O)NCCCNC(=O)c1ccc(-c3c4nc(c(-c5c(F)cccc5F)c5ccc([nH]5)c(-c5c(F)cccc5F)c5nc(c(-c6c(F)cccc6F)c6ccc3[nH]6)C=C5)C=C4)cc1)[C@@H](C(F)(F)F)O2
REMARK SMILES IDX 16 1 15 2 14 3 12 4 13 5 11 7 1 8 2 9 3 10 8 11 4 12 6 13
REMARK SMILES IDX 9 14 5 15 80 16 7 17 10 18 75 19 76 20 77 21 78 22 79 23
REMARK SMILES IDX 17 24 18 25 19 26 20 28 21 29 22 30 74 31 23 32 73 33 24 34
REMARK SMILES IDX 25 35 26 36 67 37 27 38 72 39 66 40 68 41 28 42 71 43 65 44
REMARK SMILES IDX 64 45 29 47 55 48 38 49 54 50 39 51 42 52 53 53 69 54 40 55
REMARK SMILES IDX 41 56 52 58 70 59 43 60 30 61 31 62 36 63 32 64 33 65 35 66
REMARK SMILES IDX 37 67 34 68 56 69 57 70 62 71 58 72 59 73 61 74 63 75 60 76
REMARK SMILES IDX 44 77 45 78 50 79 46 80 47 81 49 82 51 83 48 84
REMARK H PARENT 14 6 18 27 68 46 42 57
REMARK Flexibility Score: inf
ROOT
ATOM      1  C   UNL A   1      37.756  19.758  24.820  1.00  0.00     0.042 C 
ENDROOT
BRANCH   1   2
ATOM      2  C   UNL A   1      36.447  20.490  25.071  1.00  0.00     0.118 C 
BRANCH   2   3
ATOM      3  N   UNL A   1      35.302  19.597  24.982  1.00  0.00    -0.352 N 
ATOM      4  C   UNL A   1      33.954  19.709  24.950  1.00  0.00     0.251 C 
ATOM      5  O   UNL A   1      33.342  18.640  24.868  1.00  0.00    -0.270 OA
ATOM      6  H   UNL A   1      35.585  18.655  24.933  1.00  0.00     0.163 HD
BRANCH   4   7
ATOM      7  C   UNL A   1      33.200  20.994  25.006  1.00  0.00     0.067 C 
ATOM      8  C   UNL A   1      29.983  26.553  24.005  1.00  0.00     0.046 C 
ATOM      9  C   UNL A   1      30.872  25.344  23.898  1.00  0.00    -0.028 A 
ATOM     10  C   UNL A   1      30.857  24.448  24.970  1.00  0.00     0.052 A 
ATOM     11  C   UNL A   1      31.654  25.033  22.766  1.00  0.00     0.047 A 
ATOM     12  C   UNL A   1      31.620  23.288  24.935  1.00  0.00     0.128 A 
ATOM     13  C   UNL A   1      32.444  23.856  22.721  1.00  0.00    -0.021 A 
ATOM     14  Cl  UNL A   1      31.612  26.111  21.403  1.00  0.00    -0.084 Cl
ATOM     15  C   UNL A   1      32.411  22.971  23.827  1.00  0.00     0.022 A 
ATOM     16  O   UNL A   1      31.492  22.480  26.026  1.00  0.00    -0.475 OA
ATOM     17  C   UNL A   1      33.305  23.515  21.526  1.00  0.00     0.047 C 
ATOM     18  C   UNL A   1      33.127  21.691  23.857  1.00  0.00     0.026 C 
ATOM     19  C   UNL A   1      32.559  21.528  26.250  1.00  0.00     0.314 C 
BRANCH  19  20
ATOM     20  C   UNL A   1      33.580  22.123  27.239  1.00  0.00     0.429 C 
ATOM     21  F   UNL A   1      34.420  21.156  27.686  1.00  0.00    -0.167 F 
ATOM     22  F   UNL A   1      34.361  23.075  26.674  1.00  0.00    -0.167 F 
ATOM     23  F   UNL A   1      32.996  22.687  28.319  1.00  0.00    -0.167 F 
ENDBRANCH  19  20
ENDBRANCH   4   7
ENDBRANCH   2   3
ENDBRANCH   1   2
BRANCH   1  24
ATOM     24  C   UNL A   1      38.867  20.248  25.739  1.00  0.00     0.118 C 
BRANCH  24  25
ATOM     25  N   UNL A   1      39.895  19.228  25.934  1.00  0.00    -0.352 N 
ATOM     26  C   UNL A   1      41.249  19.360  26.101  1.00  0.00     0.251 C 
ATOM     27  H   UNL A   1      39.564  18.302  25.948  1.00  0.00     0.163 HD
ATOM     28  O   UNL A   1      41.983  18.383  25.961  1.00  0.00    -0.269 OA
BRANCH  26  29
ATOM     29  C   UNL A   1      41.823  20.673  26.445  1.00  0.00     0.039 A 
ATOM     30  C   UNL A   1      42.177  21.558  25.425  1.00  0.00     0.014 A 
ATOM     31  C   UNL A   1      42.030  21.018  27.783  1.00  0.00     0.014 A 
ATOM     32  C   UNL A   1      42.676  22.818  25.754  1.00  0.00     0.010 A 
ATOM     33  C   UNL A   1      42.425  22.307  28.109  1.00  0.00     0.010 A 
ATOM     34  C   UNL A   1      42.769  23.213  27.099  1.00  0.00    -0.014 A 
BRANCH  34  35
ATOM     35  C   UNL A   1      43.259  24.559  27.479  1.00  0.00     0.031 A 
ATOM     36  C   UNL A   1      42.277  25.610  27.916  1.00  0.00     0.074 A 
ATOM     37  C   UNL A   1      44.571  24.843  27.379  1.00  0.00     0.049 A 
ATOM     38  N   UNL A   1      42.494  26.864  28.222  1.00  0.00    -0.248 NA
ATOM     39  C   UNL A   1      40.861  25.212  27.991  1.00  0.00     0.031 C 
ATOM     40  C   UNL A   1      45.609  23.912  26.929  1.00  0.00     0.029 A 
ATOM     41  N   UNL A   1      45.259  25.998  27.651  1.00  0.00    -0.354 N 
ATOM     42  C   UNL A   1      41.247  27.398  28.522  1.00  0.00     0.074 A 
ATOM     43  C   UNL A   1      40.270  26.359  28.292  1.00  0.00     0.031 C 
ATOM     44  C   UNL A   1      46.804  24.520  26.995  1.00  0.00     0.029 A 
ATOM     45  C   UNL A   1      46.614  25.894  27.449  1.00  0.00     0.049 A 
ATOM     46  H   UNL A   1      44.823  26.825  27.960  1.00  0.00     0.167 HD
ATOM     47  C   UNL A   1      40.949  28.632  28.987  1.00  0.00     0.037 A 
ATOM     48  C   UNL A   1      47.590  26.805  27.614  1.00  0.00     0.037 A 
ATOM     49  C   UNL A   1      41.930  29.650  29.243  1.00  0.00     0.049 A 
ATOM     50  C   UNL A   1      47.227  28.182  28.100  1.00  0.00     0.074 A 
ATOM     51  C   UNL A   1      41.737  30.922  29.750  1.00  0.00     0.029 A 
ATOM     52  N   UNL A   1      43.292  29.507  29.020  1.00  0.00    -0.354 N 
ATOM     53  N   UNL A   1      46.049  28.657  28.428  1.00  0.00    -0.248 NA
ATOM     54  C   UNL A   1      48.325  29.148  28.242  1.00  0.00     0.031 C 
ATOM     55  C   UNL A   1      42.976  31.565  29.793  1.00  0.00     0.029 A 
ATOM     56  C   UNL A   1      43.948  30.677  29.361  1.00  0.00     0.049 A 
ATOM     57  H   UNL A   1      43.726  28.696  28.670  1.00  0.00     0.167 HD
ATOM     58  C   UNL A   1      46.268  29.965  28.840  1.00  0.00     0.074 A 
ATOM     59  C   UNL A   1      47.692  30.203  28.736  1.00  0.00     0.031 C 
ATOM     60  C   UNL A   1      45.370  30.887  29.263  1.00  0.00     0.037 A 
BRANCH  47  61
ATOM     61  C   UNL A   1      39.512  28.942  29.278  1.00  0.00     0.057 A 
ATOM     62  C   UNL A   1      38.647  29.411  28.279  1.00  0.00     0.134 A 
ATOM     63  C   UNL A   1      38.965  28.704  30.545  1.00  0.00     0.134 A 
ATOM     64  F   UNL A   1      39.110  29.673  27.048  1.00  0.00    -0.206 F 
ATOM     65  C   UNL A   1      37.294  29.641  28.533  1.00  0.00     0.040 A 
ATOM     66  C   UNL A   1      37.609  28.905  30.804  1.00  0.00     0.040 A 
ATOM     67  F   UNL A   1      39.736  28.253  31.546  1.00  0.00    -0.206 F 
ATOM     68  C   UNL A   1      36.770  29.375  29.796  1.00  0.00     0.006 A 
ENDBRANCH  47  61
BRANCH  48  69
ATOM     69  C   UNL A   1      49.006  26.438  27.355  1.00  0.00     0.057 A 
ATOM     70  C   UNL A   1      49.556  26.554  26.073  1.00  0.00     0.134 A 
ATOM     71  C   UNL A   1      49.843  25.966  28.373  1.00  0.00     0.134 A 
ATOM     72  F   UNL A   1      48.801  26.985  25.052  1.00  0.00    -0.206 F 
ATOM     73  C   UNL A   1      50.879  26.199  25.808  1.00  0.00     0.040 A 
ATOM     74  C   UNL A   1      51.177  25.631  28.129  1.00  0.00     0.040 A 
ATOM     75  F   UNL A   1      49.382  25.839  29.627  1.00  0.00    -0.206 F 
ATOM     76  C   UNL A   1      51.696  25.742  26.841  1.00  0.00     0.006 A 
ENDBRANCH  48  69
BRANCH  60  77
ATOM     77  C   UNL A   1      45.894  32.232  29.670  1.00  0.00     0.057 A 
ATOM     78  C   UNL A   1      45.962  33.299  28.766  1.00  0.00     0.134 A 
ATOM     79  C   UNL A   1      46.248  32.485  31.001  1.00  0.00     0.134 A 
ATOM     80  F   UNL A   1      45.645  33.118  27.476  1.00  0.00    -0.206 F 
ATOM     81  C   UNL A   1      46.376  34.569  29.170  1.00  0.00     0.040 A 
ATOM     82  C   UNL A   1      46.636  33.758  31.424  1.00  0.00     0.040 A 
ATOM     83  F   UNL A   1      46.191  31.509  31.920  1.00  0.00    -0.206 F 
ATOM     84  C   UNL A   1      46.702  34.804  30.504  1.00  0.00     0.006 A 
ENDBRANCH  60  77
ENDBRANCH  34  35
ENDBRANCH  26  29
ENDBRANCH  24  25
ENDBRANCH   1  24
TORSDOF 11
ENDMDL
