MODEL 1
REMARK VINA RESULT:     -11.5      0.000      0.000
REMARK SMILES CC[C@H]1CC[C@](Cc2cccc(OC)n2)(C(=O)NCCCNC(=O)c2ccc(-c3c4nc(c(-c5c(F)cccc5F)c5ccc([nH]5)c(-c5c(F)cccc5F)c5nc(c(-c6c(F)cccc6F)c6ccc3[nH]6)C=C5)C=C4)cc2)C1
REMARK SMILES IDX 19 1 18 2 16 3 17 4 6 6 3 7 4 8 79 9 5 10 2 11 1 12 7 13
REMARK SMILES IDX 8 14 9 15 15 16 10 17 12 18 11 19 13 20 14 21 20 22 21 23
REMARK SMILES IDX 22 24 23 25 24 27 25 28 26 29 78 30 27 31 77 32 28 33 29 34
REMARK SMILES IDX 30 35 71 36 31 37 76 38 70 39 72 40 32 41 75 42 69 43 68 44
REMARK SMILES IDX 33 46 59 47 42 48 58 49 43 50 46 51 57 52 73 53 44 54 45 55
REMARK SMILES IDX 56 57 74 58 47 59 34 60 35 61 40 62 36 63 37 64 39 65 41 66
REMARK SMILES IDX 38 67 60 68 61 69 66 70 62 71 63 72 65 73 67 74 64 75 48 76
REMARK SMILES IDX 49 77 54 78 50 79 51 80 53 81 55 82 52 83
REMARK H PARENT 18 5 22 26 72 45 46 56
REMARK Flexibility Score: inf
ROOT
ATOM      1  C   UNL A   1      36.641  20.768  24.860  1.00  0.00     0.117 C 
ENDROOT
BRANCH   1   2
ATOM      2  N   UNL A   1      36.007  21.050  26.133  1.00  0.00    -0.356 N 
ATOM      3  C   UNL A   1      34.803  21.660  26.383  1.00  0.00     0.226 C 
ATOM      4  O   UNL A   1      34.433  21.704  27.557  1.00  0.00    -0.274 OA
ATOM      5  H   UNL A   1      36.511  20.764  26.930  1.00  0.00     0.163 HD
BRANCH   3   6
ATOM      6  C   UNL A   1      34.005  22.291  25.217  1.00  0.00     0.055 C 
ATOM      7  C   UNL A   1      31.528  22.258  24.837  1.00  0.00    -0.010 C 
ATOM      8  C   UNL A   1      32.111  20.961  24.300  1.00  0.00     0.005 C 
ATOM      9  C   UNL A   1      32.625  22.717  25.813  1.00  0.00     0.021 C 
ATOM     10  C   UNL A   1      33.607  21.221  24.152  1.00  0.00     0.017 C 
BRANCH   7  11
ATOM     11  C   UNL A   1      31.223  23.352  23.807  1.00  0.00     0.000 C 
ATOM     12  C   UNL A   1      30.642  24.653  24.316  1.00  0.00     0.004 C 
ENDBRANCH   7  11
BRANCH   6  13
ATOM     13  C   UNL A   1      34.961  23.334  24.528  1.00  0.00     0.073 C 
BRANCH  13  14
ATOM     14  C   UNL A   1      34.450  24.708  24.174  1.00  0.00     0.045 A 
ATOM     15  C   UNL A   1      34.215  25.702  25.122  1.00  0.00     0.024 A 
ATOM     16  N   UNL A   1      34.201  24.916  22.862  1.00  0.00    -0.219 NA
ATOM     17  C   UNL A   1      33.601  26.883  24.726  1.00  0.00     0.007 A 
ATOM     18  C   UNL A   1      33.645  26.084  22.478  1.00  0.00     0.213 A 
ATOM     19  C   UNL A   1      33.298  27.075  23.385  1.00  0.00     0.068 A 
BRANCH  18  20
ATOM     20  O   UNL A   1      33.486  26.159  21.127  1.00  0.00    -0.481 OA
ATOM     21  C   UNL A   1      32.261  25.682  20.597  1.00  0.00     0.280 C 
ENDBRANCH  18  20
ENDBRANCH  13  14
ENDBRANCH   6  13
ENDBRANCH   3   6
ENDBRANCH   1   2
BRANCH   1  22
ATOM     22  C   UNL A   1      37.787  19.788  24.943  1.00  0.00     0.042 C 
BRANCH  22  23
ATOM     23  C   UNL A   1      38.954  20.340  25.735  1.00  0.00     0.118 C 
BRANCH  23  24
ATOM     24  N   UNL A   1      40.062  19.390  25.824  1.00  0.00    -0.352 N 
ATOM     25  C   UNL A   1      41.392  19.594  26.086  1.00  0.00     0.251 C 
ATOM     26  H   UNL A   1      39.811  18.451  25.671  1.00  0.00     0.163 HD
ATOM     27  O   UNL A   1      42.204  18.693  25.876  1.00  0.00    -0.269 OA
BRANCH  25  28
ATOM     28  C   UNL A   1      41.853  20.897  26.602  1.00  0.00     0.039 A 
ATOM     29  C   UNL A   1      42.323  21.864  25.712  1.00  0.00     0.014 A 
ATOM     30  C   UNL A   1      41.810  21.167  27.970  1.00  0.00     0.014 A 
ATOM     31  C   UNL A   1      42.670  23.127  26.192  1.00  0.00     0.010 A 
ATOM     32  C   UNL A   1      42.019  22.458  28.425  1.00  0.00     0.010 A 
ATOM     33  C   UNL A   1      42.472  23.449  27.545  1.00  0.00    -0.014 A 
BRANCH  33  34
ATOM     34  C   UNL A   1      42.750  24.805  28.074  1.00  0.00     0.031 A 
ATOM     35  C   UNL A   1      44.148  25.179  28.486  1.00  0.00     0.074 A 
ATOM     36  C   UNL A   1      41.731  25.668  28.258  1.00  0.00     0.049 A 
ATOM     37  N   UNL A   1      44.581  26.286  29.033  1.00  0.00    -0.248 NA
ATOM     38  C   UNL A   1      45.193  24.158  28.295  1.00  0.00     0.031 C 
ATOM     39  C   UNL A   1      40.324  25.396  27.957  1.00  0.00     0.029 A 
ATOM     40  N   UNL A   1      41.723  26.949  28.748  1.00  0.00    -0.354 N 
ATOM     41  C   UNL A   1      45.935  26.082  29.270  1.00  0.00     0.074 A 
ATOM     42  C   UNL A   1      46.237  24.726  28.875  1.00  0.00     0.031 C 
ATOM     43  C   UNL A   1      39.597  26.492  28.225  1.00  0.00     0.029 A 
ATOM     44  C   UNL A   1      40.477  27.525  28.760  1.00  0.00     0.049 A 
ATOM     45  H   UNL A   1      42.535  27.410  29.061  1.00  0.00     0.167 HD
ATOM     46  C   UNL A   1      46.851  26.959  29.746  1.00  0.00     0.037 A 
ATOM     47  C   UNL A   1      40.090  28.750  29.162  1.00  0.00     0.037 A 
ATOM     48  C   UNL A   1      46.546  28.317  30.106  1.00  0.00     0.049 A 
ATOM     49  C   UNL A   1      41.125  29.704  29.689  1.00  0.00     0.074 A 
ATOM     50  C   UNL A   1      47.410  29.312  30.524  1.00  0.00     0.029 A 
ATOM     51  N   UNL A   1      45.273  28.869  30.096  1.00  0.00    -0.354 N 
ATOM     52  N   UNL A   1      42.417  29.530  29.827  1.00  0.00    -0.248 NA
ATOM     53  C   UNL A   1      40.647  31.027  30.112  1.00  0.00     0.031 C 
ATOM     54  C   UNL A   1      46.653  30.449  30.824  1.00  0.00     0.029 A 
ATOM     55  C   UNL A   1      45.324  30.182  30.533  1.00  0.00     0.049 A 
ATOM     56  H   UNL A   1      44.455  28.396  29.819  1.00  0.00     0.167 HD
ATOM     57  C   UNL A   1      42.912  30.729  30.323  1.00  0.00     0.074 A 
ATOM     58  C   UNL A   1      41.781  31.626  30.446  1.00  0.00     0.031 C 
ATOM     59  C   UNL A   1      44.187  31.059  30.647  1.00  0.00     0.037 A 
BRANCH  46  60
ATOM     60  C   UNL A   1      48.262  26.468  29.905  1.00  0.00     0.057 A 
ATOM     61  C   UNL A   1      49.207  26.569  28.874  1.00  0.00     0.134 A 
ATOM     62  C   UNL A   1      48.686  25.899  31.112  1.00  0.00     0.134 A 
ATOM     63  F   UNL A   1      48.865  27.091  27.686  1.00  0.00    -0.206 F 
ATOM     64  C   UNL A   1      50.510  26.090  29.026  1.00  0.00     0.040 A 
ATOM     65  C   UNL A   1      49.996  25.446  31.286  1.00  0.00     0.040 A 
ATOM     66  F   UNL A   1      47.837  25.774  32.143  1.00  0.00    -0.206 F 
ATOM     67  C   UNL A   1      50.909  25.532  30.238  1.00  0.00     0.006 A 
ENDBRANCH  46  60
BRANCH  47  68
ATOM     68  C   UNL A   1      38.666  29.156  29.045  1.00  0.00     0.057 A 
ATOM     69  C   UNL A   1      38.146  29.607  27.825  1.00  0.00     0.134 A 
ATOM     70  C   UNL A   1      37.793  29.105  30.136  1.00  0.00     0.134 A 
ATOM     71  F   UNL A   1      38.936  29.692  26.745  1.00  0.00    -0.206 F 
ATOM     72  C   UNL A   1      36.816  30.013  27.701  1.00  0.00     0.040 A 
ATOM     73  C   UNL A   1      36.453  29.481  30.021  1.00  0.00     0.040 A 
ATOM     74  F   UNL A   1      38.225  28.671  31.330  1.00  0.00    -0.206 F 
ATOM     75  C   UNL A   1      35.964  29.945  28.802  1.00  0.00     0.006 A 
ENDBRANCH  47  68
BRANCH  59  76
ATOM     76  C   UNL A   1      44.429  32.460  31.133  1.00  0.00     0.057 A 
ATOM     77  C   UNL A   1      44.690  33.516  30.251  1.00  0.00     0.134 A 
ATOM     78  C   UNL A   1      44.366  32.758  32.501  1.00  0.00     0.134 A 
ATOM     79  F   UNL A   1      44.776  33.295  28.931  1.00  0.00    -0.206 F 
ATOM     80  C   UNL A   1      44.906  34.815  30.715  1.00  0.00     0.040 A 
ATOM     81  C   UNL A   1      44.548  34.058  32.972  1.00  0.00     0.040 A 
ATOM     82  F   UNL A   1      44.110  31.795  33.398  1.00  0.00    -0.206 F 
ATOM     83  C   UNL A   1      44.828  35.089  32.078  1.00  0.00     0.006 A 
ENDBRANCH  59  76
ENDBRANCH  33  34
ENDBRANCH  25  28
ENDBRANCH  23  24
ENDBRANCH  22  23
ENDBRANCH   1  22
TORSDOF 14
ENDMDL
MODEL 2
REMARK VINA RESULT:     -11.3      1.309      6.337
REMARK SMILES CC[C@H]1CC[C@](Cc2cccc(OC)n2)(C(=O)NCCCNC(=O)c2ccc(-c3c4nc(c(-c5c(F)cccc5F)c5ccc([nH]5)c(-c5c(F)cccc5F)c5nc(c(-c6c(F)cccc6F)c6ccc3[nH]6)C=C5)C=C4)cc2)C1
REMARK SMILES IDX 19 1 18 2 16 3 17 4 6 6 3 7 4 8 79 9 5 10 2 11 1 12 7 13
REMARK SMILES IDX 8 14 9 15 15 16 10 17 12 18 11 19 13 20 14 21 20 22 21 23
REMARK SMILES IDX 22 24 23 25 24 27 25 28 26 29 78 30 27 31 77 32 28 33 29 34
REMARK SMILES IDX 30 35 71 36 31 37 76 38 70 39 72 40 32 41 75 42 69 43 68 44
REMARK SMILES IDX 33 46 59 47 42 48 58 49 43 50 46 51 57 52 73 53 44 54 45 55
REMARK SMILES IDX 56 57 74 58 47 59 34 60 35 61 40 62 36 63 37 64 39 65 41 66
REMARK SMILES IDX 38 67 60 68 61 69 66 70 62 71 63 72 65 73 67 74 64 75 48 76
REMARK SMILES IDX 49 77 54 78 50 79 51 80 53 81 55 82 52 83
REMARK H PARENT 18 5 22 26 72 45 46 56
REMARK Flexibility Score: inf
ROOT
ATOM      1  C   UNL A   1      36.767  20.846  24.903  1.00  0.00     0.117 C 
ENDROOT
BRANCH   1   2
ATOM      2  N   UNL A   1      36.139  21.140  26.177  1.00  0.00    -0.356 N 
ATOM      3  C   UNL A   1      34.910  21.697  26.427  1.00  0.00     0.226 C 
ATOM      4  O   UNL A   1      34.556  21.762  27.604  1.00  0.00    -0.274 OA
ATOM      5  H   UNL A   1      36.669  20.907  26.973  1.00  0.00     0.163 HD
BRANCH   3   6
ATOM      6  C   UNL A   1      34.062  22.246  25.254  1.00  0.00     0.055 C 
ATOM      7  C   UNL A   1      31.573  22.175  24.973  1.00  0.00    -0.010 C 
ATOM      8  C   UNL A   1      32.145  20.849  24.499  1.00  0.00     0.005 C 
ATOM      9  C   UNL A   1      32.704  22.703  25.874  1.00  0.00     0.021 C 
ATOM     10  C   UNL A   1      33.632  21.107  24.277  1.00  0.00     0.017 C 
BRANCH   7  11
ATOM     11  C   UNL A   1      31.221  23.198  23.887  1.00  0.00     0.000 C 
ATOM     12  C   UNL A   1      30.704  24.548  24.335  1.00  0.00     0.004 C 
ENDBRANCH   7  11
BRANCH   6  13
ATOM     13  C   UNL A   1      34.983  23.247  24.462  1.00  0.00     0.073 C 
BRANCH  13  14
ATOM     14  C   UNL A   1      34.471  24.618  24.099  1.00  0.00     0.045 A 
ATOM     15  C   UNL A   1      34.288  25.636  25.033  1.00  0.00     0.024 A 
ATOM     16  N   UNL A   1      34.168  24.800  22.794  1.00  0.00    -0.219 NA
ATOM     17  C   UNL A   1      33.668  26.815  24.637  1.00  0.00     0.007 A 
ATOM     18  C   UNL A   1      33.608  25.965  22.408  1.00  0.00     0.213 A 
ATOM     19  C   UNL A   1      33.310  26.979  23.306  1.00  0.00     0.068 A 
BRANCH  18  20
ATOM     20  O   UNL A   1      33.391  26.011  21.064  1.00  0.00    -0.481 OA
ATOM     21  C   UNL A   1      32.044  25.936  20.628  1.00  0.00     0.280 C 
ENDBRANCH  18  20
ENDBRANCH  13  14
ENDBRANCH   6  13
ENDBRANCH   3   6
ENDBRANCH   1   2
BRANCH   1  22
ATOM     22  C   UNL A   1      37.847  19.793  24.973  1.00  0.00     0.042 C 
BRANCH  22  23
ATOM     23  C   UNL A   1      39.066  20.274  25.730  1.00  0.00     0.118 C 
BRANCH  23  24
ATOM     24  N   UNL A   1      40.068  19.222  25.894  1.00  0.00    -0.352 N 
ATOM     25  C   UNL A   1      41.423  19.303  26.094  1.00  0.00     0.251 C 
ATOM     26  H   UNL A   1      39.712  18.306  25.854  1.00  0.00     0.163 HD
ATOM     27  O   UNL A   1      42.123  18.300  25.962  1.00  0.00    -0.269 OA
BRANCH  25  28
ATOM     28  C   UNL A   1      42.041  20.595  26.446  1.00  0.00     0.039 A 
ATOM     29  C   UNL A   1      42.462  21.459  25.433  1.00  0.00     0.014 A 
ATOM     30  C   UNL A   1      42.197  20.958  27.784  1.00  0.00     0.014 A 
ATOM     31  C   UNL A   1      42.961  22.718  25.768  1.00  0.00     0.010 A 
ATOM     32  C   UNL A   1      42.558  22.255  28.109  1.00  0.00     0.010 A 
ATOM     33  C   UNL A   1      42.965  23.144  27.107  1.00  0.00    -0.014 A 
BRANCH  33  34
ATOM     34  C   UNL A   1      43.408  24.505  27.492  1.00  0.00     0.031 A 
ATOM     35  C   UNL A   1      42.392  25.542  27.888  1.00  0.00     0.074 A 
ATOM     36  C   UNL A   1      44.714  24.827  27.407  1.00  0.00     0.049 A 
ATOM     37  N   UNL A   1      42.571  26.802  28.191  1.00  0.00    -0.248 NA
ATOM     38  C   UNL A   1      40.981  25.117  27.907  1.00  0.00     0.031 C 
ATOM     39  C   UNL A   1      45.784  23.926  26.974  1.00  0.00     0.029 A 
ATOM     40  N   UNL A   1      45.362  26.005  27.677  1.00  0.00    -0.354 N 
ATOM     41  C   UNL A   1      41.301  27.319  28.411  1.00  0.00     0.074 A 
ATOM     42  C   UNL A   1      40.357  26.260  28.139  1.00  0.00     0.031 C 
ATOM     43  C   UNL A   1      46.959  24.569  27.053  1.00  0.00     0.029 A 
ATOM     44  C   UNL A   1      46.722  25.939  27.495  1.00  0.00     0.049 A 
ATOM     45  H   UNL A   1      44.897  26.820  27.975  1.00  0.00     0.167 HD
ATOM     46  C   UNL A   1      40.954  28.559  28.833  1.00  0.00     0.037 A 
ATOM     47  C   UNL A   1      47.668  26.880  27.662  1.00  0.00     0.037 A 
ATOM     48  C   UNL A   1      41.904  29.596  29.132  1.00  0.00     0.049 A 
ATOM     49  C   UNL A   1      47.258  28.249  28.129  1.00  0.00     0.074 A 
ATOM     50  C   UNL A   1      41.667  30.860  29.640  1.00  0.00     0.029 A 
ATOM     51  N   UNL A   1      43.274  29.489  28.943  1.00  0.00    -0.354 N 
ATOM     52  N   UNL A   1      46.061  28.701  28.418  1.00  0.00    -0.248 NA
ATOM     53  C   UNL A   1      48.331  29.238  28.296  1.00  0.00     0.031 C 
ATOM     54  C   UNL A   1      42.887  31.540  29.702  1.00  0.00     0.029 A 
ATOM     55  C   UNL A   1      43.893  30.678  29.293  1.00  0.00     0.049 A 
ATOM     56  H   UNL A   1      43.737  28.687  28.610  1.00  0.00     0.167 HD
ATOM     57  C   UNL A   1      46.240  30.016  28.831  1.00  0.00     0.074 A 
ATOM     58  C   UNL A   1      47.663  30.281  28.768  1.00  0.00     0.031 C 
ATOM     59  C   UNL A   1      45.311  30.921  29.225  1.00  0.00     0.037 A 
BRANCH  46  60
ATOM     60  C   UNL A   1      39.489  28.852  28.988  1.00  0.00     0.057 A 
ATOM     61  C   UNL A   1      38.706  29.325  27.925  1.00  0.00     0.134 A 
ATOM     62  C   UNL A   1      38.848  28.645  30.216  1.00  0.00     0.134 A 
ATOM     63  F   UNL A   1      39.258  29.559  26.725  1.00  0.00    -0.206 F 
ATOM     64  C   UNL A   1      37.349  29.614  28.087  1.00  0.00     0.040 A 
ATOM     65  C   UNL A   1      37.484  28.899  30.381  1.00  0.00     0.040 A 
ATOM     66  F   UNL A   1      39.534  28.190  31.275  1.00  0.00    -0.206 F 
ATOM     67  C   UNL A   1      36.734  29.395  29.317  1.00  0.00     0.006 A 
ENDBRANCH  46  60
BRANCH  47  68
ATOM     68  C   UNL A   1      49.097  26.550  27.426  1.00  0.00     0.057 A 
ATOM     69  C   UNL A   1      49.883  25.993  28.444  1.00  0.00     0.134 A 
ATOM     70  C   UNL A   1      49.712  26.779  26.191  1.00  0.00     0.134 A 
ATOM     71  F   UNL A   1      49.355  25.764  29.655  1.00  0.00    -0.206 F 
ATOM     72  C   UNL A   1      51.232  25.697  28.247  1.00  0.00     0.040 A 
ATOM     73  C   UNL A   1      51.053  26.461  25.970  1.00  0.00     0.040 A 
ATOM     74  F   UNL A   1      49.011  27.299  25.171  1.00  0.00    -0.206 F 
ATOM     75  C   UNL A   1      51.820  25.926  27.003  1.00  0.00     0.006 A 
ENDBRANCH  47  68
BRANCH  59  76
ATOM     76  C   UNL A   1      45.811  32.272  29.654  1.00  0.00     0.057 A 
ATOM     77  C   UNL A   1      45.923  33.341  28.756  1.00  0.00     0.134 A 
ATOM     78  C   UNL A   1      46.151  32.511  30.992  1.00  0.00     0.134 A 
ATOM     79  F   UNL A   1      45.625  33.174  27.459  1.00  0.00    -0.206 F 
ATOM     80  C   UNL A   1      46.381  34.593  29.169  1.00  0.00     0.040 A 
ATOM     81  C   UNL A   1      46.579  33.767  31.421  1.00  0.00     0.040 A 
ATOM     82  F   UNL A   1      46.057  31.533  31.906  1.00  0.00    -0.206 F 
ATOM     83  C   UNL A   1      46.704  34.810  30.506  1.00  0.00     0.006 A 
ENDBRANCH  59  76
ENDBRANCH  33  34
ENDBRANCH  25  28
ENDBRANCH  23  24
ENDBRANCH  22  23
ENDBRANCH   1  22
TORSDOF 14
ENDMDL
MODEL 3
REMARK VINA RESULT:     -11.2      3.746      8.936
REMARK SMILES CC[C@H]1CC[C@](Cc2cccc(OC)n2)(C(=O)NCCCNC(=O)c2ccc(-c3c4nc(c(-c5c(F)cccc5F)c5ccc([nH]5)c(-c5c(F)cccc5F)c5nc(c(-c6c(F)cccc6F)c6ccc3[nH]6)C=C5)C=C4)cc2)C1
REMARK SMILES IDX 19 1 18 2 16 3 17 4 6 6 3 7 4 8 79 9 5 10 2 11 1 12 7 13
REMARK SMILES IDX 8 14 9 15 15 16 10 17 12 18 11 19 13 20 14 21 20 22 21 23
REMARK SMILES IDX 22 24 23 25 24 27 25 28 26 29 78 30 27 31 77 32 28 33 29 34
REMARK SMILES IDX 30 35 71 36 31 37 76 38 70 39 72 40 32 41 75 42 69 43 68 44
REMARK SMILES IDX 33 46 59 47 42 48 58 49 43 50 46 51 57 52 73 53 44 54 45 55
REMARK SMILES IDX 56 57 74 58 47 59 34 60 35 61 40 62 36 63 37 64 39 65 41 66
REMARK SMILES IDX 38 67 60 68 61 69 66 70 62 71 63 72 65 73 67 74 64 75 48 76
REMARK SMILES IDX 49 77 54 78 50 79 51 80 53 81 55 82 52 83
REMARK H PARENT 18 5 22 26 72 45 46 56
REMARK Flexibility Score: inf
ROOT
ATOM      1  C   UNL A   1      31.614  30.288  26.095  1.00  0.00     0.117 C 
ENDROOT
BRANCH   1   2
ATOM      2  N   UNL A   1      32.594  30.115  25.041  1.00  0.00    -0.356 N 
ATOM      3  C   UNL A   1      32.787  29.041  24.208  1.00  0.00     0.226 C 
ATOM      4  O   UNL A   1      33.632  29.167  23.322  1.00  0.00    -0.274 OA
ATOM      5  H   UNL A   1      33.207  30.873  24.904  1.00  0.00     0.163 HD
BRANCH   3   6
ATOM      6  C   UNL A   1      31.988  27.736  24.440  1.00  0.00     0.055 C 
ATOM      7  C   UNL A   1      30.943  26.233  22.728  1.00  0.00    -0.010 C 
ATOM      8  C   UNL A   1      29.981  27.375  23.013  1.00  0.00     0.005 C 
ATOM      9  C   UNL A   1      32.281  26.820  23.209  1.00  0.00     0.021 C 
ATOM     10  C   UNL A   1      30.450  27.979  24.332  1.00  0.00     0.017 C 
BRANCH   7  11
ATOM     11  C   UNL A   1      30.651  24.900  23.428  1.00  0.00     0.000 C 
ATOM     12  C   UNL A   1      31.592  23.746  23.159  1.00  0.00     0.004 C 
ENDBRANCH   7  11
BRANCH   6  13
ATOM     13  C   UNL A   1      32.307  27.266  25.908  1.00  0.00     0.073 C 
BRANCH  13  14
ATOM     14  C   UNL A   1      32.660  25.825  26.180  1.00  0.00     0.045 A 
ATOM     15  C   UNL A   1      33.891  25.265  25.843  1.00  0.00     0.024 A 
ATOM     16  N   UNL A   1      31.686  25.086  26.757  1.00  0.00    -0.219 NA
ATOM     17  C   UNL A   1      34.074  23.896  25.991  1.00  0.00     0.007 A 
ATOM     18  C   UNL A   1      31.888  23.765  26.939  1.00  0.00     0.213 A 
ATOM     19  C   UNL A   1      33.053  23.129  26.535  1.00  0.00     0.068 A 
BRANCH  18  20
ATOM     20  O   UNL A   1      30.834  23.164  27.559  1.00  0.00    -0.481 OA
ATOM     21  C   UNL A   1      29.762  22.739  26.734  1.00  0.00     0.280 C 
ENDBRANCH  18  20
ENDBRANCH  13  14
ENDBRANCH   6  13
ENDBRANCH   3   6
ENDBRANCH   1   2
BRANCH   1  22
ATOM     22  C   UNL A   1      31.411  31.722  26.523  1.00  0.00     0.042 C 
BRANCH  22  23
ATOM     23  C   UNL A   1      32.696  32.363  27.002  1.00  0.00     0.118 C 
BRANCH  23  24
ATOM     24  N   UNL A   1      32.491  33.731  27.475  1.00  0.00    -0.352 N 
ATOM     25  C   UNL A   1      33.114  34.432  28.475  1.00  0.00     0.251 C 
ATOM     26  H   UNL A   1      31.791  34.230  26.996  1.00  0.00     0.163 HD
ATOM     27  O   UNL A   1      32.629  35.489  28.878  1.00  0.00    -0.269 OA
BRANCH  25  28
ATOM     28  C   UNL A   1      34.353  33.910  29.081  1.00  0.00     0.039 A 
ATOM     29  C   UNL A   1      34.277  33.073  30.196  1.00  0.00     0.014 A 
ATOM     30  C   UNL A   1      35.596  34.243  28.540  1.00  0.00     0.014 A 
ATOM     31  C   UNL A   1      35.445  32.507  30.710  1.00  0.00     0.010 A 
ATOM     32  C   UNL A   1      36.732  33.572  28.960  1.00  0.00     0.010 A 
ATOM     33  C   UNL A   1      36.675  32.713  30.064  1.00  0.00    -0.014 A 
BRANCH  33  34
ATOM     34  C   UNL A   1      37.921  32.061  30.530  1.00  0.00     0.031 A 
ATOM     35  C   UNL A   1      38.701  32.660  31.669  1.00  0.00     0.074 A 
ATOM     36  C   UNL A   1      38.390  30.979  29.878  1.00  0.00     0.049 A 
ATOM     37  N   UNL A   1      39.845  32.281  32.178  1.00  0.00    -0.248 NA
ATOM     38  C   UNL A   1      38.141  33.871  32.294  1.00  0.00     0.031 C 
ATOM     39  C   UNL A   1      37.755  30.345  28.721  1.00  0.00     0.029 A 
ATOM     40  N   UNL A   1      39.513  30.223  30.094  1.00  0.00    -0.354 N 
ATOM     41  C   UNL A   1      40.148  33.217  33.159  1.00  0.00     0.074 A 
ATOM     42  C   UNL A   1      39.108  34.219  33.128  1.00  0.00     0.031 C 
ATOM     43  C   UNL A   1      38.473  29.271  28.358  1.00  0.00     0.029 A 
ATOM     44  C   UNL A   1      39.642  29.167  29.225  1.00  0.00     0.049 A 
ATOM     45  H   UNL A   1      40.165  30.419  30.806  1.00  0.00     0.167 HD
ATOM     46  C   UNL A   1      41.186  33.224  34.029  1.00  0.00     0.037 A 
ATOM     47  C   UNL A   1      40.598  28.225  29.138  1.00  0.00     0.037 A 
ATOM     48  C   UNL A   1      42.199  32.204  34.073  1.00  0.00     0.049 A 
ATOM     49  C   UNL A   1      41.741  28.255  30.114  1.00  0.00     0.074 A 
ATOM     50  C   UNL A   1      43.249  32.071  34.964  1.00  0.00     0.029 A 
ATOM     51  N   UNL A   1      42.292  31.145  33.182  1.00  0.00    -0.354 N 
ATOM     52  N   UNL A   1      41.970  29.095  31.094  1.00  0.00    -0.248 NA
ATOM     53  C   UNL A   1      42.755  27.202  29.974  1.00  0.00     0.031 C 
ATOM     54  C   UNL A   1      44.011  30.965  34.576  1.00  0.00     0.029 A 
ATOM     55  C   UNL A   1      43.401  30.372  33.481  1.00  0.00     0.049 A 
ATOM     56  H   UNL A   1      41.661  30.970  32.447  1.00  0.00     0.167 HD
ATOM     57  C   UNL A   1      43.137  28.656  31.707  1.00  0.00     0.074 A 
ATOM     58  C   UNL A   1      43.557  27.466  30.995  1.00  0.00     0.031 C 
ATOM     59  C   UNL A   1      43.801  29.189  32.762  1.00  0.00     0.037 A 
BRANCH  46  60
ATOM     60  C   UNL A   1      41.271  34.371  34.996  1.00  0.00     0.057 A 
ATOM     61  C   UNL A   1      40.628  34.345  36.241  1.00  0.00     0.134 A 
ATOM     62  C   UNL A   1      42.020  35.512  34.682  1.00  0.00     0.134 A 
ATOM     63  F   UNL A   1      39.883  33.290  36.601  1.00  0.00    -0.206 F 
ATOM     64  C   UNL A   1      40.697  35.427  37.123  1.00  0.00     0.040 A 
ATOM     65  C   UNL A   1      42.124  36.585  35.570  1.00  0.00     0.040 A 
ATOM     66  F   UNL A   1      42.666  35.603  33.510  1.00  0.00    -0.206 F 
ATOM     67  C   UNL A   1      41.453  36.548  36.790  1.00  0.00     0.006 A 
ENDBRANCH  46  60
BRANCH  47  68
ATOM     68  C   UNL A   1      40.495  27.153  28.115  1.00  0.00     0.057 A 
ATOM     69  C   UNL A   1      41.156  27.268  26.885  1.00  0.00     0.134 A 
ATOM     70  C   UNL A   1      39.744  25.994  28.335  1.00  0.00     0.134 A 
ATOM     71  F   UNL A   1      41.880  28.362  26.608  1.00  0.00    -0.206 F 
ATOM     72  C   UNL A   1      41.053  26.281  25.904  1.00  0.00     0.040 A 
ATOM     73  C   UNL A   1      39.655  24.984  27.374  1.00  0.00     0.040 A 
ATOM     74  F   UNL A   1      39.096  25.816  29.497  1.00  0.00    -0.206 F 
ATOM     75  C   UNL A   1      40.305  25.131  26.150  1.00  0.00     0.006 A 
ENDBRANCH  47  68
BRANCH  59  76
ATOM     76  C   UNL A   1      45.032  28.468  33.232  1.00  0.00     0.057 A 
ATOM     77  C   UNL A   1      44.972  27.437  34.177  1.00  0.00     0.134 A 
ATOM     78  C   UNL A   1      46.289  28.789  32.703  1.00  0.00     0.134 A 
ATOM     79  F   UNL A   1      43.800  27.089  34.732  1.00  0.00    -0.206 F 
ATOM     80  C   UNL A   1      46.122  26.769  34.600  1.00  0.00     0.040 A 
ATOM     81  C   UNL A   1      47.441  28.106  33.094  1.00  0.00     0.040 A 
ATOM     82  F   UNL A   1      46.416  29.760  31.786  1.00  0.00    -0.206 F 
ATOM     83  C   UNL A   1      47.360  27.098  34.053  1.00  0.00     0.006 A 
ENDBRANCH  59  76
ENDBRANCH  33  34
ENDBRANCH  25  28
ENDBRANCH  23  24
ENDBRANCH  22  23
ENDBRANCH   1  22
TORSDOF 14
ENDMDL
