MODEL 1
REMARK VINA RESULT:     -11.5      0.000      0.000
REMARK SMILES CCOc1cc(OCC)cc(-c2ccc([C@@H](C)C(=O)NCCCNC(=O)c3ccc(-c4c5nc(c(-c6c(F)cccc6F)c6ccc([nH]6)c(-c6c(F)cccc6F)c6nc(c(-c7c(F)cccc7F)c7ccc4[nH]7)C=C6)C=C5)cc3)cc2F)c1
REMARK SMILES IDX 21 1 20 2 18 3 19 4 16 6 17 7 15 8 12 9 13 10 82 11 14 12
REMARK SMILES IDX 81 13 83 14 11 15 4 16 5 17 84 18 6 19 10 20 3 21 2 22 1 23
REMARK SMILES IDX 7 24 8 25 9 26 22 27 23 28 24 29 25 30 26 32 27 33 28 34
REMARK SMILES IDX 80 35 29 36 79 37 30 38 31 39 32 40 73 41 33 42 78 43 72 44
REMARK SMILES IDX 74 45 34 46 77 47 71 48 70 49 35 51 61 52 44 53 60 54 45 55
REMARK SMILES IDX 48 56 59 57 75 58 46 59 47 60 58 62 76 63 49 64 36 65 37 66
REMARK SMILES IDX 42 67 38 68 39 69 41 70 43 71 40 72 62 73 63 74 68 75 64 76
REMARK SMILES IDX 65 77 67 78 69 79 66 80 50 81 51 82 56 83 52 84 53 85 55 86
REMARK SMILES IDX 57 87 54 88
REMARK H PARENT 20 5 24 31 74 50 48 61
REMARK Flexibility Score: inf
ROOT
ATOM      1  C   UNL A   1      31.542  30.545  25.896  1.00  0.00     0.117 C 
ENDROOT
BRANCH   1   2
ATOM      2  N   UNL A   1      31.549  29.536  26.937  1.00  0.00    -0.356 N 
ATOM      3  C   UNL A   1      31.538  28.176  26.900  1.00  0.00     0.227 C 
ATOM      4  O   UNL A   1      31.473  27.608  27.998  1.00  0.00    -0.274 OA
ATOM      5  H   UNL A   1      31.566  29.907  27.847  1.00  0.00     0.163 HD
BRANCH   3   6
ATOM      6  C   UNL A   1      31.592  27.339  25.612  1.00  0.00     0.105 C 
ATOM      7  C   UNL A   1      30.232  26.948  25.039  1.00  0.00     0.023 C 
BRANCH   6   8
ATOM      8  C   UNL A   1      32.610  26.214  25.676  1.00  0.00    -0.033 A 
ATOM      9  C   UNL A   1      34.410  24.000  25.637  1.00  0.00     0.018 A 
ATOM     10  C   UNL A   1      34.735  25.231  25.041  1.00  0.00     0.012 A 
ATOM     11  C   UNL A   1      33.169  23.922  26.282  1.00  0.00     0.131 A 
ATOM     12  C   UNL A   1      33.877  26.327  25.105  1.00  0.00     0.005 A 
ATOM     13  C   UNL A   1      32.275  24.996  26.285  1.00  0.00     0.044 A 
ATOM     14  F   UNL A   1      32.800  22.801  26.919  1.00  0.00    -0.206 F 
BRANCH   9  15
ATOM     15  C   UNL A   1      35.359  22.874  25.548  1.00  0.00    -0.008 A 
ATOM     16  C   UNL A   1      35.893  20.561  25.017  1.00  0.00     0.123 A 
ATOM     17  C   UNL A   1      37.251  20.811  25.221  1.00  0.00     0.092 A 
ATOM     18  C   UNL A   1      34.957  21.580  25.196  1.00  0.00     0.055 A 
ATOM     19  C   UNL A   1      37.679  22.083  25.604  1.00  0.00     0.123 A 
ATOM     20  C   UNL A   1      36.729  23.088  25.778  1.00  0.00     0.055 A 
BRANCH  16  21
ATOM     21  O   UNL A   1      35.502  19.271  24.780  1.00  0.00    -0.494 OA
BRANCH  21  22
ATOM     22  C   UNL A   1      34.088  19.092  24.612  1.00  0.00     0.226 C 
ATOM     23  C   UNL A   1      33.734  17.870  23.776  1.00  0.00     0.049 C 
ENDBRANCH  21  22
ENDBRANCH  16  21
BRANCH  19  24
ATOM     24  O   UNL A   1      39.029  22.253  25.759  1.00  0.00    -0.494 OA
BRANCH  24  25
ATOM     25  C   UNL A   1      39.788  21.149  26.269  1.00  0.00     0.226 C 
ATOM     26  C   UNL A   1      40.680  21.560  27.432  1.00  0.00     0.049 C 
ENDBRANCH  24  25
ENDBRANCH  19  24
ENDBRANCH   9  15
ENDBRANCH   6   8
ENDBRANCH   3   6
ENDBRANCH   1   2
BRANCH   1  27
ATOM     27  C   UNL A   1      31.368  31.954  26.461  1.00  0.00     0.042 C 
BRANCH  27  28
ATOM     28  C   UNL A   1      32.634  32.521  27.088  1.00  0.00     0.118 C 
BRANCH  28  29
ATOM     29  N   UNL A   1      32.443  33.881  27.577  1.00  0.00    -0.352 N 
ATOM     30  C   UNL A   1      33.120  34.578  28.548  1.00  0.00     0.251 C 
ATOM     31  H   UNL A   1      31.713  34.378  27.142  1.00  0.00     0.163 HD
ATOM     32  O   UNL A   1      32.657  35.636  28.963  1.00  0.00    -0.269 OA
BRANCH  30  33
ATOM     33  C   UNL A   1      34.390  34.062  29.104  1.00  0.00     0.039 A 
ATOM     34  C   UNL A   1      34.355  33.278  30.262  1.00  0.00     0.014 A 
ATOM     35  C   UNL A   1      35.616  34.379  28.517  1.00  0.00     0.014 A 
ATOM     36  C   UNL A   1      35.542  32.766  30.793  1.00  0.00     0.010 A 
ATOM     37  C   UNL A   1      36.786  33.795  28.991  1.00  0.00     0.010 A 
ATOM     38  C   UNL A   1      36.764  32.994  30.143  1.00  0.00    -0.014 A 
BRANCH  38  39
ATOM     39  C   UNL A   1      38.041  32.437  30.657  1.00  0.00     0.031 A 
ATOM     40  C   UNL A   1      38.626  31.203  30.021  1.00  0.00     0.074 A 
ATOM     41  C   UNL A   1      38.627  32.984  31.739  1.00  0.00     0.049 A 
ATOM     42  N   UNL A   1      39.656  30.487  30.394  1.00  0.00    -0.248 NA
ATOM     43  C   UNL A   1      37.943  30.688  28.822  1.00  0.00     0.031 C 
ATOM     44  C   UNL A   1      38.141  34.158  32.465  1.00  0.00     0.029 A 
ATOM     45  N   UNL A   1      39.754  32.613  32.429  1.00  0.00    -0.354 N 
ATOM     46  C   UNL A   1      39.722  29.426  29.500  1.00  0.00     0.074 A 
ATOM     47  C   UNL A   1      38.605  29.564  28.593  1.00  0.00     0.031 C 
ATOM     48  C   UNL A   1      38.974  34.423  33.484  1.00  0.00     0.029 A 
ATOM     49  C   UNL A   1      40.025  33.411  33.516  1.00  0.00     0.049 A 
ATOM     50  H   UNL A   1      40.316  31.846  32.171  1.00  0.00     0.167 HD
ATOM     51  C   UNL A   1      40.643  28.435  29.430  1.00  0.00     0.037 A 
ATOM     52  C   UNL A   1      41.002  33.325  34.438  1.00  0.00     0.037 A 
ATOM     53  C   UNL A   1      41.776  28.327  30.310  1.00  0.00     0.049 A 
ATOM     54  C   UNL A   1      42.005  32.207  34.342  1.00  0.00     0.074 A 
ATOM     55  C   UNL A   1      42.806  27.404  30.275  1.00  0.00     0.029 A 
ATOM     56  N   UNL A   1      42.027  29.169  31.382  1.00  0.00    -0.354 N 
ATOM     57  N   UNL A   1      42.095  31.250  33.451  1.00  0.00    -0.248 NA
ATOM     58  C   UNL A   1      43.044  32.158  35.381  1.00  0.00     0.031 C 
ATOM     59  C   UNL A   1      43.653  27.655  31.359  1.00  0.00     0.029 A 
ATOM     60  C   UNL A   1      43.182  28.771  32.032  1.00  0.00     0.049 A 
ATOM     61  H   UNL A   1      41.467  29.936  31.643  1.00  0.00     0.167 HD
ATOM     62  C   UNL A   1      43.222  30.514  33.795  1.00  0.00     0.074 A 
ATOM     63  C   UNL A   1      43.785  31.138  34.973  1.00  0.00     0.031 C 
ATOM     64  C   UNL A   1      43.745  29.422  33.188  1.00  0.00     0.037 A 
BRANCH  51  65
ATOM     65  C   UNL A   1      40.468  27.389  28.368  1.00  0.00     0.057 A 
ATOM     66  C   UNL A   1      41.123  27.466  27.133  1.00  0.00     0.134 A 
ATOM     67  C   UNL A   1      39.674  26.259  28.608  1.00  0.00     0.134 A 
ATOM     68  F   UNL A   1      41.889  28.526  26.834  1.00  0.00    -0.206 F 
ATOM     69  C   UNL A   1      40.979  26.470  26.165  1.00  0.00     0.040 A 
ATOM     70  C   UNL A   1      39.546  25.242  27.660  1.00  0.00     0.040 A 
ATOM     71  F   UNL A   1      39.023  26.118  29.772  1.00  0.00    -0.206 F 
ATOM     72  C   UNL A   1      40.195  25.349  26.432  1.00  0.00     0.006 A 
ENDBRANCH  51  65
BRANCH  52  73
ATOM     73  C   UNL A   1      41.097  34.331  35.528  1.00  0.00     0.057 A 
ATOM     74  C   UNL A   1      41.870  35.488  35.373  1.00  0.00     0.134 A 
ATOM     75  C   UNL A   1      40.449  34.152  36.756  1.00  0.00     0.134 A 
ATOM     76  F   UNL A   1      42.529  35.710  34.225  1.00  0.00    -0.206 F 
ATOM     77  C   UNL A   1      42.021  36.413  36.406  1.00  0.00     0.040 A 
ATOM     78  C   UNL A   1      40.566  35.083  37.788  1.00  0.00     0.040 A 
ATOM     79  F   UNL A   1      39.688  33.067  36.967  1.00  0.00    -0.206 F 
ATOM     80  C   UNL A   1      41.364  36.213  37.619  1.00  0.00     0.006 A 
ENDBRANCH  52  73
BRANCH  64  81
ATOM     81  C   UNL A   1      45.023  28.864  33.742  1.00  0.00     0.057 A 
ATOM     82  C   UNL A   1      46.279  29.297  33.300  1.00  0.00     0.134 A 
ATOM     83  C   UNL A   1      44.992  27.921  34.778  1.00  0.00     0.134 A 
ATOM     84  F   UNL A   1      46.378  30.190  32.304  1.00  0.00    -0.206 F 
ATOM     85  C   UNL A   1      47.458  28.799  33.856  1.00  0.00     0.040 A 
ATOM     86  C   UNL A   1      46.163  27.437  35.362  1.00  0.00     0.040 A 
ATOM     87  F   UNL A   1      43.821  27.470  35.255  1.00  0.00    -0.206 F 
ATOM     88  C   UNL A   1      47.401  27.873  34.896  1.00  0.00     0.006 A 
ENDBRANCH  64  81
ENDBRANCH  38  39
ENDBRANCH  30  33
ENDBRANCH  28  29
ENDBRANCH  27  28
ENDBRANCH   1  27
TORSDOF 16
ENDMDL
MODEL 2
REMARK VINA RESULT:     -11.5      3.901      9.774
REMARK SMILES CCOc1cc(OCC)cc(-c2ccc([C@@H](C)C(=O)NCCCNC(=O)c3ccc(-c4c5nc(c(-c6c(F)cccc6F)c6ccc([nH]6)c(-c6c(F)cccc6F)c6nc(c(-c7c(F)cccc7F)c7ccc4[nH]7)C=C6)C=C5)cc3)cc2F)c1
REMARK SMILES IDX 21 1 20 2 18 3 19 4 16 6 17 7 15 8 12 9 13 10 82 11 14 12
REMARK SMILES IDX 81 13 83 14 11 15 4 16 5 17 84 18 6 19 10 20 3 21 2 22 1 23
REMARK SMILES IDX 7 24 8 25 9 26 22 27 23 28 24 29 25 30 26 32 27 33 28 34
REMARK SMILES IDX 80 35 29 36 79 37 30 38 31 39 32 40 73 41 33 42 78 43 72 44
REMARK SMILES IDX 74 45 34 46 77 47 71 48 70 49 35 51 61 52 44 53 60 54 45 55
REMARK SMILES IDX 48 56 59 57 75 58 46 59 47 60 58 62 76 63 49 64 36 65 37 66
REMARK SMILES IDX 42 67 38 68 39 69 41 70 43 71 40 72 62 73 63 74 68 75 64 76
REMARK SMILES IDX 65 77 67 78 69 79 66 80 50 81 51 82 56 83 52 84 53 85 55 86
REMARK SMILES IDX 57 87 54 88
REMARK H PARENT 20 5 24 31 74 50 48 61
REMARK Flexibility Score: inf
ROOT
ATOM      1  C   UNL A   1      37.090  21.176  24.746  1.00  0.00     0.117 C 
ENDROOT
BRANCH   1   2
ATOM      2  N   UNL A   1      35.706  20.766  24.608  1.00  0.00    -0.356 N 
ATOM      3  C   UNL A   1      34.566  21.140  25.251  1.00  0.00     0.227 C 
ATOM      4  O   UNL A   1      33.541  20.526  24.932  1.00  0.00    -0.274 OA
ATOM      5  H   UNL A   1      35.563  20.084  23.914  1.00  0.00     0.163 HD
BRANCH   3   6
ATOM      6  C   UNL A   1      34.492  22.242  26.321  1.00  0.00     0.105 C 
ATOM      7  C   UNL A   1      34.110  21.759  27.718  1.00  0.00     0.023 C 
BRANCH   6   8
ATOM      8  C   UNL A   1      33.757  23.483  25.846  1.00  0.00    -0.033 A 
ATOM      9  C   UNL A   1      32.397  25.895  25.158  1.00  0.00     0.018 A 
ATOM     10  C   UNL A   1      33.733  25.665  24.787  1.00  0.00     0.012 A 
ATOM     11  C   UNL A   1      31.753  24.867  25.856  1.00  0.00     0.131 A 
ATOM     12  C   UNL A   1      34.381  24.466  25.079  1.00  0.00     0.005 A 
ATOM     13  C   UNL A   1      32.420  23.692  26.215  1.00  0.00     0.044 A 
ATOM     14  F   UNL A   1      30.463  24.983  26.206  1.00  0.00    -0.206 F 
BRANCH   9  15
ATOM     15  C   UNL A   1      31.757  27.180  24.816  1.00  0.00    -0.008 A 
ATOM     16  C   UNL A   1      31.490  29.581  25.098  1.00  0.00     0.123 A 
ATOM     17  C   UNL A   1      30.635  29.631  23.995  1.00  0.00     0.092 A 
ATOM     18  C   UNL A   1      32.030  28.363  25.512  1.00  0.00     0.055 A 
ATOM     19  C   UNL A   1      30.318  28.462  23.300  1.00  0.00     0.123 A 
ATOM     20  C   UNL A   1      30.867  27.255  23.729  1.00  0.00     0.055 A 
BRANCH  16  21
ATOM     21  O   UNL A   1      31.663  30.722  25.833  1.00  0.00    -0.494 OA
BRANCH  21  22
ATOM     22  C   UNL A   1      32.195  30.514  27.149  1.00  0.00     0.226 C 
ATOM     23  C   UNL A   1      33.627  31.009  27.302  1.00  0.00     0.049 C 
ENDBRANCH  21  22
ENDBRANCH  16  21
BRANCH  19  24
ATOM     24  O   UNL A   1      29.493  28.600  22.216  1.00  0.00    -0.494 OA
BRANCH  24  25
ATOM     25  C   UNL A   1      28.304  29.384  22.375  1.00  0.00     0.226 C 
ATOM     26  C   UNL A   1      28.169  30.440  21.285  1.00  0.00     0.049 C 
ENDBRANCH  24  25
ENDBRANCH  19  24
ENDBRANCH   9  15
ENDBRANCH   6   8
ENDBRANCH   3   6
ENDBRANCH   1   2
BRANCH   1  27
ATOM     27  C   UNL A   1      38.031  19.983  24.902  1.00  0.00     0.042 C 
BRANCH  27  28
ATOM     28  C   UNL A   1      39.017  20.130  26.052  1.00  0.00     0.118 C 
BRANCH  28  29
ATOM     29  N   UNL A   1      40.191  19.284  25.880  1.00  0.00    -0.352 N 
ATOM     30  C   UNL A   1      41.528  19.595  25.950  1.00  0.00     0.251 C 
ATOM     31  H   UNL A   1      39.996  18.340  25.682  1.00  0.00     0.163 HD
ATOM     32  O   UNL A   1      42.357  18.782  25.553  1.00  0.00    -0.269 OA
BRANCH  30  33
ATOM     33  C   UNL A   1      41.974  20.900  26.486  1.00  0.00     0.039 A 
ATOM     34  C   UNL A   1      42.283  21.931  25.593  1.00  0.00     0.014 A 
ATOM     35  C   UNL A   1      42.129  21.100  27.860  1.00  0.00     0.014 A 
ATOM     36  C   UNL A   1      42.689  23.177  26.081  1.00  0.00     0.010 A 
ATOM     37  C   UNL A   1      42.443  22.365  28.346  1.00  0.00     0.010 A 
ATOM     38  C   UNL A   1      42.741  23.413  27.463  1.00  0.00    -0.014 A 
BRANCH  38  39
ATOM     39  C   UNL A   1      43.133  24.733  28.017  1.00  0.00     0.031 A 
ATOM     40  C   UNL A   1      42.072  25.751  28.341  1.00  0.00     0.074 A 
ATOM     41  C   UNL A   1      44.436  25.047  28.151  1.00  0.00     0.049 A 
ATOM     42  N   UNL A   1      42.206  26.999  28.711  1.00  0.00    -0.248 NA
ATOM     43  C   UNL A   1      40.672  25.316  28.200  1.00  0.00     0.031 C 
ATOM     44  C   UNL A   1      45.559  24.161  27.839  1.00  0.00     0.029 A 
ATOM     45  N   UNL A   1      45.038  26.208  28.569  1.00  0.00    -0.354 N 
ATOM     46  C   UNL A   1      40.915  27.503  28.814  1.00  0.00     0.074 A 
ATOM     47  C   UNL A   1      40.013  26.443  28.425  1.00  0.00     0.031 C 
ATOM     48  C   UNL A   1      46.711  24.802  28.096  1.00  0.00     0.029 A 
ATOM     49  C   UNL A   1      46.412  26.160  28.543  1.00  0.00     0.049 A 
ATOM     50  H   UNL A   1      44.533  27.003  28.859  1.00  0.00     0.167 HD
ATOM     51  C   UNL A   1      40.517  28.734  29.215  1.00  0.00     0.037 A 
ATOM     52  C   UNL A   1      47.324  27.107  28.832  1.00  0.00     0.037 A 
ATOM     53  C   UNL A   1      41.419  29.771  29.641  1.00  0.00     0.049 A 
ATOM     54  C   UNL A   1      46.853  28.469  29.265  1.00  0.00     0.074 A 
ATOM     55  C   UNL A   1      41.112  31.026  30.136  1.00  0.00     0.029 A 
ATOM     56  N   UNL A   1      42.801  29.673  29.622  1.00  0.00    -0.354 N 
ATOM     57  N   UNL A   1      45.629  28.910  29.422  1.00  0.00    -0.248 NA
ATOM     58  C   UNL A   1      47.892  29.467  29.560  1.00  0.00     0.031 C 
ATOM     59  C   UNL A   1      42.311  31.708  30.366  1.00  0.00     0.029 A 
ATOM     60  C   UNL A   1      43.363  30.855  30.072  1.00  0.00     0.049 A 
ATOM     61  H   UNL A   1      43.309  28.881  29.331  1.00  0.00     0.167 HD
ATOM     62  C   UNL A   1      45.750  30.218  29.877  1.00  0.00     0.074 A 
ATOM     63  C   UNL A   1      47.168  30.497  29.973  1.00  0.00     0.031 C 
ATOM     64  C   UNL A   1      44.776  31.106  30.188  1.00  0.00     0.037 A 
BRANCH  51  65
ATOM     65  C   UNL A   1      39.046  29.030  29.215  1.00  0.00     0.057 A 
ATOM     66  C   UNL A   1      38.264  28.916  30.371  1.00  0.00     0.134 A 
ATOM     67  C   UNL A   1      38.414  29.489  28.052  1.00  0.00     0.134 A 
ATOM     68  F   UNL A   1      38.803  28.471  31.516  1.00  0.00    -0.206 F 
ATOM     69  C   UNL A   1      36.902  29.226  30.366  1.00  0.00     0.040 A 
ATOM     70  C   UNL A   1      37.060  29.831  28.041  1.00  0.00     0.040 A 
ATOM     71  F   UNL A   1      39.104  29.628  26.910  1.00  0.00    -0.206 F 
ATOM     72  C   UNL A   1      36.299  29.694  29.200  1.00  0.00     0.006 A 
ENDBRANCH  51  65
BRANCH  52  73
ATOM     73  C   UNL A   1      48.776  26.806  28.740  1.00  0.00     0.057 A 
ATOM     74  C   UNL A   1      49.472  26.977  27.537  1.00  0.00     0.134 A 
ATOM     75  C   UNL A   1      49.497  26.314  29.834  1.00  0.00     0.134 A 
ATOM     76  F   UNL A   1      48.833  27.429  26.447  1.00  0.00    -0.206 F 
ATOM     77  C   UNL A   1      50.821  26.641  27.416  1.00  0.00     0.040 A 
ATOM     78  C   UNL A   1      50.854  26.003  29.736  1.00  0.00     0.040 A 
ATOM     79  F   UNL A   1      48.892  26.133  31.018  1.00  0.00    -0.206 F 
ATOM     80  C   UNL A   1      51.517  26.155  28.520  1.00  0.00     0.006 A 
ENDBRANCH  52  73
BRANCH  64  81
ATOM     81  C   UNL A   1      45.201  32.442  30.725  1.00  0.00     0.057 A 
ATOM     82  C   UNL A   1      45.425  32.661  32.089  1.00  0.00     0.134 A 
ATOM     83  C   UNL A   1      45.445  33.509  29.850  1.00  0.00     0.134 A 
ATOM     84  F   UNL A   1      45.198  31.684  32.980  1.00  0.00    -0.206 F 
ATOM     85  C   UNL A   1      45.860  33.898  32.566  1.00  0.00     0.040 A 
ATOM     86  C   UNL A   1      45.909  34.742  30.311  1.00  0.00     0.040 A 
ATOM     87  F   UNL A   1      45.259  33.364  28.529  1.00  0.00    -0.206 F 
ATOM     88  C   UNL A   1      46.112  34.940  31.675  1.00  0.00     0.006 A 
ENDBRANCH  64  81
ENDBRANCH  38  39
ENDBRANCH  30  33
ENDBRANCH  28  29
ENDBRANCH  27  28
ENDBRANCH   1  27
TORSDOF 16
ENDMDL
MODEL 3
REMARK VINA RESULT:     -11.4      3.442      7.796
REMARK SMILES CCOc1cc(OCC)cc(-c2ccc([C@@H](C)C(=O)NCCCNC(=O)c3ccc(-c4c5nc(c(-c6c(F)cccc6F)c6ccc([nH]6)c(-c6c(F)cccc6F)c6nc(c(-c7c(F)cccc7F)c7ccc4[nH]7)C=C6)C=C5)cc3)cc2F)c1
REMARK SMILES IDX 21 1 20 2 18 3 19 4 16 6 17 7 15 8 12 9 13 10 82 11 14 12
REMARK SMILES IDX 81 13 83 14 11 15 4 16 5 17 84 18 6 19 10 20 3 21 2 22 1 23
REMARK SMILES IDX 7 24 8 25 9 26 22 27 23 28 24 29 25 30 26 32 27 33 28 34
REMARK SMILES IDX 80 35 29 36 79 37 30 38 31 39 32 40 73 41 33 42 78 43 72 44
REMARK SMILES IDX 74 45 34 46 77 47 71 48 70 49 35 51 61 52 44 53 60 54 45 55
REMARK SMILES IDX 48 56 59 57 75 58 46 59 47 60 58 62 76 63 49 64 36 65 37 66
REMARK SMILES IDX 42 67 38 68 39 69 41 70 43 71 40 72 62 73 63 74 68 75 64 76
REMARK SMILES IDX 65 77 67 78 69 79 66 80 50 81 51 82 56 83 52 84 53 85 55 86
REMARK SMILES IDX 57 87 54 88
REMARK H PARENT 20 5 24 31 74 50 48 61
REMARK Flexibility Score: inf
ROOT
ATOM      1  C   UNL A   1      31.715  28.596  25.864  1.00  0.00     0.117 C 
ENDROOT
BRANCH   1   2
ATOM      2  N   UNL A   1      32.154  29.012  24.547  1.00  0.00    -0.356 N 
ATOM      3  C   UNL A   1      31.854  28.571  23.295  1.00  0.00     0.227 C 
ATOM      4  O   UNL A   1      32.476  29.110  22.370  1.00  0.00    -0.274 OA
ATOM      5  H   UNL A   1      32.793  29.759  24.561  1.00  0.00     0.163 HD
BRANCH   3   6
ATOM      6  C   UNL A   1      30.827  27.472  22.981  1.00  0.00     0.105 C 
ATOM      7  C   UNL A   1      29.416  27.741  23.500  1.00  0.00     0.023 C 
BRANCH   6   8
ATOM      8  C   UNL A   1      31.353  26.073  23.247  1.00  0.00    -0.033 A 
ATOM      9  C   UNL A   1      32.532  23.535  23.804  1.00  0.00     0.018 A 
ATOM     10  C   UNL A   1      31.632  24.145  24.693  1.00  0.00     0.012 A 
ATOM     11  C   UNL A   1      32.799  24.218  22.612  1.00  0.00     0.131 A 
ATOM     12  C   UNL A   1      31.017  25.360  24.398  1.00  0.00     0.005 A 
ATOM     13  C   UNL A   1      32.242  25.472  22.344  1.00  0.00     0.044 A 
ATOM     14  F   UNL A   1      33.609  23.685  21.685  1.00  0.00    -0.206 F 
BRANCH   9  15
ATOM     15  C   UNL A   1      33.148  22.242  24.163  1.00  0.00    -0.008 A 
ATOM     16  C   UNL A   1      35.010  20.915  24.994  1.00  0.00     0.123 A 
ATOM     17  C   UNL A   1      34.209  19.772  25.006  1.00  0.00     0.092 A 
ATOM     18  C   UNL A   1      34.486  22.134  24.560  1.00  0.00     0.055 A 
ATOM     19  C   UNL A   1      32.880  19.842  24.585  1.00  0.00     0.123 A 
ATOM     20  C   UNL A   1      32.375  21.068  24.155  1.00  0.00     0.055 A 
BRANCH  16  21
ATOM     21  O   UNL A   1      36.341  20.776  25.279  1.00  0.00    -0.494 OA
BRANCH  21  22
ATOM     22  C   UNL A   1      37.067  22.008  25.382  1.00  0.00     0.226 C 
ATOM     23  C   UNL A   1      38.531  21.813  25.752  1.00  0.00     0.049 C 
ENDBRANCH  21  22
ENDBRANCH  16  21
BRANCH  19  24
ATOM     24  O   UNL A   1      32.155  18.682  24.652  1.00  0.00    -0.494 OA
BRANCH  24  25
ATOM     25  C   UNL A   1      32.526  17.610  23.775  1.00  0.00     0.226 C 
ATOM     26  C   UNL A   1      32.536  18.047  22.316  1.00  0.00     0.049 C 
ENDBRANCH  24  25
ENDBRANCH  19  24
ENDBRANCH   9  15
ENDBRANCH   6   8
ENDBRANCH   3   6
ENDBRANCH   1   2
BRANCH   1  27
ATOM     27  C   UNL A   1      32.717  27.658  26.537  1.00  0.00     0.042 C 
BRANCH  27  28
ATOM     28  C   UNL A   1      34.046  28.321  26.869  1.00  0.00     0.118 C 
BRANCH  28  29
ATOM     29  N   UNL A   1      33.870  29.663  27.411  1.00  0.00    -0.352 N 
ATOM     30  C   UNL A   1      34.713  30.427  28.182  1.00  0.00     0.251 C 
ATOM     31  H   UNL A   1      33.011  30.089  27.190  1.00  0.00     0.163 HD
ATOM     32  O   UNL A   1      34.283  31.442  28.720  1.00  0.00    -0.269 OA
BRANCH  30  33
ATOM     33  C   UNL A   1      36.125  30.030  28.378  1.00  0.00     0.039 A 
ATOM     34  C   UNL A   1      36.524  29.531  29.622  1.00  0.00     0.014 A 
ATOM     35  C   UNL A   1      37.067  30.188  27.359  1.00  0.00     0.014 A 
ATOM     36  C   UNL A   1      37.849  29.135  29.822  1.00  0.00     0.010 A 
ATOM     37  C   UNL A   1      38.361  29.709  27.528  1.00  0.00     0.010 A 
ATOM     38  C   UNL A   1      38.771  29.191  28.766  1.00  0.00    -0.014 A 
BRANCH  38  39
ATOM     39  C   UNL A   1      40.178  28.746  28.930  1.00  0.00     0.031 A 
ATOM     40  C   UNL A   1      41.211  29.713  29.447  1.00  0.00     0.074 A 
ATOM     41  C   UNL A   1      40.543  27.510  28.540  1.00  0.00     0.049 A 
ATOM     42  N   UNL A   1      42.507  29.568  29.544  1.00  0.00    -0.248 NA
ATOM     43  C   UNL A   1      40.723  31.032  29.884  1.00  0.00     0.031 C 
ATOM     44  C   UNL A   1      39.644  26.493  27.992  1.00  0.00     0.029 A 
ATOM     45  N   UNL A   1      41.775  26.903  28.529  1.00  0.00    -0.354 N 
ATOM     46  C   UNL A   1      42.989  30.780  30.020  1.00  0.00     0.074 A 
ATOM     47  C   UNL A   1      41.854  31.667  30.150  1.00  0.00     0.031 C 
ATOM     48  C   UNL A   1      40.349  25.383  27.717  1.00  0.00     0.029 A 
ATOM     49  C   UNL A   1      41.756  25.624  28.023  1.00  0.00     0.049 A 
ATOM     50  H   UNL A   1      42.595  27.342  28.851  1.00  0.00     0.167 HD
ATOM     51  C   UNL A   1      44.261  31.119  30.338  1.00  0.00     0.037 A 
ATOM     52  C   UNL A   1      42.763  24.754  27.815  1.00  0.00     0.037 A 
ATOM     53  C   UNL A   1      45.380  30.219  30.246  1.00  0.00     0.049 A 
ATOM     54  C   UNL A   1      44.168  25.161  28.168  1.00  0.00     0.074 A 
ATOM     55  C   UNL A   1      46.694  30.442  30.615  1.00  0.00     0.029 A 
ATOM     56  N   UNL A   1      45.314  28.926  29.752  1.00  0.00    -0.354 N 
ATOM     57  N   UNL A   1      44.599  26.288  28.680  1.00  0.00    -0.248 NA
ATOM     58  C   UNL A   1      45.227  24.175  27.913  1.00  0.00     0.031 C 
ATOM     59  C   UNL A   1      47.436  29.301  30.293  1.00  0.00     0.029 A 
ATOM     60  C   UNL A   1      46.571  28.347  29.781  1.00  0.00     0.049 A 
ATOM     61  H   UNL A   1      44.496  28.484  29.428  1.00  0.00     0.167 HD
ATOM     62  C   UNL A   1      45.969  26.130  28.850  1.00  0.00     0.074 A 
ATOM     63  C   UNL A   1      46.296  24.796  28.391  1.00  0.00     0.031 C 
ATOM     64  C   UNL A   1      46.874  27.008  29.345  1.00  0.00     0.037 A 
BRANCH  51  65
ATOM     65  C   UNL A   1      44.516  32.519  30.815  1.00  0.00     0.057 A 
ATOM     66  C   UNL A   1      44.472  32.862  32.172  1.00  0.00     0.134 A 
ATOM     67  C   UNL A   1      44.864  33.527  29.906  1.00  0.00     0.134 A 
ATOM     68  F   UNL A   1      44.135  31.948  33.094  1.00  0.00    -0.206 F 
ATOM     69  C   UNL A   1      44.744  34.161  32.607  1.00  0.00     0.040 A 
ATOM     70  C   UNL A   1      45.166  34.823  30.332  1.00  0.00     0.040 A 
ATOM     71  F   UNL A   1      44.930  33.268  28.592  1.00  0.00    -0.206 F 
ATOM     72  C   UNL A   1      45.101  35.143  31.686  1.00  0.00     0.006 A 
ENDBRANCH  51  65
BRANCH  52  73
ATOM     73  C   UNL A   1      42.486  23.403  27.261  1.00  0.00     0.057 A 
ATOM     74  C   UNL A   1      42.142  22.338  28.103  1.00  0.00     0.134 A 
ATOM     75  C   UNL A   1      42.587  23.133  25.892  1.00  0.00     0.134 A 
ATOM     76  F   UNL A   1      42.046  22.528  29.427  1.00  0.00    -0.206 F 
ATOM     77  C   UNL A   1      41.939  21.049  27.608  1.00  0.00     0.040 A 
ATOM     78  C   UNL A   1      42.357  21.856  25.379  1.00  0.00     0.040 A 
ATOM     79  F   UNL A   1      42.907  24.111  25.031  1.00  0.00    -0.206 F 
ATOM     80  C   UNL A   1      42.043  20.806  26.240  1.00  0.00     0.006 A 
ENDBRANCH  52  73
BRANCH  64  81
ATOM     81  C   UNL A   1      48.294  26.540  29.478  1.00  0.00     0.057 A 
ATOM     82  C   UNL A   1      48.757  25.877  30.621  1.00  0.00     0.134 A 
ATOM     83  C   UNL A   1      49.195  26.707  28.418  1.00  0.00     0.134 A 
ATOM     84  F   UNL A   1      47.948  25.696  31.676  1.00  0.00    -0.206 F 
ATOM     85  C   UNL A   1      50.069  25.412  30.712  1.00  0.00     0.040 A 
ATOM     86  C   UNL A   1      50.501  26.221  28.485  1.00  0.00     0.040 A 
ATOM     87  F   UNL A   1      48.813  27.326  27.290  1.00  0.00    -0.206 F 
ATOM     88  C   UNL A   1      50.942  25.575  29.637  1.00  0.00     0.006 A 
ENDBRANCH  64  81
ENDBRANCH  38  39
ENDBRANCH  30  33
ENDBRANCH  28  29
ENDBRANCH  27  28
ENDBRANCH   1  27
TORSDOF 16
ENDMDL
