MODEL 1
REMARK VINA RESULT:     -12.3      0.000      0.000
REMARK SMILES C[C@@](NC(=O)CCOC1CC[NH2+]CC1)(C(=O)NCCCNC(=O)c1ccc(-c2c3nc(c(-c4c(F)cccc4F)c4ccc([nH]4)c(-c4c(F)cccc4F)c4nc(c(-c5c(F)cccc5F)c5ccc2[nH]5)C=C4)C=C3)cc1)C(F)(F)F
REMARK SMILES IDX 15 1 16 2 17 3 2 5 1 6 3 7 4 8 5 10 6 11 7 12 8 13 9 14
REMARK SMILES IDX 10 15 14 16 11 17 13 18 12 19 78 22 79 23 80 24 81 25 18 26
REMARK SMILES IDX 19 27 20 28 21 29 22 30 23 32 24 33 25 34 77 35 26 36 76 37
REMARK SMILES IDX 27 38 28 39 29 40 70 41 30 42 75 43 69 44 71 45 31 46 74 47
REMARK SMILES IDX 68 48 67 49 32 51 58 52 41 53 57 54 42 55 45 56 56 57 72 58
REMARK SMILES IDX 43 59 44 60 55 62 73 63 46 64 33 65 34 66 39 67 35 68 36 69
REMARK SMILES IDX 38 70 40 71 37 72 59 73 60 74 65 75 61 76 62 77 64 78 66 79
REMARK SMILES IDX 63 80 47 81 48 82 53 83 49 84 50 85 52 86 54 87 51 88
REMARK H PARENT 17 4 3 9 12 20 12 21 21 31 71 50 45 61
REMARK Flexibility Score: inf
ROOT
ATOM      1  C   UNL A   1      34.489  20.425  24.972  1.00  0.00     0.254 C 
ATOM      2  O   UNL A   1      33.558  19.609  25.318  1.00  0.00    -0.272 OA
ATOM      3  N   UNL A   1      35.444  19.352  25.008  1.00  0.00    -0.354 N 
ATOM      4  H   UNL A   1      34.939  18.508  25.045  1.00  0.00     0.163 HD
ENDROOT
BRANCH   1   5
ATOM      5  C   UNL A   1      34.458  22.527  24.548  1.00  0.00     0.212 C 
ATOM      6  C   UNL A   1      35.418  23.314  23.289  1.00  0.00     0.056 C 
BRANCH   5   7
ATOM      7  N   UNL A   1      32.979  23.449  24.088  1.00  0.00    -0.334 N 
ATOM      8  C   UNL A   1      31.605  23.372  24.237  1.00  0.00     0.223 C 
ATOM      9  H   UNL A   1      33.223  24.252  23.573  1.00  0.00     0.164 HD
ATOM     10  O   UNL A   1      30.947  23.319  23.192  1.00  0.00    -0.275 OA
BRANCH   8  11
ATOM     11  C   UNL A   1      30.850  23.576  25.572  1.00  0.00     0.128 C 
BRANCH  11  12
ATOM     12  C   UNL A   1      30.200  24.889  26.023  1.00  0.00     0.170 C 
BRANCH  12  13
ATOM     13  O   UNL A   1      30.966  25.741  26.868  1.00  0.00    -0.377 OA
BRANCH  13  14
ATOM     14  C   UNL A   1      31.334  26.937  26.185  1.00  0.00     0.129 C 
ATOM     15  C   UNL A   1      30.694  27.431  24.388  1.00  0.00     0.093 C 
ATOM     16  C   UNL A   1      33.167  27.479  26.664  1.00  0.00     0.093 C 
ATOM     17  C   UNL A   1      31.662  28.829  23.482  1.00  0.00     0.263 C 
ATOM     18  C   UNL A   1      33.986  28.868  25.687  1.00  0.00     0.263 C 
ATOM     19  N   UNL A   1      33.161  29.592  24.208  1.00  0.00    -0.346 N 
ATOM     20  H   UNL A   1      32.905  30.547  24.459  1.00  0.00     0.346 HD
ATOM     21  H   UNL A   1      33.856  29.450  23.476  1.00  0.00     0.346 HD
ENDBRANCH  13  14
ENDBRANCH  12  13
ENDBRANCH  11  12
ENDBRANCH   8  11
ENDBRANCH   5   7
BRANCH   5  22
ATOM     22  C   UNL A   1      35.003  23.869  25.653  1.00  0.00     0.420 C 
ATOM     23  F   UNL A   1      34.698  25.120  25.225  1.00  0.00    -0.168 F 
ATOM     24  F   UNL A   1      34.257  23.732  26.819  1.00  0.00    -0.168 F 
ATOM     25  F   UNL A   1      36.257  23.852  26.151  1.00  0.00    -0.168 F 
ENDBRANCH   5  22
ENDBRANCH   1   5
BRANCH   3  26
ATOM     26  C   UNL A   1      36.900  19.010  25.011  1.00  0.00     0.117 C 
BRANCH  26  27
ATOM     27  C   UNL A   1      37.796  20.175  24.653  1.00  0.00     0.042 C 
BRANCH  27  28
ATOM     28  C   UNL A   1      38.773  20.456  25.777  1.00  0.00     0.118 C 
BRANCH  28  29
ATOM     29  N   UNL A   1      39.874  19.480  25.827  1.00  0.00    -0.352 N 
ATOM     30  C   UNL A   1      41.224  19.625  26.050  1.00  0.00     0.251 C 
ATOM     31  H   UNL A   1      39.592  18.551  25.671  1.00  0.00     0.163 HD
ATOM     32  O   UNL A   1      41.991  18.699  25.810  1.00  0.00    -0.269 OA
BRANCH  30  33
ATOM     33  C   UNL A   1      41.745  20.904  26.559  1.00  0.00     0.039 A 
ATOM     34  C   UNL A   1      42.176  21.901  25.682  1.00  0.00     0.014 A 
ATOM     35  C   UNL A   1      41.766  21.128  27.929  1.00  0.00     0.014 A 
ATOM     36  C   UNL A   1      42.526  23.152  26.195  1.00  0.00     0.010 A 
ATOM     37  C   UNL A   1      41.897  22.414  28.408  1.00  0.00     0.010 A 
ATOM     38  C   UNL A   1      42.328  23.435  27.557  1.00  0.00    -0.014 A 
BRANCH  38  39
ATOM     39  C   UNL A   1      42.608  24.769  28.143  1.00  0.00     0.031 A 
ATOM     40  C   UNL A   1      44.015  25.125  28.559  1.00  0.00     0.074 A 
ATOM     41  C   UNL A   1      41.587  25.616  28.383  1.00  0.00     0.049 A 
ATOM     42  N   UNL A   1      44.451  26.201  29.161  1.00  0.00    -0.248 NA
ATOM     43  C   UNL A   1      45.061  24.111  28.332  1.00  0.00     0.031 C 
ATOM     44  C   UNL A   1      40.170  25.338  28.134  1.00  0.00     0.029 A 
ATOM     45  N   UNL A   1      41.589  26.889  28.887  1.00  0.00    -0.354 N 
ATOM     46  C   UNL A   1      45.797  25.966  29.418  1.00  0.00     0.074 A 
ATOM     47  C   UNL A   1      46.082  24.614  29.007  1.00  0.00     0.031 C 
ATOM     48  C   UNL A   1      39.449  26.434  28.417  1.00  0.00     0.029 A 
ATOM     49  C   UNL A   1      40.347  27.476  28.900  1.00  0.00     0.049 A 
ATOM     50  H   UNL A   1      42.403  27.340  29.210  1.00  0.00     0.167 HD
ATOM     51  C   UNL A   1      46.732  26.818  29.898  1.00  0.00     0.037 A 
ATOM     52  C   UNL A   1      39.985  28.726  29.239  1.00  0.00     0.037 A 
ATOM     53  C   UNL A   1      46.455  28.189  30.224  1.00  0.00     0.049 A 
ATOM     54  C   UNL A   1      41.054  29.688  29.675  1.00  0.00     0.074 A 
ATOM     55  C   UNL A   1      47.332  29.176  30.635  1.00  0.00     0.029 A 
ATOM     56  N   UNL A   1      45.198  28.769  30.150  1.00  0.00    -0.354 N 
ATOM     57  N   UNL A   1      42.341  29.480  29.833  1.00  0.00    -0.248 NA
ATOM     58  C   UNL A   1      40.625  31.062  29.962  1.00  0.00     0.031 C 
ATOM     59  C   UNL A   1      46.598  30.350  30.836  1.00  0.00     0.029 A 
ATOM     60  C   UNL A   1      45.273  30.103  30.511  1.00  0.00     0.049 A 
ATOM     61  H   UNL A   1      44.374  28.302  29.882  1.00  0.00     0.167 HD
ATOM     62  C   UNL A   1      42.879  30.703  30.211  1.00  0.00     0.074 A 
ATOM     63  C   UNL A   1      41.781  31.650  30.234  1.00  0.00     0.031 C 
ATOM     64  C   UNL A   1      44.162  31.018  30.518  1.00  0.00     0.037 A 
BRANCH  51  65
ATOM     65  C   UNL A   1      48.132  26.294  30.053  1.00  0.00     0.057 A 
ATOM     66  C   UNL A   1      49.051  26.309  28.993  1.00  0.00     0.134 A 
ATOM     67  C   UNL A   1      48.566  25.759  31.272  1.00  0.00     0.134 A 
ATOM     68  F   UNL A   1      48.695  26.788  27.792  1.00  0.00    -0.206 F 
ATOM     69  C   UNL A   1      50.334  25.775  29.127  1.00  0.00     0.040 A 
ATOM     70  C   UNL A   1      49.859  25.253  31.428  1.00  0.00     0.040 A 
ATOM     71  F   UNL A   1      47.743  25.713  32.329  1.00  0.00    -0.206 F 
ATOM     72  C   UNL A   1      50.743  25.251  30.350  1.00  0.00     0.006 A 
ENDBRANCH  51  65
BRANCH  52  73
ATOM     73  C   UNL A   1      38.572  29.158  29.100  1.00  0.00     0.057 A 
ATOM     74  C   UNL A   1      38.084  29.634  27.876  1.00  0.00     0.134 A 
ATOM     75  C   UNL A   1      37.675  29.105  30.173  1.00  0.00     0.134 A 
ATOM     76  F   UNL A   1      38.898  29.717  26.812  1.00  0.00    -0.206 F 
ATOM     77  C   UNL A   1      36.765  30.067  27.730  1.00  0.00     0.040 A 
ATOM     78  C   UNL A   1      36.346  29.511  30.035  1.00  0.00     0.040 A 
ATOM     79  F   UNL A   1      38.074  28.642  31.366  1.00  0.00    -0.206 F 
ATOM     80  C   UNL A   1      35.891  30.002  28.812  1.00  0.00     0.006 A 
ENDBRANCH  52  73
BRANCH  64  81
ATOM     81  C   UNL A   1      44.439  32.449  30.869  1.00  0.00     0.057 A 
ATOM     82  C   UNL A   1      44.401  32.904  32.192  1.00  0.00     0.134 A 
ATOM     83  C   UNL A   1      44.763  33.376  29.871  1.00  0.00     0.134 A 
ATOM     84  F   UNL A   1      44.086  32.065  33.191  1.00  0.00    -0.206 F 
ATOM     85  C   UNL A   1      44.640  34.241  32.507  1.00  0.00     0.040 A 
ATOM     86  C   UNL A   1      45.034  34.708  30.177  1.00  0.00     0.040 A 
ATOM     87  F   UNL A   1      44.828  32.998  28.584  1.00  0.00    -0.206 F 
ATOM     88  C   UNL A   1      44.961  35.146  31.498  1.00  0.00     0.006 A 
ENDBRANCH  64  81
ENDBRANCH  38  39
ENDBRANCH  30  33
ENDBRANCH  28  29
ENDBRANCH  27  28
ENDBRANCH  26  27
ENDBRANCH   3  26
TORSDOF 16
ENDMDL
MODEL 2
REMARK VINA RESULT:     -12.2      0.990      1.952
REMARK SMILES C[C@@](NC(=O)CCOC1CC[NH2+]CC1)(C(=O)NCCCNC(=O)c1ccc(-c2c3nc(c(-c4c(F)cccc4F)c4ccc([nH]4)c(-c4c(F)cccc4F)c4nc(c(-c5c(F)cccc5F)c5ccc2[nH]5)C=C4)C=C3)cc1)C(F)(F)F
REMARK SMILES IDX 15 1 16 2 17 3 2 5 1 6 3 7 4 8 5 10 6 11 7 12 8 13 9 14
REMARK SMILES IDX 10 15 14 16 11 17 13 18 12 19 78 22 79 23 80 24 81 25 18 26
REMARK SMILES IDX 19 27 20 28 21 29 22 30 23 32 24 33 25 34 77 35 26 36 76 37
REMARK SMILES IDX 27 38 28 39 29 40 70 41 30 42 75 43 69 44 71 45 31 46 74 47
REMARK SMILES IDX 68 48 67 49 32 51 58 52 41 53 57 54 42 55 45 56 56 57 72 58
REMARK SMILES IDX 43 59 44 60 55 62 73 63 46 64 33 65 34 66 39 67 35 68 36 69
REMARK SMILES IDX 38 70 40 71 37 72 59 73 60 74 65 75 61 76 62 77 64 78 66 79
REMARK SMILES IDX 63 80 47 81 48 82 53 83 49 84 50 85 52 86 54 87 51 88
REMARK H PARENT 17 4 3 9 12 20 12 21 21 31 71 50 45 61
REMARK Flexibility Score: inf
ROOT
ATOM      1  C   UNL A   1      34.605  20.154  25.058  1.00  0.00     0.254 C 
ATOM      2  O   UNL A   1      33.726  19.224  24.940  1.00  0.00    -0.272 OA
ATOM      3  N   UNL A   1      35.652  19.189  24.872  1.00  0.00    -0.354 N 
ATOM      4  H   UNL A   1      35.238  18.365  24.529  1.00  0.00     0.163 HD
ENDROOT
BRANCH   1   5
ATOM      5  C   UNL A   1      34.413  22.263  25.396  1.00  0.00     0.212 C 
ATOM      6  C   UNL A   1      35.730  23.324  25.913  1.00  0.00     0.056 C 
BRANCH   5   7
ATOM      7  N   UNL A   1      33.862  23.445  24.152  1.00  0.00    -0.334 N 
ATOM      8  C   UNL A   1      33.050  23.490  23.032  1.00  0.00     0.223 C 
ATOM      9  H   UNL A   1      34.262  24.329  24.319  1.00  0.00     0.164 HD
ATOM     10  O   UNL A   1      33.598  23.821  21.975  1.00  0.00    -0.275 OA
BRANCH   8  11
ATOM     11  C   UNL A   1      31.506  23.382  23.057  1.00  0.00     0.128 C 
BRANCH  11  12
ATOM     12  C   UNL A   1      30.568  24.354  23.783  1.00  0.00     0.170 C 
BRANCH  12  13
ATOM     13  O   UNL A   1      31.157  25.261  24.709  1.00  0.00    -0.377 OA
BRANCH  13  14
ATOM     14  C   UNL A   1      31.139  26.592  24.199  1.00  0.00     0.129 C 
ATOM     15  C   UNL A   1      29.589  27.418  23.305  1.00  0.00     0.093 C 
ATOM     16  C   UNL A   1      32.928  27.121  23.562  1.00  0.00     0.093 C 
ATOM     17  C   UNL A   1      29.930  29.026  22.299  1.00  0.00     0.263 C 
ATOM     18  C   UNL A   1      33.106  28.727  22.591  1.00  0.00     0.263 C 
ATOM     19  N   UNL A   1      31.621  29.699  22.100  1.00  0.00    -0.346 N 
ATOM     20  H   UNL A   1      31.652  30.565  22.640  1.00  0.00     0.346 HD
ATOM     21  H   UNL A   1      31.718  29.753  21.086  1.00  0.00     0.346 HD
ENDBRANCH  13  14
ENDBRANCH  12  13
ENDBRANCH  11  12
ENDBRANCH   8  11
ENDBRANCH   5   7
BRANCH   5  22
ATOM     22  C   UNL A   1      33.401  23.074  26.675  1.00  0.00     0.420 C 
ATOM     23  F   UNL A   1      33.354  24.427  26.594  1.00  0.00    -0.168 F 
ATOM     24  F   UNL A   1      32.088  22.687  26.427  1.00  0.00    -0.168 F 
ATOM     25  F   UNL A   1      33.535  22.699  27.965  1.00  0.00    -0.168 F 
ENDBRANCH   5  22
ENDBRANCH   1   5
BRANCH   3  26
ATOM     26  C   UNL A   1      37.123  18.941  24.992  1.00  0.00     0.117 C 
BRANCH  26  27
ATOM     27  C   UNL A   1      37.968  20.164  24.712  1.00  0.00     0.042 C 
BRANCH  27  28
ATOM     28  C   UNL A   1      38.933  20.412  25.853  1.00  0.00     0.118 C 
BRANCH  28  29
ATOM     29  N   UNL A   1      40.059  19.465  25.859  1.00  0.00    -0.352 N 
ATOM     30  C   UNL A   1      41.411  19.641  26.043  1.00  0.00     0.251 C 
ATOM     31  H   UNL A   1      39.795  18.530  25.703  1.00  0.00     0.163 HD
ATOM     32  O   UNL A   1      42.193  18.737  25.769  1.00  0.00    -0.269 OA
BRANCH  30  33
ATOM     33  C   UNL A   1      41.915  20.928  26.549  1.00  0.00     0.039 A 
ATOM     34  C   UNL A   1      42.309  21.938  25.670  1.00  0.00     0.014 A 
ATOM     35  C   UNL A   1      41.957  21.145  27.920  1.00  0.00     0.014 A 
ATOM     36  C   UNL A   1      42.644  23.193  26.183  1.00  0.00     0.010 A 
ATOM     37  C   UNL A   1      42.071  22.431  28.403  1.00  0.00     0.010 A 
ATOM     38  C   UNL A   1      42.466  23.465  27.551  1.00  0.00    -0.014 A 
BRANCH  38  39
ATOM     39  C   UNL A   1      42.729  24.801  28.138  1.00  0.00     0.031 A 
ATOM     40  C   UNL A   1      44.131  25.171  28.559  1.00  0.00     0.074 A 
ATOM     41  C   UNL A   1      41.699  25.637  28.376  1.00  0.00     0.049 A 
ATOM     42  N   UNL A   1      44.554  26.251  29.165  1.00  0.00    -0.248 NA
ATOM     43  C   UNL A   1      45.189  24.169  28.336  1.00  0.00     0.031 C 
ATOM     44  C   UNL A   1      40.285  25.344  28.122  1.00  0.00     0.029 A 
ATOM     45  N   UNL A   1      41.685  26.909  28.881  1.00  0.00    -0.354 N 
ATOM     46  C   UNL A   1      45.901  26.031  29.426  1.00  0.00     0.074 A 
ATOM     47  C   UNL A   1      46.201  24.682  29.014  1.00  0.00     0.031 C 
ATOM     48  C   UNL A   1      39.552  26.432  28.403  1.00  0.00     0.029 A 
ATOM     49  C   UNL A   1      40.437  27.483  28.890  1.00  0.00     0.049 A 
ATOM     50  H   UNL A   1      42.493  27.369  29.207  1.00  0.00     0.167 HD
ATOM     51  C   UNL A   1      46.826  26.893  29.910  1.00  0.00     0.037 A 
ATOM     52  C   UNL A   1      40.060  28.729  29.230  1.00  0.00     0.037 A 
ATOM     53  C   UNL A   1      46.533  28.260  30.236  1.00  0.00     0.049 A 
ATOM     54  C   UNL A   1      41.117  29.702  29.670  1.00  0.00     0.074 A 
ATOM     55  C   UNL A   1      47.398  29.256  30.651  1.00  0.00     0.029 A 
ATOM     56  N   UNL A   1      45.269  28.827  30.159  1.00  0.00    -0.354 N 
ATOM     57  N   UNL A   1      42.406  29.508  29.832  1.00  0.00    -0.248 NA
ATOM     58  C   UNL A   1      40.674  31.071  29.956  1.00  0.00     0.031 C 
ATOM     59  C   UNL A   1      46.651  30.422  30.851  1.00  0.00     0.029 A 
ATOM     60  C   UNL A   1      45.330  30.161  30.521  1.00  0.00     0.049 A 
ATOM     61  H   UNL A   1      44.452  28.352  29.887  1.00  0.00     0.167 HD
ATOM     62  C   UNL A   1      42.930  30.736  30.213  1.00  0.00     0.074 A 
ATOM     63  C   UNL A   1      41.822  31.671  30.233  1.00  0.00     0.031 C 
ATOM     64  C   UNL A   1      44.208  31.065  30.524  1.00  0.00     0.037 A 
BRANCH  51  65
ATOM     65  C   UNL A   1      48.230  26.383  30.069  1.00  0.00     0.057 A 
ATOM     66  C   UNL A   1      48.675  25.795  31.263  1.00  0.00     0.134 A 
ATOM     67  C   UNL A   1      49.154  26.488  29.022  1.00  0.00     0.134 A 
ATOM     68  F   UNL A   1      47.849  25.681  32.314  1.00  0.00    -0.206 F 
ATOM     69  C   UNL A   1      49.994  25.368  31.423  1.00  0.00     0.040 A 
ATOM     70  C   UNL A   1      50.467  26.034  29.159  1.00  0.00     0.040 A 
ATOM     71  F   UNL A   1      48.798  27.038  27.851  1.00  0.00    -0.206 F 
ATOM     72  C   UNL A   1      50.893  25.481  30.366  1.00  0.00     0.006 A 
ENDBRANCH  51  65
BRANCH  52  73
ATOM     73  C   UNL A   1      38.643  29.146  29.086  1.00  0.00     0.057 A 
ATOM     74  C   UNL A   1      37.779  29.141  30.188  1.00  0.00     0.134 A 
ATOM     75  C   UNL A   1      38.118  29.564  27.859  1.00  0.00     0.134 A 
ATOM     76  F   UNL A   1      38.221  28.742  31.391  1.00  0.00    -0.206 F 
ATOM     77  C   UNL A   1      36.437  29.508  30.071  1.00  0.00     0.040 A 
ATOM     78  C   UNL A   1      36.784  29.958  27.732  1.00  0.00     0.040 A 
ATOM     79  F   UNL A   1      38.898  29.610  26.769  1.00  0.00    -0.206 F 
ATOM     80  C   UNL A   1      35.938  29.922  28.838  1.00  0.00     0.006 A 
ENDBRANCH  52  73
BRANCH  64  81
ATOM     81  C   UNL A   1      44.469  32.497  30.877  1.00  0.00     0.057 A 
ATOM     82  C   UNL A   1      44.731  33.462  29.898  1.00  0.00     0.134 A 
ATOM     83  C   UNL A   1      44.441  32.917  32.213  1.00  0.00     0.134 A 
ATOM     84  F   UNL A   1      44.782  33.119  28.602  1.00  0.00    -0.206 F 
ATOM     85  C   UNL A   1      44.993  34.789  30.237  1.00  0.00     0.040 A 
ATOM     86  C   UNL A   1      44.670  34.247  32.562  1.00  0.00     0.040 A 
ATOM     87  F   UNL A   1      44.182  32.042  33.197  1.00  0.00    -0.206 F 
ATOM     88  C   UNL A   1      44.959  35.185  31.572  1.00  0.00     0.006 A 
ENDBRANCH  64  81
ENDBRANCH  38  39
ENDBRANCH  30  33
ENDBRANCH  28  29
ENDBRANCH  27  28
ENDBRANCH  26  27
ENDBRANCH   3  26
TORSDOF 16
ENDMDL
MODEL 3
REMARK VINA RESULT:     -12.1      1.582      2.260
REMARK SMILES C[C@@](NC(=O)CCOC1CC[NH2+]CC1)(C(=O)NCCCNC(=O)c1ccc(-c2c3nc(c(-c4c(F)cccc4F)c4ccc([nH]4)c(-c4c(F)cccc4F)c4nc(c(-c5c(F)cccc5F)c5ccc2[nH]5)C=C4)C=C3)cc1)C(F)(F)F
REMARK SMILES IDX 15 1 16 2 17 3 2 5 1 6 3 7 4 8 5 10 6 11 7 12 8 13 9 14
REMARK SMILES IDX 10 15 14 16 11 17 13 18 12 19 78 22 79 23 80 24 81 25 18 26
REMARK SMILES IDX 19 27 20 28 21 29 22 30 23 32 24 33 25 34 77 35 26 36 76 37
REMARK SMILES IDX 27 38 28 39 29 40 70 41 30 42 75 43 69 44 71 45 31 46 74 47
REMARK SMILES IDX 68 48 67 49 32 51 58 52 41 53 57 54 42 55 45 56 56 57 72 58
REMARK SMILES IDX 43 59 44 60 55 62 73 63 46 64 33 65 34 66 39 67 35 68 36 69
REMARK SMILES IDX 38 70 40 71 37 72 59 73 60 74 65 75 61 76 62 77 64 78 66 79
REMARK SMILES IDX 63 80 47 81 48 82 53 83 49 84 50 85 52 86 54 87 51 88
REMARK H PARENT 17 4 3 9 12 20 12 21 21 31 71 50 45 61
REMARK Flexibility Score: inf
ROOT
ATOM      1  C   UNL A   1      35.653  23.294  25.293  1.00  0.00     0.254 C 
ATOM      2  O   UNL A   1      36.668  23.953  25.725  1.00  0.00    -0.272 OA
ATOM      3  N   UNL A   1      36.369  22.064  25.489  1.00  0.00    -0.354 N 
ATOM      4  H   UNL A   1      37.156  22.263  26.044  1.00  0.00     0.163 HD
ENDROOT
BRANCH   1   5
ATOM      5  C   UNL A   1      33.729  23.934  24.596  1.00  0.00     0.212 C 
ATOM      6  C   UNL A   1      32.252  22.967  24.690  1.00  0.00     0.056 C 
BRANCH   5   7
ATOM      7  N   UNL A   1      32.877  25.411  25.181  1.00  0.00    -0.334 N 
ATOM      8  C   UNL A   1      33.166  26.713  25.552  1.00  0.00     0.223 C 
ATOM      9  H   UNL A   1      31.910  25.240  25.260  1.00  0.00     0.164 HD
ATOM     10  O   UNL A   1      32.857  27.030  26.707  1.00  0.00    -0.275 OA
BRANCH   8  11
ATOM     11  C   UNL A   1      33.622  27.828  24.581  1.00  0.00     0.128 C 
BRANCH  11  12
ATOM     12  C   UNL A   1      32.683  28.683  23.721  1.00  0.00     0.170 C 
BRANCH  12  13
ATOM     13  O   UNL A   1      32.216  28.115  22.502  1.00  0.00    -0.377 OA
BRANCH  13  14
ATOM     14  C   UNL A   1      30.792  28.151  22.438  1.00  0.00     0.129 C 
ATOM     15  C   UNL A   1      29.731  29.796  22.210  1.00  0.00     0.093 C 
ATOM     16  C   UNL A   1      30.006  26.724  23.548  1.00  0.00     0.093 C 
ATOM     17  C   UNL A   1      27.851  29.671  22.611  1.00  0.00     0.263 C 
ATOM     18  C   UNL A   1      28.145  26.732  23.851  1.00  0.00     0.263 C 
ATOM     19  N   UNL A   1      27.103  28.133  23.266  1.00  0.00    -0.346 N 
ATOM     20  H   UNL A   1      26.512  27.761  22.522  1.00  0.00     0.346 HD
ATOM     21  H   UNL A   1      26.660  28.453  24.126  1.00  0.00     0.346 HD
ENDBRANCH  13  14
ENDBRANCH  12  13
ENDBRANCH  11  12
ENDBRANCH   8  11
ENDBRANCH   5   7
BRANCH   5  22
ATOM     22  C   UNL A   1      33.257  24.292  22.873  1.00  0.00     0.420 C 
ATOM     23  F   UNL A   1      33.869  25.372  22.326  1.00  0.00    -0.168 F 
ATOM     24  F   UNL A   1      33.737  23.227  22.117  1.00  0.00    -0.168 F 
ATOM     25  F   UNL A   1      31.953  24.282  22.526  1.00  0.00    -0.168 F 
ENDBRANCH   5  22
ENDBRANCH   1   5
BRANCH   3  26
ATOM     26  C   UNL A   1      36.390  20.599  25.183  1.00  0.00     0.117 C 
BRANCH  26  27
ATOM     27  C   UNL A   1      37.749  20.091  24.753  1.00  0.00     0.042 C 
BRANCH  27  28
ATOM     28  C   UNL A   1      38.806  20.486  25.764  1.00  0.00     0.118 C 
BRANCH  28  29
ATOM     29  N   UNL A   1      39.915  19.521  25.831  1.00  0.00    -0.352 N 
ATOM     30  C   UNL A   1      41.263  19.680  26.057  1.00  0.00     0.251 C 
ATOM     31  H   UNL A   1      39.641  18.587  25.688  1.00  0.00     0.163 HD
ATOM     32  O   UNL A   1      42.038  18.757  25.832  1.00  0.00    -0.269 OA
BRANCH  30  33
ATOM     33  C   UNL A   1      41.771  20.971  26.549  1.00  0.00     0.039 A 
ATOM     34  C   UNL A   1      42.041  22.018  25.667  1.00  0.00     0.014 A 
ATOM     35  C   UNL A   1      41.943  21.152  27.915  1.00  0.00     0.014 A 
ATOM     36  C   UNL A   1      42.383  23.270  26.181  1.00  0.00     0.010 A 
ATOM     37  C   UNL A   1      42.061  22.429  28.423  1.00  0.00     0.010 A 
ATOM     38  C   UNL A   1      42.333  23.499  27.567  1.00  0.00    -0.014 A 
BRANCH  38  39
ATOM     39  C   UNL A   1      42.608  24.827  28.166  1.00  0.00     0.031 A 
ATOM     40  C   UNL A   1      44.013  25.179  28.595  1.00  0.00     0.074 A 
ATOM     41  C   UNL A   1      41.587  25.672  28.406  1.00  0.00     0.049 A 
ATOM     42  N   UNL A   1      44.445  26.250  29.211  1.00  0.00    -0.248 NA
ATOM     43  C   UNL A   1      45.060  24.167  28.369  1.00  0.00     0.031 C 
ATOM     44  C   UNL A   1      40.171  25.397  28.143  1.00  0.00     0.029 A 
ATOM     45  N   UNL A   1      41.584  26.941  28.920  1.00  0.00    -0.354 N 
ATOM     46  C   UNL A   1      45.788  26.013  29.476  1.00  0.00     0.074 A 
ATOM     47  C   UNL A   1      46.076  24.664  29.055  1.00  0.00     0.031 C 
ATOM     48  C   UNL A   1      39.448  26.491  28.430  1.00  0.00     0.029 A 
ATOM     49  C   UNL A   1      40.343  27.529  28.928  1.00  0.00     0.049 A 
ATOM     50  H   UNL A   1      42.396  27.390  29.253  1.00  0.00     0.167 HD
ATOM     51  C   UNL A   1      46.720  26.861  29.970  1.00  0.00     0.037 A 
ATOM     52  C   UNL A   1      39.978  28.776  29.275  1.00  0.00     0.037 A 
ATOM     53  C   UNL A   1      46.441  28.229  30.305  1.00  0.00     0.049 A 
ATOM     54  C   UNL A   1      41.044  29.734  29.727  1.00  0.00     0.074 A 
ATOM     55  C   UNL A   1      47.315  29.212  30.731  1.00  0.00     0.029 A 
ATOM     56  N   UNL A   1      45.184  28.810  30.227  1.00  0.00    -0.354 N 
ATOM     57  N   UNL A   1      42.330  29.525  29.893  1.00  0.00    -0.248 NA
ATOM     58  C   UNL A   1      40.614  31.106  30.022  1.00  0.00     0.031 C 
ATOM     59  C   UNL A   1      46.580  30.384  30.937  1.00  0.00     0.029 A 
ATOM     60  C   UNL A   1      45.258  30.141  30.599  1.00  0.00     0.049 A 
ATOM     61  H   UNL A   1      44.363  28.346  29.948  1.00  0.00     0.167 HD
ATOM     62  C   UNL A   1      42.865  30.744  30.286  1.00  0.00     0.074 A 
ATOM     63  C   UNL A   1      41.768  31.691  30.308  1.00  0.00     0.031 C 
ATOM     64  C   UNL A   1      44.146  31.056  30.605  1.00  0.00     0.037 A 
BRANCH  51  65
ATOM     65  C   UNL A   1      48.118  26.335  30.131  1.00  0.00     0.057 A 
ATOM     66  C   UNL A   1      49.040  26.344  29.074  1.00  0.00     0.134 A 
ATOM     67  C   UNL A   1      48.548  25.804  31.353  1.00  0.00     0.134 A 
ATOM     68  F   UNL A   1      48.689  26.818  27.869  1.00  0.00    -0.206 F 
ATOM     69  C   UNL A   1      50.322  25.808  29.214  1.00  0.00     0.040 A 
ATOM     70  C   UNL A   1      49.839  25.297  31.515  1.00  0.00     0.040 A 
ATOM     71  F   UNL A   1      47.722  25.764  32.409  1.00  0.00    -0.206 F 
ATOM     72  C   UNL A   1      50.727  25.289  30.440  1.00  0.00     0.006 A 
ENDBRANCH  51  65
BRANCH  52  73
ATOM     73  C   UNL A   1      38.567  29.210  29.129  1.00  0.00     0.057 A 
ATOM     74  C   UNL A   1      38.074  29.643  27.892  1.00  0.00     0.134 A 
ATOM     75  C   UNL A   1      37.676  29.200  30.208  1.00  0.00     0.134 A 
ATOM     76  F   UNL A   1      38.881  29.684  26.820  1.00  0.00    -0.206 F 
ATOM     77  C   UNL A   1      36.756  30.077  27.737  1.00  0.00     0.040 A 
ATOM     78  C   UNL A   1      36.349  29.608  30.063  1.00  0.00     0.040 A 
ATOM     79  F   UNL A   1      38.080  28.779  31.415  1.00  0.00    -0.206 F 
ATOM     80  C   UNL A   1      35.888  30.056  28.827  1.00  0.00     0.006 A 
ENDBRANCH  52  73
BRANCH  64  81
ATOM     81  C   UNL A   1      44.421  32.484  30.970  1.00  0.00     0.057 A 
ATOM     82  C   UNL A   1      44.366  32.929  32.295  1.00  0.00     0.134 A 
ATOM     83  C   UNL A   1      44.759  33.417  29.983  1.00  0.00     0.134 A 
ATOM     84  F   UNL A   1      44.036  32.084  33.284  1.00  0.00    -0.206 F 
ATOM     85  C   UNL A   1      44.603  34.264  32.623  1.00  0.00     0.040 A 
ATOM     86  C   UNL A   1      45.029  34.747  30.302  1.00  0.00     0.040 A 
ATOM     87  F   UNL A   1      44.841  33.049  28.695  1.00  0.00    -0.206 F 
ATOM     88  C   UNL A   1      44.939  35.175  31.625  1.00  0.00     0.006 A 
ENDBRANCH  64  81
ENDBRANCH  38  39
ENDBRANCH  30  33
ENDBRANCH  28  29
ENDBRANCH  27  28
ENDBRANCH  26  27
ENDBRANCH   3  26
TORSDOF 16
ENDMDL
