MODEL 1
REMARK VINA RESULT:     -11.1      0.000      0.000
REMARK SMILES O=C(COc1ccccc1[C@@H]1C2=C(CCCC2=O)Nc2nc(SCc3ccccn3)nn21)NCCCNC(=O)c1ccc(-c2c3nc(c(-c4c(F)cccc4F)c4ccc([nH]4)c(-c4c(F)cccc4F)c4nc(c(-c5c(F)cccc5F)c5ccc2[nH]5)C=C4)C=C3)cc1
REMARK SMILES IDX 1 1 2 2 33 3 3 5 4 6 5 7 6 8 10 9 7 10 9 11 8 12 11 13 12 14
REMARK SMILES IDX 32 15 13 16 17 17 20 18 31 19 14 20 19 21 16 22 18 23 21 24
REMARK SMILES IDX 22 25 15 26 23 28 24 29 25 30 26 31 30 32 27 33 29 34 28 35
REMARK SMILES IDX 34 36 35 37 36 38 37 39 38 40 39 42 40 43 41 44 93 45 42 46
REMARK SMILES IDX 92 47 43 48 44 49 45 50 86 51 46 52 91 53 85 54 87 55 47 56
REMARK SMILES IDX 90 57 84 58 83 59 48 61 74 62 57 63 73 64 58 65 61 66 72 67
REMARK SMILES IDX 88 68 59 69 60 70 71 72 89 73 62 74 49 75 50 76 55 77 51 78
REMARK SMILES IDX 52 79 54 80 56 81 53 82 75 83 76 84 81 85 77 86 78 87 80 88
REMARK SMILES IDX 82 89 79 90 63 91 64 92 69 93 65 94 66 95 68 96 70 97 67 98
REMARK H PARENT 33 4 19 27 37 41 87 60 61 71
REMARK Flexibility Score: inf
ROOT
ATOM      1  O   UNL A   1      35.904  29.511  29.473  1.00  0.00    -0.271 OA
ATOM      2  C   UNL A   1      36.701  29.572  28.492  1.00  0.00     0.257 C 
ATOM      3  N   UNL A   1      35.751  29.922  27.426  1.00  0.00    -0.353 N 
ATOM      4  H   UNL A   1      36.121  30.111  26.533  1.00  0.00     0.163 HD
ENDROOT
BRANCH   2   5
ATOM      5  C   UNL A   1      38.862  29.129  28.471  1.00  0.00     0.329 C 
BRANCH   5   6
ATOM      6  O   UNL A   1      39.762  27.904  28.475  1.00  0.00    -0.483 OA
BRANCH   6   7
ATOM      7  C   UNL A   1      40.683  27.861  27.468  1.00  0.00     0.125 A 
ATOM      8  C   UNL A   1      40.726  28.850  26.498  1.00  0.00     0.047 A 
ATOM      9  C   UNL A   1      41.420  26.702  27.337  1.00  0.00     0.024 A 
ATOM     10  C   UNL A   1      41.523  28.650  25.369  1.00  0.00     0.004 A 
ATOM     11  C   UNL A   1      42.221  26.491  26.220  1.00  0.00     0.010 A 
ATOM     12  C   UNL A   1      42.264  27.472  25.229  1.00  0.00     0.001 A 
BRANCH   9  13
ATOM     13  C   UNL A   1      41.047  25.668  28.335  1.00  0.00     0.181 C 
ATOM     14  C   UNL A   1      42.738  25.025  29.132  1.00  0.00     0.044 C 
ATOM     15  N   UNL A   1      40.031  24.318  27.548  1.00  0.00    -0.218 N 
ATOM     16  C   UNL A   1      43.138  23.478  29.135  1.00  0.00     0.027 C 
ATOM     17  C   UNL A   1      43.565  26.008  29.849  1.00  0.00     0.163 C 
ATOM     18  C   UNL A   1      40.578  22.637  27.644  1.00  0.00     0.227 A 
ATOM     19  N   UNL A   1      39.113  24.320  26.564  1.00  0.00    -0.141 NA
ATOM     20  C   UNL A   1      44.436  23.018  29.704  1.00  0.00     0.055 C 
ATOM     21  N   UNL A   1      42.006  22.259  28.487  1.00  0.00    -0.328 N 
ATOM     22  C   UNL A   1      44.770  25.472  30.584  1.00  0.00     0.081 C 
ATOM     23  O   UNL A   1      43.162  27.157  29.992  1.00  0.00    -0.294 OA
ATOM     24  N   UNL A   1      39.690  22.008  26.931  1.00  0.00    -0.185 NA
ATOM     25  C   UNL A   1      38.898  23.004  26.328  1.00  0.00     0.210 A 
ATOM     26  C   UNL A   1      45.384  24.200  29.977  1.00  0.00     0.014 C 
ATOM     27  H   UNL A   1      42.222  21.309  28.628  1.00  0.00     0.169 HD
BRANCH  25  28
ATOM     28  S   UNL A   1      37.683  22.552  25.140  1.00  0.00    -0.078 SA
BRANCH  28  29
ATOM     29  C   UNL A   1      36.152  23.210  25.873  1.00  0.00     0.134 C 
BRANCH  29  30
ATOM     30  C   UNL A   1      34.889  22.492  25.446  1.00  0.00     0.051 A 
ATOM     31  C   UNL A   1      34.563  21.249  25.992  1.00  0.00     0.025 A 
ATOM     32  N   UNL A   1      34.114  23.080  24.500  1.00  0.00    -0.260 NA
ATOM     33  C   UNL A   1      33.486  20.535  25.477  1.00  0.00     0.003 A 
ATOM     34  C   UNL A   1      33.047  22.383  24.050  1.00  0.00     0.111 A 
ATOM     35  C   UNL A   1      32.711  21.110  24.483  1.00  0.00     0.020 A 
ENDBRANCH  29  30
ENDBRANCH  28  29
ENDBRANCH  25  28
ENDBRANCH   9  13
ENDBRANCH   6   7
ENDBRANCH   5   6
ENDBRANCH   2   5
BRANCH   3  36
ATOM     36  C   UNL A   1      34.288  30.010  27.586  1.00  0.00     0.117 C 
BRANCH  36  37
ATOM     37  C   UNL A   1      33.770  31.447  27.508  1.00  0.00     0.042 C 
BRANCH  37  38
ATOM     38  C   UNL A   1      34.736  32.501  28.037  1.00  0.00     0.118 C 
BRANCH  38  39
ATOM     39  N   UNL A   1      34.155  33.499  28.954  1.00  0.00    -0.352 N 
ATOM     40  C   UNL A   1      34.323  33.645  30.334  1.00  0.00     0.251 C 
ATOM     41  H   UNL A   1      33.561  34.161  28.531  1.00  0.00     0.163 HD
ATOM     42  O   UNL A   1      33.533  34.310  30.995  1.00  0.00    -0.269 OA
BRANCH  40  43
ATOM     43  C   UNL A   1      35.523  33.083  30.989  1.00  0.00     0.039 A 
ATOM     44  C   UNL A   1      35.573  32.006  31.879  1.00  0.00     0.014 A 
ATOM     45  C   UNL A   1      36.692  33.727  30.682  1.00  0.00     0.014 A 
ATOM     46  C   UNL A   1      36.806  31.668  32.475  1.00  0.00     0.010 A 
ATOM     47  C   UNL A   1      37.881  33.139  30.953  1.00  0.00     0.010 A 
ATOM     48  C   UNL A   1      37.968  32.313  32.044  1.00  0.00    -0.014 A 
BRANCH  48  49
ATOM     49  C   UNL A   1      39.341  32.027  32.447  1.00  0.00     0.031 A 
ATOM     50  C   UNL A   1      39.946  33.214  33.108  1.00  0.00     0.074 A 
ATOM     51  C   UNL A   1      39.844  30.764  32.517  1.00  0.00     0.049 A 
ATOM     52  N   UNL A   1      40.763  34.060  32.573  1.00  0.00    -0.248 NA
ATOM     53  C   UNL A   1      39.370  33.692  34.384  1.00  0.00     0.031 C 
ATOM     54  C   UNL A   1      39.201  29.486  32.175  1.00  0.00     0.029 A 
ATOM     55  N   UNL A   1      41.063  30.343  32.988  1.00  0.00    -0.354 N 
ATOM     56  C   UNL A   1      41.011  34.994  33.573  1.00  0.00     0.074 A 
ATOM     57  C   UNL A   1      39.896  34.916  34.466  1.00  0.00     0.031 C 
ATOM     58  C   UNL A   1      39.929  28.445  32.656  1.00  0.00     0.029 A 
ATOM     59  C   UNL A   1      41.165  28.956  33.217  1.00  0.00     0.049 A 
ATOM     60  H   UNL A   1      41.810  30.962  33.154  1.00  0.00     0.167 HD
ATOM     61  C   UNL A   1      42.277  35.436  33.809  1.00  0.00     0.037 A 
ATOM     62  C   UNL A   1      42.200  28.318  33.840  1.00  0.00     0.037 A 
ATOM     63  C   UNL A   1      43.134  35.091  32.698  1.00  0.00     0.049 A 
ATOM     64  C   UNL A   1      43.358  29.255  33.805  1.00  0.00     0.074 A 
ATOM     65  C   UNL A   1      43.121  35.357  31.343  1.00  0.00     0.029 A 
ATOM     66  N   UNL A   1      43.931  33.985  32.862  1.00  0.00    -0.354 N 
ATOM     67  N   UNL A   1      43.943  29.618  32.697  1.00  0.00    -0.248 NA
ATOM     68  C   UNL A   1      43.459  30.194  34.915  1.00  0.00     0.031 C 
ATOM     69  C   UNL A   1      43.505  34.130  30.725  1.00  0.00     0.029 A 
ATOM     70  C   UNL A   1      43.858  33.224  31.725  1.00  0.00     0.049 A 
ATOM     71  H   UNL A   1      44.467  33.774  33.660  1.00  0.00     0.167 HD
ATOM     72  C   UNL A   1      44.074  30.995  32.813  1.00  0.00     0.074 A 
ATOM     73  C   UNL A   1      43.774  31.289  34.218  1.00  0.00     0.031 C 
ATOM     74  C   UNL A   1      44.088  31.799  31.710  1.00  0.00     0.037 A 
BRANCH  61  75
ATOM     75  C   UNL A   1      42.844  35.738  35.184  1.00  0.00     0.057 A 
ATOM     76  C   UNL A   1      43.492  36.973  35.375  1.00  0.00     0.134 A 
ATOM     77  C   UNL A   1      43.043  34.802  36.222  1.00  0.00     0.134 A 
ATOM     78  F   UNL A   1      43.385  37.953  34.467  1.00  0.00    -0.206 F 
ATOM     79  C   UNL A   1      44.344  37.217  36.459  1.00  0.00     0.040 A 
ATOM     80  C   UNL A   1      43.854  35.055  37.333  1.00  0.00     0.040 A 
ATOM     81  F   UNL A   1      42.557  33.558  36.196  1.00  0.00    -0.206 F 
ATOM     82  C   UNL A   1      44.537  36.252  37.438  1.00  0.00     0.006 A 
ENDBRANCH  61  75
BRANCH  62  83
ATOM     83  C   UNL A   1      42.186  27.150  34.767  1.00  0.00     0.057 A 
ATOM     84  C   UNL A   1      42.936  25.983  34.520  1.00  0.00     0.134 A 
ATOM     85  C   UNL A   1      41.682  27.277  36.073  1.00  0.00     0.134 A 
ATOM     86  F   UNL A   1      43.513  25.784  33.326  1.00  0.00    -0.206 F 
ATOM     87  C   UNL A   1      43.176  25.015  35.513  1.00  0.00     0.040 A 
ATOM     88  C   UNL A   1      41.915  26.322  37.072  1.00  0.00     0.040 A 
ATOM     89  F   UNL A   1      41.027  28.385  36.448  1.00  0.00    -0.206 F 
ATOM     90  C   UNL A   1      42.674  25.189  36.799  1.00  0.00     0.006 A 
ENDBRANCH  62  83
BRANCH  74  91
ATOM     91  C   UNL A   1      44.179  31.148  30.355  1.00  0.00     0.057 A 
ATOM     92  C   UNL A   1      43.080  30.832  29.538  1.00  0.00     0.134 A 
ATOM     93  C   UNL A   1      45.447  31.002  29.786  1.00  0.00     0.134 A 
ATOM     94  F   UNL A   1      41.825  31.026  29.959  1.00  0.00    -0.206 F 
ATOM     95  C   UNL A   1      43.243  30.366  28.228  1.00  0.00     0.040 A 
ATOM     96  C   UNL A   1      45.623  30.569  28.472  1.00  0.00     0.040 A 
ATOM     97  F   UNL A   1      46.540  31.340  30.488  1.00  0.00    -0.206 F 
ATOM     98  C   UNL A   1      44.521  30.240  27.690  1.00  0.00     0.006 A 
ENDBRANCH  74  91
ENDBRANCH  48  49
ENDBRANCH  40  43
ENDBRANCH  38  39
ENDBRANCH  37  38
ENDBRANCH  36  37
ENDBRANCH   3  36
TORSDOF 16
ENDMDL
MODEL 2
REMARK VINA RESULT:     -10.9      4.217      9.668
REMARK SMILES O=C(COc1ccccc1[C@@H]1C2=C(CCCC2=O)Nc2nc(SCc3ccccn3)nn21)NCCCNC(=O)c1ccc(-c2c3nc(c(-c4c(F)cccc4F)c4ccc([nH]4)c(-c4c(F)cccc4F)c4nc(c(-c5c(F)cccc5F)c5ccc2[nH]5)C=C4)C=C3)cc1
REMARK SMILES IDX 1 1 2 2 33 3 3 5 4 6 5 7 6 8 10 9 7 10 9 11 8 12 11 13 12 14
REMARK SMILES IDX 32 15 13 16 17 17 20 18 31 19 14 20 19 21 16 22 18 23 21 24
REMARK SMILES IDX 22 25 15 26 23 28 24 29 25 30 26 31 30 32 27 33 29 34 28 35
REMARK SMILES IDX 34 36 35 37 36 38 37 39 38 40 39 42 40 43 41 44 93 45 42 46
REMARK SMILES IDX 92 47 43 48 44 49 45 50 86 51 46 52 91 53 85 54 87 55 47 56
REMARK SMILES IDX 90 57 84 58 83 59 48 61 74 62 57 63 73 64 58 65 61 66 72 67
REMARK SMILES IDX 88 68 59 69 60 70 71 72 89 73 62 74 49 75 50 76 55 77 51 78
REMARK SMILES IDX 52 79 54 80 56 81 53 82 75 83 76 84 81 85 77 86 78 87 80 88
REMARK SMILES IDX 82 89 79 90 63 91 64 92 69 93 65 94 66 95 68 96 70 97 67 98
REMARK H PARENT 33 4 19 27 37 41 87 60 61 71
REMARK Flexibility Score: inf
ROOT
ATOM      1  O   UNL A   1      40.006  22.766  27.352  1.00  0.00    -0.271 OA
ATOM      2  C   UNL A   1      39.192  22.275  26.517  1.00  0.00     0.257 C 
ATOM      3  N   UNL A   1      39.886  21.015  26.210  1.00  0.00    -0.353 N 
ATOM      4  H   UNL A   1      39.425  20.376  25.620  1.00  0.00     0.163 HD
ENDROOT
BRANCH   2   5
ATOM      5  C   UNL A   1      37.353  23.193  25.715  1.00  0.00     0.329 C 
BRANCH   5   6
ATOM      6  O   UNL A   1      35.951  22.753  25.327  1.00  0.00    -0.483 OA
BRANCH   6   7
ATOM      7  C   UNL A   1      35.015  22.871  26.315  1.00  0.00     0.125 A 
ATOM      8  C   UNL A   1      35.173  22.218  27.528  1.00  0.00     0.047 A 
ATOM      9  C   UNL A   1      33.824  23.486  25.986  1.00  0.00     0.024 A 
ATOM     10  C   UNL A   1      34.096  22.179  28.415  1.00  0.00     0.004 A 
ATOM     11  C   UNL A   1      32.745  23.458  26.862  1.00  0.00     0.010 A 
ATOM     12  C   UNL A   1      32.884  22.793  28.081  1.00  0.00     0.001 A 
BRANCH   9  13
ATOM     13  C   UNL A   1      33.767  23.901  24.562  1.00  0.00     0.181 C 
ATOM     14  C   UNL A   1      32.660  25.538  24.501  1.00  0.00     0.044 C 
ATOM     15  N   UNL A   1      33.117  22.519  23.493  1.00  0.00    -0.218 N 
ATOM     16  C   UNL A   1      31.369  25.652  23.567  1.00  0.00     0.027 C 
ATOM     17  C   UNL A   1      33.143  26.709  25.250  1.00  0.00     0.163 C 
ATOM     18  C   UNL A   1      31.687  22.787  22.484  1.00  0.00     0.227 A 
ATOM     19  N   UNL A   1      33.247  21.181  23.548  1.00  0.00    -0.141 NA
ATOM     20  C   UNL A   1      30.524  26.880  23.566  1.00  0.00     0.055 C 
ATOM     21  N   UNL A   1      30.937  24.314  22.467  1.00  0.00    -0.328 N 
ATOM     22  C   UNL A   1      32.372  27.994  25.067  1.00  0.00     0.081 C 
ATOM     23  O   UNL A   1      34.226  26.664  25.821  1.00  0.00    -0.294 OA
ATOM     24  N   UNL A   1      31.483  21.613  21.961  1.00  0.00    -0.185 NA
ATOM     25  C   UNL A   1      32.378  20.739  22.608  1.00  0.00     0.210 A 
ATOM     26  C   UNL A   1      30.882  27.812  24.738  1.00  0.00     0.014 C 
ATOM     27  H   UNL A   1      30.220  24.470  21.811  1.00  0.00     0.169 HD
BRANCH  25  28
ATOM     28  S   UNL A   1      32.288  19.011  22.295  1.00  0.00    -0.078 SA
BRANCH  28  29
ATOM     29  C   UNL A   1      31.992  18.326  23.956  1.00  0.00     0.134 C 
BRANCH  29  30
ATOM     30  C   UNL A   1      33.132  17.495  24.507  1.00  0.00     0.051 A 
ATOM     31  C   UNL A   1      34.454  17.921  24.362  1.00  0.00     0.025 A 
ATOM     32  N   UNL A   1      32.826  16.319  25.111  1.00  0.00    -0.260 NA
ATOM     33  C   UNL A   1      35.493  17.075  24.733  1.00  0.00     0.003 A 
ATOM     34  C   UNL A   1      33.855  15.537  25.505  1.00  0.00     0.111 A 
ATOM     35  C   UNL A   1      35.190  15.855  25.316  1.00  0.00     0.020 A 
ENDBRANCH  29  30
ENDBRANCH  28  29
ENDBRANCH  25  28
ENDBRANCH   9  13
ENDBRANCH   6   7
ENDBRANCH   5   6
ENDBRANCH   2   5
BRANCH   3  36
ATOM     36  C   UNL A   1      41.217  20.634  26.715  1.00  0.00     0.117 C 
BRANCH  36  37
ATOM     37  C   UNL A   1      41.904  19.584  25.838  1.00  0.00     0.042 C 
BRANCH  37  38
ATOM     38  C   UNL A   1      43.427  19.644  25.850  1.00  0.00     0.118 C 
BRANCH  38  39
ATOM     39  N   UNL A   1      44.060  20.104  24.600  1.00  0.00    -0.352 N 
ATOM     40  C   UNL A   1      44.273  21.405  24.135  1.00  0.00     0.251 C 
ATOM     41  H   UNL A   1      44.381  19.388  24.004  1.00  0.00     0.163 HD
ATOM     42  O   UNL A   1      44.512  21.617  22.952  1.00  0.00    -0.269 OA
BRANCH  40  43
ATOM     43  C   UNL A   1      44.316  22.528  25.096  1.00  0.00     0.039 A 
ATOM     44  C   UNL A   1      45.309  22.789  26.045  1.00  0.00     0.014 A 
ATOM     45  C   UNL A   1      43.239  23.371  25.033  1.00  0.00     0.014 A 
ATOM     46  C   UNL A   1      45.132  23.865  26.940  1.00  0.00     0.010 A 
ATOM     47  C   UNL A   1      43.297  24.589  25.620  1.00  0.00     0.010 A 
ATOM     48  C   UNL A   1      44.053  24.733  26.755  1.00  0.00    -0.014 A 
BRANCH  48  49
ATOM     49  C   UNL A   1      43.765  25.958  27.493  1.00  0.00     0.031 A 
ATOM     50  C   UNL A   1      44.715  27.034  27.105  1.00  0.00     0.074 A 
ATOM     51  C   UNL A   1      42.595  26.164  28.158  1.00  0.00     0.049 A 
ATOM     52  N   UNL A   1      45.755  27.420  27.769  1.00  0.00    -0.248 NA
ATOM     53  C   UNL A   1      44.700  27.532  25.711  1.00  0.00     0.031 C 
ATOM     54  C   UNL A   1      41.451  25.256  28.332  1.00  0.00     0.029 A 
ATOM     55  N   UNL A   1      42.145  27.299  28.786  1.00  0.00    -0.354 N 
ATOM     56  C   UNL A   1      46.327  28.416  26.984  1.00  0.00     0.074 A 
ATOM     57  C   UNL A   1      45.868  28.175  25.650  1.00  0.00     0.031 C 
ATOM     58  C   UNL A   1      40.375  25.934  28.805  1.00  0.00     0.029 A 
ATOM     59  C   UNL A   1      40.773  27.295  29.109  1.00  0.00     0.049 A 
ATOM     60  H   UNL A   1      42.735  28.058  28.996  1.00  0.00     0.167 HD
ATOM     61  C   UNL A   1      46.769  29.573  27.549  1.00  0.00     0.037 A 
ATOM     62  C   UNL A   1      40.054  28.360  29.574  1.00  0.00     0.037 A 
ATOM     63  C   UNL A   1      46.880  29.411  28.980  1.00  0.00     0.049 A 
ATOM     64  C   UNL A   1      41.043  29.341  30.103  1.00  0.00     0.074 A 
ATOM     65  C   UNL A   1      47.573  28.552  29.809  1.00  0.00     0.029 A 
ATOM     66  N   UNL A   1      45.851  29.921  29.734  1.00  0.00    -0.354 N 
ATOM     67  N   UNL A   1      41.796  29.099  31.140  1.00  0.00    -0.248 NA
ATOM     68  C   UNL A   1      41.571  30.302  29.144  1.00  0.00     0.031 C 
ATOM     69  C   UNL A   1      46.653  28.224  30.848  1.00  0.00     0.029 A 
ATOM     70  C   UNL A   1      45.501  28.992  30.677  1.00  0.00     0.049 A 
ATOM     71  H   UNL A   1      45.435  30.806  29.617  1.00  0.00     0.167 HD
ATOM     72  C   UNL A   1      43.064  29.499  30.745  1.00  0.00     0.074 A 
ATOM     73  C   UNL A   1      42.856  30.255  29.505  1.00  0.00     0.031 C 
ATOM     74  C   UNL A   1      44.184  28.915  31.263  1.00  0.00     0.037 A 
BRANCH  61  75
ATOM     75  C   UNL A   1      46.650  30.946  26.913  1.00  0.00     0.057 A 
ATOM     76  C   UNL A   1      47.789  31.771  26.902  1.00  0.00     0.134 A 
ATOM     77  C   UNL A   1      45.445  31.602  26.577  1.00  0.00     0.134 A 
ATOM     78  F   UNL A   1      49.000  31.276  27.199  1.00  0.00    -0.206 F 
ATOM     79  C   UNL A   1      47.719  33.151  26.674  1.00  0.00     0.040 A 
ATOM     80  C   UNL A   1      45.372  32.971  26.301  1.00  0.00     0.040 A 
ATOM     81  F   UNL A   1      44.252  31.001  26.587  1.00  0.00    -0.206 F 
ATOM     82  C   UNL A   1      46.505  33.758  26.383  1.00  0.00     0.006 A 
ENDBRANCH  61  75
BRANCH  62  83
ATOM     83  C   UNL A   1      38.650  28.768  29.282  1.00  0.00     0.057 A 
ATOM     84  C   UNL A   1      37.682  28.917  30.295  1.00  0.00     0.134 A 
ATOM     85  C   UNL A   1      38.309  29.323  28.037  1.00  0.00     0.134 A 
ATOM     86  F   UNL A   1      37.923  28.475  31.538  1.00  0.00    -0.206 F 
ATOM     87  C   UNL A   1      36.462  29.586  30.083  1.00  0.00     0.040 A 
ATOM     88  C   UNL A   1      37.099  29.995  27.812  1.00  0.00     0.040 A 
ATOM     89  F   UNL A   1      39.186  29.318  27.023  1.00  0.00    -0.206 F 
ATOM     90  C   UNL A   1      36.173  30.138  28.839  1.00  0.00     0.006 A 
ENDBRANCH  62  83
BRANCH  74  91
ATOM     91  C   UNL A   1      44.024  27.980  32.433  1.00  0.00     0.057 A 
ATOM     92  C   UNL A   1      43.916  26.582  32.338  1.00  0.00     0.134 A 
ATOM     93  C   UNL A   1      44.163  28.513  33.717  1.00  0.00     0.134 A 
ATOM     94  F   UNL A   1      43.871  25.970  31.149  1.00  0.00    -0.206 F 
ATOM     95  C   UNL A   1      43.920  25.762  33.472  1.00  0.00     0.040 A 
ATOM     96  C   UNL A   1      44.199  27.706  34.854  1.00  0.00     0.040 A 
ATOM     97  F   UNL A   1      44.328  29.835  33.880  1.00  0.00    -0.206 F 
ATOM     98  C   UNL A   1      44.069  26.326  34.736  1.00  0.00     0.006 A 
ENDBRANCH  74  91
ENDBRANCH  48  49
ENDBRANCH  40  43
ENDBRANCH  38  39
ENDBRANCH  37  38
ENDBRANCH  36  37
ENDBRANCH   3  36
TORSDOF 16
ENDMDL
MODEL 3
REMARK VINA RESULT:     -10.7      3.958      8.436
REMARK SMILES O=C(COc1ccccc1[C@@H]1C2=C(CCCC2=O)Nc2nc(SCc3ccccn3)nn21)NCCCNC(=O)c1ccc(-c2c3nc(c(-c4c(F)cccc4F)c4ccc([nH]4)c(-c4c(F)cccc4F)c4nc(c(-c5c(F)cccc5F)c5ccc2[nH]5)C=C4)C=C3)cc1
REMARK SMILES IDX 1 1 2 2 33 3 3 5 4 6 5 7 6 8 10 9 7 10 9 11 8 12 11 13 12 14
REMARK SMILES IDX 32 15 13 16 17 17 20 18 31 19 14 20 19 21 16 22 18 23 21 24
REMARK SMILES IDX 22 25 15 26 23 28 24 29 25 30 26 31 30 32 27 33 29 34 28 35
REMARK SMILES IDX 34 36 35 37 36 38 37 39 38 40 39 42 40 43 41 44 93 45 42 46
REMARK SMILES IDX 92 47 43 48 44 49 45 50 86 51 46 52 91 53 85 54 87 55 47 56
REMARK SMILES IDX 90 57 84 58 83 59 48 61 74 62 57 63 73 64 58 65 61 66 72 67
REMARK SMILES IDX 88 68 59 69 60 70 71 72 89 73 62 74 49 75 50 76 55 77 51 78
REMARK SMILES IDX 52 79 54 80 56 81 53 82 75 83 76 84 81 85 77 86 78 87 80 88
REMARK SMILES IDX 82 89 79 90 63 91 64 92 69 93 65 94 66 95 68 96 70 97 67 98
REMARK H PARENT 33 4 19 27 37 41 87 60 61 71
REMARK Flexibility Score: inf
ROOT
ATOM      1  O   UNL A   1      46.372  31.272  27.519  1.00  0.00    -0.271 OA
ATOM      2  C   UNL A   1      45.594  30.863  26.610  1.00  0.00     0.257 C 
ATOM      3  N   UNL A   1      45.460  32.099  25.825  1.00  0.00    -0.353 N 
ATOM      4  H   UNL A   1      44.949  32.050  24.985  1.00  0.00     0.163 HD
ENDROOT
BRANCH   2   5
ATOM      5  C   UNL A   1      44.653  28.875  26.423  1.00  0.00     0.329 C 
BRANCH   5   6
ATOM      6  O   UNL A   1      43.288  28.248  26.653  1.00  0.00    -0.483 OA
BRANCH   6   7
ATOM      7  C   UNL A   1      43.033  27.878  27.943  1.00  0.00     0.125 A 
ATOM      8  C   UNL A   1      42.904  28.828  28.945  1.00  0.00     0.047 A 
ATOM      9  C   UNL A   1      43.116  26.534  28.242  1.00  0.00     0.024 A 
ATOM     10  C   UNL A   1      42.873  28.402  30.274  1.00  0.00     0.004 A 
ATOM     11  C   UNL A   1      43.082  26.096  29.561  1.00  0.00     0.010 A 
ATOM     12  C   UNL A   1      42.967  27.041  30.581  1.00  0.00     0.001 A 
BRANCH   9  13
ATOM     13  C   UNL A   1      43.504  25.708  27.071  1.00  0.00     0.181 C 
ATOM     14  C   UNL A   1      42.455  24.037  27.192  1.00  0.00     0.044 C 
ATOM     15  N   UNL A   1      45.348  25.433  27.033  1.00  0.00    -0.218 N 
ATOM     16  C   UNL A   1      43.152  22.599  27.196  1.00  0.00     0.027 C 
ATOM     17  C   UNL A   1      40.989  24.154  27.144  1.00  0.00     0.163 C 
ATOM     18  C   UNL A   1      45.989  23.783  27.017  1.00  0.00     0.227 A 
ATOM     19  N   UNL A   1      46.395  26.200  27.387  1.00  0.00    -0.141 NA
ATOM     20  C   UNL A   1      42.347  21.353  27.330  1.00  0.00     0.055 C 
ATOM     21  N   UNL A   1      44.921  22.460  26.997  1.00  0.00    -0.328 N 
ATOM     22  C   UNL A   1      40.210  22.862  27.079  1.00  0.00     0.081 C 
ATOM     23  O   UNL A   1      40.470  25.249  26.963  1.00  0.00    -0.294 OA
ATOM     24  N   UNL A   1      47.275  23.976  27.077  1.00  0.00    -0.185 NA
ATOM     25  C   UNL A   1      47.450  25.355  27.303  1.00  0.00     0.210 A 
ATOM     26  C   UNL A   1      40.896  21.659  27.745  1.00  0.00     0.014 C 
ATOM     27  H   UNL A   1      45.300  21.561  26.867  1.00  0.00     0.169 HD
BRANCH  25  28
ATOM     28  S   UNL A   1      49.059  25.989  27.617  1.00  0.00    -0.078 SA
BRANCH  28  29
ATOM     29  C   UNL A   1      49.040  27.573  26.719  1.00  0.00     0.134 C 
BRANCH  29  30
ATOM     30  C   UNL A   1      48.892  27.443  25.217  1.00  0.00     0.051 A 
ATOM     31  C   UNL A   1      49.944  26.954  24.441  1.00  0.00     0.025 A 
ATOM     32  N   UNL A   1      47.724  27.848  24.658  1.00  0.00    -0.260 NA
ATOM     33  C   UNL A   1      49.848  26.988  23.054  1.00  0.00     0.003 A 
ATOM     34  C   UNL A   1      47.640  27.827  23.310  1.00  0.00     0.111 A 
ATOM     35  C   UNL A   1      48.673  27.435  22.473  1.00  0.00     0.020 A 
ENDBRANCH  29  30
ENDBRANCH  28  29
ENDBRANCH  25  28
ENDBRANCH   9  13
ENDBRANCH   6   7
ENDBRANCH   5   6
ENDBRANCH   2   5
BRANCH   3  36
ATOM     36  C   UNL A   1      46.030  33.407  26.197  1.00  0.00     0.117 C 
BRANCH  36  37
ATOM     37  C   UNL A   1      45.307  34.578  25.530  1.00  0.00     0.042 C 
BRANCH  37  38
ATOM     38  C   UNL A   1      45.063  35.777  26.440  1.00  0.00     0.118 C 
BRANCH  38  39
ATOM     39  N   UNL A   1      45.967  35.896  27.599  1.00  0.00    -0.352 N 
ATOM     40  C   UNL A   1      45.663  36.064  28.952  1.00  0.00     0.251 C 
ATOM     41  H   UNL A   1      46.928  35.849  27.387  1.00  0.00     0.163 HD
ATOM     42  O   UNL A   1      46.512  36.465  29.740  1.00  0.00    -0.269 OA
BRANCH  40  43
ATOM     43  C   UNL A   1      44.338  35.653  29.462  1.00  0.00     0.039 A 
ATOM     44  C   UNL A   1      43.113  36.291  29.241  1.00  0.00     0.014 A 
ATOM     45  C   UNL A   1      44.354  34.532  30.249  1.00  0.00     0.014 A 
ATOM     46  C   UNL A   1      41.960  35.798  29.887  1.00  0.00     0.010 A 
ATOM     47  C   UNL A   1      43.201  33.875  30.516  1.00  0.00     0.010 A 
ATOM     48  C   UNL A   1      42.040  34.599  30.601  1.00  0.00    -0.014 A 
BRANCH  48  49
ATOM     49  C   UNL A   1      40.946  33.871  31.235  1.00  0.00     0.031 A 
ATOM     50  C   UNL A   1      41.218  33.687  32.685  1.00  0.00     0.074 A 
ATOM     51  C   UNL A   1      39.728  33.709  30.650  1.00  0.00     0.049 A 
ATOM     52  N   UNL A   1      41.656  32.614  33.257  1.00  0.00    -0.248 NA
ATOM     53  C   UNL A   1      41.303  34.882  33.554  1.00  0.00     0.031 C 
ATOM     54  C   UNL A   1      39.269  34.142  29.321  1.00  0.00     0.029 A 
ATOM     55  N   UNL A   1      38.584  33.159  31.173  1.00  0.00    -0.354 N 
ATOM     56  C   UNL A   1      41.775  32.951  34.601  1.00  0.00     0.074 A 
ATOM     57  C   UNL A   1      41.897  34.376  34.637  1.00  0.00     0.031 C 
ATOM     58  C   UNL A   1      37.917  34.048  29.233  1.00  0.00     0.029 A 
ATOM     59  C   UNL A   1      37.410  33.418  30.437  1.00  0.00     0.049 A 
ATOM     60  H   UNL A   1      38.583  32.624  31.999  1.00  0.00     0.167 HD
ATOM     61  C   UNL A   1      41.345  32.096  35.570  1.00  0.00     0.037 A 
ATOM     62  C   UNL A   1      36.134  33.133  30.833  1.00  0.00     0.037 A 
ATOM     63  C   UNL A   1      41.141  30.780  35.009  1.00  0.00     0.049 A 
ATOM     64  C   UNL A   1      36.244  32.117  31.917  1.00  0.00     0.074 A 
ATOM     65  C   UNL A   1      41.941  29.876  34.340  1.00  0.00     0.029 A 
ATOM     66  N   UNL A   1      39.845  30.438  34.710  1.00  0.00    -0.354 N 
ATOM     67  N   UNL A   1      36.698  30.911  31.715  1.00  0.00    -0.248 NA
ATOM     68  C   UNL A   1      36.393  32.634  33.270  1.00  0.00     0.031 C 
ATOM     69  C   UNL A   1      41.113  29.352  33.303  1.00  0.00     0.029 A 
ATOM     70  C   UNL A   1      39.824  29.858  33.469  1.00  0.00     0.049 A 
ATOM     71  H   UNL A   1      39.062  30.583  35.290  1.00  0.00     0.167 HD
ATOM     72  C   UNL A   1      37.592  30.702  32.755  1.00  0.00     0.074 A 
ATOM     73  C   UNL A   1      37.344  31.799  33.697  1.00  0.00     0.031 C 
ATOM     74  C   UNL A   1      38.663  29.868  32.610  1.00  0.00     0.037 A 
BRANCH  61  75
ATOM     75  C   UNL A   1      40.670  32.522  36.860  1.00  0.00     0.057 A 
ATOM     76  C   UNL A   1      39.509  33.312  36.770  1.00  0.00     0.134 A 
ATOM     77  C   UNL A   1      41.233  32.452  38.153  1.00  0.00     0.134 A 
ATOM     78  F   UNL A   1      38.870  33.463  35.600  1.00  0.00    -0.206 F 
ATOM     79  C   UNL A   1      39.010  34.046  37.852  1.00  0.00     0.040 A 
ATOM     80  C   UNL A   1      40.714  33.143  39.252  1.00  0.00     0.040 A 
ATOM     81  F   UNL A   1      42.366  31.798  38.428  1.00  0.00    -0.206 F 
ATOM     82  C   UNL A   1      39.619  33.973  39.097  1.00  0.00     0.006 A 
ENDBRANCH  61  75
BRANCH  62  83
ATOM     83  C   UNL A   1      34.873  33.902  30.627  1.00  0.00     0.057 A 
ATOM     84  C   UNL A   1      34.492  34.965  31.469  1.00  0.00     0.134 A 
ATOM     85  C   UNL A   1      34.169  33.812  29.414  1.00  0.00     0.134 A 
ATOM     86  F   UNL A   1      35.134  35.180  32.627  1.00  0.00    -0.206 F 
ATOM     87  C   UNL A   1      33.486  35.884  31.118  1.00  0.00     0.040 A 
ATOM     88  C   UNL A   1      33.166  34.723  29.051  1.00  0.00     0.040 A 
ATOM     89  F   UNL A   1      34.502  32.894  28.496  1.00  0.00    -0.206 F 
ATOM     90  C   UNL A   1      32.827  35.771  29.898  1.00  0.00     0.006 A 
ENDBRANCH  62  83
BRANCH  74  91
ATOM     91  C   UNL A   1      38.735  29.008  31.376  1.00  0.00     0.057 A 
ATOM     92  C   UNL A   1      39.152  29.451  30.109  1.00  0.00     0.134 A 
ATOM     93  C   UNL A   1      38.541  27.633  31.528  1.00  0.00     0.134 A 
ATOM     94  F   UNL A   1      39.453  30.737  29.889  1.00  0.00    -0.206 F 
ATOM     95  C   UNL A   1      39.339  28.566  29.041  1.00  0.00     0.040 A 
ATOM     96  C   UNL A   1      38.753  26.736  30.481  1.00  0.00     0.040 A 
ATOM     97  F   UNL A   1      38.198  27.132  32.724  1.00  0.00    -0.206 F 
ATOM     98  C   UNL A   1      39.144  27.201  29.230  1.00  0.00     0.006 A 
ENDBRANCH  74  91
ENDBRANCH  48  49
ENDBRANCH  40  43
ENDBRANCH  38  39
ENDBRANCH  37  38
ENDBRANCH  36  37
ENDBRANCH   3  36
TORSDOF 16
ENDMDL
