MODEL 1
REMARK VINA RESULT:     -10.3      0.000      0.000
REMARK SMILES O=C(Cc1ccn(-c2ccccc2F)c1)NCCCNC(=O)c1ccc(-c2c3nc(c(-c4c(F)cccc4F)c4ccc([nH]4)c(-c4c(F)cccc4F)c4nc(c(-c5c(F)cccc5F)c5ccc2[nH]5)C=C4)C=C3)cc1
REMARK SMILES IDX 18 1 17 2 16 3 1 4 2 5 3 7 4 8 5 9 15 10 6 11 7 12 8 13 9 14
REMARK SMILES IDX 13 15 10 16 12 17 14 18 11 19 19 20 20 21 21 22 22 24 23 25
REMARK SMILES IDX 24 26 76 27 25 28 75 29 26 30 27 31 28 32 69 33 29 34 74 35
REMARK SMILES IDX 68 36 70 37 30 38 73 39 67 40 66 41 31 43 57 44 40 45 56 46
REMARK SMILES IDX 41 47 44 48 55 49 71 50 42 51 43 52 54 54 72 55 45 56 32 57
REMARK SMILES IDX 33 58 38 59 34 60 35 61 37 62 39 63 36 64 58 65 59 66 64 67
REMARK SMILES IDX 60 68 61 69 63 70 65 71 62 72 46 73 47 74 52 75 48 76 49 77
REMARK SMILES IDX 51 78 53 79 50 80
REMARK H PARENT 16 6 20 23 70 42 44 53
REMARK Flexibility Score: inf
ROOT
ATOM      1  C   UNL A   1      34.147  33.846  28.034  1.00  0.00     0.042 C 
ENDROOT
BRANCH   1   2
ATOM      2  C   UNL A   1      33.272  34.873  28.753  1.00  0.00     0.117 C 
BRANCH   2   3
ATOM      3  N   UNL A   1      33.970  35.574  29.818  1.00  0.00    -0.356 N 
ATOM      4  O   UNL A   1      32.330  35.326  31.401  1.00  0.00    -0.275 OA
ATOM      5  C   UNL A   1      33.470  35.672  31.102  1.00  0.00     0.224 C 
ATOM      6  H   UNL A   1      34.835  35.997  29.615  1.00  0.00     0.163 HD
BRANCH   5   7
ATOM      7  C   UNL A   1      34.420  36.301  32.114  1.00  0.00     0.137 C 
BRANCH   7   8
ATOM      8  C   UNL A   1      35.096  35.329  33.043  1.00  0.00    -0.021 A 
ATOM      9  C   UNL A   1      34.778  35.019  34.395  1.00  0.00     0.024 A 
ATOM     10  C   UNL A   1      36.197  34.548  32.730  1.00  0.00     0.095 A 
ATOM     11  C   UNL A   1      35.593  33.986  34.798  1.00  0.00     0.091 A 
ATOM     12  N   UNL A   1      36.496  33.725  33.794  1.00  0.00    -0.321 N 
BRANCH  12  13
ATOM     13  C   UNL A   1      37.527  32.765  33.852  1.00  0.00     0.081 A 
ATOM     14  C   UNL A   1      38.768  33.110  34.405  1.00  0.00     0.030 A 
ATOM     15  C   UNL A   1      37.323  31.483  33.342  1.00  0.00     0.147 A 
ATOM     16  C   UNL A   1      39.787  32.156  34.462  1.00  0.00     0.002 A 
ATOM     17  C   UNL A   1      38.357  30.550  33.353  1.00  0.00     0.041 A 
ATOM     18  F   UNL A   1      36.165  31.145  32.755  1.00  0.00    -0.205 F 
ATOM     19  C   UNL A   1      39.586  30.883  33.924  1.00  0.00     0.003 A 
ENDBRANCH  12  13
ENDBRANCH   7   8
ENDBRANCH   5   7
ENDBRANCH   2   3
ENDBRANCH   1   2
BRANCH   1  20
ATOM     20  C   UNL A   1      34.434  32.627  28.898  1.00  0.00     0.118 C 
BRANCH  20  21
ATOM     21  N   UNL A   1      33.853  31.403  28.374  1.00  0.00    -0.352 N 
ATOM     22  C   UNL A   1      34.474  30.296  27.832  1.00  0.00     0.251 C 
ATOM     23  H   UNL A   1      32.870  31.355  28.412  1.00  0.00     0.163 HD
ATOM     24  O   UNL A   1      33.835  29.551  27.112  1.00  0.00    -0.269 OA
BRANCH  22  25
ATOM     25  C   UNL A   1      35.876  29.946  28.183  1.00  0.00     0.039 A 
ATOM     26  C   UNL A   1      36.183  29.661  29.523  1.00  0.00     0.014 A 
ATOM     27  C   UNL A   1      36.908  30.072  27.252  1.00  0.00     0.014 A 
ATOM     28  C   UNL A   1      37.515  29.546  29.919  1.00  0.00     0.010 A 
ATOM     29  C   UNL A   1      38.225  29.943  27.626  1.00  0.00     0.010 A 
ATOM     30  C   UNL A   1      38.525  29.707  28.962  1.00  0.00    -0.014 A 
BRANCH  30  31
ATOM     31  C   UNL A   1      39.918  29.350  29.250  1.00  0.00     0.031 A 
ATOM     32  C   UNL A   1      40.615  30.661  29.828  1.00  0.00     0.074 A 
ATOM     33  C   UNL A   1      40.233  28.018  29.020  1.00  0.00     0.049 A 
ATOM     34  N   UNL A   1      41.862  30.996  29.875  1.00  0.00    -0.248 NA
ATOM     35  C   UNL A   1      39.795  31.787  30.406  1.00  0.00     0.031 C 
ATOM     36  C   UNL A   1      39.277  26.947  28.598  1.00  0.00     0.029 A 
ATOM     37  N   UNL A   1      41.371  27.242  29.135  1.00  0.00    -0.354 N 
ATOM     38  C   UNL A   1      42.004  32.176  30.660  1.00  0.00     0.074 A 
ATOM     39  C   UNL A   1      40.685  32.678  30.860  1.00  0.00     0.031 C 
ATOM     40  C   UNL A   1      39.903  25.765  28.349  1.00  0.00     0.029 A 
ATOM     41  C   UNL A   1      41.320  25.907  28.599  1.00  0.00     0.049 A 
ATOM     42  H   UNL A   1      42.185  27.588  29.567  1.00  0.00     0.167 HD
ATOM     43  C   UNL A   1      43.209  32.547  31.202  1.00  0.00     0.037 A 
ATOM     44  C   UNL A   1      42.378  25.052  28.340  1.00  0.00     0.037 A 
ATOM     45  C   UNL A   1      44.194  31.616  30.768  1.00  0.00     0.049 A 
ATOM     46  C   UNL A   1      43.510  25.771  28.927  1.00  0.00     0.074 A 
ATOM     47  C   UNL A   1      44.739  31.418  29.527  1.00  0.00     0.029 A 
ATOM     48  N   UNL A   1      44.296  30.468  31.515  1.00  0.00    -0.354 N 
ATOM     49  N   UNL A   1      43.688  25.950  30.201  1.00  0.00    -0.248 NA
ATOM     50  C   UNL A   1      44.361  26.532  28.012  1.00  0.00     0.031 C 
ATOM     51  C   UNL A   1      44.542  30.035  29.368  1.00  0.00     0.029 A 
ATOM     52  C   UNL A   1      44.371  29.434  30.621  1.00  0.00     0.049 A 
ATOM     53  H   UNL A   1      44.310  30.401  32.497  1.00  0.00     0.167 HD
ATOM     54  C   UNL A   1      44.415  27.112  30.221  1.00  0.00     0.074 A 
ATOM     55  C   UNL A   1      45.019  27.260  28.905  1.00  0.00     0.031 C 
ATOM     56  C   UNL A   1      44.088  28.108  31.084  1.00  0.00     0.037 A 
BRANCH  43  57
ATOM     57  C   UNL A   1      43.665  33.498  32.275  1.00  0.00     0.057 A 
ATOM     58  C   UNL A   1      44.061  34.813  32.035  1.00  0.00     0.134 A 
ATOM     59  C   UNL A   1      43.302  33.201  33.617  1.00  0.00     0.134 A 
ATOM     60  F   UNL A   1      44.413  35.214  30.805  1.00  0.00    -0.206 F 
ATOM     61  C   UNL A   1      44.008  35.793  33.042  1.00  0.00     0.040 A 
ATOM     62  C   UNL A   1      43.194  34.177  34.610  1.00  0.00     0.040 A 
ATOM     63  F   UNL A   1      42.946  31.959  33.981  1.00  0.00    -0.206 F 
ATOM     64  C   UNL A   1      43.533  35.486  34.318  1.00  0.00     0.006 A 
ENDBRANCH  43  57
BRANCH  44  65
ATOM     65  C   UNL A   1      42.758  23.812  27.525  1.00  0.00     0.057 A 
ATOM     66  C   UNL A   1      42.821  23.894  26.094  1.00  0.00     0.134 A 
ATOM     67  C   UNL A   1      42.910  22.511  27.999  1.00  0.00     0.134 A 
ATOM     68  F   UNL A   1      42.925  25.070  25.457  1.00  0.00    -0.206 F 
ATOM     69  C   UNL A   1      42.762  22.795  25.227  1.00  0.00     0.040 A 
ATOM     70  C   UNL A   1      42.933  21.387  27.131  1.00  0.00     0.040 A 
ATOM     71  F   UNL A   1      43.049  22.274  29.309  1.00  0.00    -0.206 F 
ATOM     72  C   UNL A   1      42.786  21.521  25.751  1.00  0.00     0.006 A 
ENDBRANCH  44  65
BRANCH  56  73
ATOM     73  C   UNL A   1      43.252  27.743  32.301  1.00  0.00     0.057 A 
ATOM     74  C   UNL A   1      41.949  28.203  32.573  1.00  0.00     0.134 A 
ATOM     75  C   UNL A   1      43.777  26.861  33.252  1.00  0.00     0.134 A 
ATOM     76  F   UNL A   1      41.326  29.038  31.744  1.00  0.00    -0.206 F 
ATOM     77  C   UNL A   1      41.222  27.828  33.717  1.00  0.00     0.040 A 
ATOM     78  C   UNL A   1      43.069  26.481  34.403  1.00  0.00     0.040 A 
ATOM     79  F   UNL A   1      45.014  26.367  33.095  1.00  0.00    -0.206 F 
ATOM     80  C   UNL A   1      41.789  26.967  34.644  1.00  0.00     0.006 A 
ENDBRANCH  56  73
ENDBRANCH  30  31
ENDBRANCH  22  25
ENDBRANCH  20  21
ENDBRANCH   1  20
TORSDOF 12
ENDMDL
MODEL 2
REMARK VINA RESULT:     -10.0      2.306      7.625
REMARK SMILES O=C(Cc1ccn(-c2ccccc2F)c1)NCCCNC(=O)c1ccc(-c2c3nc(c(-c4c(F)cccc4F)c4ccc([nH]4)c(-c4c(F)cccc4F)c4nc(c(-c5c(F)cccc5F)c5ccc2[nH]5)C=C4)C=C3)cc1
REMARK SMILES IDX 18 1 17 2 16 3 1 4 2 5 3 7 4 8 5 9 15 10 6 11 7 12 8 13 9 14
REMARK SMILES IDX 13 15 10 16 12 17 14 18 11 19 19 20 20 21 21 22 22 24 23 25
REMARK SMILES IDX 24 26 76 27 25 28 75 29 26 30 27 31 28 32 69 33 29 34 74 35
REMARK SMILES IDX 68 36 70 37 30 38 73 39 67 40 66 41 31 43 57 44 40 45 56 46
REMARK SMILES IDX 41 47 44 48 55 49 71 50 42 51 43 52 54 54 72 55 45 56 32 57
REMARK SMILES IDX 33 58 38 59 34 60 35 61 37 62 39 63 36 64 58 65 59 66 64 67
REMARK SMILES IDX 60 68 61 69 63 70 65 71 62 72 46 73 47 74 52 75 48 76 49 77
REMARK SMILES IDX 51 78 53 79 50 80
REMARK H PARENT 16 6 20 23 70 42 44 53
REMARK Flexibility Score: inf
ROOT
ATOM      1  C   UNL A   1      35.908  33.426  29.635  1.00  0.00     0.042 C 
ENDROOT
BRANCH   1   2
ATOM      2  C   UNL A   1      34.912  33.994  30.647  1.00  0.00     0.117 C 
BRANCH   2   3
ATOM      3  N   UNL A   1      35.451  34.082  31.994  1.00  0.00    -0.356 N 
ATOM      4  O   UNL A   1      33.622  33.200  33.057  1.00  0.00    -0.275 OA
ATOM      5  C   UNL A   1      34.785  33.591  33.100  1.00  0.00     0.224 C 
ATOM      6  H   UNL A   1      36.329  34.509  32.123  1.00  0.00     0.163 HD
BRANCH   5   7
ATOM      7  C   UNL A   1      35.582  33.629  34.398  1.00  0.00     0.137 C 
BRANCH   7   8
ATOM      8  C   UNL A   1      37.020  33.204  34.274  1.00  0.00    -0.021 A 
ATOM      9  C   UNL A   1      38.186  34.015  34.176  1.00  0.00     0.024 A 
ATOM     10  C   UNL A   1      37.471  31.895  34.221  1.00  0.00     0.095 A 
ATOM     11  C   UNL A   1      39.285  33.187  34.204  1.00  0.00     0.091 A 
ATOM     12  N   UNL A   1      38.849  31.882  34.185  1.00  0.00    -0.321 N 
BRANCH  12  13
ATOM     13  C   UNL A   1      39.681  30.744  34.156  1.00  0.00     0.081 A 
ATOM     14  C   UNL A   1      40.340  30.335  35.324  1.00  0.00     0.030 A 
ATOM     15  C   UNL A   1      39.867  30.040  32.967  1.00  0.00     0.147 A 
ATOM     16  C   UNL A   1      41.163  29.207  35.292  1.00  0.00     0.002 A 
ATOM     17  C   UNL A   1      40.728  28.946  32.927  1.00  0.00     0.041 A 
ATOM     18  F   UNL A   1      39.295  30.444  31.823  1.00  0.00    -0.205 F 
ATOM     19  C   UNL A   1      41.367  28.522  34.092  1.00  0.00     0.003 A 
ENDBRANCH  12  13
ENDBRANCH   7   8
ENDBRANCH   5   7
ENDBRANCH   2   3
ENDBRANCH   1   2
BRANCH   1  20
ATOM     20  C   UNL A   1      36.306  31.993  29.959  1.00  0.00     0.118 C 
BRANCH  20  21
ATOM     21  N   UNL A   1      35.573  31.006  29.184  1.00  0.00    -0.352 N 
ATOM     22  C   UNL A   1      36.049  30.002  28.364  1.00  0.00     0.251 C 
ATOM     23  H   UNL A   1      34.593  31.059  29.255  1.00  0.00     0.163 HD
ATOM     24  O   UNL A   1      35.313  29.531  27.517  1.00  0.00    -0.269 OA
BRANCH  22  25
ATOM     25  C   UNL A   1      37.405  29.424  28.557  1.00  0.00     0.039 A 
ATOM     26  C   UNL A   1      38.352  29.571  27.530  1.00  0.00     0.014 A 
ATOM     27  C   UNL A   1      37.690  28.594  29.643  1.00  0.00     0.014 A 
ATOM     28  C   UNL A   1      39.549  28.858  27.585  1.00  0.00     0.010 A 
ATOM     29  C   UNL A   1      38.874  27.899  29.717  1.00  0.00     0.010 A 
ATOM     30  C   UNL A   1      39.787  28.013  28.676  1.00  0.00    -0.014 A 
BRANCH  30  31
ATOM     31  C   UNL A   1      41.114  27.439  28.926  1.00  0.00     0.031 A 
ATOM     32  C   UNL A   1      41.055  25.923  28.436  1.00  0.00     0.074 A 
ATOM     33  C   UNL A   1      42.046  28.334  29.433  1.00  0.00     0.049 A 
ATOM     34  N   UNL A   1      41.784  24.908  28.764  1.00  0.00    -0.248 NA
ATOM     35  C   UNL A   1      39.999  25.461  27.465  1.00  0.00     0.031 C 
ATOM     36  C   UNL A   1      41.830  29.798  29.656  1.00  0.00     0.029 A 
ATOM     37  N   UNL A   1      43.371  28.262  29.816  1.00  0.00    -0.354 N 
ATOM     38  C   UNL A   1      41.470  23.808  27.915  1.00  0.00     0.074 A 
ATOM     39  C   UNL A   1      40.283  24.177  27.216  1.00  0.00     0.031 C 
ATOM     40  C   UNL A   1      42.893  30.390  30.263  1.00  0.00     0.029 A 
ATOM     41  C   UNL A   1      43.931  29.408  30.486  1.00  0.00     0.049 A 
ATOM     42  H   UNL A   1      43.913  27.460  29.638  1.00  0.00     0.167 HD
ATOM     43  C   UNL A   1      42.320  22.743  27.763  1.00  0.00     0.037 A 
ATOM     44  C   UNL A   1      45.113  29.482  31.203  1.00  0.00     0.037 A 
ATOM     45  C   UNL A   1      43.433  22.938  28.628  1.00  0.00     0.049 A 
ATOM     46  C   UNL A   1      45.722  28.178  30.935  1.00  0.00     0.074 A 
ATOM     47  C   UNL A   1      43.510  22.888  29.995  1.00  0.00     0.029 A 
ATOM     48  N   UNL A   1      44.443  23.721  28.128  1.00  0.00    -0.354 N 
ATOM     49  N   UNL A   1      46.194  27.809  29.783  1.00  0.00    -0.248 NA
ATOM     50  C   UNL A   1      45.573  27.151  31.966  1.00  0.00     0.031 C 
ATOM     51  C   UNL A   1      44.123  24.123  30.271  1.00  0.00     0.029 A 
ATOM     52  C   UNL A   1      44.792  24.585  29.131  1.00  0.00     0.049 A 
ATOM     53  H   UNL A   1      44.839  23.673  27.227  1.00  0.00     0.167 HD
ATOM     54  C   UNL A   1      46.048  26.447  29.844  1.00  0.00     0.074 A 
ATOM     55  C   UNL A   1      45.939  26.094  31.252  1.00  0.00     0.031 C 
ATOM     56  C   UNL A   1      45.528  25.767  28.792  1.00  0.00     0.037 A 
BRANCH  43  57
ATOM     57  C   UNL A   1      42.471  21.611  26.782  1.00  0.00     0.057 A 
ATOM     58  C   UNL A   1      43.440  21.573  25.779  1.00  0.00     0.134 A 
ATOM     59  C   UNL A   1      41.893  20.359  27.125  1.00  0.00     0.134 A 
ATOM     60  F   UNL A   1      44.064  22.690  25.380  1.00  0.00    -0.206 F 
ATOM     61  C   UNL A   1      43.872  20.357  25.220  1.00  0.00     0.040 A 
ATOM     62  C   UNL A   1      42.353  19.143  26.617  1.00  0.00     0.040 A 
ATOM     63  F   UNL A   1      40.919  20.273  28.046  1.00  0.00    -0.206 F 
ATOM     64  C   UNL A   1      43.361  19.138  25.669  1.00  0.00     0.006 A 
ENDBRANCH  43  57
BRANCH  44  65
ATOM     65  C   UNL A   1      45.832  30.321  32.264  1.00  0.00     0.057 A 
ATOM     66  C   UNL A   1      47.204  30.692  32.067  1.00  0.00     0.134 A 
ATOM     67  C   UNL A   1      45.357  30.660  33.529  1.00  0.00     0.134 A 
ATOM     68  F   UNL A   1      47.777  30.660  30.854  1.00  0.00    -0.206 F 
ATOM     69  C   UNL A   1      48.077  31.094  33.086  1.00  0.00     0.040 A 
ATOM     70  C   UNL A   1      46.212  31.146  34.554  1.00  0.00     0.040 A 
ATOM     71  F   UNL A   1      44.056  30.544  33.823  1.00  0.00    -0.206 F 
ATOM     72  C   UNL A   1      47.585  31.294  34.357  1.00  0.00     0.006 A 
ENDBRANCH  44  65
BRANCH  56  73
ATOM     73  C   UNL A   1      45.561  26.441  27.428  1.00  0.00     0.057 A 
ATOM     74  C   UNL A   1      44.436  26.812  26.666  1.00  0.00     0.134 A 
ATOM     75  C   UNL A   1      46.795  26.756  26.850  1.00  0.00     0.134 A 
ATOM     76  F   UNL A   1      43.199  26.582  27.104  1.00  0.00    -0.206 F 
ATOM     77  C   UNL A   1      44.528  27.438  25.410  1.00  0.00     0.040 A 
ATOM     78  C   UNL A   1      46.907  27.373  25.594  1.00  0.00     0.040 A 
ATOM     79  F   UNL A   1      47.932  26.441  27.488  1.00  0.00    -0.206 F 
ATOM     80  C   UNL A   1      45.773  27.713  24.865  1.00  0.00     0.006 A 
ENDBRANCH  56  73
ENDBRANCH  30  31
ENDBRANCH  22  25
ENDBRANCH  20  21
ENDBRANCH   1  20
TORSDOF 12
ENDMDL
MODEL 3
REMARK VINA RESULT:     -10.0      4.635      9.239
REMARK SMILES O=C(Cc1ccn(-c2ccccc2F)c1)NCCCNC(=O)c1ccc(-c2c3nc(c(-c4c(F)cccc4F)c4ccc([nH]4)c(-c4c(F)cccc4F)c4nc(c(-c5c(F)cccc5F)c5ccc2[nH]5)C=C4)C=C3)cc1
REMARK SMILES IDX 18 1 17 2 16 3 1 4 2 5 3 7 4 8 5 9 15 10 6 11 7 12 8 13 9 14
REMARK SMILES IDX 13 15 10 16 12 17 14 18 11 19 19 20 20 21 21 22 22 24 23 25
REMARK SMILES IDX 24 26 76 27 25 28 75 29 26 30 27 31 28 32 69 33 29 34 74 35
REMARK SMILES IDX 68 36 70 37 30 38 73 39 67 40 66 41 31 43 57 44 40 45 56 46
REMARK SMILES IDX 41 47 44 48 55 49 71 50 42 51 43 52 54 54 72 55 45 56 32 57
REMARK SMILES IDX 33 58 38 59 34 60 35 61 37 62 39 63 36 64 58 65 59 66 64 67
REMARK SMILES IDX 60 68 61 69 63 70 65 71 62 72 46 73 47 74 52 75 48 76 49 77
REMARK SMILES IDX 51 78 53 79 50 80
REMARK H PARENT 16 6 20 23 70 42 44 53
REMARK Flexibility Score: inf
ROOT
ATOM      1  C   UNL A   1      39.228  20.914  26.226  1.00  0.00     0.042 C 
ENDROOT
BRANCH   1   2
ATOM      2  C   UNL A   1      38.351  21.912  25.470  1.00  0.00     0.117 C 
BRANCH   2   3
ATOM      3  N   UNL A   1      37.123  22.243  26.175  1.00  0.00    -0.356 N 
ATOM      4  O   UNL A   1      35.753  20.870  24.954  1.00  0.00    -0.275 OA
ATOM      5  C   UNL A   1      35.919  21.621  25.911  1.00  0.00     0.224 C 
ATOM      6  H   UNL A   1      37.152  22.939  26.870  1.00  0.00     0.163 HD
BRANCH   5   7
ATOM      7  C   UNL A   1      34.786  21.986  26.863  1.00  0.00     0.137 C 
BRANCH   7   8
ATOM      8  C   UNL A   1      33.953  23.165  26.439  1.00  0.00    -0.021 A 
ATOM      9  C   UNL A   1      32.594  23.454  26.745  1.00  0.00     0.024 A 
ATOM     10  C   UNL A   1      34.384  24.208  25.633  1.00  0.00     0.095 A 
ATOM     11  C   UNL A   1      32.298  24.699  26.239  1.00  0.00     0.091 A 
ATOM     12  N   UNL A   1      33.380  25.145  25.516  1.00  0.00    -0.321 N 
BRANCH  12  13
ATOM     13  C   UNL A   1      33.442  26.361  24.805  1.00  0.00     0.081 A 
ATOM     14  C   UNL A   1      33.349  26.354  23.406  1.00  0.00     0.030 A 
ATOM     15  C   UNL A   1      33.618  27.565  25.486  1.00  0.00     0.147 A 
ATOM     16  C   UNL A   1      33.410  27.560  22.705  1.00  0.00     0.002 A 
ATOM     17  C   UNL A   1      33.730  28.761  24.781  1.00  0.00     0.041 A 
ATOM     18  F   UNL A   1      33.768  27.594  26.819  1.00  0.00    -0.205 F 
ATOM     19  C   UNL A   1      33.614  28.760  23.390  1.00  0.00     0.003 A 
ENDBRANCH  12  13
ENDBRANCH   7   8
ENDBRANCH   5   7
ENDBRANCH   2   3
ENDBRANCH   1   2
BRANCH   1  20
ATOM     20  C   UNL A   1      39.493  19.652  25.419  1.00  0.00     0.118 C 
BRANCH  20  21
ATOM     21  N   UNL A   1      40.535  18.814  25.989  1.00  0.00    -0.352 N 
ATOM     22  C   UNL A   1      41.853  19.116  26.265  1.00  0.00     0.251 C 
ATOM     23  H   UNL A   1      40.260  17.896  26.213  1.00  0.00     0.163 HD
ATOM     24  O   UNL A   1      42.658  18.209  26.376  1.00  0.00    -0.269 OA
BRANCH  22  25
ATOM     25  C   UNL A   1      42.290  20.514  26.520  1.00  0.00     0.039 A 
ATOM     26  C   UNL A   1      42.251  21.002  27.836  1.00  0.00     0.014 A 
ATOM     27  C   UNL A   1      42.560  21.391  25.468  1.00  0.00     0.014 A 
ATOM     28  C   UNL A   1      42.442  22.362  28.076  1.00  0.00     0.010 A 
ATOM     29  C   UNL A   1      42.767  22.732  25.694  1.00  0.00     0.010 A 
ATOM     30  C   UNL A   1      42.681  23.216  26.993  1.00  0.00    -0.014 A 
BRANCH  30  31
ATOM     31  C   UNL A   1      43.141  24.596  27.191  1.00  0.00     0.031 A 
ATOM     32  C   UNL A   1      41.835  25.484  27.408  1.00  0.00     0.074 A 
ATOM     33  C   UNL A   1      44.519  24.750  27.205  1.00  0.00     0.049 A 
ATOM     34  N   UNL A   1      41.649  26.753  27.246  1.00  0.00    -0.248 NA
ATOM     35  C   UNL A   1      40.531  24.859  27.830  1.00  0.00     0.031 C 
ATOM     36  C   UNL A   1      45.530  23.649  27.120  1.00  0.00     0.029 A 
ATOM     37  N   UNL A   1      45.390  25.814  27.350  1.00  0.00    -0.354 N 
ATOM     38  C   UNL A   1      40.366  27.109  27.752  1.00  0.00     0.074 A 
ATOM     39  C   UNL A   1      39.682  25.881  27.990  1.00  0.00     0.031 C 
ATOM     40  C   UNL A   1      46.804  24.122  27.051  1.00  0.00     0.029 A 
ATOM     41  C   UNL A   1      46.787  25.567  27.108  1.00  0.00     0.049 A 
ATOM     42  H   UNL A   1      45.067  26.707  27.608  1.00  0.00     0.167 HD
ATOM     43  C   UNL A   1      40.045  28.404  28.068  1.00  0.00     0.037 A 
ATOM     44  C   UNL A   1      47.796  26.494  26.913  1.00  0.00     0.037 A 
ATOM     45  C   UNL A   1      41.152  29.231  27.728  1.00  0.00     0.049 A 
ATOM     46  C   UNL A   1      47.118  27.758  27.210  1.00  0.00     0.074 A 
ATOM     47  C   UNL A   1      41.648  29.585  26.501  1.00  0.00     0.029 A 
ATOM     48  N   UNL A   1      42.139  29.321  28.678  1.00  0.00    -0.354 N 
ATOM     49  N   UNL A   1      46.721  28.119  28.393  1.00  0.00    -0.248 NA
ATOM     50  C   UNL A   1      46.653  28.547  26.070  1.00  0.00     0.031 C 
ATOM     51  C   UNL A   1      43.002  29.238  26.652  1.00  0.00     0.029 A 
ATOM     52  C   UNL A   1      43.327  29.179  28.012  1.00  0.00     0.049 A 
ATOM     53  H   UNL A   1      42.019  29.460  29.645  1.00  0.00     0.167 HD
ATOM     54  C   UNL A   1      45.672  28.949  28.094  1.00  0.00     0.074 A 
ATOM     55  C   UNL A   1      45.851  29.384  26.717  1.00  0.00     0.031 C 
ATOM     56  C   UNL A   1      44.497  28.836  28.765  1.00  0.00     0.037 A 
BRANCH  43  57
ATOM     57  C   UNL A   1      38.967  29.087  28.867  1.00  0.00     0.057 A 
ATOM     58  C   UNL A   1      37.828  29.663  28.306  1.00  0.00     0.134 A 
ATOM     59  C   UNL A   1      38.885  28.790  30.255  1.00  0.00     0.134 A 
ATOM     60  F   UNL A   1      37.782  29.975  27.004  1.00  0.00    -0.206 F 
ATOM     61  C   UNL A   1      36.651  29.843  29.054  1.00  0.00     0.040 A 
ATOM     62  C   UNL A   1      37.706  28.914  30.992  1.00  0.00     0.040 A 
ATOM     63  F   UNL A   1      39.934  28.273  30.917  1.00  0.00    -0.206 F 
ATOM     64  C   UNL A   1      36.575  29.430  30.385  1.00  0.00     0.006 A 
ENDBRANCH  43  57
BRANCH  44  65
ATOM     65  C   UNL A   1      49.205  26.644  26.332  1.00  0.00     0.057 A 
ATOM     66  C   UNL A   1      50.251  27.200  27.140  1.00  0.00     0.134 A 
ATOM     67  C   UNL A   1      49.592  26.444  25.008  1.00  0.00     0.134 A 
ATOM     68  F   UNL A   1      50.158  27.256  28.477  1.00  0.00    -0.206 F 
ATOM     69  C   UNL A   1      51.440  27.749  26.641  1.00  0.00     0.040 A 
ATOM     70  C   UNL A   1      50.829  26.923  24.501  1.00  0.00     0.040 A 
ATOM     71  F   UNL A   1      48.801  25.777  24.159  1.00  0.00    -0.206 F 
ATOM     72  C   UNL A   1      51.722  27.640  25.298  1.00  0.00     0.006 A 
ENDBRANCH  44  65
BRANCH  56  73
ATOM     73  C   UNL A   1      44.520  28.138  30.117  1.00  0.00     0.057 A 
ATOM     74  C   UNL A   1      43.863  26.932  30.432  1.00  0.00     0.134 A 
ATOM     75  C   UNL A   1      45.260  28.698  31.163  1.00  0.00     0.134 A 
ATOM     76  F   UNL A   1      43.134  26.286  29.524  1.00  0.00    -0.206 F 
ATOM     77  C   UNL A   1      43.923  26.331  31.702  1.00  0.00     0.040 A 
ATOM     78  C   UNL A   1      45.325  28.117  32.439  1.00  0.00     0.040 A 
ATOM     79  F   UNL A   1      45.919  29.851  30.974  1.00  0.00    -0.206 F 
ATOM     80  C   UNL A   1      44.653  26.932  32.717  1.00  0.00     0.006 A 
ENDBRANCH  56  73
ENDBRANCH  30  31
ENDBRANCH  22  25
ENDBRANCH  20  21
ENDBRANCH   1  20
TORSDOF 12
ENDMDL
