MODEL 1
REMARK VINA RESULT:     -13.4      0.000      0.000
REMARK SMILES O=C(NCCCNC(=O)[C@H]1CCCC[C@H]1C(=O)N1CCN(S(=O)(=O)c2ccc(F)cc2)CC1)c1ccc(-c2c3nc(c(-c4c(F)cccc4F)c4ccc([nH]4)c(-c4c(F)cccc4F)c4nc(c(-c5c(F)cccc5F)c5ccc2[nH]5)C=C4)C=C3)cc1
REMARK SMILES IDX 5 1 4 2 3 3 1 4 2 5 34 7 35 8 87 9 36 10 86 11 37 12 38 13
REMARK SMILES IDX 39 14 80 15 40 16 85 17 79 18 81 19 41 20 84 21 78 22 77 23
REMARK SMILES IDX 42 25 68 26 51 27 67 28 52 29 55 30 66 31 82 32 53 33 54 34
REMARK SMILES IDX 65 36 83 37 56 38 43 39 44 40 49 41 45 42 46 43 48 44 50 45
REMARK SMILES IDX 47 46 69 47 70 48 75 49 71 50 72 51 74 52 76 53 73 54 57 55
REMARK SMILES IDX 58 56 63 57 59 58 60 59 62 60 64 61 61 62 6 63 7 64 8 65
REMARK SMILES IDX 9 67 10 68 11 69 15 70 12 71 14 72 13 73 16 74 17 75 18 76
REMARK SMILES IDX 19 77 33 78 20 79 32 80 21 81 22 82 23 83 24 84 25 85 26 86
REMARK SMILES IDX 31 87 27 88 30 89 28 90 29 91
REMARK H PARENT 3 6 81 24 55 35 7 66
REMARK Flexibility Score: inf
ROOT
ATOM      1  C   UNL A   1      31.156  31.803  26.501  1.00  0.00     0.042 C 
ENDROOT
BRANCH   1   2
ATOM      2  C   UNL A   1      32.488  32.428  26.874  1.00  0.00     0.118 C 
BRANCH   2   3
ATOM      3  N   UNL A   1      32.349  33.810  27.320  1.00  0.00    -0.352 N 
ATOM      4  O   UNL A   1      32.628  35.544  28.747  1.00  0.00    -0.269 OA
ATOM      5  C   UNL A   1      33.016  34.458  28.334  1.00  0.00     0.251 C 
ATOM      6  H   UNL A   1      31.689  34.351  26.829  1.00  0.00     0.163 HD
BRANCH   5   7
ATOM      7  C   UNL A   1      34.203  33.812  28.924  1.00  0.00     0.039 A 
ATOM      8  C   UNL A   1      34.029  32.704  29.755  1.00  0.00     0.014 A 
ATOM      9  C   UNL A   1      35.480  34.316  28.675  1.00  0.00     0.014 A 
ATOM     10  C   UNL A   1      35.096  32.227  30.491  1.00  0.00     0.010 A 
ATOM     11  C   UNL A   1      36.583  33.729  29.301  1.00  0.00     0.010 A 
ATOM     12  C   UNL A   1      36.394  32.689  30.224  1.00  0.00    -0.014 A 
BRANCH  12  13
ATOM     13  C   UNL A   1      37.528  31.939  30.809  1.00  0.00     0.031 A 
ATOM     14  C   UNL A   1      38.290  30.915  30.025  1.00  0.00     0.074 A 
ATOM     15  C   UNL A   1      37.877  32.244  32.076  1.00  0.00     0.049 A 
ATOM     16  N   UNL A   1      39.300  30.180  30.415  1.00  0.00    -0.248 NA
ATOM     17  C   UNL A   1      37.874  30.673  28.635  1.00  0.00     0.031 C 
ATOM     18  C   UNL A   1      37.189  33.227  32.924  1.00  0.00     0.029 A 
ATOM     19  N   UNL A   1      38.902  31.796  32.866  1.00  0.00    -0.354 N 
ATOM     20  C   UNL A   1      39.627  29.377  29.332  1.00  0.00     0.074 A 
ATOM     21  C   UNL A   1      38.702  29.703  28.267  1.00  0.00     0.031 C 
ATOM     22  C   UNL A   1      37.845  33.353  34.082  1.00  0.00     0.029 A 
ATOM     23  C   UNL A   1      38.933  32.388  34.106  1.00  0.00     0.049 A 
ATOM     24  H   UNL A   1      39.551  31.116  32.575  1.00  0.00     0.167 HD
ATOM     25  C   UNL A   1      40.613  28.455  29.249  1.00  0.00     0.037 A 
ATOM     26  C   UNL A   1      39.723  32.153  35.169  1.00  0.00     0.037 A 
ATOM     27  C   UNL A   1      41.538  28.165  30.316  1.00  0.00     0.049 A 
ATOM     28  C   UNL A   1      40.776  31.096  35.052  1.00  0.00     0.074 A 
ATOM     29  C   UNL A   1      42.602  27.280  30.312  1.00  0.00     0.029 A 
ATOM     30  N   UNL A   1      41.507  28.748  31.575  1.00  0.00    -0.354 N 
ATOM     31  N   UNL A   1      41.091  30.363  34.012  1.00  0.00    -0.248 NA
ATOM     32  C   UNL A   1      41.573  30.818  36.252  1.00  0.00     0.031 C 
ATOM     33  C   UNL A   1      43.179  27.285  31.583  1.00  0.00     0.029 A 
ATOM     34  C   UNL A   1      42.511  28.214  32.365  1.00  0.00     0.049 A 
ATOM     35  H   UNL A   1      40.867  29.440  31.863  1.00  0.00     0.167 HD
ATOM     36  C   UNL A   1      42.122  29.537  34.429  1.00  0.00     0.074 A 
ATOM     37  C   UNL A   1      42.401  29.882  35.810  1.00  0.00     0.031 C 
ATOM     38  C   UNL A   1      42.769  28.571  33.736  1.00  0.00     0.037 A 
BRANCH  25  39
ATOM     39  C   UNL A   1      40.766  27.673  27.978  1.00  0.00     0.057 A 
ATOM     40  C   UNL A   1      40.175  26.408  27.850  1.00  0.00     0.134 A 
ATOM     41  C   UNL A   1      41.610  28.099  26.947  1.00  0.00     0.134 A 
ATOM     42  F   UNL A   1      39.362  25.937  28.808  1.00  0.00    -0.206 F 
ATOM     43  C   UNL A   1      40.445  25.582  26.758  1.00  0.00     0.040 A 
ATOM     44  C   UNL A   1      41.872  27.290  25.839  1.00  0.00     0.040 A 
ATOM     45  F   UNL A   1      42.200  29.303  27.004  1.00  0.00    -0.206 F 
ATOM     46  C   UNL A   1      41.301  26.020  25.751  1.00  0.00     0.006 A 
ENDBRANCH  25  39
BRANCH  26  47
ATOM     47  C   UNL A   1      39.500  32.900  36.431  1.00  0.00     0.057 A 
ATOM     48  C   UNL A   1      38.548  32.476  37.370  1.00  0.00     0.134 A 
ATOM     49  C   UNL A   1      40.206  34.073  36.717  1.00  0.00     0.134 A 
ATOM     50  F   UNL A   1      37.828  31.365  37.150  1.00  0.00    -0.206 F 
ATOM     51  C   UNL A   1      38.289  33.201  38.532  1.00  0.00     0.040 A 
ATOM     52  C   UNL A   1      39.982  34.791  37.893  1.00  0.00     0.040 A 
ATOM     53  F   UNL A   1      41.137  34.525  35.865  1.00  0.00    -0.206 F 
ATOM     54  C   UNL A   1      39.015  34.360  38.800  1.00  0.00     0.006 A 
ENDBRANCH  26  47
BRANCH  38  55
ATOM     55  C   UNL A   1      43.846  27.819  34.456  1.00  0.00     0.057 A 
ATOM     56  C   UNL A   1      45.167  28.285  34.454  1.00  0.00     0.134 A 
ATOM     57  C   UNL A   1      43.587  26.596  35.085  1.00  0.00     0.134 A 
ATOM     58  F   UNL A   1      45.480  29.446  33.861  1.00  0.00    -0.206 F 
ATOM     59  C   UNL A   1      46.197  27.547  35.037  1.00  0.00     0.040 A 
ATOM     60  C   UNL A   1      44.605  25.863  35.695  1.00  0.00     0.040 A 
ATOM     61  F   UNL A   1      42.339  26.107  35.132  1.00  0.00    -0.206 F 
ATOM     62  C   UNL A   1      45.916  26.334  35.660  1.00  0.00     0.006 A 
ENDBRANCH  38  55
ENDBRANCH  12  13
ENDBRANCH   5   7
ENDBRANCH   2   3
ENDBRANCH   1   2
BRANCH   1  63
ATOM     63  C   UNL A   1      31.276  30.765  25.406  1.00  0.00     0.117 C 
BRANCH  63  64
ATOM     64  N   UNL A   1      31.841  29.523  25.888  1.00  0.00    -0.356 N 
ATOM     65  C   UNL A   1      31.882  28.377  25.160  1.00  0.00     0.223 C 
ATOM     66  H   UNL A   1      32.218  29.507  26.798  1.00  0.00     0.163 HD
ATOM     67  O   UNL A   1      33.007  27.947  24.919  1.00  0.00    -0.275 OA
BRANCH  65  68
ATOM     68  C   UNL A   1      30.588  27.657  24.782  1.00  0.00     0.091 C 
ATOM     69  C   UNL A   1      29.939  28.340  23.566  1.00  0.00     0.014 C 
ATOM     70  C   UNL A   1      30.810  26.184  24.374  1.00  0.00     0.091 C 
ATOM     71  C   UNL A   1      30.928  28.401  22.407  1.00  0.00     0.001 C 
ATOM     72  C   UNL A   1      31.739  26.045  23.152  1.00  0.00     0.014 C 
ATOM     73  C   UNL A   1      31.404  27.006  22.001  1.00  0.00     0.001 C 
BRANCH  70  74
ATOM     74  C   UNL A   1      31.116  25.095  25.426  1.00  0.00     0.226 C 
ATOM     75  O   UNL A   1      30.520  25.128  26.508  1.00  0.00    -0.275 OA
ATOM     76  N   UNL A   1      31.847  23.982  25.073  1.00  0.00    -0.340 N 
ATOM     77  C   UNL A   1      31.399  22.662  25.533  1.00  0.00     0.136 C 
ATOM     78  C   UNL A   1      33.280  24.026  24.821  1.00  0.00     0.136 C 
ATOM     79  C   UNL A   1      31.817  21.551  24.545  1.00  0.00     0.124 C 
ATOM     80  C   UNL A   1      33.662  22.975  23.771  1.00  0.00     0.124 C 
ATOM     81  N   UNL A   1      33.289  21.593  24.207  1.00  0.00    -0.194 NA
BRANCH  81  82
ATOM     82  S   UNL A   1      34.301  20.792  25.314  1.00  0.00     0.243 S 
ATOM     83  O   UNL A   1      35.671  20.946  24.879  1.00  0.00    -0.207 OA
ATOM     84  O   UNL A   1      33.895  21.198  26.644  1.00  0.00    -0.207 OA
BRANCH  82  85
ATOM     85  C   UNL A   1      33.875  19.070  25.118  1.00  0.00     0.082 A 
ATOM     86  C   UNL A   1      34.635  18.270  24.250  1.00  0.00     0.025 A 
ATOM     87  C   UNL A   1      32.838  18.510  25.871  1.00  0.00     0.025 A 
ATOM     88  C   UNL A   1      34.295  16.929  24.068  1.00  0.00     0.040 A 
ATOM     89  C   UNL A   1      32.528  17.157  25.711  1.00  0.00     0.040 A 
ATOM     90  C   UNL A   1      33.246  16.386  24.800  1.00  0.00     0.123 A 
ATOM     91  F   UNL A   1      32.927  15.096  24.630  1.00  0.00    -0.207 F 
ENDBRANCH  82  85
ENDBRANCH  81  82
ENDBRANCH  70  74
ENDBRANCH  65  68
ENDBRANCH  63  64
ENDBRANCH   1  63
TORSDOF 13
ENDMDL
MODEL 2
REMARK VINA RESULT:     -13.3      0.389      6.038
REMARK SMILES O=C(NCCCNC(=O)[C@H]1CCCC[C@H]1C(=O)N1CCN(S(=O)(=O)c2ccc(F)cc2)CC1)c1ccc(-c2c3nc(c(-c4c(F)cccc4F)c4ccc([nH]4)c(-c4c(F)cccc4F)c4nc(c(-c5c(F)cccc5F)c5ccc2[nH]5)C=C4)C=C3)cc1
REMARK SMILES IDX 5 1 4 2 3 3 1 4 2 5 34 7 35 8 87 9 36 10 86 11 37 12 38 13
REMARK SMILES IDX 39 14 80 15 40 16 85 17 79 18 81 19 41 20 84 21 78 22 77 23
REMARK SMILES IDX 42 25 68 26 51 27 67 28 52 29 55 30 66 31 82 32 53 33 54 34
REMARK SMILES IDX 65 36 83 37 56 38 43 39 44 40 49 41 45 42 46 43 48 44 50 45
REMARK SMILES IDX 47 46 69 47 70 48 75 49 71 50 72 51 74 52 76 53 73 54 57 55
REMARK SMILES IDX 58 56 63 57 59 58 60 59 62 60 64 61 61 62 6 63 7 64 8 65
REMARK SMILES IDX 9 67 10 68 11 69 15 70 12 71 14 72 13 73 16 74 17 75 18 76
REMARK SMILES IDX 19 77 33 78 20 79 32 80 21 81 22 82 23 83 24 84 25 85 26 86
REMARK SMILES IDX 31 87 27 88 30 89 28 90 29 91
REMARK H PARENT 3 6 81 24 55 35 7 66
REMARK Flexibility Score: inf
ROOT
ATOM      1  C   UNL A   1      31.303  31.456  26.493  1.00  0.00     0.042 C 
ENDROOT
BRANCH   1   2
ATOM      2  C   UNL A   1      32.580  32.072  27.034  1.00  0.00     0.118 C 
BRANCH   2   3
ATOM      3  N   UNL A   1      32.426  33.488  27.349  1.00  0.00    -0.352 N 
ATOM      4  O   UNL A   1      32.696  35.354  28.601  1.00  0.00    -0.269 OA
ATOM      5  C   UNL A   1      33.095  34.239  28.287  1.00  0.00     0.251 C 
ATOM      6  H   UNL A   1      31.752  33.971  26.818  1.00  0.00     0.163 HD
BRANCH   5   7
ATOM      7  C   UNL A   1      34.299  33.669  28.920  1.00  0.00     0.039 A 
ATOM      8  C   UNL A   1      34.153  32.641  29.852  1.00  0.00     0.014 A 
ATOM      9  C   UNL A   1      35.565  34.167  28.608  1.00  0.00     0.014 A 
ATOM     10  C   UNL A   1      35.236  32.251  30.615  1.00  0.00     0.010 A 
ATOM     11  C   UNL A   1      36.684  33.657  29.272  1.00  0.00     0.010 A 
ATOM     12  C   UNL A   1      36.523  32.705  30.290  1.00  0.00    -0.014 A 
BRANCH  12  13
ATOM     13  C   UNL A   1      37.675  32.029  30.928  1.00  0.00     0.031 A 
ATOM     14  C   UNL A   1      38.122  32.367  32.317  1.00  0.00     0.074 A 
ATOM     15  C   UNL A   1      38.289  31.060  30.217  1.00  0.00     0.049 A 
ATOM     16  N   UNL A   1      39.118  31.858  32.996  1.00  0.00    -0.248 NA
ATOM     17  C   UNL A   1      37.371  33.404  33.042  1.00  0.00     0.031 C 
ATOM     18  C   UNL A   1      37.927  30.664  28.849  1.00  0.00     0.029 A 
ATOM     19  N   UNL A   1      39.315  30.213  30.539  1.00  0.00    -0.354 N 
ATOM     20  C   UNL A   1      39.129  32.523  34.214  1.00  0.00     0.074 A 
ATOM     21  C   UNL A   1      38.046  33.483  34.182  1.00  0.00     0.031 C 
ATOM     22  C   UNL A   1      38.670  29.616  28.478  1.00  0.00     0.029 A 
ATOM     23  C   UNL A   1      39.632  29.333  29.532  1.00  0.00     0.049 A 
ATOM     24  H   UNL A   1      39.781  30.233  31.406  1.00  0.00     0.167 HD
ATOM     25  C   UNL A   1      39.973  32.337  35.254  1.00  0.00     0.037 A 
ATOM     26  C   UNL A   1      40.618  28.423  29.442  1.00  0.00     0.037 A 
ATOM     27  C   UNL A   1      41.029  31.356  35.271  1.00  0.00     0.049 A 
ATOM     28  C   UNL A   1      41.557  28.276  30.598  1.00  0.00     0.074 A 
ATOM     29  C   UNL A   1      41.908  31.061  36.298  1.00  0.00     0.029 A 
ATOM     30  N   UNL A   1      41.352  30.518  34.213  1.00  0.00    -0.354 N 
ATOM     31  N   UNL A   1      41.537  28.894  31.754  1.00  0.00    -0.248 NA
ATOM     32  C   UNL A   1      42.662  27.324  30.439  1.00  0.00     0.031 C 
ATOM     33  C   UNL A   1      42.798  30.086  35.844  1.00  0.00     0.029 A 
ATOM     34  C   UNL A   1      42.440  29.731  34.552  1.00  0.00     0.049 A 
ATOM     35  H   UNL A   1      40.878  30.486  33.350  1.00  0.00     0.167 HD
ATOM     36  C   UNL A   1      42.624  28.406  32.462  1.00  0.00     0.074 A 
ATOM     37  C   UNL A   1      43.265  27.418  31.616  1.00  0.00     0.031 C 
ATOM     38  C   UNL A   1      43.061  28.755  33.694  1.00  0.00     0.037 A 
BRANCH  25  39
ATOM     39  C   UNL A   1      39.818  33.199  36.472  1.00  0.00     0.057 A 
ATOM     40  C   UNL A   1      40.624  34.333  36.644  1.00  0.00     0.134 A 
ATOM     41  C   UNL A   1      38.986  32.830  37.536  1.00  0.00     0.134 A 
ATOM     42  F   UNL A   1      41.450  34.735  35.666  1.00  0.00    -0.206 F 
ATOM     43  C   UNL A   1      40.630  35.050  37.841  1.00  0.00     0.040 A 
ATOM     44  C   UNL A   1      38.969  33.552  38.731  1.00  0.00     0.040 A 
ATOM     45  F   UNL A   1      38.183  31.759  37.432  1.00  0.00    -0.206 F 
ATOM     46  C   UNL A   1      39.806  34.656  38.892  1.00  0.00     0.006 A 
ENDBRANCH  25  39
BRANCH  26  47
ATOM     47  C   UNL A   1      40.780  27.635  28.196  1.00  0.00     0.057 A 
ATOM     48  C   UNL A   1      41.524  28.129  27.114  1.00  0.00     0.134 A 
ATOM     49  C   UNL A   1      40.172  26.386  28.040  1.00  0.00     0.134 A 
ATOM     50  F   UNL A   1      42.123  29.327  27.194  1.00  0.00    -0.206 F 
ATOM     51  C   UNL A   1      41.636  27.423  25.917  1.00  0.00     0.040 A 
ATOM     52  C   UNL A   1      40.304  25.651  26.860  1.00  0.00     0.040 A 
ATOM     53  F   UNL A   1      39.457  25.854  29.042  1.00  0.00    -0.206 F 
ATOM     54  C   UNL A   1      41.031  26.174  25.791  1.00  0.00     0.006 A 
ENDBRANCH  26  47
BRANCH  38  55
ATOM     55  C   UNL A   1      44.287  28.063  34.207  1.00  0.00     0.057 A 
ATOM     56  C   UNL A   1      45.559  28.600  33.978  1.00  0.00     0.134 A 
ATOM     57  C   UNL A   1      44.208  26.827  34.859  1.00  0.00     0.134 A 
ATOM     58  F   UNL A   1      45.700  29.776  33.349  1.00  0.00    -0.206 F 
ATOM     59  C   UNL A   1      46.714  27.919  34.363  1.00  0.00     0.040 A 
ATOM     60  C   UNL A   1      45.355  26.151  35.274  1.00  0.00     0.040 A 
ATOM     61  F   UNL A   1      43.015  26.271  35.120  1.00  0.00    -0.206 F 
ATOM     62  C   UNL A   1      46.612  26.693  35.014  1.00  0.00     0.006 A 
ENDBRANCH  38  55
ENDBRANCH  12  13
ENDBRANCH   5   7
ENDBRANCH   2   3
ENDBRANCH   1   2
BRANCH   1  63
ATOM     63  C   UNL A   1      31.553  30.441  25.400  1.00  0.00     0.117 C 
BRANCH  63  64
ATOM     64  N   UNL A   1      32.023  29.176  25.924  1.00  0.00    -0.356 N 
ATOM     65  C   UNL A   1      31.976  28.006  25.235  1.00  0.00     0.223 C 
ATOM     66  H   UNL A   1      32.399  29.163  26.834  1.00  0.00     0.163 HD
ATOM     67  O   UNL A   1      33.064  27.484  25.010  1.00  0.00    -0.275 OA
BRANCH  65  68
ATOM     68  C   UNL A   1      30.630  27.374  24.881  1.00  0.00     0.091 C 
ATOM     69  C   UNL A   1      29.971  28.148  23.726  1.00  0.00     0.014 C 
ATOM     70  C   UNL A   1      30.754  25.913  24.397  1.00  0.00     0.091 C 
ATOM     71  C   UNL A   1      30.915  28.212  22.529  1.00  0.00     0.001 C 
ATOM     72  C   UNL A   1      31.624  25.783  23.131  1.00  0.00     0.014 C 
ATOM     73  C   UNL A   1      31.297  26.815  22.040  1.00  0.00     0.001 C 
BRANCH  70  74
ATOM     74  C   UNL A   1      31.042  24.760  25.385  1.00  0.00     0.226 C 
ATOM     75  O   UNL A   1      30.363  24.675  26.413  1.00  0.00    -0.275 OA
ATOM     76  N   UNL A   1      31.863  23.720  25.008  1.00  0.00    -0.340 N 
ATOM     77  C   UNL A   1      31.461  22.345  25.328  1.00  0.00     0.136 C 
ATOM     78  C   UNL A   1      33.306  23.861  24.879  1.00  0.00     0.136 C 
ATOM     79  C   UNL A   1      32.019  21.342  24.296  1.00  0.00     0.124 C 
ATOM     80  C   UNL A   1      33.830  22.920  23.787  1.00  0.00     0.124 C 
ATOM     81  N   UNL A   1      33.508  21.490  24.084  1.00  0.00    -0.194 NA
BRANCH  81  82
ATOM     82  S   UNL A   1      34.477  20.657  25.206  1.00  0.00     0.243 S 
ATOM     83  O   UNL A   1      35.852  20.720  24.763  1.00  0.00    -0.207 OA
ATOM     84  O   UNL A   1      34.103  21.117  26.528  1.00  0.00    -0.207 OA
BRANCH  82  85
ATOM     85  C   UNL A   1      33.950  18.958  25.053  1.00  0.00     0.082 A 
ATOM     86  C   UNL A   1      34.699  18.076  24.259  1.00  0.00     0.025 A 
ATOM     87  C   UNL A   1      32.841  18.497  25.771  1.00  0.00     0.025 A 
ATOM     88  C   UNL A   1      34.281  16.754  24.110  1.00  0.00     0.040 A 
ATOM     89  C   UNL A   1      32.451  17.162  25.646  1.00  0.00     0.040 A 
ATOM     90  C   UNL A   1      33.163  16.309  24.805  1.00  0.00     0.123 A 
ATOM     91  F   UNL A   1      32.769  15.036  24.667  1.00  0.00    -0.207 F 
ENDBRANCH  82  85
ENDBRANCH  81  82
ENDBRANCH  70  74
ENDBRANCH  65  68
ENDBRANCH  63  64
ENDBRANCH   1  63
TORSDOF 13
ENDMDL
MODEL 3
REMARK VINA RESULT:     -13.1      4.634      6.855
REMARK SMILES O=C(NCCCNC(=O)[C@H]1CCCC[C@H]1C(=O)N1CCN(S(=O)(=O)c2ccc(F)cc2)CC1)c1ccc(-c2c3nc(c(-c4c(F)cccc4F)c4ccc([nH]4)c(-c4c(F)cccc4F)c4nc(c(-c5c(F)cccc5F)c5ccc2[nH]5)C=C4)C=C3)cc1
REMARK SMILES IDX 5 1 4 2 3 3 1 4 2 5 34 7 35 8 87 9 36 10 86 11 37 12 38 13
REMARK SMILES IDX 39 14 80 15 40 16 85 17 79 18 81 19 41 20 84 21 78 22 77 23
REMARK SMILES IDX 42 25 68 26 51 27 67 28 52 29 55 30 66 31 82 32 53 33 54 34
REMARK SMILES IDX 65 36 83 37 56 38 43 39 44 40 49 41 45 42 46 43 48 44 50 45
REMARK SMILES IDX 47 46 69 47 70 48 75 49 71 50 72 51 74 52 76 53 73 54 57 55
REMARK SMILES IDX 58 56 63 57 59 58 60 59 62 60 64 61 61 62 6 63 7 64 8 65
REMARK SMILES IDX 9 67 10 68 11 69 15 70 12 71 14 72 13 73 16 74 17 75 18 76
REMARK SMILES IDX 19 77 33 78 20 79 32 80 21 81 22 82 23 83 24 84 25 85 26 86
REMARK SMILES IDX 31 87 27 88 30 89 28 90 29 91
REMARK H PARENT 3 6 81 24 55 35 7 66
REMARK Flexibility Score: inf
ROOT
ATOM      1  C   UNL A   1      34.662  29.542  27.647  1.00  0.00     0.042 C 
ENDROOT
BRANCH   1   2
ATOM      2  C   UNL A   1      35.557  30.585  28.291  1.00  0.00     0.118 C 
BRANCH   2   3
ATOM      3  N   UNL A   1      35.511  30.538  29.748  1.00  0.00    -0.352 N 
ATOM      4  O   UNL A   1      36.140  29.820  31.800  1.00  0.00    -0.269 OA
ATOM      5  C   UNL A   1      36.425  29.996  30.621  1.00  0.00     0.251 C 
ATOM      6  H   UNL A   1      34.717  30.948  30.162  1.00  0.00     0.163 HD
BRANCH   5   7
ATOM      7  C   UNL A   1      37.754  29.619  30.107  1.00  0.00     0.039 A 
ATOM      8  C   UNL A   1      38.645  28.955  30.951  1.00  0.00     0.014 A 
ATOM      9  C   UNL A   1      38.125  29.943  28.801  1.00  0.00     0.014 A 
ATOM     10  C   UNL A   1      39.962  28.795  30.566  1.00  0.00     0.010 A 
ATOM     11  C   UNL A   1      39.415  29.636  28.359  1.00  0.00     0.010 A 
ATOM     12  C   UNL A   1      40.345  29.073  29.245  1.00  0.00    -0.014 A 
BRANCH  12  13
ATOM     13  C   UNL A   1      41.674  28.599  28.798  1.00  0.00     0.031 A 
ATOM     14  C   UNL A   1      41.906  27.186  28.359  1.00  0.00     0.074 A 
ATOM     15  C   UNL A   1      42.670  29.510  28.762  1.00  0.00     0.049 A 
ATOM     16  N   UNL A   1      43.020  26.636  27.948  1.00  0.00    -0.248 NA
ATOM     17  C   UNL A   1      40.757  26.267  28.384  1.00  0.00     0.031 C 
ATOM     18  C   UNL A   1      42.540  30.913  29.177  1.00  0.00     0.029 A 
ATOM     19  N   UNL A   1      43.968  29.416  28.339  1.00  0.00    -0.354 N 
ATOM     20  C   UNL A   1      42.715  25.307  27.688  1.00  0.00     0.074 A 
ATOM     21  C   UNL A   1      41.312  25.125  27.996  1.00  0.00     0.031 C 
ATOM     22  C   UNL A   1      43.684  31.558  28.927  1.00  0.00     0.029 A 
ATOM     23  C   UNL A   1      44.661  30.598  28.438  1.00  0.00     0.049 A 
ATOM     24  H   UNL A   1      44.366  28.582  27.997  1.00  0.00     0.167 HD
ATOM     25  C   UNL A   1      43.542  24.339  27.233  1.00  0.00     0.037 A 
ATOM     26  C   UNL A   1      45.956  30.877  28.204  1.00  0.00     0.037 A 
ATOM     27  C   UNL A   1      44.931  24.551  26.910  1.00  0.00     0.049 A 
ATOM     28  C   UNL A   1      46.849  29.769  27.741  1.00  0.00     0.074 A 
ATOM     29  C   UNL A   1      45.840  23.641  26.398  1.00  0.00     0.029 A 
ATOM     30  N   UNL A   1      45.611  25.749  27.072  1.00  0.00    -0.354 N 
ATOM     31  N   UNL A   1      46.540  28.524  27.473  1.00  0.00    -0.248 NA
ATOM     32  C   UNL A   1      48.269  30.092  27.562  1.00  0.00     0.031 C 
ATOM     33  C   UNL A   1      47.082  24.272  26.303  1.00  0.00     0.029 A 
ATOM     34  C   UNL A   1      46.936  25.592  26.703  1.00  0.00     0.049 A 
ATOM     35  H   UNL A   1      45.210  26.588  27.399  1.00  0.00     0.167 HD
ATOM     36  C   UNL A   1      47.724  27.913  27.093  1.00  0.00     0.074 A 
ATOM     37  C   UNL A   1      48.753  28.934  27.135  1.00  0.00     0.031 C 
ATOM     38  C   UNL A   1      47.942  26.621  26.754  1.00  0.00     0.037 A 
BRANCH  25  39
ATOM     39  C   UNL A   1      43.000  22.952  27.052  1.00  0.00     0.057 A 
ATOM     40  C   UNL A   1      42.625  22.499  25.780  1.00  0.00     0.134 A 
ATOM     41  C   UNL A   1      42.712  22.125  28.144  1.00  0.00     0.134 A 
ATOM     42  F   UNL A   1      42.866  23.248  24.692  1.00  0.00    -0.206 F 
ATOM     43  C   UNL A   1      41.954  21.288  25.603  1.00  0.00     0.040 A 
ATOM     44  C   UNL A   1      42.059  20.901  27.977  1.00  0.00     0.040 A 
ATOM     45  F   UNL A   1      43.052  22.496  29.387  1.00  0.00    -0.206 F 
ATOM     46  C   UNL A   1      41.663  20.488  26.705  1.00  0.00     0.006 A 
ENDBRANCH  25  39
BRANCH  26  47
ATOM     47  C   UNL A   1      46.471  32.245  28.457  1.00  0.00     0.057 A 
ATOM     48  C   UNL A   1      47.075  32.581  29.677  1.00  0.00     0.134 A 
ATOM     49  C   UNL A   1      46.345  33.259  27.502  1.00  0.00     0.134 A 
ATOM     50  F   UNL A   1      47.215  31.657  30.641  1.00  0.00    -0.206 F 
ATOM     51  C   UNL A   1      47.512  33.877  29.948  1.00  0.00     0.040 A 
ATOM     52  C   UNL A   1      46.809  34.552  27.746  1.00  0.00     0.040 A 
ATOM     53  F   UNL A   1      45.787  32.998  26.311  1.00  0.00    -0.206 F 
ATOM     54  C   UNL A   1      47.386  34.866  28.976  1.00  0.00     0.006 A 
ENDBRANCH  26  47
BRANCH  38  55
ATOM     55  C   UNL A   1      49.345  26.236  26.397  1.00  0.00     0.057 A 
ATOM     56  C   UNL A   1      50.217  25.731  27.369  1.00  0.00     0.134 A 
ATOM     57  C   UNL A   1      49.852  26.439  25.108  1.00  0.00     0.134 A 
ATOM     58  F   UNL A   1      49.793  25.524  28.624  1.00  0.00    -0.206 F 
ATOM     59  C   UNL A   1      51.553  25.459  27.075  1.00  0.00     0.040 A 
ATOM     60  C   UNL A   1      51.179  26.144  24.796  1.00  0.00     0.040 A 
ATOM     61  F   UNL A   1      49.060  26.905  24.131  1.00  0.00    -0.206 F 
ATOM     62  C   UNL A   1      52.036  25.664  25.785  1.00  0.00     0.006 A 
ENDBRANCH  38  55
ENDBRANCH  12  13
ENDBRANCH   5   7
ENDBRANCH   2   3
ENDBRANCH   1   2
BRANCH   1  63
ATOM     63  C   UNL A   1      33.861  30.085  26.485  1.00  0.00     0.117 C 
BRANCH  63  64
ATOM     64  N   UNL A   1      33.755  29.133  25.400  1.00  0.00    -0.356 N 
ATOM     65  C   UNL A   1      32.764  29.151  24.471  1.00  0.00     0.223 C 
ATOM     66  H   UNL A   1      34.443  28.432  25.330  1.00  0.00     0.163 HD
ATOM     67  O   UNL A   1      33.132  29.324  23.312  1.00  0.00    -0.275 OA
BRANCH  65  68
ATOM     68  C   UNL A   1      31.320  28.864  24.880  1.00  0.00     0.091 C 
ATOM     69  C   UNL A   1      30.348  29.560  23.911  1.00  0.00     0.014 C 
ATOM     70  C   UNL A   1      30.962  27.362  24.834  1.00  0.00     0.091 C 
ATOM     71  C   UNL A   1      30.640  29.133  22.476  1.00  0.00     0.001 C 
ATOM     72  C   UNL A   1      31.126  26.760  23.424  1.00  0.00     0.014 C 
ATOM     73  C   UNL A   1      30.517  27.619  22.305  1.00  0.00     0.001 C 
BRANCH  70  74
ATOM     74  C   UNL A   1      31.470  26.381  25.915  1.00  0.00     0.226 C 
ATOM     75  O   UNL A   1      31.319  26.678  27.105  1.00  0.00    -0.275 OA
ATOM     76  N   UNL A   1      31.853  25.106  25.562  1.00  0.00    -0.340 N 
ATOM     77  C   UNL A   1      31.418  23.978  26.393  1.00  0.00     0.136 C 
ATOM     78  C   UNL A   1      33.087  24.824  24.843  1.00  0.00     0.136 C 
ATOM     79  C   UNL A   1      31.282  22.685  25.559  1.00  0.00     0.124 C 
ATOM     80  C   UNL A   1      32.904  23.588  23.952  1.00  0.00     0.124 C 
ATOM     81  N   UNL A   1      32.520  22.381  24.748  1.00  0.00    -0.194 NA
BRANCH  81  82
ATOM     82  S   UNL A   1      33.739  21.543  25.587  1.00  0.00     0.243 S 
ATOM     83  O   UNL A   1      35.010  22.168  25.299  1.00  0.00    -0.207 OA
ATOM     84  O   UNL A   1      33.288  21.376  26.953  1.00  0.00    -0.207 OA
BRANCH  82  85
ATOM     85  C   UNL A   1      33.757  19.931  24.821  1.00  0.00     0.082 A 
ATOM     86  C   UNL A   1      34.922  19.150  24.893  1.00  0.00     0.025 A 
ATOM     87  C   UNL A   1      32.603  19.425  24.214  1.00  0.00     0.025 A 
ATOM     88  C   UNL A   1      34.957  17.900  24.275  1.00  0.00     0.040 A 
ATOM     89  C   UNL A   1      32.635  18.156  23.631  1.00  0.00     0.040 A 
ATOM     90  C   UNL A   1      33.814  17.415  23.651  1.00  0.00     0.123 A 
ATOM     91  F   UNL A   1      33.849  16.211  23.066  1.00  0.00    -0.207 F 
ENDBRANCH  82  85
ENDBRANCH  81  82
ENDBRANCH  70  74
ENDBRANCH  65  68
ENDBRANCH  63  64
ENDBRANCH   1  63
TORSDOF 13
ENDMDL
