MODEL 1
REMARK VINA RESULT:     -11.4      0.000      0.000
REMARK SMILES C=C[C@@H](C)Oc1cnc2ccccc2c1C(=O)NCCCNC(=O)c1ccc(-c2c3nc(c(-c4c(F)cccc4F)c4ccc([nH]4)c(-c4c(F)cccc4F)c4nc(c(-c5c(F)cccc5F)c5ccc2[nH]5)C=C4)C=C3)cc1
REMARK SMILES IDX 19 1 18 2 16 3 17 4 15 6 6 7 7 8 8 9 14 10 9 11 13 12 10 13
REMARK SMILES IDX 12 14 11 15 5 16 3 17 4 18 2 19 1 20 20 21 21 22 22 23 23 24
REMARK SMILES IDX 24 26 25 27 26 28 78 29 27 30 77 31 28 32 29 33 30 34 71 35
REMARK SMILES IDX 31 36 76 37 70 38 72 39 32 40 75 41 69 42 68 43 33 45 59 46
REMARK SMILES IDX 42 47 58 48 43 49 46 50 57 51 73 52 44 53 45 54 56 56 74 57
REMARK SMILES IDX 47 58 34 59 35 60 40 61 36 62 37 63 39 64 41 65 38 66 60 67
REMARK SMILES IDX 61 68 66 69 62 70 63 71 65 72 67 73 64 74 48 75 49 76 54 77
REMARK SMILES IDX 50 78 51 79 53 80 55 81 52 82
REMARK H PARENT 18 5 22 25 72 44 46 55
REMARK Flexibility Score: inf
ROOT
ATOM      1  C   UNL A   1      31.403  30.712  26.538  1.00  0.00     0.118 C 
ENDROOT
BRANCH   1   2
ATOM      2  N   UNL A   1      32.177  30.341  25.360  1.00  0.00    -0.352 N 
ATOM      3  C   UNL A   1      32.306  29.245  24.539  1.00  0.00     0.255 C 
ATOM      4  O   UNL A   1      33.282  29.325  23.786  1.00  0.00    -0.269 OA
ATOM      5  H   UNL A   1      32.767  31.075  25.074  1.00  0.00     0.163 HD
BRANCH   3   6
ATOM      6  C   UNL A   1      31.372  28.060  24.423  1.00  0.00     0.092 A 
ATOM      7  C   UNL A   1      30.186  28.266  23.676  1.00  0.00     0.151 A 
ATOM      8  C   UNL A   1      29.309  27.205  23.544  1.00  0.00     0.159 A 
ATOM      9  N   UNL A   1      29.428  26.029  24.183  1.00  0.00    -0.252 NA
ATOM     10  C   UNL A   1      31.599  26.750  24.959  1.00  0.00     0.017 A 
ATOM     11  C   UNL A   1      30.544  25.811  24.871  1.00  0.00     0.071 A 
ATOM     12  C   UNL A   1      32.801  26.252  25.505  1.00  0.00     0.011 A 
ATOM     13  C   UNL A   1      30.653  24.564  25.471  1.00  0.00     0.029 A 
ATOM     14  C   UNL A   1      32.902  25.004  26.126  1.00  0.00     0.001 A 
ATOM     15  C   UNL A   1      31.808  24.164  26.135  1.00  0.00     0.002 A 
BRANCH   7  16
ATOM     16  O   UNL A   1      29.973  29.421  22.974  1.00  0.00    -0.484 OA
BRANCH  16  17
ATOM     17  C   UNL A   1      28.686  30.065  22.994  1.00  0.00     0.192 C 
ATOM     18  C   UNL A   1      28.028  30.157  21.618  1.00  0.00     0.057 C 
BRANCH  17  19
ATOM     19  C   UNL A   1      28.697  31.391  23.720  1.00  0.00     0.009 C 
ATOM     20  C   UNL A   1      28.778  32.589  23.126  1.00  0.00     0.008 C 
ENDBRANCH  17  19
ENDBRANCH  16  17
ENDBRANCH   7  16
ENDBRANCH   3   6
ENDBRANCH   1   2
BRANCH   1  21
ATOM     21  C   UNL A   1      31.365  32.245  26.671  1.00  0.00     0.042 C 
BRANCH  21  22
ATOM     22  C   UNL A   1      32.699  32.901  26.999  1.00  0.00     0.118 C 
BRANCH  22  23
ATOM     23  N   UNL A   1      32.528  34.203  27.626  1.00  0.00    -0.352 N 
ATOM     24  C   UNL A   1      33.122  34.739  28.743  1.00  0.00     0.251 C 
ATOM     25  H   UNL A   1      31.881  34.794  27.178  1.00  0.00     0.163 HD
ATOM     26  O   UNL A   1      32.646  35.767  29.233  1.00  0.00    -0.269 OA
BRANCH  24  27
ATOM     27  C   UNL A   1      34.307  34.114  29.382  1.00  0.00     0.039 A 
ATOM     28  C   UNL A   1      34.108  33.111  30.338  1.00  0.00     0.014 A 
ATOM     29  C   UNL A   1      35.606  34.545  29.107  1.00  0.00     0.014 A 
ATOM     30  C   UNL A   1      35.203  32.508  30.969  1.00  0.00     0.010 A 
ATOM     31  C   UNL A   1      36.700  33.884  29.668  1.00  0.00     0.010 A 
ATOM     32  C   UNL A   1      36.513  32.867  30.614  1.00  0.00    -0.014 A 
BRANCH  32  33
ATOM     33  C   UNL A   1      37.698  32.215  31.236  1.00  0.00     0.031 A 
ATOM     34  C   UNL A   1      38.433  31.124  30.501  1.00  0.00     0.074 A 
ATOM     35  C   UNL A   1      38.071  32.548  32.486  1.00  0.00     0.049 A 
ATOM     36  N   UNL A   1      39.415  30.361  30.913  1.00  0.00    -0.248 NA
ATOM     37  C   UNL A   1      37.983  30.830  29.131  1.00  0.00     0.031 C 
ATOM     38  C   UNL A   1      37.420  33.557  33.324  1.00  0.00     0.029 A 
ATOM     39  N   UNL A   1      39.081  32.063  33.280  1.00  0.00    -0.354 N 
ATOM     40  C   UNL A   1      39.679  29.483  29.868  1.00  0.00     0.074 A 
ATOM     41  C   UNL A   1      38.723  29.774  28.822  1.00  0.00     0.031 C 
ATOM     42  C   UNL A   1      38.056  33.628  34.504  1.00  0.00     0.029 A 
ATOM     43  C   UNL A   1      39.135  32.645  34.524  1.00  0.00     0.049 A 
ATOM     44  H   UNL A   1      39.709  31.364  32.985  1.00  0.00     0.167 HD
ATOM     45  C   UNL A   1      40.642  28.536  29.778  1.00  0.00     0.037 A 
ATOM     46  C   UNL A   1      39.952  32.405  35.567  1.00  0.00     0.037 A 
ATOM     47  C   UNL A   1      41.617  28.273  30.804  1.00  0.00     0.049 A 
ATOM     48  C   UNL A   1      41.019  31.354  35.440  1.00  0.00     0.074 A 
ATOM     49  C   UNL A   1      42.674  27.379  30.781  1.00  0.00     0.029 A 
ATOM     50  N   UNL A   1      41.654  28.905  32.037  1.00  0.00    -0.354 N 
ATOM     51  N   UNL A   1      41.292  30.573  34.423  1.00  0.00    -0.248 NA
ATOM     52  C   UNL A   1      41.895  31.154  36.603  1.00  0.00     0.031 C 
ATOM     53  C   UNL A   1      43.327  27.444  32.017  1.00  0.00     0.029 A 
ATOM     54  C   UNL A   1      42.705  28.410  32.791  1.00  0.00     0.049 A 
ATOM     55  H   UNL A   1      41.026  29.603  32.333  1.00  0.00     0.167 HD
ATOM     56  C   UNL A   1      42.387  29.811  34.812  1.00  0.00     0.074 A 
ATOM     57  C   UNL A   1      42.735  30.232  36.153  1.00  0.00     0.031 C 
ATOM     58  C   UNL A   1      43.044  28.848  34.120  1.00  0.00     0.037 A 
BRANCH  45  59
ATOM     59  C   UNL A   1      40.694  27.718  28.519  1.00  0.00     0.057 A 
ATOM     60  C   UNL A   1      39.992  26.512  28.390  1.00  0.00     0.134 A 
ATOM     61  C   UNL A   1      41.429  28.156  27.409  1.00  0.00     0.134 A 
ATOM     62  F   UNL A   1      39.276  26.030  29.418  1.00  0.00    -0.206 F 
ATOM     63  C   UNL A   1      40.044  25.757  27.217  1.00  0.00     0.040 A 
ATOM     64  C   UNL A   1      41.466  27.423  26.221  1.00  0.00     0.040 A 
ATOM     65  F   UNL A   1      42.119  29.305  27.459  1.00  0.00    -0.206 F 
ATOM     66  C   UNL A   1      40.778  26.215  26.126  1.00  0.00     0.006 A 
ENDBRANCH  45  59
BRANCH  46  67
ATOM     67  C   UNL A   1      39.810  33.192  36.819  1.00  0.00     0.057 A 
ATOM     68  C   UNL A   1      40.591  34.331  37.046  1.00  0.00     0.134 A 
ATOM     69  C   UNL A   1      38.898  32.827  37.816  1.00  0.00     0.134 A 
ATOM     70  F   UNL A   1      41.496  34.720  36.137  1.00  0.00    -0.206 F 
ATOM     71  C   UNL A   1      40.484  35.068  38.226  1.00  0.00     0.040 A 
ATOM     72  C   UNL A   1      38.763  33.569  38.990  1.00  0.00     0.040 A 
ATOM     73  F   UNL A   1      38.114  31.750  37.656  1.00  0.00    -0.206 F 
ATOM     74  C   UNL A   1      39.563  34.690  39.201  1.00  0.00     0.006 A 
ENDBRANCH  46  67
BRANCH  58  75
ATOM     75  C   UNL A   1      44.230  28.214  34.786  1.00  0.00     0.057 A 
ATOM     76  C   UNL A   1      45.513  28.767  34.697  1.00  0.00     0.134 A 
ATOM     77  C   UNL A   1      44.076  27.057  35.560  1.00  0.00     0.134 A 
ATOM     78  F   UNL A   1      45.728  29.868  33.960  1.00  0.00    -0.206 F 
ATOM     79  C   UNL A   1      46.605  28.181  35.336  1.00  0.00     0.040 A 
ATOM     80  C   UNL A   1      45.155  26.475  36.225  1.00  0.00     0.040 A 
ATOM     81  F   UNL A   1      42.871  26.481  35.693  1.00  0.00    -0.206 F 
ATOM     82  C   UNL A   1      46.427  27.034  36.110  1.00  0.00     0.006 A 
ENDBRANCH  58  75
ENDBRANCH  32  33
ENDBRANCH  24  27
ENDBRANCH  22  23
ENDBRANCH  21  22
ENDBRANCH   1  21
TORSDOF 13
ENDMDL
MODEL 2
REMARK VINA RESULT:     -11.4      5.377      9.926
REMARK SMILES C=C[C@@H](C)Oc1cnc2ccccc2c1C(=O)NCCCNC(=O)c1ccc(-c2c3nc(c(-c4c(F)cccc4F)c4ccc([nH]4)c(-c4c(F)cccc4F)c4nc(c(-c5c(F)cccc5F)c5ccc2[nH]5)C=C4)C=C3)cc1
REMARK SMILES IDX 19 1 18 2 16 3 17 4 15 6 6 7 7 8 8 9 14 10 9 11 13 12 10 13
REMARK SMILES IDX 12 14 11 15 5 16 3 17 4 18 2 19 1 20 20 21 21 22 22 23 23 24
REMARK SMILES IDX 24 26 25 27 26 28 78 29 27 30 77 31 28 32 29 33 30 34 71 35
REMARK SMILES IDX 31 36 76 37 70 38 72 39 32 40 75 41 69 42 68 43 33 45 59 46
REMARK SMILES IDX 42 47 58 48 43 49 46 50 57 51 73 52 44 53 45 54 56 56 74 57
REMARK SMILES IDX 47 58 34 59 35 60 40 61 36 62 37 63 39 64 41 65 38 66 60 67
REMARK SMILES IDX 61 68 66 69 62 70 63 71 65 72 67 73 64 74 48 75 49 76 54 77
REMARK SMILES IDX 50 78 51 79 53 80 55 81 52 82
REMARK H PARENT 18 5 22 25 72 44 46 55
REMARK Flexibility Score: inf
ROOT
ATOM      1  C   UNL A   1      37.307  21.277  24.598  1.00  0.00     0.118 C 
ENDROOT
BRANCH   1   2
ATOM      2  N   UNL A   1      36.306  21.316  25.656  1.00  0.00    -0.352 N 
ATOM      3  C   UNL A   1      34.947  21.132  25.770  1.00  0.00     0.255 C 
ATOM      4  O   UNL A   1      34.506  21.504  26.863  1.00  0.00    -0.269 OA
ATOM      5  H   UNL A   1      36.714  21.531  26.526  1.00  0.00     0.163 HD
BRANCH   3   6
ATOM      6  C   UNL A   1      34.015  20.480  24.773  1.00  0.00     0.092 A 
ATOM      7  C   UNL A   1      33.109  21.340  24.105  1.00  0.00     0.151 A 
ATOM      8  C   UNL A   1      32.243  20.781  23.182  1.00  0.00     0.159 A 
ATOM      9  N   UNL A   1      32.101  19.462  22.968  1.00  0.00    -0.252 NA
ATOM     10  C   UNL A   1      33.997  19.091  24.417  1.00  0.00     0.017 A 
ATOM     11  C   UNL A   1      32.956  18.642  23.570  1.00  0.00     0.071 A 
ATOM     12  C   UNL A   1      34.958  18.115  24.755  1.00  0.00     0.011 A 
ATOM     13  C   UNL A   1      32.811  17.293  23.280  1.00  0.00     0.029 A 
ATOM     14  C   UNL A   1      34.800  16.755  24.479  1.00  0.00     0.001 A 
ATOM     15  C   UNL A   1      33.699  16.336  23.759  1.00  0.00     0.002 A 
BRANCH   7  16
ATOM     16  O   UNL A   1      33.179  22.700  24.241  1.00  0.00    -0.484 OA
BRANCH  16  17
ATOM     17  C   UNL A   1      32.168  23.416  24.973  1.00  0.00     0.192 C 
ATOM     18  C   UNL A   1      31.076  24.010  24.084  1.00  0.00     0.057 C 
BRANCH  17  19
ATOM     19  C   UNL A   1      32.739  24.426  25.942  1.00  0.00     0.009 C 
ATOM     20  C   UNL A   1      33.952  24.987  25.837  1.00  0.00     0.008 C 
ENDBRANCH  17  19
ENDBRANCH  16  17
ENDBRANCH   7  16
ENDBRANCH   3   6
ENDBRANCH   1   2
BRANCH   1  21
ATOM     21  C   UNL A   1      38.181  20.020  24.756  1.00  0.00     0.042 C 
BRANCH  21  22
ATOM     22  C   UNL A   1      38.968  19.936  26.057  1.00  0.00     0.118 C 
BRANCH  22  23
ATOM     23  N   UNL A   1      40.217  19.209  25.894  1.00  0.00    -0.352 N 
ATOM     24  C   UNL A   1      41.518  19.644  25.965  1.00  0.00     0.251 C 
ATOM     25  H   UNL A   1      40.114  18.250  25.701  1.00  0.00     0.163 HD
ATOM     26  O   UNL A   1      42.415  18.906  25.552  1.00  0.00    -0.269 OA
BRANCH  24  27
ATOM     27  C   UNL A   1      41.874  20.979  26.511  1.00  0.00     0.039 A 
ATOM     28  C   UNL A   1      41.905  21.153  27.901  1.00  0.00     0.014 A 
ATOM     29  C   UNL A   1      42.110  22.076  25.682  1.00  0.00     0.014 A 
ATOM     30  C   UNL A   1      42.227  22.401  28.449  1.00  0.00     0.010 A 
ATOM     31  C   UNL A   1      42.517  23.294  26.226  1.00  0.00     0.010 A 
ATOM     32  C   UNL A   1      42.568  23.476  27.615  1.00  0.00    -0.014 A 
BRANCH  32  33
ATOM     33  C   UNL A   1      42.955  24.803  28.169  1.00  0.00     0.031 A 
ATOM     34  C   UNL A   1      41.904  25.853  28.420  1.00  0.00     0.074 A 
ATOM     35  C   UNL A   1      44.254  25.093  28.378  1.00  0.00     0.049 A 
ATOM     36  N   UNL A   1      42.049  27.101  28.791  1.00  0.00    -0.248 NA
ATOM     37  C   UNL A   1      40.505  25.457  28.189  1.00  0.00     0.031 C 
ATOM     38  C   UNL A   1      45.374  24.182  28.136  1.00  0.00     0.029 A 
ATOM     39  N   UNL A   1      44.854  26.243  28.827  1.00  0.00    -0.354 N 
ATOM     40  C   UNL A   1      40.769  27.642  28.813  1.00  0.00     0.074 A 
ATOM     41  C   UNL A   1      39.865  26.604  28.370  1.00  0.00     0.031 C 
ATOM     42  C   UNL A   1      46.522  24.800  28.455  1.00  0.00     0.029 A 
ATOM     43  C   UNL A   1      46.225  26.163  28.887  1.00  0.00     0.049 A 
ATOM     44  H   UNL A   1      44.351  27.049  29.082  1.00  0.00     0.167 HD
ATOM     45  C   UNL A   1      40.378  28.883  29.189  1.00  0.00     0.037 A 
ATOM     46  C   UNL A   1      47.140  27.086  29.239  1.00  0.00     0.037 A 
ATOM     47  C   UNL A   1      41.274  29.904  29.666  1.00  0.00     0.049 A 
ATOM     48  C   UNL A   1      46.681  28.454  29.659  1.00  0.00     0.074 A 
ATOM     49  C   UNL A   1      40.969  31.172  30.132  1.00  0.00     0.029 A 
ATOM     50  N   UNL A   1      42.653  29.771  29.739  1.00  0.00    -0.354 N 
ATOM     51  N   UNL A   1      45.462  28.931  29.730  1.00  0.00    -0.248 NA
ATOM     52  C   UNL A   1      47.725  29.412  30.054  1.00  0.00     0.031 C 
ATOM     53  C   UNL A   1      42.167  31.820  30.451  1.00  0.00     0.029 A 
ATOM     54  C   UNL A   1      43.214  30.940  30.227  1.00  0.00     0.049 A 
ATOM     55  H   UNL A   1      43.157  28.966  29.483  1.00  0.00     0.167 HD
ATOM     56  C   UNL A   1      45.590  30.232  30.204  1.00  0.00     0.074 A 
ATOM     57  C   UNL A   1      47.003  30.463  30.414  1.00  0.00     0.031 C 
ATOM     58  C   UNL A   1      44.622  31.150  30.441  1.00  0.00     0.037 A 
BRANCH  45  59
ATOM     59  C   UNL A   1      38.913  29.204  29.106  1.00  0.00     0.057 A 
ATOM     60  C   UNL A   1      38.305  29.587  27.902  1.00  0.00     0.134 A 
ATOM     61  C   UNL A   1      38.091  29.098  30.236  1.00  0.00     0.134 A 
ATOM     62  F   UNL A   1      39.036  29.717  26.784  1.00  0.00    -0.206 F 
ATOM     63  C   UNL A   1      36.943  29.882  27.832  1.00  0.00     0.040 A 
ATOM     64  C   UNL A   1      36.722  29.364  30.172  1.00  0.00     0.040 A 
ATOM     65  F   UNL A   1      38.604  28.729  31.420  1.00  0.00    -0.206 F 
ATOM     66  C   UNL A   1      36.146  29.766  28.968  1.00  0.00     0.006 A 
ENDBRANCH  45  59
BRANCH  46  67
ATOM     67  C   UNL A   1      48.585  26.740  29.231  1.00  0.00     0.057 A 
ATOM     68  C   UNL A   1      49.193  26.161  30.351  1.00  0.00     0.134 A 
ATOM     69  C   UNL A   1      49.392  26.983  28.114  1.00  0.00     0.134 A 
ATOM     70  F   UNL A   1      48.476  25.922  31.459  1.00  0.00    -0.206 F 
ATOM     71  C   UNL A   1      50.553  25.850  30.367  1.00  0.00     0.040 A 
ATOM     72  C   UNL A   1      50.749  26.655  28.107  1.00  0.00     0.040 A 
ATOM     73  F   UNL A   1      48.869  27.529  27.006  1.00  0.00    -0.206 F 
ATOM     74  C   UNL A   1      51.334  26.093  29.239  1.00  0.00     0.006 A 
ENDBRANCH  46  67
BRANCH  58  75
ATOM     75  C   UNL A   1      45.057  32.476  30.994  1.00  0.00     0.057 A 
ATOM     76  C   UNL A   1      45.358  33.562  30.163  1.00  0.00     0.134 A 
ATOM     77  C   UNL A   1      45.134  32.678  32.378  1.00  0.00     0.134 A 
ATOM     78  F   UNL A   1      45.315  33.429  28.829  1.00  0.00    -0.206 F 
ATOM     79  C   UNL A   1      45.742  34.796  30.688  1.00  0.00     0.040 A 
ATOM     80  C   UNL A   1      45.492  33.914  32.916  1.00  0.00     0.040 A 
ATOM     81  F   UNL A   1      44.850  31.681  33.229  1.00  0.00    -0.206 F 
ATOM     82  C   UNL A   1      45.803  34.977  32.069  1.00  0.00     0.006 A 
ENDBRANCH  58  75
ENDBRANCH  32  33
ENDBRANCH  24  27
ENDBRANCH  22  23
ENDBRANCH  21  22
ENDBRANCH   1  21
TORSDOF 13
ENDMDL
MODEL 3
REMARK VINA RESULT:     -11.4      5.340     10.070
REMARK SMILES C=C[C@@H](C)Oc1cnc2ccccc2c1C(=O)NCCCNC(=O)c1ccc(-c2c3nc(c(-c4c(F)cccc4F)c4ccc([nH]4)c(-c4c(F)cccc4F)c4nc(c(-c5c(F)cccc5F)c5ccc2[nH]5)C=C4)C=C3)cc1
REMARK SMILES IDX 19 1 18 2 16 3 17 4 15 6 6 7 7 8 8 9 14 10 9 11 13 12 10 13
REMARK SMILES IDX 12 14 11 15 5 16 3 17 4 18 2 19 1 20 20 21 21 22 22 23 23 24
REMARK SMILES IDX 24 26 25 27 26 28 78 29 27 30 77 31 28 32 29 33 30 34 71 35
REMARK SMILES IDX 31 36 76 37 70 38 72 39 32 40 75 41 69 42 68 43 33 45 59 46
REMARK SMILES IDX 42 47 58 48 43 49 46 50 57 51 73 52 44 53 45 54 56 56 74 57
REMARK SMILES IDX 47 58 34 59 35 60 40 61 36 62 37 63 39 64 41 65 38 66 60 67
REMARK SMILES IDX 61 68 66 69 62 70 63 71 65 72 67 73 64 74 48 75 49 76 54 77
REMARK SMILES IDX 50 78 51 79 53 80 55 81 52 82
REMARK H PARENT 18 5 22 25 72 44 46 55
REMARK Flexibility Score: inf
ROOT
ATOM      1  C   UNL A   1      36.945  21.069  24.665  1.00  0.00     0.118 C 
ENDROOT
BRANCH   1   2
ATOM      2  N   UNL A   1      36.059  21.031  25.822  1.00  0.00    -0.352 N 
ATOM      3  C   UNL A   1      34.788  21.453  26.137  1.00  0.00     0.255 C 
ATOM      4  O   UNL A   1      34.552  21.392  27.349  1.00  0.00    -0.269 OA
ATOM      5  H   UNL A   1      36.487  20.579  26.584  1.00  0.00     0.163 HD
BRANCH   3   6
ATOM      6  C   UNL A   1      33.692  21.879  25.186  1.00  0.00     0.092 A 
ATOM      7  C   UNL A   1      33.275  20.915  24.235  1.00  0.00     0.151 A 
ATOM      8  C   UNL A   1      32.271  21.267  23.351  1.00  0.00     0.159 A 
ATOM      9  N   UNL A   1      31.752  22.501  23.234  1.00  0.00    -0.252 NA
ATOM     10  C   UNL A   1      33.015  23.143  25.190  1.00  0.00     0.017 A 
ATOM     11  C   UNL A   1      32.116  23.412  24.131  1.00  0.00     0.071 A 
ATOM     12  C   UNL A   1      33.082  24.140  26.186  1.00  0.00     0.011 A 
ATOM     13  C   UNL A   1      31.516  24.658  24.009  1.00  0.00     0.029 A 
ATOM     14  C   UNL A   1      32.493  25.400  26.052  1.00  0.00     0.001 A 
ATOM     15  C   UNL A   1      31.727  25.671  24.937  1.00  0.00     0.002 A 
BRANCH   7  16
ATOM     16  O   UNL A   1      33.730  19.626  24.276  1.00  0.00    -0.484 OA
BRANCH  16  17
ATOM     17  C   UNL A   1      32.807  18.522  24.285  1.00  0.00     0.192 C 
ATOM     18  C   UNL A   1      32.666  17.855  25.653  1.00  0.00     0.057 C 
BRANCH  17  19
ATOM     19  C   UNL A   1      33.063  17.525  23.178  1.00  0.00     0.009 C 
ATOM     20  C   UNL A   1      34.155  16.755  23.077  1.00  0.00     0.008 C 
ENDBRANCH  17  19
ENDBRANCH  16  17
ENDBRANCH   7  16
ENDBRANCH   3   6
ENDBRANCH   1   2
BRANCH   1  21
ATOM     21  C   UNL A   1      38.006  19.962  24.787  1.00  0.00     0.042 C 
BRANCH  21  22
ATOM     22  C   UNL A   1      38.885  20.039  26.029  1.00  0.00     0.118 C 
BRANCH  22  23
ATOM     23  N   UNL A   1      40.095  19.243  25.892  1.00  0.00    -0.352 N 
ATOM     24  C   UNL A   1      41.416  19.606  25.991  1.00  0.00     0.251 C 
ATOM     25  H   UNL A   1      39.942  18.291  25.695  1.00  0.00     0.163 HD
ATOM     26  O   UNL A   1      42.279  18.818  25.595  1.00  0.00    -0.269 OA
BRANCH  24  27
ATOM     27  C   UNL A   1      41.833  20.919  26.545  1.00  0.00     0.039 A 
ATOM     28  C   UNL A   1      42.184  21.945  25.658  1.00  0.00     0.014 A 
ATOM     29  C   UNL A   1      41.950  21.136  27.919  1.00  0.00     0.014 A 
ATOM     30  C   UNL A   1      42.593  23.192  26.147  1.00  0.00     0.010 A 
ATOM     31  C   UNL A   1      42.271  22.403  28.406  1.00  0.00     0.010 A 
ATOM     32  C   UNL A   1      42.609  23.443  27.528  1.00  0.00    -0.014 A 
BRANCH  32  33
ATOM     33  C   UNL A   1      42.998  24.771  28.077  1.00  0.00     0.031 A 
ATOM     34  C   UNL A   1      41.944  25.808  28.366  1.00  0.00     0.074 A 
ATOM     35  C   UNL A   1      44.299  25.073  28.248  1.00  0.00     0.049 A 
ATOM     36  N   UNL A   1      42.087  27.056  28.740  1.00  0.00    -0.248 NA
ATOM     37  C   UNL A   1      40.543  25.398  28.176  1.00  0.00     0.031 C 
ATOM     38  C   UNL A   1      45.421  24.176  27.968  1.00  0.00     0.029 A 
ATOM     39  N   UNL A   1      44.901  26.227  28.685  1.00  0.00    -0.354 N 
ATOM     40  C   UNL A   1      40.802  27.583  28.804  1.00  0.00     0.074 A 
ATOM     41  C   UNL A   1      39.896  26.537  28.382  1.00  0.00     0.031 C 
ATOM     42  C   UNL A   1      46.572  24.805  28.256  1.00  0.00     0.029 A 
ATOM     43  C   UNL A   1      46.273  26.162  28.704  1.00  0.00     0.049 A 
ATOM     44  H   UNL A   1      44.397  27.027  28.961  1.00  0.00     0.167 HD
ATOM     45  C   UNL A   1      40.410  28.817  29.198  1.00  0.00     0.037 A 
ATOM     46  C   UNL A   1      47.189  27.093  29.033  1.00  0.00     0.037 A 
ATOM     47  C   UNL A   1      41.310  29.845  29.654  1.00  0.00     0.049 A 
ATOM     48  C   UNL A   1      46.729  28.453  29.474  1.00  0.00     0.074 A 
ATOM     49  C   UNL A   1      41.005  31.107  30.135  1.00  0.00     0.029 A 
ATOM     50  N   UNL A   1      42.691  29.727  29.684  1.00  0.00    -0.354 N 
ATOM     51  N   UNL A   1      45.508  28.917  29.585  1.00  0.00    -0.248 NA
ATOM     52  C   UNL A   1      47.774  29.420  29.843  1.00  0.00     0.031 C 
ATOM     53  C   UNL A   1      42.206  31.766  30.422  1.00  0.00     0.029 A 
ATOM     54  C   UNL A   1      43.255  30.899  30.162  1.00  0.00     0.049 A 
ATOM     55  H   UNL A   1      43.196  28.929  29.408  1.00  0.00     0.167 HD
ATOM     56  C   UNL A   1      45.636  30.216  30.062  1.00  0.00     0.074 A 
ATOM     57  C   UNL A   1      47.053  30.462  30.231  1.00  0.00     0.031 C 
ATOM     58  C   UNL A   1      44.666  31.123  30.334  1.00  0.00     0.037 A 
BRANCH  45  59
ATOM     59  C   UNL A   1      38.940  29.122  29.161  1.00  0.00     0.057 A 
ATOM     60  C   UNL A   1      38.132  29.015  30.302  1.00  0.00     0.134 A 
ATOM     61  C   UNL A   1      38.328  29.559  27.978  1.00  0.00     0.134 A 
ATOM     62  F   UNL A   1      38.651  28.594  31.465  1.00  0.00    -0.206 F 
ATOM     63  C   UNL A   1      36.766  29.301  30.260  1.00  0.00     0.040 A 
ATOM     64  C   UNL A   1      36.968  29.874  27.932  1.00  0.00     0.040 A 
ATOM     65  F   UNL A   1      39.042  29.692  26.850  1.00  0.00    -0.206 F 
ATOM     66  C   UNL A   1      36.182  29.738  29.074  1.00  0.00     0.006 A 
ENDBRANCH  45  59
BRANCH  46  67
ATOM     67  C   UNL A   1      48.637  26.762  28.980  1.00  0.00     0.057 A 
ATOM     68  C   UNL A   1      49.397  27.036  27.837  1.00  0.00     0.134 A 
ATOM     69  C   UNL A   1      49.293  26.164  30.062  1.00  0.00     0.134 A 
ATOM     70  F   UNL A   1      48.820  27.591  26.761  1.00  0.00    -0.206 F 
ATOM     71  C   UNL A   1      50.752  26.712  27.764  1.00  0.00     0.040 A 
ATOM     72  C   UNL A   1      50.653  25.856  30.012  1.00  0.00     0.040 A 
ATOM     73  F   UNL A   1      48.623  25.883  31.189  1.00  0.00    -0.206 F 
ATOM     74  C   UNL A   1      51.385  26.124  28.858  1.00  0.00     0.006 A 
ENDBRANCH  46  67
BRANCH  58  75
ATOM     75  C   UNL A   1      45.103  32.451  30.881  1.00  0.00     0.057 A 
ATOM     76  C   UNL A   1      45.369  33.544  30.047  1.00  0.00     0.134 A 
ATOM     77  C   UNL A   1      45.219  32.647  32.263  1.00  0.00     0.134 A 
ATOM     78  F   UNL A   1      45.287  33.417  28.714  1.00  0.00    -0.206 F 
ATOM     79  C   UNL A   1      45.756  34.779  30.567  1.00  0.00     0.040 A 
ATOM     80  C   UNL A   1      45.580  33.883  32.797  1.00  0.00     0.040 A 
ATOM     81  F   UNL A   1      44.971  31.642  33.117  1.00  0.00    -0.206 F 
ATOM     82  C   UNL A   1      45.855  34.954  31.947  1.00  0.00     0.006 A 
ENDBRANCH  58  75
ENDBRANCH  32  33
ENDBRANCH  24  27
ENDBRANCH  22  23
ENDBRANCH  21  22
ENDBRANCH   1  21
TORSDOF 13
ENDMDL
