MODEL 1
REMARK VINA RESULT:     -10.4      0.000      0.000
REMARK SMILES CCc1cc2c(-c3ccccc3)cc(=O)oc2cc1OCC(=O)NCCCNC(=O)c1ccc(-c2c3nc(c(-c4c(F)cccc4F)c4ccc([nH]4)c(-c4c(F)cccc4F)c4nc(c(-c5c(F)cccc5F)c5ccc2[nH]5)C=C4)C=C3)cc1
REMARK SMILES IDX 25 1 24 2 22 3 23 4 21 6 20 7 19 8 3 9 4 10 5 11 18 12 6 13
REMARK SMILES IDX 17 14 13 15 16 16 14 17 15 18 2 19 1 20 7 21 8 22 12 23 9 24
REMARK SMILES IDX 11 25 10 26 26 27 27 28 28 29 29 30 30 32 31 33 32 34 84 35
REMARK SMILES IDX 33 36 83 37 34 38 35 39 36 40 77 41 37 42 82 43 76 44 78 45
REMARK SMILES IDX 38 46 81 47 75 48 74 49 39 51 65 52 48 53 64 54 49 55 52 56
REMARK SMILES IDX 63 57 79 58 50 59 51 60 62 62 80 63 53 64 40 65 41 66 46 67
REMARK SMILES IDX 42 68 43 69 45 70 47 71 44 72 66 73 67 74 72 75 68 76 69 77
REMARK SMILES IDX 71 78 73 79 70 80 54 81 55 82 60 83 56 84 57 85 59 86 61 87
REMARK SMILES IDX 58 88
REMARK H PARENT 24 5 28 31 78 50 52 61
REMARK Flexibility Score: inf
ROOT
ATOM      1  C   UNL A   1      34.337  35.113  28.496  1.00  0.00     0.117 C 
ENDROOT
BRANCH   1   2
ATOM      2  N   UNL A   1      33.514  35.781  29.485  1.00  0.00    -0.353 N 
ATOM      3  C   UNL A   1      33.415  35.527  30.822  1.00  0.00     0.257 C 
ATOM      4  O   UNL A   1      32.681  36.243  31.506  1.00  0.00    -0.271 OA
ATOM      5  H   UNL A   1      32.953  36.516  29.147  1.00  0.00     0.163 HD
BRANCH   3   6
ATOM      6  C   UNL A   1      34.240  34.395  31.446  1.00  0.00     0.329 C 
BRANCH   6   7
ATOM      7  O   UNL A   1      35.641  34.603  31.521  1.00  0.00    -0.483 OA
BRANCH   7   8
ATOM      8  C   UNL A   1      36.402  33.722  32.242  1.00  0.00     0.127 A 
ATOM      9  C   UNL A   1      37.296  32.927  31.494  1.00  0.00    -0.005 A 
ATOM     10  C   UNL A   1      38.105  31.997  32.174  1.00  0.00     0.020 A 
ATOM     11  C   UNL A   1      38.044  31.840  33.564  1.00  0.00     0.026 A 
ATOM     12  C   UNL A   1      36.339  33.574  33.631  1.00  0.00     0.094 A 
ATOM     13  C   UNL A   1      38.887  30.876  34.293  1.00  0.00    -0.000 A 
ATOM     14  C   UNL A   1      37.151  32.636  34.266  1.00  0.00     0.142 A 
ATOM     15  C   UNL A   1      38.734  30.798  35.624  1.00  0.00     0.103 A 
ATOM     16  O   UNL A   1      37.021  32.531  35.663  1.00  0.00    -0.423 OA
ATOM     17  C   UNL A   1      37.775  31.619  36.381  1.00  0.00     0.336 A 
ATOM     18  O   UNL A   1      37.669  31.493  37.596  1.00  0.00    -0.246 OA
BRANCH   9  19
ATOM     19  C   UNL A   1      37.456  33.125  29.997  1.00  0.00     0.036 C 
ATOM     20  C   UNL A   1      38.504  34.151  29.575  1.00  0.00     0.009 C 
ENDBRANCH   9  19
BRANCH  13  21
ATOM     21  C   UNL A   1      39.909  30.002  33.677  1.00  0.00    -0.017 A 
ATOM     22  C   UNL A   1      39.515  28.838  33.002  1.00  0.00     0.009 A 
ATOM     23  C   UNL A   1      41.274  30.284  33.815  1.00  0.00     0.009 A 
ATOM     24  C   UNL A   1      40.472  27.953  32.501  1.00  0.00     0.001 A 
ATOM     25  C   UNL A   1      42.228  29.403  33.303  1.00  0.00     0.001 A 
ATOM     26  C   UNL A   1      41.827  28.236  32.654  1.00  0.00     0.000 A 
ENDBRANCH  13  21
ENDBRANCH   7   8
ENDBRANCH   6   7
ENDBRANCH   3   6
ENDBRANCH   1   2
BRANCH   1  27
ATOM     27  C   UNL A   1      33.768  33.764  28.076  1.00  0.00     0.042 C 
BRANCH  27  28
ATOM     28  C   UNL A   1      34.722  32.588  28.269  1.00  0.00     0.118 C 
BRANCH  28  29
ATOM     29  N   UNL A   1      34.080  31.291  28.092  1.00  0.00    -0.352 N 
ATOM     30  C   UNL A   1      34.626  30.033  28.037  1.00  0.00     0.251 C 
ATOM     31  H   UNL A   1      33.101  31.324  27.997  1.00  0.00     0.163 HD
ATOM     32  O   UNL A   1      33.923  29.074  27.727  1.00  0.00    -0.269 OA
BRANCH  30  33
ATOM     33  C   UNL A   1      36.062  29.828  28.321  1.00  0.00     0.039 A 
ATOM     34  C   UNL A   1      36.447  29.388  29.591  1.00  0.00     0.014 A 
ATOM     35  C   UNL A   1      37.029  30.071  27.342  1.00  0.00     0.014 A 
ATOM     36  C   UNL A   1      37.792  29.113  29.852  1.00  0.00     0.010 A 
ATOM     37  C   UNL A   1      38.354  29.722  27.578  1.00  0.00     0.010 A 
ATOM     38  C   UNL A   1      38.750  29.235  28.834  1.00  0.00    -0.014 A 
BRANCH  38  39
ATOM     39  C   UNL A   1      40.171  28.854  29.045  1.00  0.00     0.031 A 
ATOM     40  C   UNL A   1      41.151  29.867  29.568  1.00  0.00     0.074 A 
ATOM     41  C   UNL A   1      40.598  27.629  28.678  1.00  0.00     0.049 A 
ATOM     42  N   UNL A   1      42.451  29.777  29.686  1.00  0.00    -0.248 NA
ATOM     43  C   UNL A   1      40.597  31.165  29.986  1.00  0.00     0.031 C 
ATOM     44  C   UNL A   1      39.755  26.567  28.128  1.00  0.00     0.029 A 
ATOM     45  N   UNL A   1      41.857  27.081  28.691  1.00  0.00    -0.354 N 
ATOM     46  C   UNL A   1      42.872  31.010  30.171  1.00  0.00     0.074 A 
ATOM     47  C   UNL A   1      41.696  31.845  30.278  1.00  0.00     0.031 C 
ATOM     48  C   UNL A   1      40.517  25.492  27.869  1.00  0.00     0.029 A 
ATOM     49  C   UNL A   1      41.907  25.803  28.186  1.00  0.00     0.049 A 
ATOM     50  H   UNL A   1      42.648  27.557  29.032  1.00  0.00     0.167 HD
ATOM     51  C   UNL A   1      44.122  31.403  30.513  1.00  0.00     0.037 A 
ATOM     52  C   UNL A   1      42.955  24.984  27.980  1.00  0.00     0.037 A 
ATOM     53  C   UNL A   1      45.287  30.562  30.423  1.00  0.00     0.049 A 
ATOM     54  C   UNL A   1      44.338  25.454  28.343  1.00  0.00     0.074 A 
ATOM     55  C   UNL A   1      46.589  30.852  30.791  1.00  0.00     0.029 A 
ATOM     56  N   UNL A   1      45.291  29.267  29.925  1.00  0.00    -0.354 N 
ATOM     57  N   UNL A   1      44.715  26.603  28.848  1.00  0.00    -0.248 NA
ATOM     58  C   UNL A   1      45.442  24.511  28.110  1.00  0.00     0.031 C 
ATOM     59  C   UNL A   1      47.390  29.753  30.468  1.00  0.00     0.029 A 
ATOM     60  C   UNL A   1      46.578  28.755  29.957  1.00  0.00     0.049 A 
ATOM     61  H   UNL A   1      44.498  28.784  29.598  1.00  0.00     0.167 HD
ATOM     62  C   UNL A   1      46.089  26.507  29.031  1.00  0.00     0.074 A 
ATOM     63  C   UNL A   1      46.478  25.185  28.587  1.00  0.00     0.031 C 
ATOM     64  C   UNL A   1      46.949  27.429  29.528  1.00  0.00     0.037 A 
BRANCH  51  65
ATOM     65  C   UNL A   1      44.294  32.809  31.013  1.00  0.00     0.057 A 
ATOM     66  C   UNL A   1      44.269  33.118  32.380  1.00  0.00     0.134 A 
ATOM     67  C   UNL A   1      44.525  33.863  30.119  1.00  0.00     0.134 A 
ATOM     68  F   UNL A   1      44.043  32.159  33.290  1.00  0.00    -0.206 F 
ATOM     69  C   UNL A   1      44.435  34.427  32.837  1.00  0.00     0.040 A 
ATOM     70  C   UNL A   1      44.723  35.170  30.564  1.00  0.00     0.040 A 
ATOM     71  F   UNL A   1      44.569  33.637  28.797  1.00  0.00    -0.206 F 
ATOM     72  C   UNL A   1      44.671  35.457  31.928  1.00  0.00     0.006 A 
ENDBRANCH  51  65
BRANCH  52  73
ATOM     73  C   UNL A   1      42.742  23.629  27.411  1.00  0.00     0.057 A 
ATOM     74  C   UNL A   1      42.473  22.533  28.240  1.00  0.00     0.134 A 
ATOM     75  C   UNL A   1      42.815  23.391  26.033  1.00  0.00     0.134 A 
ATOM     76  F   UNL A   1      42.410  22.693  29.569  1.00  0.00    -0.206 F 
ATOM     77  C   UNL A   1      42.307  21.247  27.723  1.00  0.00     0.040 A 
ATOM     78  C   UNL A   1      42.623  22.115  25.500  1.00  0.00     0.040 A 
ATOM     79  F   UNL A   1      43.062  24.399  25.183  1.00  0.00    -0.206 F 
ATOM     80  C   UNL A   1      42.378  21.037  26.347  1.00  0.00     0.006 A 
ENDBRANCH  52  73
BRANCH  64  81
ATOM     81  C   UNL A   1      48.388  27.027  29.676  1.00  0.00     0.057 A 
ATOM     82  C   UNL A   1      48.854  26.319  30.792  1.00  0.00     0.134 A 
ATOM     83  C   UNL A   1      49.308  27.308  28.658  1.00  0.00     0.134 A 
ATOM     84  F   UNL A   1      48.028  26.030  31.809  1.00  0.00    -0.206 F 
ATOM     85  C   UNL A   1      50.190  25.924  30.897  1.00  0.00     0.040 A 
ATOM     86  C   UNL A   1      50.637  26.891  28.738  1.00  0.00     0.040 A 
ATOM     87  F   UNL A   1      48.926  27.974  27.558  1.00  0.00    -0.206 F 
ATOM     88  C   UNL A   1      51.082  26.202  29.864  1.00  0.00     0.006 A 
ENDBRANCH  64  81
ENDBRANCH  38  39
ENDBRANCH  30  33
ENDBRANCH  28  29
ENDBRANCH  27  28
ENDBRANCH   1  27
TORSDOF 14
ENDMDL
MODEL 2
REMARK VINA RESULT:     -10.0      4.693     10.298
REMARK SMILES CCc1cc2c(-c3ccccc3)cc(=O)oc2cc1OCC(=O)NCCCNC(=O)c1ccc(-c2c3nc(c(-c4c(F)cccc4F)c4ccc([nH]4)c(-c4c(F)cccc4F)c4nc(c(-c5c(F)cccc5F)c5ccc2[nH]5)C=C4)C=C3)cc1
REMARK SMILES IDX 25 1 24 2 22 3 23 4 21 6 20 7 19 8 3 9 4 10 5 11 18 12 6 13
REMARK SMILES IDX 17 14 13 15 16 16 14 17 15 18 2 19 1 20 7 21 8 22 12 23 9 24
REMARK SMILES IDX 11 25 10 26 26 27 27 28 28 29 29 30 30 32 31 33 32 34 84 35
REMARK SMILES IDX 33 36 83 37 34 38 35 39 36 40 77 41 37 42 82 43 76 44 78 45
REMARK SMILES IDX 38 46 81 47 75 48 74 49 39 51 65 52 48 53 64 54 49 55 52 56
REMARK SMILES IDX 63 57 79 58 50 59 51 60 62 62 80 63 53 64 40 65 41 66 46 67
REMARK SMILES IDX 42 68 43 69 45 70 47 71 44 72 66 73 67 74 72 75 68 76 69 77
REMARK SMILES IDX 71 78 73 79 70 80 54 81 55 82 60 83 56 84 57 85 59 86 61 87
REMARK SMILES IDX 58 88
REMARK H PARENT 24 5 28 31 78 50 52 61
REMARK Flexibility Score: inf
ROOT
ATOM      1  C   UNL A   1      35.955  20.541  24.981  1.00  0.00     0.117 C 
ENDROOT
BRANCH   1   2
ATOM      2  N   UNL A   1      35.476  19.173  24.994  1.00  0.00    -0.353 N 
ATOM      3  C   UNL A   1      34.256  18.694  24.613  1.00  0.00     0.257 C 
ATOM      4  O   UNL A   1      34.057  17.479  24.662  1.00  0.00    -0.271 OA
ATOM      5  H   UNL A   1      36.116  18.499  25.319  1.00  0.00     0.163 HD
BRANCH   3   6
ATOM      6  C   UNL A   1      33.183  19.663  24.102  1.00  0.00     0.329 C 
BRANCH   6   7
ATOM      7  O   UNL A   1      32.742  20.654  25.016  1.00  0.00    -0.483 OA
BRANCH   7   8
ATOM      8  C   UNL A   1      32.766  21.968  24.628  1.00  0.00     0.127 A 
ATOM      9  C   UNL A   1      32.651  22.917  25.665  1.00  0.00    -0.005 A 
ATOM     10  C   UNL A   1      32.663  24.286  25.335  1.00  0.00     0.020 A 
ATOM     11  C   UNL A   1      32.784  24.726  24.012  1.00  0.00     0.026 A 
ATOM     12  C   UNL A   1      32.891  22.401  23.304  1.00  0.00     0.094 A 
ATOM     13  C   UNL A   1      32.804  26.154  23.648  1.00  0.00    -0.000 A 
ATOM     14  C   UNL A   1      32.890  23.765  23.017  1.00  0.00     0.142 A 
ATOM     15  C   UNL A   1      32.907  26.462  22.345  1.00  0.00     0.103 A 
ATOM     16  O   UNL A   1      33.003  24.125  21.663  1.00  0.00    -0.423 OA
ATOM     17  C   UNL A   1      32.999  25.454  21.277  1.00  0.00     0.336 A 
ATOM     18  O   UNL A   1      33.076  25.796  20.102  1.00  0.00    -0.246 OA
BRANCH   9  19
ATOM     19  C   UNL A   1      32.605  22.485  27.121  1.00  0.00     0.036 C 
ATOM     20  C   UNL A   1      33.951  22.439  27.838  1.00  0.00     0.009 C 
ENDBRANCH   9  19
BRANCH  13  21
ATOM     21  C   UNL A   1      32.745  27.277  24.607  1.00  0.00    -0.017 A 
ATOM     22  C   UNL A   1      33.706  27.379  25.623  1.00  0.00     0.009 A 
ATOM     23  C   UNL A   1      31.701  28.210  24.558  1.00  0.00     0.009 A 
ATOM     24  C   UNL A   1      33.607  28.377  26.594  1.00  0.00     0.001 A 
ATOM     25  C   UNL A   1      31.611  29.214  25.524  1.00  0.00     0.001 A 
ATOM     26  C   UNL A   1      32.558  29.292  26.544  1.00  0.00     0.000 A 
ENDBRANCH  13  21
ENDBRANCH   7   8
ENDBRANCH   6   7
ENDBRANCH   3   6
ENDBRANCH   1   2
BRANCH   1  27
ATOM     27  C   UNL A   1      37.410  20.648  24.544  1.00  0.00     0.042 C 
BRANCH  27  28
ATOM     28  C   UNL A   1      38.409  20.747  25.694  1.00  0.00     0.118 C 
BRANCH  28  29
ATOM     29  N   UNL A   1      39.429  19.706  25.660  1.00  0.00    -0.352 N 
ATOM     30  C   UNL A   1      40.766  19.765  25.970  1.00  0.00     0.251 C 
ATOM     31  H   UNL A   1      39.110  18.822  25.369  1.00  0.00     0.163 HD
ATOM     32  O   UNL A   1      41.493  18.806  25.729  1.00  0.00    -0.269 OA
BRANCH  30  33
ATOM     33  C   UNL A   1      41.341  20.989  26.568  1.00  0.00     0.039 A 
ATOM     34  C   UNL A   1      41.900  21.956  25.727  1.00  0.00     0.014 A 
ATOM     35  C   UNL A   1      41.335  21.183  27.951  1.00  0.00     0.014 A 
ATOM     36  C   UNL A   1      42.377  23.154  26.267  1.00  0.00     0.010 A 
ATOM     37  C   UNL A   1      41.737  22.406  28.478  1.00  0.00     0.010 A 
ATOM     38  C   UNL A   1      42.257  23.407  27.643  1.00  0.00    -0.014 A 
BRANCH  38  39
ATOM     39  C   UNL A   1      42.659  24.708  28.238  1.00  0.00     0.031 A 
ATOM     40  C   UNL A   1      41.631  25.783  28.459  1.00  0.00     0.074 A 
ATOM     41  C   UNL A   1      43.959  24.956  28.491  1.00  0.00     0.049 A 
ATOM     42  N   UNL A   1      41.800  27.026  28.830  1.00  0.00    -0.248 NA
ATOM     43  C   UNL A   1      40.229  25.417  28.199  1.00  0.00     0.031 C 
ATOM     44  C   UNL A   1      45.058  24.009  28.291  1.00  0.00     0.029 A 
ATOM     45  N   UNL A   1      44.580  26.091  28.951  1.00  0.00    -0.354 N 
ATOM     46  C   UNL A   1      40.533  27.596  28.828  1.00  0.00     0.074 A 
ATOM     47  C   UNL A   1      39.612  26.577  28.371  1.00  0.00     0.031 C 
ATOM     48  C   UNL A   1      46.213  24.598  28.638  1.00  0.00     0.029 A 
ATOM     49  C   UNL A   1      45.947  25.976  29.036  1.00  0.00     0.049 A 
ATOM     50  H   UNL A   1      44.091  26.910  29.198  1.00  0.00     0.167 HD
ATOM     51  C   UNL A   1      40.167  28.849  29.191  1.00  0.00     0.037 A 
ATOM     52  C   UNL A   1      46.882  26.884  29.374  1.00  0.00     0.037 A 
ATOM     53  C   UNL A   1      41.084  29.853  29.662  1.00  0.00     0.049 A 
ATOM     54  C   UNL A   1      46.453  28.277  29.748  1.00  0.00     0.074 A 
ATOM     55  C   UNL A   1      40.804  31.136  30.100  1.00  0.00     0.029 A 
ATOM     56  N   UNL A   1      42.458  29.690  29.753  1.00  0.00    -0.354 N 
ATOM     57  N   UNL A   1      45.246  28.788  29.790  1.00  0.00    -0.248 NA
ATOM     58  C   UNL A   1      47.516  29.221  30.123  1.00  0.00     0.031 C 
ATOM     59  C   UNL A   1      42.014  31.767  30.406  1.00  0.00     0.029 A 
ATOM     60  C   UNL A   1      43.041  30.857  30.219  1.00  0.00     0.049 A 
ATOM     61  H   UNL A   1      42.946  28.868  29.521  1.00  0.00     0.167 HD
ATOM     62  C   UNL A   1      45.400  30.096  30.235  1.00  0.00     0.074 A 
ATOM     63  C   UNL A   1      46.817  30.298  30.453  1.00  0.00     0.031 C 
ATOM     64  C   UNL A   1      44.452  31.040  30.449  1.00  0.00     0.037 A 
BRANCH  51  65
ATOM     65  C   UNL A   1      38.711  29.204  29.087  1.00  0.00     0.057 A 
ATOM     66  C   UNL A   1      37.858  29.166  30.197  1.00  0.00     0.134 A 
ATOM     67  C   UNL A   1      38.163  29.623  27.867  1.00  0.00     0.134 A 
ATOM     68  F   UNL A   1      38.315  28.764  31.393  1.00  0.00    -0.206 F 
ATOM     69  C   UNL A   1      36.507  29.503  30.094  1.00  0.00     0.040 A 
ATOM     70  C   UNL A   1      36.821  29.992  27.757  1.00  0.00     0.040 A 
ATOM     71  F   UNL A   1      38.925  29.690  26.765  1.00  0.00    -0.206 F 
ATOM     72  C   UNL A   1      35.986  29.924  28.871  1.00  0.00     0.006 A 
ENDBRANCH  51  65
BRANCH  52  73
ATOM     73  C   UNL A   1      48.318  26.506  29.389  1.00  0.00     0.057 A 
ATOM     74  C   UNL A   1      48.894  25.904  30.514  1.00  0.00     0.134 A 
ATOM     75  C   UNL A   1      49.152  26.747  28.291  1.00  0.00     0.134 A 
ATOM     76  F   UNL A   1      48.152  25.664  31.605  1.00  0.00    -0.206 F 
ATOM     77  C   UNL A   1      50.250  25.576  30.556  1.00  0.00     0.040 A 
ATOM     78  C   UNL A   1      50.504  26.399  28.308  1.00  0.00     0.040 A 
ATOM     79  F   UNL A   1      48.661  27.315  27.178  1.00  0.00    -0.206 F 
ATOM     80  C   UNL A   1      51.058  25.820  29.447  1.00  0.00     0.006 A 
ENDBRANCH  52  73
BRANCH  64  81
ATOM     81  C   UNL A   1      44.903  32.362  31.000  1.00  0.00     0.057 A 
ATOM     82  C   UNL A   1      45.234  33.442  30.172  1.00  0.00     0.134 A 
ATOM     83  C   UNL A   1      44.954  32.570  32.385  1.00  0.00     0.134 A 
ATOM     84  F   UNL A   1      45.219  33.306  28.837  1.00  0.00    -0.206 F 
ATOM     85  C   UNL A   1      45.619  34.675  30.703  1.00  0.00     0.040 A 
ATOM     86  C   UNL A   1      45.307  33.806  32.926  1.00  0.00     0.040 A 
ATOM     87  F   UNL A   1      44.640  31.580  33.235  1.00  0.00    -0.206 F 
ATOM     88  C   UNL A   1      45.647  34.861  32.084  1.00  0.00     0.006 A 
ENDBRANCH  64  81
ENDBRANCH  38  39
ENDBRANCH  30  33
ENDBRANCH  28  29
ENDBRANCH  27  28
ENDBRANCH   1  27
TORSDOF 14
ENDMDL
MODEL 3
REMARK VINA RESULT:      -9.9      4.656     10.471
REMARK SMILES CCc1cc2c(-c3ccccc3)cc(=O)oc2cc1OCC(=O)NCCCNC(=O)c1ccc(-c2c3nc(c(-c4c(F)cccc4F)c4ccc([nH]4)c(-c4c(F)cccc4F)c4nc(c(-c5c(F)cccc5F)c5ccc2[nH]5)C=C4)C=C3)cc1
REMARK SMILES IDX 25 1 24 2 22 3 23 4 21 6 20 7 19 8 3 9 4 10 5 11 18 12 6 13
REMARK SMILES IDX 17 14 13 15 16 16 14 17 15 18 2 19 1 20 7 21 8 22 12 23 9 24
REMARK SMILES IDX 11 25 10 26 26 27 27 28 28 29 29 30 30 32 31 33 32 34 84 35
REMARK SMILES IDX 33 36 83 37 34 38 35 39 36 40 77 41 37 42 82 43 76 44 78 45
REMARK SMILES IDX 38 46 81 47 75 48 74 49 39 51 65 52 48 53 64 54 49 55 52 56
REMARK SMILES IDX 63 57 79 58 50 59 51 60 62 62 80 63 53 64 40 65 41 66 46 67
REMARK SMILES IDX 42 68 43 69 45 70 47 71 44 72 66 73 67 74 72 75 68 76 69 77
REMARK SMILES IDX 71 78 73 79 70 80 54 81 55 82 60 83 56 84 57 85 59 86 61 87
REMARK SMILES IDX 58 88
REMARK H PARENT 24 5 28 31 78 50 52 61
REMARK Flexibility Score: inf
ROOT
ATOM      1  C   UNL A   1      35.577  21.488  24.668  1.00  0.00     0.117 C 
ENDROOT
BRANCH   1   2
ATOM      2  N   UNL A   1      35.038  20.205  25.074  1.00  0.00    -0.353 N 
ATOM      3  C   UNL A   1      33.782  19.709  24.877  1.00  0.00     0.257 C 
ATOM      4  O   UNL A   1      33.530  18.568  25.268  1.00  0.00    -0.271 OA
ATOM      5  H   UNL A   1      35.660  19.614  25.556  1.00  0.00     0.163 HD
BRANCH   3   6
ATOM      6  C   UNL A   1      32.733  20.557  24.148  1.00  0.00     0.329 C 
BRANCH   6   7
ATOM      7  O   UNL A   1      32.021  21.496  24.939  1.00  0.00    -0.483 OA
BRANCH   7   8
ATOM      8  C   UNL A   1      32.294  22.830  24.786  1.00  0.00     0.127 A 
ATOM      9  C   UNL A   1      32.240  23.607  25.963  1.00  0.00    -0.005 A 
ATOM     10  C   UNL A   1      32.505  24.987  25.876  1.00  0.00     0.020 A 
ATOM     11  C   UNL A   1      32.817  25.604  24.659  1.00  0.00     0.026 A 
ATOM     12  C   UNL A   1      32.610  23.439  23.568  1.00  0.00     0.094 A 
ATOM     13  C   UNL A   1      33.104  27.046  24.549  1.00  0.00    -0.000 A 
ATOM     14  C   UNL A   1      32.858  24.810  23.522  1.00  0.00     0.142 A 
ATOM     15  C   UNL A   1      33.375  27.535  23.329  1.00  0.00     0.103 A 
ATOM     16  O   UNL A   1      33.152  25.356  22.260  1.00  0.00    -0.423 OA
ATOM     17  C   UNL A   1      33.400  26.709  22.111  1.00  0.00     0.336 A 
ATOM     18  O   UNL A   1      33.640  27.215  21.020  1.00  0.00    -0.246 OA
BRANCH   9  19
ATOM     19  C   UNL A   1      31.990  22.963  27.316  1.00  0.00     0.036 C 
ATOM     20  C   UNL A   1      33.225  22.407  28.020  1.00  0.00     0.009 C 
ENDBRANCH   9  19
BRANCH  13  21
ATOM     21  C   UNL A   1      33.140  27.995  25.682  1.00  0.00    -0.017 A 
ATOM     22  C   UNL A   1      31.966  28.654  26.077  1.00  0.00     0.009 A 
ATOM     23  C   UNL A   1      34.345  28.299  26.328  1.00  0.00     0.009 A 
ATOM     24  C   UNL A   1      32.005  29.625  27.079  1.00  0.00     0.001 A 
ATOM     25  C   UNL A   1      34.377  29.262  27.338  1.00  0.00     0.001 A 
ATOM     26  C   UNL A   1      33.210  29.929  27.707  1.00  0.00     0.000 A 
ENDBRANCH  13  21
ENDBRANCH   7   8
ENDBRANCH   6   7
ENDBRANCH   3   6
ENDBRANCH   1   2
BRANCH   1  27
ATOM     27  C   UNL A   1      36.071  22.316  25.847  1.00  0.00     0.042 C 
BRANCH  27  28
ATOM     28  C   UNL A   1      37.281  23.194  25.541  1.00  0.00     0.118 C 
BRANCH  28  29
ATOM     29  N   UNL A   1      38.549  22.482  25.645  1.00  0.00    -0.352 N 
ATOM     30  C   UNL A   1      39.760  22.898  26.139  1.00  0.00     0.251 C 
ATOM     31  H   UNL A   1      38.534  21.557  25.308  1.00  0.00     0.163 HD
ATOM     32  O   UNL A   1      40.755  22.192  25.997  1.00  0.00    -0.269 OA
BRANCH  30  33
ATOM     33  C   UNL A   1      39.882  24.207  26.816  1.00  0.00     0.039 A 
ATOM     34  C   UNL A   1      39.277  24.383  28.064  1.00  0.00     0.014 A 
ATOM     35  C   UNL A   1      40.585  25.259  26.225  1.00  0.00     0.014 A 
ATOM     36  C   UNL A   1      39.448  25.587  28.755  1.00  0.00     0.010 A 
ATOM     37  C   UNL A   1      40.819  26.425  26.945  1.00  0.00     0.010 A 
ATOM     38  C   UNL A   1      40.259  26.600  28.220  1.00  0.00    -0.014 A 
BRANCH  38  39
ATOM     39  C   UNL A   1      40.547  27.850  28.970  1.00  0.00     0.031 A 
ATOM     40  C   UNL A   1      41.819  27.977  29.761  1.00  0.00     0.074 A 
ATOM     41  C   UNL A   1      39.624  28.832  29.015  1.00  0.00     0.049 A 
ATOM     42  N   UNL A   1      42.188  28.920  30.590  1.00  0.00    -0.248 NA
ATOM     43  C   UNL A   1      42.792  26.882  29.623  1.00  0.00     0.031 C 
ATOM     44  C   UNL A   1      38.337  28.819  28.318  1.00  0.00     0.029 A 
ATOM     45  N   UNL A   1      39.619  30.024  29.698  1.00  0.00    -0.354 N 
ATOM     46  C   UNL A   1      43.423  28.522  31.088  1.00  0.00     0.074 A 
ATOM     47  C   UNL A   1      43.717  27.230  30.506  1.00  0.00     0.031 C 
ATOM     48  C   UNL A   1      37.674  29.952  28.599  1.00  0.00     0.029 A 
ATOM     49  C   UNL A   1      38.463  30.749  29.532  1.00  0.00     0.049 A 
ATOM     50  H   UNL A   1      40.373  30.330  30.252  1.00  0.00     0.167 HD
ATOM     51  C   UNL A   1      44.245  29.182  31.938  1.00  0.00     0.037 A 
ATOM     52  C   UNL A   1      38.073  31.912  30.087  1.00  0.00     0.037 A 
ATOM     53  C   UNL A   1      43.957  30.475  32.500  1.00  0.00     0.049 A 
ATOM     54  C   UNL A   1      38.993  32.613  31.049  1.00  0.00     0.074 A 
ATOM     55  C   UNL A   1      44.748  31.248  33.333  1.00  0.00     0.029 A 
ATOM     56  N   UNL A   1      42.784  31.185  32.291  1.00  0.00    -0.354 N 
ATOM     57  N   UNL A   1      40.180  32.250  31.472  1.00  0.00    -0.248 NA
ATOM     58  C   UNL A   1      38.521  33.886  31.611  1.00  0.00     0.031 C 
ATOM     59  C   UNL A   1      44.033  32.400  33.669  1.00  0.00     0.029 A 
ATOM     60  C   UNL A   1      42.823  32.377  32.998  1.00  0.00     0.049 A 
ATOM     61  H   UNL A   1      42.036  30.887  31.725  1.00  0.00     0.167 HD
ATOM     62  C   UNL A   1      40.612  33.268  32.314  1.00  0.00     0.074 A 
ATOM     63  C   UNL A   1      39.562  34.263  32.339  1.00  0.00     0.031 C 
ATOM     64  C   UNL A   1      41.777  33.369  32.999  1.00  0.00     0.037 A 
BRANCH  51  65
ATOM     65  C   UNL A   1      45.535  28.511  32.316  1.00  0.00     0.057 A 
ATOM     66  C   UNL A   1      45.631  27.659  33.425  1.00  0.00     0.134 A 
ATOM     67  C   UNL A   1      46.688  28.690  31.540  1.00  0.00     0.134 A 
ATOM     68  F   UNL A   1      44.567  27.451  34.216  1.00  0.00    -0.206 F 
ATOM     69  C   UNL A   1      46.832  27.035  33.766  1.00  0.00     0.040 A 
ATOM     70  C   UNL A   1      47.887  28.048  31.853  1.00  0.00     0.040 A 
ATOM     71  F   UNL A   1      46.666  29.486  30.460  1.00  0.00    -0.206 F 
ATOM     72  C   UNL A   1      47.963  27.223  32.974  1.00  0.00     0.006 A 
ENDBRANCH  51  65
BRANCH  52  73
ATOM     73  C   UNL A   1      36.753  32.498  29.739  1.00  0.00     0.057 A 
ATOM     74  C   UNL A   1      36.633  33.451  28.721  1.00  0.00     0.134 A 
ATOM     75  C   UNL A   1      35.586  32.134  30.421  1.00  0.00     0.134 A 
ATOM     76  F   UNL A   1      37.718  33.856  28.045  1.00  0.00    -0.206 F 
ATOM     77  C   UNL A   1      35.406  34.039  28.408  1.00  0.00     0.040 A 
ATOM     78  C   UNL A   1      34.347  32.692  30.100  1.00  0.00     0.040 A 
ATOM     79  F   UNL A   1      35.630  31.221  31.403  1.00  0.00    -0.206 F 
ATOM     80  C   UNL A   1      34.257  33.655  29.097  1.00  0.00     0.006 A 
ENDBRANCH  52  73
BRANCH  64  81
ATOM     81  C   UNL A   1      42.009  34.624  33.790  1.00  0.00     0.057 A 
ATOM     82  C   UNL A   1      41.659  34.730  35.142  1.00  0.00     0.134 A 
ATOM     83  C   UNL A   1      42.643  35.725  33.198  1.00  0.00     0.134 A 
ATOM     84  F   UNL A   1      41.036  33.718  35.765  1.00  0.00    -0.206 F 
ATOM     85  C   UNL A   1      41.913  35.894  35.871  1.00  0.00     0.040 A 
ATOM     86  C   UNL A   1      42.930  36.881  33.924  1.00  0.00     0.040 A 
ATOM     87  F   UNL A   1      43.014  35.686  31.910  1.00  0.00    -0.206 F 
ATOM     88  C   UNL A   1      42.558  36.969  35.264  1.00  0.00     0.006 A 
ENDBRANCH  64  81
ENDBRANCH  38  39
ENDBRANCH  30  33
ENDBRANCH  28  29
ENDBRANCH  27  28
ENDBRANCH   1  27
TORSDOF 14
ENDMDL
