MODEL 1
REMARK VINA RESULT:     -12.4      0.000      0.000
REMARK SMILES Nc1c(Cl)ccc2c1C=C(C(=O)NCCCNC(=O)c1ccc(-c3c4nc(c(-c5c(F)cccc5F)c5ccc([nH]5)c(-c5c(F)cccc5F)c5nc(c(-c6c(F)cccc6F)c6ccc3[nH]6)C=C5)C=C4)cc1)[C@@H](C(F)(F)F)O2
REMARK SMILES IDX 15 1 14 2 13 3 11 4 12 5 10 7 2 8 3 9 8 10 4 11 5 12 7 13
REMARK SMILES IDX 9 14 6 15 79 16 74 17 1 18 75 21 76 22 77 23 78 24 16 25
REMARK SMILES IDX 17 26 18 27 19 29 20 30 21 31 73 32 22 33 72 34 23 35 24 36
REMARK SMILES IDX 25 37 66 38 26 39 71 40 65 41 67 42 27 43 70 44 64 45 63 46
REMARK SMILES IDX 28 48 54 49 37 50 53 51 38 52 41 53 52 54 68 55 39 56 40 57
REMARK SMILES IDX 51 59 69 60 42 61 29 62 30 63 35 64 31 65 32 66 34 67 36 68
REMARK SMILES IDX 33 69 55 70 56 71 61 72 57 73 58 74 60 75 62 76 59 77 43 78
REMARK SMILES IDX 44 79 49 80 45 81 46 82 48 83 50 84 47 85
REMARK H PARENT 13 6 1 19 1 20 17 28 67 47 41 58
REMARK Flexibility Score: inf
ROOT
ATOM      1  C   UNL A   1      37.682  19.596  24.781  1.00  0.00     0.042 C 
ENDROOT
BRANCH   1   2
ATOM      2  C   UNL A   1      36.380  20.357  24.991  1.00  0.00     0.118 C 
BRANCH   2   3
ATOM      3  N   UNL A   1      35.229  19.468  24.951  1.00  0.00    -0.352 N 
ATOM      4  C   UNL A   1      33.882  19.582  24.966  1.00  0.00     0.251 C 
ATOM      5  O   UNL A   1      33.270  18.509  24.946  1.00  0.00    -0.270 OA
ATOM      6  H   UNL A   1      35.507  18.525  24.900  1.00  0.00     0.163 HD
BRANCH   4   7
ATOM      7  C   UNL A   1      33.125  20.867  24.999  1.00  0.00     0.067 C 
ATOM      8  C   UNL A   1      32.381  23.654  22.629  1.00  0.00     0.061 A 
ATOM      9  C   UNL A   1      31.692  24.888  22.694  1.00  0.00     0.064 A 
ATOM     10  C   UNL A   1      32.338  22.808  23.760  1.00  0.00     0.042 A 
ATOM     11  Cl  UNL A   1      31.739  25.997  21.363  1.00  0.00    -0.082 Cl
ATOM     12  C   UNL A   1      30.936  25.248  23.812  1.00  0.00     0.026 A 
ATOM     13  C   UNL A   1      31.580  23.192  24.879  1.00  0.00     0.130 A 
ATOM     14  C   UNL A   1      33.025  21.516  23.823  1.00  0.00     0.027 C 
ATOM     15  C   UNL A   1      30.872  24.391  24.902  1.00  0.00     0.049 A 
ATOM     16  O   UNL A   1      31.453  22.412  25.994  1.00  0.00    -0.475 OA
ATOM     17  C   UNL A   1      32.523  21.461  26.236  1.00  0.00     0.314 C 
BRANCH   8  18
ATOM     18  N   UNL A   1      33.172  23.359  21.514  1.00  0.00    -0.397 N 
ATOM     19  H   UNL A   1      34.139  23.210  21.621  1.00  0.00     0.156 HD
ATOM     20  H   UNL A   1      32.761  23.300  20.620  1.00  0.00     0.156 HD
ENDBRANCH   8  18
BRANCH  17  21
ATOM     21  C   UNL A   1      33.572  22.092  27.172  1.00  0.00     0.429 C 
ATOM     22  F   UNL A   1      32.967  22.618  28.267  1.00  0.00    -0.167 F 
ATOM     23  F   UNL A   1      34.473  21.190  27.630  1.00  0.00    -0.167 F 
ATOM     24  F   UNL A   1      34.274  23.083  26.580  1.00  0.00    -0.167 F 
ENDBRANCH  17  21
ENDBRANCH   4   7
ENDBRANCH   2   3
ENDBRANCH   1   2
BRANCH   1  25
ATOM     25  C   UNL A   1      38.805  20.135  25.659  1.00  0.00     0.118 C 
BRANCH  25  26
ATOM     26  N   UNL A   1      39.870  19.151  25.828  1.00  0.00    -0.352 N 
ATOM     27  C   UNL A   1      41.211  19.347  26.040  1.00  0.00     0.251 C 
ATOM     28  H   UNL A   1      39.585  18.210  25.785  1.00  0.00     0.163 HD
ATOM     29  O   UNL A   1      42.008  18.428  25.870  1.00  0.00    -0.269 OA
BRANCH  27  30
ATOM     30  C   UNL A   1      41.692  20.670  26.476  1.00  0.00     0.039 A 
ATOM     31  C   UNL A   1      41.815  20.947  27.839  1.00  0.00     0.014 A 
ATOM     32  C   UNL A   1      41.998  21.645  25.522  1.00  0.00     0.014 A 
ATOM     33  C   UNL A   1      42.302  22.190  28.246  1.00  0.00     0.010 A 
ATOM     34  C   UNL A   1      42.556  22.849  25.923  1.00  0.00     0.010 A 
ATOM     35  C   UNL A   1      42.695  23.139  27.288  1.00  0.00    -0.014 A 
BRANCH  35  36
ATOM     36  C   UNL A   1      43.193  24.476  27.681  1.00  0.00     0.031 A 
ATOM     37  C   UNL A   1      42.206  25.535  28.085  1.00  0.00     0.074 A 
ATOM     38  C   UNL A   1      44.507  24.753  27.603  1.00  0.00     0.049 A 
ATOM     39  N   UNL A   1      42.414  26.792  28.382  1.00  0.00    -0.248 NA
ATOM     40  C   UNL A   1      40.788  25.134  28.129  1.00  0.00     0.031 C 
ATOM     41  C   UNL A   1      45.550  23.814  27.188  1.00  0.00     0.029 A 
ATOM     42  N   UNL A   1      45.186  25.917  27.856  1.00  0.00    -0.354 N 
ATOM     43  C   UNL A   1      41.158  27.330  28.634  1.00  0.00     0.074 A 
ATOM     44  C   UNL A   1      40.189  26.283  28.398  1.00  0.00     0.031 C 
ATOM     45  C   UNL A   1      46.741  24.436  27.228  1.00  0.00     0.029 A 
ATOM     46  C   UNL A   1      46.539  25.822  27.639  1.00  0.00     0.049 A 
ATOM     47  H   UNL A   1      44.747  26.741  28.163  1.00  0.00     0.167 HD
ATOM     48  C   UNL A   1      40.844  28.579  29.048  1.00  0.00     0.037 A 
ATOM     49  C   UNL A   1      47.501  26.757  27.754  1.00  0.00     0.037 A 
ATOM     50  C   UNL A   1      41.815  29.608  29.304  1.00  0.00     0.049 A 
ATOM     51  C   UNL A   1      47.117  28.148  28.186  1.00  0.00     0.074 A 
ATOM     52  C   UNL A   1      41.613  30.884  29.796  1.00  0.00     0.029 A 
ATOM     53  N   UNL A   1      43.178  29.475  29.079  1.00  0.00    -0.354 N 
ATOM     54  N   UNL A   1      45.937  28.620  28.507  1.00  0.00    -0.248 NA
ATOM     55  C   UNL A   1      48.203  29.133  28.274  1.00  0.00     0.031 C 
ATOM     56  C   UNL A   1      42.848  31.540  29.824  1.00  0.00     0.029 A 
ATOM     57  C   UNL A   1      43.825  30.657  29.393  1.00  0.00     0.049 A 
ATOM     58  H   UNL A   1      43.618  28.660  28.745  1.00  0.00     0.167 HD
ATOM     59  C   UNL A   1      46.144  29.946  28.868  1.00  0.00     0.074 A 
ATOM     60  C   UNL A   1      47.564  30.196  28.740  1.00  0.00     0.031 C 
ATOM     61  C   UNL A   1      45.242  30.877  29.267  1.00  0.00     0.037 A 
BRANCH  48  62
ATOM     62  C   UNL A   1      39.391  28.894  29.250  1.00  0.00     0.057 A 
ATOM     63  C   UNL A   1      38.621  29.412  28.202  1.00  0.00     0.134 A 
ATOM     64  C   UNL A   1      38.757  28.701  30.484  1.00  0.00     0.134 A 
ATOM     65  F   UNL A   1      39.166  29.623  26.994  1.00  0.00    -0.206 F 
ATOM     66  C   UNL A   1      37.271  29.725  28.374  1.00  0.00     0.040 A 
ATOM     67  C   UNL A   1      37.401  28.985  30.661  1.00  0.00     0.040 A 
ATOM     68  F   UNL A   1      39.434  28.192  31.525  1.00  0.00    -0.206 F 
ATOM     69  C   UNL A   1      36.656  29.505  29.604  1.00  0.00     0.006 A 
ENDBRANCH  48  62
BRANCH  49  70
ATOM     70  C   UNL A   1      48.921  26.427  27.472  1.00  0.00     0.057 A 
ATOM     71  C   UNL A   1      49.778  25.949  28.470  1.00  0.00     0.134 A 
ATOM     72  C   UNL A   1      49.437  26.527  26.174  1.00  0.00     0.134 A 
ATOM     73  F   UNL A   1      49.348  25.837  29.736  1.00  0.00    -0.206 F 
ATOM     74  C   UNL A   1      51.092  25.571  28.187  1.00  0.00     0.040 A 
ATOM     75  C   UNL A   1      50.739  26.128  25.870  1.00  0.00     0.040 A 
ATOM     76  F   UNL A   1      48.659  26.959  25.171  1.00  0.00    -0.206 F 
ATOM     77  C   UNL A   1      51.570  25.648  26.879  1.00  0.00     0.006 A 
ENDBRANCH  49  70
BRANCH  61  78
ATOM     78  C   UNL A   1      45.778  32.230  29.631  1.00  0.00     0.057 A 
ATOM     79  C   UNL A   1      46.200  32.502  30.938  1.00  0.00     0.134 A 
ATOM     80  C   UNL A   1      45.855  33.270  28.695  1.00  0.00     0.134 A 
ATOM     81  F   UNL A   1      46.144  31.551  31.883  1.00  0.00    -0.206 F 
ATOM     82  C   UNL A   1      46.680  33.759  31.303  1.00  0.00     0.040 A 
ATOM     83  C   UNL A   1      46.360  34.524  29.042  1.00  0.00     0.040 A 
ATOM     84  F   UNL A   1      45.480  33.069  27.422  1.00  0.00    -0.206 F 
ATOM     85  C   UNL A   1      46.769  34.772  30.350  1.00  0.00     0.006 A 
ENDBRANCH  61  78
ENDBRANCH  35  36
ENDBRANCH  27  30
ENDBRANCH  25  26
ENDBRANCH   1  25
TORSDOF 12
ENDMDL
MODEL 2
REMARK VINA RESULT:     -12.3      5.392     10.083
REMARK SMILES Nc1c(Cl)ccc2c1C=C(C(=O)NCCCNC(=O)c1ccc(-c3c4nc(c(-c5c(F)cccc5F)c5ccc([nH]5)c(-c5c(F)cccc5F)c5nc(c(-c6c(F)cccc6F)c6ccc3[nH]6)C=C5)C=C4)cc1)[C@@H](C(F)(F)F)O2
REMARK SMILES IDX 15 1 14 2 13 3 11 4 12 5 10 7 2 8 3 9 8 10 4 11 5 12 7 13
REMARK SMILES IDX 9 14 6 15 79 16 74 17 1 18 75 21 76 22 77 23 78 24 16 25
REMARK SMILES IDX 17 26 18 27 19 29 20 30 21 31 73 32 22 33 72 34 23 35 24 36
REMARK SMILES IDX 25 37 66 38 26 39 71 40 65 41 67 42 27 43 70 44 64 45 63 46
REMARK SMILES IDX 28 48 54 49 37 50 53 51 38 52 41 53 52 54 68 55 39 56 40 57
REMARK SMILES IDX 51 59 69 60 42 61 29 62 30 63 35 64 31 65 32 66 34 67 36 68
REMARK SMILES IDX 33 69 55 70 56 71 61 72 57 73 58 74 60 75 62 76 59 77 43 78
REMARK SMILES IDX 44 79 49 80 45 81 46 82 48 83 50 84 47 85
REMARK H PARENT 13 6 1 19 1 20 17 28 67 47 41 58
REMARK Flexibility Score: inf
ROOT
ATOM      1  C   UNL A   1      31.309  31.754  26.491  1.00  0.00     0.042 C 
ENDROOT
BRANCH   1   2
ATOM      2  C   UNL A   1      31.476  30.466  25.698  1.00  0.00     0.118 C 
BRANCH   2   3
ATOM      3  N   UNL A   1      30.640  30.459  24.507  1.00  0.00    -0.352 N 
ATOM      4  C   UNL A   1      30.334  29.599  23.509  1.00  0.00     0.251 C 
ATOM      5  O   UNL A   1      29.566  30.049  22.653  1.00  0.00    -0.270 OA
ATOM      6  H   UNL A   1      30.168  31.317  24.397  1.00  0.00     0.163 HD
BRANCH   4   7
ATOM      7  C   UNL A   1      30.842  28.201  23.389  1.00  0.00     0.067 C 
ATOM      8  C   UNL A   1      30.357  24.962  25.180  1.00  0.00     0.061 A 
ATOM      9  C   UNL A   1      30.882  23.652  25.073  1.00  0.00     0.064 A 
ATOM     10  C   UNL A   1      30.735  25.911  24.203  1.00  0.00     0.042 A 
ATOM     11  Cl  UNL A   1      30.499  22.449  26.260  1.00  0.00    -0.082 Cl
ATOM     12  C   UNL A   1      31.701  23.275  24.007  1.00  0.00     0.026 A 
ATOM     13  C   UNL A   1      31.568  25.515  23.144  1.00  0.00     0.130 A 
ATOM     14  C   UNL A   1      30.274  27.302  24.214  1.00  0.00     0.027 C 
ATOM     15  C   UNL A   1      32.035  24.208  23.035  1.00  0.00     0.049 A 
ATOM     16  O   UNL A   1      31.944  26.361  22.138  1.00  0.00    -0.475 OA
ATOM     17  C   UNL A   1      31.932  27.777  22.454  1.00  0.00     0.314 C 
BRANCH   8  18
ATOM     18  N   UNL A   1      29.587  25.312  26.293  1.00  0.00    -0.397 N 
ATOM     19  H   UNL A   1      30.024  25.494  27.157  1.00  0.00     0.156 HD
ATOM     20  H   UNL A   1      28.607  25.378  26.214  1.00  0.00     0.156 HD
ENDBRANCH   8  18
BRANCH  17  21
ATOM     21  C   UNL A   1      33.334  28.211  22.926  1.00  0.00     0.429 C 
ATOM     22  F   UNL A   1      34.273  27.820  22.029  1.00  0.00    -0.167 F 
ATOM     23  F   UNL A   1      33.452  29.555  23.041  1.00  0.00    -0.167 F 
ATOM     24  F   UNL A   1      33.670  27.683  24.124  1.00  0.00    -0.167 F 
ENDBRANCH  17  21
ENDBRANCH   4   7
ENDBRANCH   2   3
ENDBRANCH   1   2
BRANCH   1  25
ATOM     25  C   UNL A   1      32.650  32.329  26.933  1.00  0.00     0.118 C 
BRANCH  25  26
ATOM     26  N   UNL A   1      32.519  33.715  27.373  1.00  0.00    -0.352 N 
ATOM     27  C   UNL A   1      33.145  34.364  28.407  1.00  0.00     0.251 C 
ATOM     28  H   UNL A   1      31.891  34.264  26.851  1.00  0.00     0.163 HD
ATOM     29  O   UNL A   1      32.711  35.435  28.822  1.00  0.00    -0.269 OA
BRANCH  27  30
ATOM     30  C   UNL A   1      34.346  33.766  29.018  1.00  0.00     0.039 A 
ATOM     31  C   UNL A   1      35.609  34.268  28.694  1.00  0.00     0.014 A 
ATOM     32  C   UNL A   1      34.213  32.689  29.898  1.00  0.00     0.014 A 
ATOM     33  C   UNL A   1      36.740  33.721  29.300  1.00  0.00     0.010 A 
ATOM     34  C   UNL A   1      35.328  32.199  30.559  1.00  0.00     0.010 A 
ATOM     35  C   UNL A   1      36.603  32.698  30.252  1.00  0.00    -0.014 A 
BRANCH  35  36
ATOM     36  C   UNL A   1      37.780  32.077  30.898  1.00  0.00     0.031 A 
ATOM     37  C   UNL A   1      38.519  30.983  30.178  1.00  0.00     0.074 A 
ATOM     38  C   UNL A   1      38.133  32.440  32.144  1.00  0.00     0.049 A 
ATOM     39  N   UNL A   1      39.518  30.247  30.590  1.00  0.00    -0.248 NA
ATOM     40  C   UNL A   1      38.049  30.652  28.821  1.00  0.00     0.031 C 
ATOM     41  C   UNL A   1      37.466  33.462  32.953  1.00  0.00     0.029 A 
ATOM     42  N   UNL A   1      39.135  31.975  32.956  1.00  0.00    -0.354 N 
ATOM     43  C   UNL A   1      39.785  29.362  29.553  1.00  0.00     0.074 A 
ATOM     44  C   UNL A   1      38.807  29.611  28.517  1.00  0.00     0.031 C 
ATOM     45  C   UNL A   1      38.086  33.556  34.141  1.00  0.00     0.029 A 
ATOM     46  C   UNL A   1      39.171  32.580  34.188  1.00  0.00     0.049 A 
ATOM     47  H   UNL A   1      39.769  31.273  32.682  1.00  0.00     0.167 HD
ATOM     48  C   UNL A   1      40.772  28.441  29.463  1.00  0.00     0.037 A 
ATOM     49  C   UNL A   1      39.987  32.360  35.236  1.00  0.00     0.037 A 
ATOM     50  C   UNL A   1      41.755  28.216  30.487  1.00  0.00     0.049 A 
ATOM     51  C   UNL A   1      41.055  31.306  35.119  1.00  0.00     0.074 A 
ATOM     52  C   UNL A   1      42.841  27.360  30.470  1.00  0.00     0.029 A 
ATOM     53  N   UNL A   1      41.763  28.852  31.720  1.00  0.00    -0.354 N 
ATOM     54  N   UNL A   1      41.353  30.537  34.100  1.00  0.00    -0.248 NA
ATOM     55  C   UNL A   1      41.903  31.093  36.300  1.00  0.00     0.031 C 
ATOM     56  C   UNL A   1      43.480  27.443  31.711  1.00  0.00     0.029 A 
ATOM     57  C   UNL A   1      42.819  28.384  32.484  1.00  0.00     0.049 A 
ATOM     58  H   UNL A   1      41.115  29.534  32.009  1.00  0.00     0.167 HD
ATOM     59  C   UNL A   1      42.443  29.775  34.505  1.00  0.00     0.074 A 
ATOM     60  C   UNL A   1      42.761  30.187  35.856  1.00  0.00     0.031 C 
ATOM     61  C   UNL A   1      43.121  28.818  33.823  1.00  0.00     0.037 A 
BRANCH  48  62
ATOM     62  C   UNL A   1      40.831  27.613  28.213  1.00  0.00     0.057 A 
ATOM     63  C   UNL A   1      40.158  26.388  28.136  1.00  0.00     0.134 A 
ATOM     64  C   UNL A   1      41.566  28.019  27.092  1.00  0.00     0.134 A 
ATOM     65  F   UNL A   1      39.437  25.938  29.175  1.00  0.00    -0.206 F 
ATOM     66  C   UNL A   1      40.213  25.596  26.987  1.00  0.00     0.040 A 
ATOM     67  C   UNL A   1      41.606  27.250  25.927  1.00  0.00     0.040 A 
ATOM     68  F   UNL A   1      42.219  29.191  27.094  1.00  0.00    -0.206 F 
ATOM     69  C   UNL A   1      40.933  26.030  25.876  1.00  0.00     0.006 A 
ENDBRANCH  48  62
BRANCH  49  70
ATOM     70  C   UNL A   1      39.849  33.149  36.487  1.00  0.00     0.057 A 
ATOM     71  C   UNL A   1      40.545  34.347  36.683  1.00  0.00     0.134 A 
ATOM     72  C   UNL A   1      38.963  32.747  37.494  1.00  0.00     0.134 A 
ATOM     73  F   UNL A   1      41.414  34.785  35.759  1.00  0.00    -0.206 F 
ATOM     74  C   UNL A   1      40.358  35.123  37.828  1.00  0.00     0.040 A 
ATOM     75  C   UNL A   1      38.746  33.525  38.632  1.00  0.00     0.040 A 
ATOM     76  F   UNL A   1      38.252  31.618  37.356  1.00  0.00    -0.206 F 
ATOM     77  C   UNL A   1      39.445  34.718  38.801  1.00  0.00     0.006 A 
ENDBRANCH  49  70
BRANCH  61  78
ATOM     78  C   UNL A   1      44.292  28.189  34.518  1.00  0.00     0.057 A 
ATOM     79  C   UNL A   1      44.126  27.025  35.280  1.00  0.00     0.134 A 
ATOM     80  C   UNL A   1      45.576  28.746  34.455  1.00  0.00     0.134 A 
ATOM     81  F   UNL A   1      42.920  26.448  35.388  1.00  0.00    -0.206 F 
ATOM     82  C   UNL A   1      45.196  26.436  35.953  1.00  0.00     0.040 A 
ATOM     83  C   UNL A   1      46.659  28.150  35.100  1.00  0.00     0.040 A 
ATOM     84  F   UNL A   1      45.803  29.852  33.729  1.00  0.00    -0.206 F 
ATOM     85  C   UNL A   1      46.470  26.995  35.857  1.00  0.00     0.006 A 
ENDBRANCH  61  78
ENDBRANCH  35  36
ENDBRANCH  27  30
ENDBRANCH  25  26
ENDBRANCH   1  25
TORSDOF 12
ENDMDL
MODEL 3
REMARK VINA RESULT:     -12.2      4.778      9.630
REMARK SMILES Nc1c(Cl)ccc2c1C=C(C(=O)NCCCNC(=O)c1ccc(-c3c4nc(c(-c5c(F)cccc5F)c5ccc([nH]5)c(-c5c(F)cccc5F)c5nc(c(-c6c(F)cccc6F)c6ccc3[nH]6)C=C5)C=C4)cc1)[C@@H](C(F)(F)F)O2
REMARK SMILES IDX 15 1 14 2 13 3 11 4 12 5 10 7 2 8 3 9 8 10 4 11 5 12 7 13
REMARK SMILES IDX 9 14 6 15 79 16 74 17 1 18 75 21 76 22 77 23 78 24 16 25
REMARK SMILES IDX 17 26 18 27 19 29 20 30 21 31 73 32 22 33 72 34 23 35 24 36
REMARK SMILES IDX 25 37 66 38 26 39 71 40 65 41 67 42 27 43 70 44 64 45 63 46
REMARK SMILES IDX 28 48 54 49 37 50 53 51 38 52 41 53 52 54 68 55 39 56 40 57
REMARK SMILES IDX 51 59 69 60 42 61 29 62 30 63 35 64 31 65 32 66 34 67 36 68
REMARK SMILES IDX 33 69 55 70 56 71 61 72 57 73 58 74 60 75 62 76 59 77 43 78
REMARK SMILES IDX 44 79 49 80 45 81 46 82 48 83 50 84 47 85
REMARK H PARENT 13 6 1 19 1 20 17 28 67 47 41 58
REMARK Flexibility Score: inf
ROOT
ATOM      1  C   UNL A   1      44.789  20.470  24.583  1.00  0.00     0.042 C 
ENDROOT
BRANCH   1   2
ATOM      2  C   UNL A   1      45.505  21.623  25.271  1.00  0.00     0.118 C 
BRANCH   2   3
ATOM      3  N   UNL A   1      46.351  22.357  24.341  1.00  0.00    -0.352 N 
ATOM      4  C   UNL A   1      46.799  23.623  24.190  1.00  0.00     0.251 C 
ATOM      5  O   UNL A   1      47.503  23.809  23.192  1.00  0.00    -0.270 OA
ATOM      6  H   UNL A   1      46.688  21.770  23.626  1.00  0.00     0.163 HD
BRANCH   4   7
ATOM      7  C   UNL A   1      46.512  24.757  25.116  1.00  0.00     0.067 C 
ATOM      8  C   UNL A   1      43.665  27.078  25.783  1.00  0.00     0.061 A 
ATOM      9  C   UNL A   1      43.428  28.176  26.643  1.00  0.00     0.064 A 
ATOM     10  C   UNL A   1      44.884  26.377  25.921  1.00  0.00     0.042 A 
ATOM     11  Cl  UNL A   1      41.976  29.112  26.500  1.00  0.00    -0.082 Cl
ATOM     12  C   UNL A   1      44.334  28.533  27.644  1.00  0.00     0.026 A 
ATOM     13  C   UNL A   1      45.787  26.756  26.928  1.00  0.00     0.130 A 
ATOM     14  C   UNL A   1      45.254  25.235  25.080  1.00  0.00     0.027 C 
ATOM     15  C   UNL A   1      45.511  27.812  27.792  1.00  0.00     0.049 A 
ATOM     16  O   UNL A   1      46.967  26.103  27.153  1.00  0.00    -0.475 OA
ATOM     17  C   UNL A   1      47.526  25.382  26.024  1.00  0.00     0.314 C 
BRANCH   8  18
ATOM     18  N   UNL A   1      42.758  26.791  24.758  1.00  0.00    -0.397 N 
ATOM     19  H   UNL A   1      43.087  26.568  23.857  1.00  0.00     0.156 HD
ATOM     20  H   UNL A   1      41.789  26.811  24.937  1.00  0.00     0.156 HD
ENDBRANCH   8  18
BRANCH  17  21
ATOM     21  C   UNL A   1      48.525  26.288  25.278  1.00  0.00     0.429 C 
ATOM     22  F   UNL A   1      48.909  27.318  26.074  1.00  0.00    -0.167 F 
ATOM     23  F   UNL A   1      49.658  25.636  24.926  1.00  0.00    -0.167 F 
ATOM     24  F   UNL A   1      48.009  26.818  24.148  1.00  0.00    -0.167 F 
ENDBRANCH  17  21
ENDBRANCH   4   7
ENDBRANCH   2   3
ENDBRANCH   1   2
BRANCH   1  25
ATOM     25  C   UNL A   1      44.195  19.488  25.587  1.00  0.00     0.118 C 
BRANCH  25  26
ATOM     26  N   UNL A   1      42.782  19.236  25.317  1.00  0.00    -0.352 N 
ATOM     27  C   UNL A   1      41.672  19.836  25.853  1.00  0.00     0.251 C 
ATOM     28  H   UNL A   1      42.601  18.533  24.651  1.00  0.00     0.163 HD
ATOM     29  O   UNL A   1      40.567  19.313  25.738  1.00  0.00    -0.269 OA
BRANCH  27  30
ATOM     30  C   UNL A   1      41.813  21.116  26.569  1.00  0.00     0.039 A 
ATOM     31  C   UNL A   1      41.714  21.145  27.962  1.00  0.00     0.014 A 
ATOM     32  C   UNL A   1      42.023  22.295  25.847  1.00  0.00     0.014 A 
ATOM     33  C   UNL A   1      41.882  22.354  28.637  1.00  0.00     0.010 A 
ATOM     34  C   UNL A   1      42.268  23.480  26.522  1.00  0.00     0.010 A 
ATOM     35  C   UNL A   1      42.181  23.524  27.921  1.00  0.00    -0.014 A 
BRANCH  35  36
ATOM     36  C   UNL A   1      42.342  24.829  28.600  1.00  0.00     0.031 A 
ATOM     37  C   UNL A   1      43.614  25.112  29.351  1.00  0.00     0.074 A 
ATOM     38  C   UNL A   1      41.330  25.714  28.603  1.00  0.00     0.049 A 
ATOM     39  N   UNL A   1      43.930  26.147  30.084  1.00  0.00    -0.248 NA
ATOM     40  C   UNL A   1      44.659  24.074  29.294  1.00  0.00     0.031 C 
ATOM     41  C   UNL A   1      40.037  25.529  27.941  1.00  0.00     0.029 A 
ATOM     42  N   UNL A   1      41.225  26.943  29.202  1.00  0.00    -0.354 N 
ATOM     43  C   UNL A   1      45.199  25.879  30.584  1.00  0.00     0.074 A 
ATOM     44  C   UNL A   1      45.571  24.561  30.120  1.00  0.00     0.031 C 
ATOM     45  C   UNL A   1      39.274  26.615  28.159  1.00  0.00     0.029 A 
ATOM     46  C   UNL A   1      40.011  27.552  29.001  1.00  0.00     0.049 A 
ATOM     47  H   UNL A   1      41.952  27.350  29.727  1.00  0.00     0.167 HD
ATOM     48  C   UNL A   1      45.992  26.672  31.341  1.00  0.00     0.037 A 
ATOM     49  C   UNL A   1      39.550  28.732  29.455  1.00  0.00     0.037 A 
ATOM     50  C   UNL A   1      45.625  27.991  31.777  1.00  0.00     0.049 A 
ATOM     51  C   UNL A   1      40.443  29.578  30.323  1.00  0.00     0.074 A 
ATOM     52  C   UNL A   1      46.380  28.908  32.485  1.00  0.00     0.029 A 
ATOM     53  N   UNL A   1      44.388  28.578  31.550  1.00  0.00    -0.354 N 
ATOM     54  N   UNL A   1      41.674  29.353  30.714  1.00  0.00    -0.248 NA
ATOM     55  C   UNL A   1      39.880  30.846  30.808  1.00  0.00     0.031 C 
ATOM     56  C   UNL A   1      45.583  30.033  32.727  1.00  0.00     0.029 A 
ATOM     57  C   UNL A   1      44.349  29.834  32.130  1.00  0.00     0.049 A 
ATOM     58  H   UNL A   1      43.649  28.162  31.049  1.00  0.00     0.167 HD
ATOM     59  C   UNL A   1      42.044  30.465  31.461  1.00  0.00     0.074 A 
ATOM     60  C   UNL A   1      40.912  31.368  31.454  1.00  0.00     0.031 C 
ATOM     61  C   UNL A   1      43.214  30.718  32.100  1.00  0.00     0.037 A 
BRANCH  48  62
ATOM     62  C   UNL A   1      47.332  26.128  31.739  1.00  0.00     0.057 A 
ATOM     63  C   UNL A   1      48.439  26.270  30.893  1.00  0.00     0.134 A 
ATOM     64  C   UNL A   1      47.526  25.450  32.949  1.00  0.00     0.134 A 
ATOM     65  F   UNL A   1      48.324  26.907  29.718  1.00  0.00    -0.206 F 
ATOM     66  C   UNL A   1      49.691  25.758  31.239  1.00  0.00     0.040 A 
ATOM     67  C   UNL A   1      48.779  24.958  33.319  1.00  0.00     0.040 A 
ATOM     68  F   UNL A   1      46.510  25.296  33.812  1.00  0.00    -0.206 F 
ATOM     69  C   UNL A   1      49.865  25.105  32.458  1.00  0.00     0.006 A 
ENDBRANCH  48  62
BRANCH  49  70
ATOM     70  C   UNL A   1      38.186  29.204  29.101  1.00  0.00     0.057 A 
ATOM     71  C   UNL A   1      37.144  29.210  30.035  1.00  0.00     0.134 A 
ATOM     72  C   UNL A   1      37.913  29.718  27.827  1.00  0.00     0.134 A 
ATOM     73  F   UNL A   1      37.338  28.724  31.270  1.00  0.00    -0.206 F 
ATOM     74  C   UNL A   1      35.883  29.720  29.720  1.00  0.00     0.040 A 
ATOM     75  C   UNL A   1      36.666  30.256  27.506  1.00  0.00     0.040 A 
ATOM     76  F   UNL A   1      38.876  29.757  26.895  1.00  0.00    -0.206 F 
ATOM     77  C   UNL A   1      35.647  30.258  28.455  1.00  0.00     0.006 A 
ENDBRANCH  49  70
BRANCH  61  78
ATOM     78  C   UNL A   1      43.332  32.038  32.803  1.00  0.00     0.057 A 
ATOM     79  C   UNL A   1      43.804  33.167  32.121  1.00  0.00     0.134 A 
ATOM     80  C   UNL A   1      43.003  32.187  34.156  1.00  0.00     0.134 A 
ATOM     81  F   UNL A   1      44.145  33.089  30.826  1.00  0.00    -0.206 F 
ATOM     82  C   UNL A   1      43.944  34.399  32.761  1.00  0.00     0.040 A 
ATOM     83  C   UNL A   1      43.111  33.421  34.799  1.00  0.00     0.040 A 
ATOM     84  F   UNL A   1      42.530  31.147  34.860  1.00  0.00    -0.206 F 
ATOM     85  C   UNL A   1      43.589  34.530  34.102  1.00  0.00     0.006 A 
ENDBRANCH  61  78
ENDBRANCH  35  36
ENDBRANCH  27  30
ENDBRANCH  25  26
ENDBRANCH   1  25
TORSDOF 12
ENDMDL
