MODEL 1
REMARK VINA RESULT:     -12.0      0.000      0.000
REMARK SMILES Cc1n[nH]c(C)c1CC(=O)N1CC[C@H](C(=O)NCCCNC(=O)c2ccc(-c3c4nc(c(-c5c(F)cccc5F)c5ccc([nH]5)c(-c5c(F)cccc5F)c5nc(c(-c6c(F)cccc6F)c6ccc3[nH]6)C=C5)C=C4)cc2)[C@H]1C
REMARK SMILES IDX 18 1 17 2 15 3 16 4 14 6 11 7 12 8 78 9 13 10 79 11 9 12
REMARK SMILES IDX 10 13 8 14 7 15 1 16 2 17 3 18 4 19 5 20 6 22 19 23 20 24
REMARK SMILES IDX 21 25 22 26 23 28 24 29 25 30 77 31 26 32 76 33 27 34 28 35
REMARK SMILES IDX 29 36 70 37 30 38 75 39 69 40 71 41 31 42 74 43 68 44 67 45
REMARK SMILES IDX 32 47 58 48 41 49 57 50 42 51 45 52 56 53 72 54 43 55 44 56
REMARK SMILES IDX 55 58 73 59 46 60 33 61 34 62 39 63 35 64 36 65 38 66 40 67
REMARK SMILES IDX 37 68 59 69 60 70 65 71 61 72 62 73 64 74 66 75 63 76 47 77
REMARK SMILES IDX 48 78 53 79 49 80 50 81 52 82 54 83 51 84
REMARK H PARENT 17 5 4 21 21 27 71 46 45 57
REMARK Flexibility Score: inf
ROOT
ATOM      1  C   UNL A   1      31.577  30.358  26.305  1.00  0.00     0.117 C 
ENDROOT
BRANCH   1   2
ATOM      2  N   UNL A   1      31.996  30.078  24.948  1.00  0.00    -0.356 N 
ATOM      3  C   UNL A   1      32.587  28.986  24.404  1.00  0.00     0.225 C 
ATOM      4  O   UNL A   1      32.974  29.103  23.238  1.00  0.00    -0.275 OA
ATOM      5  H   UNL A   1      31.821  30.807  24.310  1.00  0.00     0.163 HD
BRANCH   3   6
ATOM      6  C   UNL A   1      32.635  27.646  25.141  1.00  0.00     0.102 C 
ATOM      7  N   UNL A   1      32.839  25.856  23.581  1.00  0.00    -0.339 N 
ATOM      8  C   UNL A   1      31.433  26.235  23.643  1.00  0.00     0.120 C 
ATOM      9  C   UNL A   1      33.608  26.573  24.602  1.00  0.00     0.094 C 
ATOM     10  C   UNL A   1      31.282  26.928  24.990  1.00  0.00     0.037 C 
ATOM     11  C   UNL A   1      34.034  25.658  25.751  1.00  0.00     0.032 C 
BRANCH   7  12
ATOM     12  C   UNL A   1      33.321  25.198  22.461  1.00  0.00     0.227 C 
ATOM     13  O   UNL A   1      33.653  25.844  21.460  1.00  0.00    -0.275 OA
BRANCH  12  14
ATOM     14  C   UNL A   1      33.241  23.678  22.356  1.00  0.00     0.139 C 
BRANCH  14  15
ATOM     15  C   UNL A   1      33.747  22.845  23.486  1.00  0.00     0.005 A 
ATOM     16  C   UNL A   1      31.604  22.554  24.973  1.00  0.00     0.069 C 
ATOM     17  C   UNL A   1      33.029  22.342  24.608  1.00  0.00     0.063 A 
ATOM     18  N   UNL A   1      33.815  21.620  25.417  1.00  0.00    -0.181 NA
ATOM     19  N   UNL A   1      35.039  21.758  24.897  1.00  0.00    -0.282 N 
ATOM     20  C   UNL A   1      35.070  22.541  23.777  1.00  0.00     0.036 A 
ATOM     21  H   UNL A   1      35.840  21.336  25.282  1.00  0.00     0.190 HD
ATOM     22  C   UNL A   1      36.358  22.953  23.163  1.00  0.00     0.066 C 
ENDBRANCH  14  15
ENDBRANCH  12  14
ENDBRANCH   7  12
ENDBRANCH   3   6
ENDBRANCH   1   2
BRANCH   1  23
ATOM     23  C   UNL A   1      31.451  31.861  26.524  1.00  0.00     0.042 C 
BRANCH  23  24
ATOM     24  C   UNL A   1      32.631  32.499  27.248  1.00  0.00     0.118 C 
BRANCH  24  25
ATOM     25  N   UNL A   1      32.406  33.903  27.555  1.00  0.00    -0.352 N 
ATOM     26  C   UNL A   1      33.010  34.694  28.500  1.00  0.00     0.251 C 
ATOM     27  H   UNL A   1      31.722  34.350  27.005  1.00  0.00     0.163 HD
ATOM     28  O   UNL A   1      32.547  35.806  28.751  1.00  0.00    -0.269 OA
BRANCH  26  29
ATOM     29  C   UNL A   1      34.202  34.212  29.230  1.00  0.00     0.039 A 
ATOM     30  C   UNL A   1      34.027  33.511  30.426  1.00  0.00     0.014 A 
ATOM     31  C   UNL A   1      35.490  34.457  28.747  1.00  0.00     0.014 A 
ATOM     32  C   UNL A   1      35.139  32.997  31.101  1.00  0.00     0.010 A 
ATOM     33  C   UNL A   1      36.589  33.878  29.375  1.00  0.00     0.010 A 
ATOM     34  C   UNL A   1      36.425  33.142  30.559  1.00  0.00    -0.014 A 
BRANCH  34  35
ATOM     35  C   UNL A   1      37.614  32.519  31.196  1.00  0.00     0.031 A 
ATOM     36  C   UNL A   1      38.312  31.363  30.534  1.00  0.00     0.074 A 
ATOM     37  C   UNL A   1      38.004  32.926  32.420  1.00  0.00     0.049 A 
ATOM     38  N   UNL A   1      39.279  30.607  30.990  1.00  0.00    -0.248 NA
ATOM     39  C   UNL A   1      37.836  30.990  29.195  1.00  0.00     0.031 C 
ATOM     40  C   UNL A   1      37.380  34.002  33.192  1.00  0.00     0.029 A 
ATOM     41  N   UNL A   1      39.001  32.462  33.242  1.00  0.00    -0.354 N 
ATOM     42  C   UNL A   1      39.505  29.652  30.007  1.00  0.00     0.074 A 
ATOM     43  C   UNL A   1      38.546  29.899  28.952  1.00  0.00     0.031 C 
ATOM     44  C   UNL A   1      38.011  34.118  34.370  1.00  0.00     0.029 A 
ATOM     45  C   UNL A   1      39.049  33.096  34.460  1.00  0.00     0.049 A 
ATOM     46  H   UNL A   1      39.622  31.743  32.983  1.00  0.00     0.167 HD
ATOM     47  C   UNL A   1      40.435  28.666  29.982  1.00  0.00     0.037 A 
ATOM     48  C   UNL A   1      39.822  32.866  35.538  1.00  0.00     0.037 A 
ATOM     49  C   UNL A   1      41.398  28.437  31.028  1.00  0.00     0.049 A 
ATOM     50  C   UNL A   1      40.847  31.768  35.491  1.00  0.00     0.074 A 
ATOM     51  C   UNL A   1      42.430  27.516  31.062  1.00  0.00     0.029 A 
ATOM     52  N   UNL A   1      41.437  29.125  32.232  1.00  0.00    -0.354 N 
ATOM     53  N   UNL A   1      41.104  30.919  34.525  1.00  0.00    -0.248 NA
ATOM     54  C   UNL A   1      41.694  31.598  36.680  1.00  0.00     0.031 C 
ATOM     55  C   UNL A   1      43.054  27.604  32.311  1.00  0.00     0.029 A 
ATOM     56  C   UNL A   1      42.455  28.626  33.029  1.00  0.00     0.049 A 
ATOM     57  H   UNL A   1      40.832  29.860  32.483  1.00  0.00     0.167 HD
ATOM     58  C   UNL A   1      42.158  30.133  34.976  1.00  0.00     0.074 A 
ATOM     59  C   UNL A   1      42.497  30.613  36.299  1.00  0.00     0.031 C 
ATOM     60  C   UNL A   1      42.788  29.111  34.346  1.00  0.00     0.037 A 
BRANCH  47  61
ATOM     61  C   UNL A   1      40.437  27.747  28.792  1.00  0.00     0.057 A 
ATOM     62  C   UNL A   1      41.211  28.002  27.652  1.00  0.00     0.134 A 
ATOM     63  C   UNL A   1      39.660  26.581  28.794  1.00  0.00     0.134 A 
ATOM     64  F   UNL A   1      41.973  29.104  27.579  1.00  0.00    -0.206 F 
ATOM     65  C   UNL A   1      41.182  27.154  26.543  1.00  0.00     0.040 A 
ATOM     66  C   UNL A   1      39.648  25.708  27.704  1.00  0.00     0.040 A 
ATOM     67  F   UNL A   1      38.903  26.267  29.855  1.00  0.00    -0.206 F 
ATOM     68  C   UNL A   1      40.402  26.000  26.570  1.00  0.00     0.006 A 
ENDBRANCH  47  61
BRANCH  48  69
ATOM     69  C   UNL A   1      39.651  33.703  36.752  1.00  0.00     0.057 A 
ATOM     70  C   UNL A   1      40.318  34.926  36.889  1.00  0.00     0.134 A 
ATOM     71  C   UNL A   1      38.796  33.314  37.791  1.00  0.00     0.134 A 
ATOM     72  F   UNL A   1      41.164  35.344  35.936  1.00  0.00    -0.206 F 
ATOM     73  C   UNL A   1      40.148  35.729  38.017  1.00  0.00     0.040 A 
ATOM     74  C   UNL A   1      38.596  34.119  38.913  1.00  0.00     0.040 A 
ATOM     75  F   UNL A   1      38.123  32.157  37.716  1.00  0.00    -0.206 F 
ATOM     76  C   UNL A   1      39.278  35.330  39.031  1.00  0.00     0.006 A 
ENDBRANCH  48  69
BRANCH  60  77
ATOM     77  C   UNL A   1      43.940  28.463  35.059  1.00  0.00     0.057 A 
ATOM     78  C   UNL A   1      45.248  28.956  34.965  1.00  0.00     0.134 A 
ATOM     79  C   UNL A   1      43.726  27.359  35.895  1.00  0.00     0.134 A 
ATOM     80  F   UNL A   1      45.526  30.003  34.172  1.00  0.00    -0.206 F 
ATOM     81  C   UNL A   1      46.303  28.363  35.661  1.00  0.00     0.040 A 
ATOM     82  C   UNL A   1      44.767  26.776  36.619  1.00  0.00     0.040 A 
ATOM     83  F   UNL A   1      42.497  26.841  36.039  1.00  0.00    -0.206 F 
ATOM     84  C   UNL A   1      46.062  27.275  36.499  1.00  0.00     0.006 A 
ENDBRANCH  60  77
ENDBRANCH  34  35
ENDBRANCH  26  29
ENDBRANCH  24  25
ENDBRANCH  23  24
ENDBRANCH   1  23
TORSDOF 13
ENDMDL
MODEL 2
REMARK VINA RESULT:     -11.8      5.123     10.262
REMARK SMILES Cc1n[nH]c(C)c1CC(=O)N1CC[C@H](C(=O)NCCCNC(=O)c2ccc(-c3c4nc(c(-c5c(F)cccc5F)c5ccc([nH]5)c(-c5c(F)cccc5F)c5nc(c(-c6c(F)cccc6F)c6ccc3[nH]6)C=C5)C=C4)cc2)[C@H]1C
REMARK SMILES IDX 18 1 17 2 15 3 16 4 14 6 11 7 12 8 78 9 13 10 79 11 9 12
REMARK SMILES IDX 10 13 8 14 7 15 1 16 2 17 3 18 4 19 5 20 6 22 19 23 20 24
REMARK SMILES IDX 21 25 22 26 23 28 24 29 25 30 77 31 26 32 76 33 27 34 28 35
REMARK SMILES IDX 29 36 70 37 30 38 75 39 69 40 71 41 31 42 74 43 68 44 67 45
REMARK SMILES IDX 32 47 58 48 41 49 57 50 42 51 45 52 56 53 72 54 43 55 44 56
REMARK SMILES IDX 55 58 73 59 46 60 33 61 34 62 39 63 35 64 36 65 38 66 40 67
REMARK SMILES IDX 37 68 59 69 60 70 65 71 61 72 62 73 64 74 66 75 63 76 47 77
REMARK SMILES IDX 48 78 53 79 49 80 50 81 52 82 54 83 51 84
REMARK H PARENT 17 5 4 21 21 27 71 46 45 57
REMARK Flexibility Score: inf
ROOT
ATOM      1  C   UNL A   1      36.863  20.720  25.071  1.00  0.00     0.117 C 
ENDROOT
BRANCH   1   2
ATOM      2  N   UNL A   1      36.979  21.778  24.091  1.00  0.00    -0.356 N 
ATOM      3  C   UNL A   1      36.038  22.560  23.506  1.00  0.00     0.225 C 
ATOM      4  O   UNL A   1      36.427  23.276  22.579  1.00  0.00    -0.275 OA
ATOM      5  H   UNL A   1      37.901  21.963  23.799  1.00  0.00     0.163 HD
BRANCH   3   6
ATOM      6  C   UNL A   1      34.614  22.657  24.059  1.00  0.00     0.102 C 
ATOM      7  N   UNL A   1      33.743  24.847  23.710  1.00  0.00    -0.339 N 
ATOM      8  C   UNL A   1      34.582  24.886  24.900  1.00  0.00     0.120 C 
ATOM      9  C   UNL A   1      33.586  23.468  23.238  1.00  0.00     0.094 C 
ATOM     10  C   UNL A   1      34.630  23.443  25.382  1.00  0.00     0.037 C 
ATOM     11  C   UNL A   1      32.184  22.922  23.510  1.00  0.00     0.032 C 
BRANCH   7  12
ATOM     12  C   UNL A   1      33.495  26.016  23.010  1.00  0.00     0.227 C 
ATOM     13  O   UNL A   1      33.928  26.153  21.859  1.00  0.00    -0.275 OA
BRANCH  12  14
ATOM     14  C   UNL A   1      32.889  27.230  23.709  1.00  0.00     0.139 C 
BRANCH  14  15
ATOM     15  C   UNL A   1      32.154  27.035  24.993  1.00  0.00     0.005 A 
ATOM     16  C   UNL A   1      29.865  26.036  24.184  1.00  0.00     0.069 C 
ATOM     17  C   UNL A   1      30.851  26.497  25.196  1.00  0.00     0.063 A 
ATOM     18  N   UNL A   1      30.524  26.467  26.495  1.00  0.00    -0.181 NA
ATOM     19  N   UNL A   1      31.539  27.086  27.105  1.00  0.00    -0.282 N 
ATOM     20  C   UNL A   1      32.513  27.512  26.246  1.00  0.00     0.036 A 
ATOM     21  H   UNL A   1      31.582  27.222  28.079  1.00  0.00     0.190 HD
ATOM     22  C   UNL A   1      33.629  28.373  26.715  1.00  0.00     0.066 C 
ENDBRANCH  14  15
ENDBRANCH  12  14
ENDBRANCH   7  12
ENDBRANCH   3   6
ENDBRANCH   1   2
BRANCH   1  23
ATOM     23  C   UNL A   1      38.055  19.775  24.978  1.00  0.00     0.042 C 
BRANCH  23  24
ATOM     24  C   UNL A   1      39.260  20.189  25.816  1.00  0.00     0.118 C 
BRANCH  24  25
ATOM     25  N   UNL A   1      40.281  19.154  25.875  1.00  0.00    -0.352 N 
ATOM     26  C   UNL A   1      41.631  19.276  26.087  1.00  0.00     0.251 C 
ATOM     27  H   UNL A   1      39.956  18.233  25.747  1.00  0.00     0.163 HD
ATOM     28  O   UNL A   1      42.368  18.308  25.902  1.00  0.00    -0.269 OA
BRANCH  26  29
ATOM     29  C   UNL A   1      42.209  20.567  26.519  1.00  0.00     0.039 A 
ATOM     30  C   UNL A   1      42.796  21.400  25.562  1.00  0.00     0.014 A 
ATOM     31  C   UNL A   1      42.184  20.954  27.861  1.00  0.00     0.014 A 
ATOM     32  C   UNL A   1      43.295  22.650  25.940  1.00  0.00     0.010 A 
ATOM     33  C   UNL A   1      42.609  22.230  28.222  1.00  0.00     0.010 A 
ATOM     34  C   UNL A   1      43.168  23.092  27.267  1.00  0.00    -0.014 A 
BRANCH  34  35
ATOM     35  C   UNL A   1      43.595  24.454  27.679  1.00  0.00     0.031 A 
ATOM     36  C   UNL A   1      42.569  25.489  28.050  1.00  0.00     0.074 A 
ATOM     37  C   UNL A   1      44.898  24.791  27.620  1.00  0.00     0.049 A 
ATOM     38  N   UNL A   1      42.733  26.762  28.310  1.00  0.00    -0.248 NA
ATOM     39  C   UNL A   1      41.172  25.039  28.105  1.00  0.00     0.031 C 
ATOM     40  C   UNL A   1      45.986  23.894  27.227  1.00  0.00     0.029 A 
ATOM     41  N   UNL A   1      45.524  25.988  27.864  1.00  0.00    -0.354 N 
ATOM     42  C   UNL A   1      41.458  27.269  28.528  1.00  0.00     0.074 A 
ATOM     43  C   UNL A   1      40.531  26.176  28.328  1.00  0.00     0.031 C 
ATOM     44  C   UNL A   1      47.144  24.571  27.261  1.00  0.00     0.029 A 
ATOM     45  C   UNL A   1      46.878  25.958  27.629  1.00  0.00     0.049 A 
ATOM     46  H   UNL A   1      45.049  26.792  28.177  1.00  0.00     0.167 HD
ATOM     47  C   UNL A   1      41.095  28.528  28.875  1.00  0.00     0.037 A 
ATOM     48  C   UNL A   1      47.797  26.940  27.677  1.00  0.00     0.037 A 
ATOM     49  C   UNL A   1      42.025  29.607  29.090  1.00  0.00     0.049 A 
ATOM     50  C   UNL A   1      47.375  28.330  28.063  1.00  0.00     0.074 A 
ATOM     51  C   UNL A   1      41.764  30.896  29.519  1.00  0.00     0.029 A 
ATOM     52  N   UNL A   1      43.393  29.527  28.876  1.00  0.00    -0.354 N 
ATOM     53  N   UNL A   1      46.176  28.780  28.343  1.00  0.00    -0.248 NA
ATOM     54  C   UNL A   1      48.432  29.346  28.147  1.00  0.00     0.031 C 
ATOM     55  C   UNL A   1      42.964  31.614  29.505  1.00  0.00     0.029 A 
ATOM     56  C   UNL A   1      43.985  30.753  29.132  1.00  0.00     0.049 A 
ATOM     57  H   UNL A   1      43.873  28.718  28.586  1.00  0.00     0.167 HD
ATOM     58  C   UNL A   1      46.337  30.123  28.661  1.00  0.00     0.074 A 
ATOM     59  C   UNL A   1      47.751  30.411  28.549  1.00  0.00     0.031 C 
ATOM     60  C   UNL A   1      45.396  31.031  29.020  1.00  0.00     0.037 A 
BRANCH  47  61
ATOM     61  C   UNL A   1      39.625  28.808  29.020  1.00  0.00     0.057 A 
ATOM     62  C   UNL A   1      38.948  28.638  30.236  1.00  0.00     0.134 A 
ATOM     63  C   UNL A   1      38.879  29.270  27.928  1.00  0.00     0.134 A 
ATOM     64  F   UNL A   1      39.599  28.193  31.321  1.00  0.00    -0.206 F 
ATOM     65  C   UNL A   1      37.577  28.876  30.349  1.00  0.00     0.040 A 
ATOM     66  C   UNL A   1      37.514  29.542  28.038  1.00  0.00     0.040 A 
ATOM     67  F   UNL A   1      39.462  29.466  26.737  1.00  0.00    -0.206 F 
ATOM     68  C   UNL A   1      36.857  29.335  29.248  1.00  0.00     0.006 A 
ENDBRANCH  47  61
BRANCH  48  69
ATOM     69  C   UNL A   1      49.213  26.631  27.353  1.00  0.00     0.057 A 
ATOM     70  C   UNL A   1      50.092  26.150  28.329  1.00  0.00     0.134 A 
ATOM     71  C   UNL A   1      49.712  26.784  26.053  1.00  0.00     0.134 A 
ATOM     72  F   UNL A   1      49.677  25.999  29.595  1.00  0.00    -0.206 F 
ATOM     73  C   UNL A   1      51.419  25.839  28.028  1.00  0.00     0.040 A 
ATOM     74  C   UNL A   1      51.029  26.452  25.732  1.00  0.00     0.040 A 
ATOM     75  F   UNL A   1      48.918  27.234  25.071  1.00  0.00    -0.206 F 
ATOM     76  C   UNL A   1      51.889  25.982  26.724  1.00  0.00     0.006 A 
ENDBRANCH  48  69
BRANCH  60  77
ATOM     77  C   UNL A   1      45.864  32.418  29.359  1.00  0.00     0.057 A 
ATOM     78  C   UNL A   1      46.267  32.773  30.652  1.00  0.00     0.134 A 
ATOM     79  C   UNL A   1      45.962  33.397  28.362  1.00  0.00     0.134 A 
ATOM     80  F   UNL A   1      46.186  31.887  31.658  1.00  0.00    -0.206 F 
ATOM     81  C   UNL A   1      46.733  34.056  30.945  1.00  0.00     0.040 A 
ATOM     82  C   UNL A   1      46.454  34.674  28.635  1.00  0.00     0.040 A 
ATOM     83  F   UNL A   1      45.602  33.122  27.099  1.00  0.00    -0.206 F 
ATOM     84  C   UNL A   1      46.836  35.008  29.932  1.00  0.00     0.006 A 
ENDBRANCH  60  77
ENDBRANCH  34  35
ENDBRANCH  26  29
ENDBRANCH  24  25
ENDBRANCH  23  24
ENDBRANCH   1  23
TORSDOF 13
ENDMDL
MODEL 3
REMARK VINA RESULT:     -11.8      5.220     10.342
REMARK SMILES Cc1n[nH]c(C)c1CC(=O)N1CC[C@H](C(=O)NCCCNC(=O)c2ccc(-c3c4nc(c(-c5c(F)cccc5F)c5ccc([nH]5)c(-c5c(F)cccc5F)c5nc(c(-c6c(F)cccc6F)c6ccc3[nH]6)C=C5)C=C4)cc2)[C@H]1C
REMARK SMILES IDX 18 1 17 2 15 3 16 4 14 6 11 7 12 8 78 9 13 10 79 11 9 12
REMARK SMILES IDX 10 13 8 14 7 15 1 16 2 17 3 18 4 19 5 20 6 22 19 23 20 24
REMARK SMILES IDX 21 25 22 26 23 28 24 29 25 30 77 31 26 32 76 33 27 34 28 35
REMARK SMILES IDX 29 36 70 37 30 38 75 39 69 40 71 41 31 42 74 43 68 44 67 45
REMARK SMILES IDX 32 47 58 48 41 49 57 50 42 51 45 52 56 53 72 54 43 55 44 56
REMARK SMILES IDX 55 58 73 59 46 60 33 61 34 62 39 63 35 64 36 65 38 66 40 67
REMARK SMILES IDX 37 68 59 69 60 70 65 71 61 72 62 73 64 74 66 75 63 76 47 77
REMARK SMILES IDX 48 78 53 79 49 80 50 81 52 82 54 83 51 84
REMARK H PARENT 17 5 4 21 21 27 71 46 45 57
REMARK Flexibility Score: inf
ROOT
ATOM      1  C   UNL A   1      36.925  20.877  24.741  1.00  0.00     0.117 C 
ENDROOT
BRANCH   1   2
ATOM      2  N   UNL A   1      35.655  20.598  25.375  1.00  0.00    -0.356 N 
ATOM      3  C   UNL A   1      34.550  21.367  25.540  1.00  0.00     0.225 C 
ATOM      4  O   UNL A   1      33.670  20.904  26.270  1.00  0.00    -0.275 OA
ATOM      5  H   UNL A   1      35.579  19.692  25.753  1.00  0.00     0.163 HD
BRANCH   3   6
ATOM      6  C   UNL A   1      34.346  22.661  24.750  1.00  0.00     0.102 C 
ATOM      7  N   UNL A   1      32.386  23.787  25.505  1.00  0.00    -0.339 N 
ATOM      8  C   UNL A   1      31.971  22.743  24.576  1.00  0.00     0.120 C 
ATOM      9  C   UNL A   1      33.847  23.899  25.529  1.00  0.00     0.094 C 
ATOM     10  C   UNL A   1      33.208  22.468  23.732  1.00  0.00     0.037 C 
ATOM     11  C   UNL A   1      34.339  25.166  24.827  1.00  0.00     0.032 C 
BRANCH   7  12
ATOM     12  C   UNL A   1      31.482  24.273  26.434  1.00  0.00     0.227 C 
ATOM     13  O   UNL A   1      31.370  23.722  27.536  1.00  0.00    -0.275 OA
BRANCH  12  14
ATOM     14  C   UNL A   1      30.462  25.340  26.046  1.00  0.00     0.139 C 
BRANCH  14  15
ATOM     15  C   UNL A   1      30.944  26.623  25.455  1.00  0.00     0.005 A 
ATOM     16  C   UNL A   1      31.131  26.033  22.904  1.00  0.00     0.069 C 
ATOM     17  C   UNL A   1      31.212  26.926  24.090  1.00  0.00     0.063 A 
ATOM     18  N   UNL A   1      31.622  28.192  23.934  1.00  0.00    -0.181 NA
ATOM     19  N   UNL A   1      31.736  28.658  25.182  1.00  0.00    -0.282 N 
ATOM     20  C   UNL A   1      31.411  27.738  26.139  1.00  0.00     0.036 A 
ATOM     21  H   UNL A   1      32.026  29.574  25.392  1.00  0.00     0.190 HD
ATOM     22  C   UNL A   1      31.644  28.012  27.580  1.00  0.00     0.066 C 
ENDBRANCH  14  15
ENDBRANCH  12  14
ENDBRANCH   7  12
ENDBRANCH   3   6
ENDBRANCH   1   2
BRANCH   1  23
ATOM     23  C   UNL A   1      37.918  19.756  25.020  1.00  0.00     0.042 C 
BRANCH  23  24
ATOM     24  C   UNL A   1      39.153  20.182  25.807  1.00  0.00     0.118 C 
BRANCH  24  25
ATOM     25  N   UNL A   1      40.154  19.130  25.888  1.00  0.00    -0.352 N 
ATOM     26  C   UNL A   1      41.506  19.232  26.107  1.00  0.00     0.251 C 
ATOM     27  H   UNL A   1      39.814  18.214  25.770  1.00  0.00     0.163 HD
ATOM     28  O   UNL A   1      42.226  18.248  25.941  1.00  0.00    -0.269 OA
BRANCH  26  29
ATOM     29  C   UNL A   1      42.103  20.519  26.523  1.00  0.00     0.039 A 
ATOM     30  C   UNL A   1      42.632  21.367  25.547  1.00  0.00     0.014 A 
ATOM     31  C   UNL A   1      42.155  20.886  27.870  1.00  0.00     0.014 A 
ATOM     32  C   UNL A   1      43.149  22.613  25.914  1.00  0.00     0.010 A 
ATOM     33  C   UNL A   1      42.596  22.158  28.225  1.00  0.00     0.010 A 
ATOM     34  C   UNL A   1      43.098  23.035  27.252  1.00  0.00    -0.014 A 
BRANCH  34  35
ATOM     35  C   UNL A   1      43.543  24.393  27.659  1.00  0.00     0.031 A 
ATOM     36  C   UNL A   1      42.533  25.442  28.032  1.00  0.00     0.074 A 
ATOM     37  C   UNL A   1      44.851  24.713  27.594  1.00  0.00     0.049 A 
ATOM     38  N   UNL A   1      42.714  26.713  28.288  1.00  0.00    -0.248 NA
ATOM     39  C   UNL A   1      41.130  25.010  28.094  1.00  0.00     0.031 C 
ATOM     40  C   UNL A   1      45.925  23.801  27.198  1.00  0.00     0.029 A 
ATOM     41  N   UNL A   1      45.493  25.902  27.832  1.00  0.00    -0.354 N 
ATOM     42  C   UNL A   1      41.447  27.237  28.510  1.00  0.00     0.074 A 
ATOM     43  C   UNL A   1      40.505  26.156  28.317  1.00  0.00     0.031 C 
ATOM     44  C   UNL A   1      47.092  24.462  27.225  1.00  0.00     0.029 A 
ATOM     45  C   UNL A   1      46.845  25.854  27.591  1.00  0.00     0.049 A 
ATOM     46  H   UNL A   1      45.029  26.713  28.145  1.00  0.00     0.167 HD
ATOM     47  C   UNL A   1      41.101  28.501  28.856  1.00  0.00     0.037 A 
ATOM     48  C   UNL A   1      47.778  26.824  27.633  1.00  0.00     0.037 A 
ATOM     49  C   UNL A   1      42.046  29.569  29.064  1.00  0.00     0.049 A 
ATOM     50  C   UNL A   1      47.375  28.220  28.017  1.00  0.00     0.074 A 
ATOM     51  C   UNL A   1      41.804  30.863  29.491  1.00  0.00     0.029 A 
ATOM     52  N   UNL A   1      43.413  29.471  28.844  1.00  0.00    -0.354 N 
ATOM     53  N   UNL A   1      46.183  28.687  28.301  1.00  0.00    -0.248 NA
ATOM     54  C   UNL A   1      48.446  29.223  28.094  1.00  0.00     0.031 C 
ATOM     55  C   UNL A   1      43.013  31.565  29.470  1.00  0.00     0.029 A 
ATOM     56  C   UNL A   1      44.021  30.690  29.095  1.00  0.00     0.049 A 
ATOM     57  H   UNL A   1      43.881  28.655  28.554  1.00  0.00     0.167 HD
ATOM     58  C   UNL A   1      46.362  30.028  28.616  1.00  0.00     0.074 A 
ATOM     59  C   UNL A   1      47.780  30.298  28.496  1.00  0.00     0.031 C 
ATOM     60  C   UNL A   1      45.435  30.950  28.976  1.00  0.00     0.037 A 
BRANCH  47  61
ATOM     61  C   UNL A   1      39.636  28.801  29.007  1.00  0.00     0.057 A 
ATOM     62  C   UNL A   1      38.847  29.233  27.932  1.00  0.00     0.134 A 
ATOM     63  C   UNL A   1      39.002  28.641  30.246  1.00  0.00     0.134 A 
ATOM     64  F   UNL A   1      39.390  29.415  26.719  1.00  0.00    -0.206 F 
ATOM     65  C   UNL A   1      37.493  29.535  28.093  1.00  0.00     0.040 A 
ATOM     66  C   UNL A   1      37.642  28.908  30.412  1.00  0.00     0.040 A 
ATOM     67  F   UNL A   1      39.692  28.220  31.316  1.00  0.00    -0.206 F 
ATOM     68  C   UNL A   1      36.886  29.367  29.336  1.00  0.00     0.006 A 
ENDBRANCH  47  61
BRANCH  48  69
ATOM     69  C   UNL A   1      49.188  26.496  27.303  1.00  0.00     0.057 A 
ATOM     70  C   UNL A   1      49.673  26.614  25.997  1.00  0.00     0.134 A 
ATOM     71  C   UNL A   1      50.090  26.084  28.292  1.00  0.00     0.134 A 
ATOM     72  F   UNL A   1      48.853  26.986  25.003  1.00  0.00    -0.206 F 
ATOM     73  C   UNL A   1      51.002  26.327  25.681  1.00  0.00     0.040 A 
ATOM     74  C   UNL A   1      51.428  25.819  27.997  1.00  0.00     0.040 A 
ATOM     75  F   UNL A   1      49.689  25.959  29.565  1.00  0.00    -0.206 F 
ATOM     76  C   UNL A   1      51.886  25.936  26.685  1.00  0.00     0.006 A 
ENDBRANCH  48  69
BRANCH  60  77
ATOM     77  C   UNL A   1      45.922  32.330  29.309  1.00  0.00     0.057 A 
ATOM     78  C   UNL A   1      46.348  32.680  30.597  1.00  0.00     0.134 A 
ATOM     79  C   UNL A   1      46.016  33.310  28.312  1.00  0.00     0.134 A 
ATOM     80  F   UNL A   1      46.273  31.794  31.603  1.00  0.00    -0.206 F 
ATOM     81  C   UNL A   1      46.831  33.958  30.884  1.00  0.00     0.040 A 
ATOM     82  C   UNL A   1      46.525  34.581  28.579  1.00  0.00     0.040 A 
ATOM     83  F   UNL A   1      45.635  33.040  27.054  1.00  0.00    -0.206 F 
ATOM     84  C   UNL A   1      46.930  34.910  29.871  1.00  0.00     0.006 A 
ENDBRANCH  60  77
ENDBRANCH  34  35
ENDBRANCH  26  29
ENDBRANCH  24  25
ENDBRANCH  23  24
ENDBRANCH   1  23
TORSDOF 13
ENDMDL
