MODEL 1
REMARK VINA RESULT:     -12.0      0.000      0.000
REMARK SMILES CCc1ccc2[nH]c(C(=O)c3cc(C)ccn3)c(CC(=O)NCCCNC(=O)c3ccc(-c4c5nc(c(-c6c(F)cccc6F)c6ccc([nH]6)c(-c6c(F)cccc6F)c6nc(c(-c7c(F)cccc7F)c7ccc4[nH]7)C=C6)C=C5)cc3)c2c1
REMARK SMILES IDX 23 1 22 2 20 3 21 4 19 6 18 7 3 8 4 9 84 10 5 11 83 12 6 13
REMARK SMILES IDX 7 14 8 15 2 17 1 18 9 19 10 20 11 21 12 22 17 23 13 24 16 25
REMARK SMILES IDX 14 26 15 27 24 28 25 29 26 30 27 31 28 33 29 34 30 35 82 36
REMARK SMILES IDX 31 37 81 38 32 39 33 40 34 41 75 42 35 43 80 44 74 45 76 46
REMARK SMILES IDX 36 47 79 48 73 49 72 50 37 52 63 53 46 54 62 55 47 56 50 57
REMARK SMILES IDX 61 58 77 59 48 60 49 61 60 63 78 64 51 65 38 66 39 67 44 68
REMARK SMILES IDX 40 69 41 70 43 71 45 72 42 73 64 74 65 75 70 76 66 77 67 78
REMARK SMILES IDX 69 79 71 80 68 81 52 82 53 83 58 84 54 85 55 86 57 87 59 88
REMARK SMILES IDX 56 89
REMARK H PARENT 22 5 7 16 26 32 76 51 50 62
REMARK Flexibility Score: inf
ROOT
ATOM      1  C   UNL A   1      37.722  21.506  25.232  1.00  0.00     0.117 C 
ENDROOT
BRANCH   1   2
ATOM      2  N   UNL A   1      36.940  21.981  24.111  1.00  0.00    -0.356 N 
ATOM      3  C   UNL A   1      36.168  23.101  23.994  1.00  0.00     0.224 C 
ATOM      4  O   UNL A   1      35.781  23.387  22.858  1.00  0.00    -0.275 OA
ATOM      5  H   UNL A   1      36.968  21.408  23.311  1.00  0.00     0.163 HD
BRANCH   3   6
ATOM      6  C   UNL A   1      35.911  24.019  25.183  1.00  0.00     0.138 C 
BRANCH   6   7
ATOM      7  C   UNL A   1      34.469  24.122  25.613  1.00  0.00    -0.002 A 
ATOM      8  C   UNL A   1      33.024  27.690  25.628  1.00  0.00    -0.048 A 
ATOM      9  C   UNL A   1      31.774  27.317  26.134  1.00  0.00     0.006 A 
ATOM     10  C   UNL A   1      33.989  26.696  25.400  1.00  0.00     0.014 A 
ATOM     11  C   UNL A   1      31.461  25.980  26.410  1.00  0.00     0.027 A 
ATOM     12  C   UNL A   1      33.708  25.339  25.683  1.00  0.00     0.004 A 
ATOM     13  C   UNL A   1      32.449  25.019  26.176  1.00  0.00     0.046 A 
ATOM     14  N   UNL A   1      32.429  23.661  26.373  1.00  0.00    -0.352 N 
ATOM     15  C   UNL A   1      33.610  23.078  25.966  1.00  0.00     0.093 A 
ATOM     16  H   UNL A   1      31.668  23.167  26.756  1.00  0.00     0.167 HD
BRANCH   8  17
ATOM     17  C   UNL A   1      33.348  29.149  25.407  1.00  0.00     0.032 C 
ATOM     18  C   UNL A   1      32.336  30.112  26.016  1.00  0.00     0.009 C 
ENDBRANCH   8  17
BRANCH  15  19
ATOM     19  C   UNL A   1      33.871  21.640  25.941  1.00  0.00     0.227 C 
ATOM     20  O   UNL A   1      34.548  21.064  26.792  1.00  0.00    -0.285 OA
BRANCH  19  21
ATOM     21  C   UNL A   1      33.355  20.826  24.810  1.00  0.00     0.113 A 
ATOM     22  C   UNL A   1      33.623  19.461  24.764  1.00  0.00     0.036 A 
ATOM     23  N   UNL A   1      32.617  21.486  23.883  1.00  0.00    -0.253 NA
ATOM     24  C   UNL A   1      33.101  18.720  23.701  1.00  0.00    -0.047 A 
ATOM     25  C   UNL A   1      32.093  20.740  22.890  1.00  0.00     0.112 A 
ATOM     26  C   UNL A   1      33.343  17.246  23.587  1.00  0.00     0.044 C 
ATOM     27  C   UNL A   1      32.307  19.375  22.756  1.00  0.00     0.023 A 
ENDBRANCH  19  21
ENDBRANCH  15  19
ENDBRANCH   6   7
ENDBRANCH   3   6
ENDBRANCH   1   2
BRANCH   1  28
ATOM     28  C   UNL A   1      38.460  20.204  24.940  1.00  0.00     0.042 C 
BRANCH  28  29
ATOM     29  C   UNL A   1      39.158  19.583  26.148  1.00  0.00     0.118 C 
BRANCH  29  30
ATOM     30  N   UNL A   1      40.458  19.016  25.821  1.00  0.00    -0.352 N 
ATOM     31  C   UNL A   1      41.715  19.561  25.870  1.00  0.00     0.251 C 
ATOM     32  H   UNL A   1      40.430  18.080  25.514  1.00  0.00     0.163 HD
ATOM     33  O   UNL A   1      42.657  18.930  25.394  1.00  0.00    -0.269 OA
BRANCH  31  34
ATOM     34  C   UNL A   1      41.964  20.894  26.467  1.00  0.00     0.039 A 
ATOM     35  C   UNL A   1      42.311  21.947  25.612  1.00  0.00     0.014 A 
ATOM     36  C   UNL A   1      41.940  21.108  27.848  1.00  0.00     0.014 A 
ATOM     37  C   UNL A   1      42.586  23.214  26.131  1.00  0.00     0.010 A 
ATOM     38  C   UNL A   1      42.157  22.387  28.363  1.00  0.00     0.010 A 
ATOM     39  C   UNL A   1      42.491  23.449  27.511  1.00  0.00    -0.014 A 
BRANCH  39  40
ATOM     40  C   UNL A   1      42.753  24.799  28.073  1.00  0.00     0.031 A 
ATOM     41  C   UNL A   1      44.140  25.188  28.503  1.00  0.00     0.074 A 
ATOM     42  C   UNL A   1      41.734  25.664  28.233  1.00  0.00     0.049 A 
ATOM     43  N   UNL A   1      44.553  26.299  29.059  1.00  0.00    -0.248 NA
ATOM     44  C   UNL A   1      45.200  24.188  28.301  1.00  0.00     0.031 C 
ATOM     45  C   UNL A   1      40.336  25.400  27.886  1.00  0.00     0.029 A 
ATOM     46  N   UNL A   1      41.717  26.942  28.733  1.00  0.00    -0.354 N 
ATOM     47  C   UNL A   1      45.911  26.125  29.289  1.00  0.00     0.074 A 
ATOM     48  C   UNL A   1      46.247  24.789  28.847  1.00  0.00     0.031 C 
ATOM     49  C   UNL A   1      39.603  26.489  28.163  1.00  0.00     0.029 A 
ATOM     50  C   UNL A   1      40.471  27.517  28.732  1.00  0.00     0.049 A 
ATOM     51  H   UNL A   1      42.523  27.403  29.063  1.00  0.00     0.167 HD
ATOM     52  C   UNL A   1      46.803  27.005  29.807  1.00  0.00     0.037 A 
ATOM     53  C   UNL A   1      40.071  28.735  29.142  1.00  0.00     0.037 A 
ATOM     54  C   UNL A   1      46.480  28.346  30.216  1.00  0.00     0.049 A 
ATOM     55  C   UNL A   1      41.081  29.698  29.697  1.00  0.00     0.074 A 
ATOM     56  C   UNL A   1      47.326  29.327  30.705  1.00  0.00     0.029 A 
ATOM     57  N   UNL A   1      45.209  28.897  30.180  1.00  0.00    -0.354 N 
ATOM     58  N   UNL A   1      42.369  29.535  29.869  1.00  0.00    -0.248 NA
ATOM     59  C   UNL A   1      40.580  31.017  30.111  1.00  0.00     0.031 C 
ATOM     60  C   UNL A   1      46.561  30.464  30.988  1.00  0.00     0.029 A 
ATOM     61  C   UNL A   1      45.245  30.200  30.646  1.00  0.00     0.049 A 
ATOM     62  H   UNL A   1      44.399  28.430  29.868  1.00  0.00     0.167 HD
ATOM     63  C   UNL A   1      42.839  30.734  30.386  1.00  0.00     0.074 A 
ATOM     64  C   UNL A   1      41.697  31.620  30.493  1.00  0.00     0.031 C 
ATOM     65  C   UNL A   1      44.102  31.072  30.738  1.00  0.00     0.037 A 
BRANCH  52  66
ATOM     66  C   UNL A   1      48.221  26.540  29.951  1.00  0.00     0.057 A 
ATOM     67  C   UNL A   1      49.181  26.789  28.963  1.00  0.00     0.134 A 
ATOM     68  C   UNL A   1      48.637  25.860  31.103  1.00  0.00     0.134 A 
ATOM     69  F   UNL A   1      48.842  27.425  27.832  1.00  0.00    -0.206 F 
ATOM     70  C   UNL A   1      50.501  26.356  29.104  1.00  0.00     0.040 A 
ATOM     71  C   UNL A   1      49.958  25.441  31.264  1.00  0.00     0.040 A 
ATOM     72  F   UNL A   1      47.767  25.594  32.090  1.00  0.00    -0.206 F 
ATOM     73  C   UNL A   1      50.893  25.684  30.260  1.00  0.00     0.006 A 
ENDBRANCH  52  66
BRANCH  53  74
ATOM     74  C   UNL A   1      38.648  29.128  29.009  1.00  0.00     0.057 A 
ATOM     75  C   UNL A   1      37.782  29.069  30.106  1.00  0.00     0.134 A 
ATOM     76  C   UNL A   1      38.123  29.572  27.790  1.00  0.00     0.134 A 
ATOM     77  F   UNL A   1      38.227  28.634  31.294  1.00  0.00    -0.206 F 
ATOM     78  C   UNL A   1      36.438  29.428  29.995  1.00  0.00     0.040 A 
ATOM     79  C   UNL A   1      36.784  29.950  27.669  1.00  0.00     0.040 A 
ATOM     80  F   UNL A   1      38.905  29.655  26.705  1.00  0.00    -0.206 F 
ATOM     81  C   UNL A   1      35.937  29.874  28.773  1.00  0.00     0.006 A 
ENDBRANCH  53  74
BRANCH  65  82
ATOM     82  C   UNL A   1      44.322  32.466  31.242  1.00  0.00     0.057 A 
ATOM     83  C   UNL A   1      44.262  32.771  32.607  1.00  0.00     0.134 A 
ATOM     84  C   UNL A   1      44.627  33.504  30.355  1.00  0.00     0.134 A 
ATOM     85  F   UNL A   1      43.959  31.822  33.504  1.00  0.00    -0.206 F 
ATOM     86  C   UNL A   1      44.485  34.069  33.071  1.00  0.00     0.040 A 
ATOM     87  C   UNL A   1      44.870  34.801  30.809  1.00  0.00     0.040 A 
ATOM     88  F   UNL A   1      44.704  33.273  29.035  1.00  0.00    -0.206 F 
ATOM     89  C   UNL A   1      44.795  35.087  32.170  1.00  0.00     0.006 A 
ENDBRANCH  65  82
ENDBRANCH  39  40
ENDBRANCH  31  34
ENDBRANCH  29  30
ENDBRANCH  28  29
ENDBRANCH   1  28
TORSDOF 14
ENDMDL
MODEL 2
REMARK VINA RESULT:     -12.0      3.852      8.998
REMARK SMILES CCc1ccc2[nH]c(C(=O)c3cc(C)ccn3)c(CC(=O)NCCCNC(=O)c3ccc(-c4c5nc(c(-c6c(F)cccc6F)c6ccc([nH]6)c(-c6c(F)cccc6F)c6nc(c(-c7c(F)cccc7F)c7ccc4[nH]7)C=C6)C=C5)cc3)c2c1
REMARK SMILES IDX 23 1 22 2 20 3 21 4 19 6 18 7 3 8 4 9 84 10 5 11 83 12 6 13
REMARK SMILES IDX 7 14 8 15 2 17 1 18 9 19 10 20 11 21 12 22 17 23 13 24 16 25
REMARK SMILES IDX 14 26 15 27 24 28 25 29 26 30 27 31 28 33 29 34 30 35 82 36
REMARK SMILES IDX 31 37 81 38 32 39 33 40 34 41 75 42 35 43 80 44 74 45 76 46
REMARK SMILES IDX 36 47 79 48 73 49 72 50 37 52 63 53 46 54 62 55 47 56 50 57
REMARK SMILES IDX 61 58 77 59 48 60 49 61 60 63 78 64 51 65 38 66 39 67 44 68
REMARK SMILES IDX 40 69 41 70 43 71 45 72 42 73 64 74 65 75 70 76 66 77 67 78
REMARK SMILES IDX 69 79 71 80 68 81 52 82 53 83 58 84 54 85 55 86 57 87 59 88
REMARK SMILES IDX 56 89
REMARK H PARENT 22 5 7 16 26 32 76 51 50 62
REMARK Flexibility Score: inf
ROOT
ATOM      1  C   UNL A   1      31.094  30.426  25.746  1.00  0.00     0.117 C 
ENDROOT
BRANCH   1   2
ATOM      2  N   UNL A   1      32.264  30.037  24.989  1.00  0.00    -0.356 N 
ATOM      3  C   UNL A   1      32.735  28.792  24.684  1.00  0.00     0.224 C 
ATOM      4  O   UNL A   1      33.632  28.734  23.840  1.00  0.00    -0.275 OA
ATOM      5  H   UNL A   1      32.803  30.783  24.641  1.00  0.00     0.163 HD
BRANCH   3   6
ATOM      6  C   UNL A   1      32.094  27.535  25.260  1.00  0.00     0.138 C 
BRANCH   6   7
ATOM      7  C   UNL A   1      31.901  26.406  24.279  1.00  0.00    -0.002 A 
ATOM      8  C   UNL A   1      34.876  23.982  23.978  1.00  0.00    -0.048 A 
ATOM      9  C   UNL A   1      34.303  23.204  22.966  1.00  0.00     0.006 A 
ATOM     10  C   UNL A   1      34.148  25.064  24.500  1.00  0.00     0.014 A 
ATOM     11  C   UNL A   1      33.022  23.473  22.468  1.00  0.00     0.027 A 
ATOM     12  C   UNL A   1      32.859  25.370  24.007  1.00  0.00     0.004 A 
ATOM     13  C   UNL A   1      32.330  24.563  23.007  1.00  0.00     0.046 A 
ATOM     14  N   UNL A   1      31.090  25.064  22.700  1.00  0.00    -0.352 N 
ATOM     15  C   UNL A   1      30.767  26.133  23.510  1.00  0.00     0.093 A 
ATOM     16  H   UNL A   1      30.506  24.706  21.993  1.00  0.00     0.167 HD
BRANCH   8  17
ATOM     17  C   UNL A   1      36.287  23.702  24.443  1.00  0.00     0.032 C 
ATOM     18  C   UNL A   1      36.897  22.436  23.854  1.00  0.00     0.009 C 
ENDBRANCH   8  17
BRANCH  15  19
ATOM     19  C   UNL A   1      29.480  26.824  23.514  1.00  0.00     0.227 C 
ATOM     20  O   UNL A   1      28.429  26.289  23.865  1.00  0.00    -0.285 OA
BRANCH  19  21
ATOM     21  C   UNL A   1      29.402  28.221  23.014  1.00  0.00     0.113 A 
ATOM     22  C   UNL A   1      28.463  29.095  23.553  1.00  0.00     0.036 A 
ATOM     23  N   UNL A   1      30.296  28.566  22.054  1.00  0.00    -0.253 NA
ATOM     24  C   UNL A   1      28.434  30.409  23.079  1.00  0.00    -0.047 A 
ATOM     25  C   UNL A   1      30.273  29.851  21.644  1.00  0.00     0.112 A 
ATOM     26  C   UNL A   1      27.453  31.408  23.616  1.00  0.00     0.044 C 
ATOM     27  C   UNL A   1      29.371  30.794  22.117  1.00  0.00     0.023 A 
ENDBRANCH  19  21
ENDBRANCH  15  19
ENDBRANCH   6   7
ENDBRANCH   3   6
ENDBRANCH   1   2
BRANCH   1  28
ATOM     28  C   UNL A   1      31.111  31.892  26.167  1.00  0.00     0.042 C 
BRANCH  28  29
ATOM     29  C   UNL A   1      32.373  32.327  26.908  1.00  0.00     0.118 C 
BRANCH  29  30
ATOM     30  N   UNL A   1      32.289  33.687  27.419  1.00  0.00    -0.352 N 
ATOM     31  C   UNL A   1      33.102  34.374  28.282  1.00  0.00     0.251 C 
ATOM     32  H   UNL A   1      31.517  34.201  27.088  1.00  0.00     0.163 HD
ATOM     33  O   UNL A   1      32.740  35.476  28.692  1.00  0.00    -0.269 OA
BRANCH  31  34
ATOM     34  C   UNL A   1      34.397  33.820  28.743  1.00  0.00     0.039 A 
ATOM     35  C   UNL A   1      34.388  32.943  29.835  1.00  0.00     0.014 A 
ATOM     36  C   UNL A   1      35.616  34.203  28.177  1.00  0.00     0.014 A 
ATOM     37  C   UNL A   1      35.586  32.419  30.326  1.00  0.00     0.010 A 
ATOM     38  C   UNL A   1      36.807  33.633  28.629  1.00  0.00     0.010 A 
ATOM     39  C   UNL A   1      36.805  32.744  29.713  1.00  0.00    -0.014 A 
BRANCH  39  40
ATOM     40  C   UNL A   1      38.083  32.170  30.208  1.00  0.00     0.031 A 
ATOM     41  C   UNL A   1      38.599  30.872  29.653  1.00  0.00     0.074 A 
ATOM     42  C   UNL A   1      38.761  32.799  31.186  1.00  0.00     0.049 A 
ATOM     43  N   UNL A   1      39.666  30.193  29.993  1.00  0.00    -0.248 NA
ATOM     44  C   UNL A   1      37.801  30.243  28.590  1.00  0.00     0.031 C 
ATOM     45  C   UNL A   1      38.352  34.047  31.833  1.00  0.00     0.029 A 
ATOM     46  N   UNL A   1      39.937  32.470  31.812  1.00  0.00    -0.354 N 
ATOM     47  C   UNL A   1      39.657  29.052  29.202  1.00  0.00     0.074 A 
ATOM     48  C   UNL A   1      38.461  29.111  28.390  1.00  0.00     0.031 C 
ATOM     49  C   UNL A   1      39.274  34.389  32.747  1.00  0.00     0.029 A 
ATOM     50  C   UNL A   1      40.322  33.373  32.771  1.00  0.00     0.049 A 
ATOM     51  H   UNL A   1      40.456  31.662  31.594  1.00  0.00     0.167 HD
ATOM     52  C   UNL A   1      40.571  28.053  29.144  1.00  0.00     0.037 A 
ATOM     53  C   UNL A   1      41.398  33.382  33.579  1.00  0.00     0.037 A 
ATOM     54  C   UNL A   1      41.779  28.009  29.925  1.00  0.00     0.049 A 
ATOM     55  C   UNL A   1      42.406  32.273  33.484  1.00  0.00     0.074 A 
ATOM     56  C   UNL A   1      42.790  27.063  29.898  1.00  0.00     0.029 A 
ATOM     57  N   UNL A   1      42.142  28.953  30.871  1.00  0.00    -0.354 N 
ATOM     58  N   UNL A   1      42.405  31.222  32.701  1.00  0.00    -0.248 NA
ATOM     59  C   UNL A   1      43.566  32.353  34.384  1.00  0.00     0.031 C 
ATOM     60  C   UNL A   1      43.753  27.424  30.847  1.00  0.00     0.029 A 
ATOM     61  C   UNL A   1      43.356  28.610  31.441  1.00  0.00     0.049 A 
ATOM     62  H   UNL A   1      41.614  29.753  31.103  1.00  0.00     0.167 HD
ATOM     63  C   UNL A   1      43.572  30.530  32.993  1.00  0.00     0.074 A 
ATOM     64  C   UNL A   1      44.261  31.284  34.021  1.00  0.00     0.031 C 
ATOM     65  C   UNL A   1      44.032  29.375  32.456  1.00  0.00     0.037 A 
BRANCH  52  66
ATOM     66  C   UNL A   1      40.297  26.927  28.192  1.00  0.00     0.057 A 
ATOM     67  C   UNL A   1      40.833  26.912  26.898  1.00  0.00     0.134 A 
ATOM     68  C   UNL A   1      39.513  25.835  28.583  1.00  0.00     0.134 A 
ATOM     69  F   UNL A   1      41.582  27.935  26.460  1.00  0.00    -0.206 F 
ATOM     70  C   UNL A   1      40.578  25.859  26.017  1.00  0.00     0.040 A 
ATOM     71  C   UNL A   1      39.269  24.768  27.718  1.00  0.00     0.040 A 
ATOM     72  F   UNL A   1      38.976  25.787  29.812  1.00  0.00    -0.206 F 
ATOM     73  C   UNL A   1      39.797  24.781  26.429  1.00  0.00     0.006 A 
ENDBRANCH  52  66
BRANCH  53  74
ATOM     74  C   UNL A   1      41.599  34.504  34.527  1.00  0.00     0.057 A 
ATOM     75  C   UNL A   1      41.144  34.417  35.848  1.00  0.00     0.134 A 
ATOM     76  C   UNL A   1      42.249  35.682  34.141  1.00  0.00     0.134 A 
ATOM     77  F   UNL A   1      40.498  33.319  36.267  1.00  0.00    -0.206 F 
ATOM     78  C   UNL A   1      41.317  35.467  36.749  1.00  0.00     0.040 A 
ATOM     79  C   UNL A   1      42.445  36.733  35.038  1.00  0.00     0.040 A 
ATOM     80  F   UNL A   1      42.712  35.821  32.890  1.00  0.00    -0.206 F 
ATOM     81  C   UNL A   1      41.974  36.629  36.346  1.00  0.00     0.006 A 
ENDBRANCH  53  74
BRANCH  65  82
ATOM     82  C   UNL A   1      45.356  28.873  32.948  1.00  0.00     0.057 A 
ATOM     83  C   UNL A   1      45.450  27.982  34.024  1.00  0.00     0.134 A 
ATOM     84  C   UNL A   1      46.544  29.260  32.317  1.00  0.00     0.134 A 
ATOM     85  F   UNL A   1      44.348  27.586  34.678  1.00  0.00    -0.206 F 
ATOM     86  C   UNL A   1      46.685  27.505  34.465  1.00  0.00     0.040 A 
ATOM     87  C   UNL A   1      47.783  28.775  32.738  1.00  0.00     0.040 A 
ATOM     88  F   UNL A   1      46.518  30.108  31.277  1.00  0.00    -0.206 F 
ATOM     89  C   UNL A   1      47.855  27.898  33.818  1.00  0.00     0.006 A 
ENDBRANCH  65  82
ENDBRANCH  39  40
ENDBRANCH  31  34
ENDBRANCH  29  30
ENDBRANCH  28  29
ENDBRANCH   1  28
TORSDOF 14
ENDMDL
MODEL 3
REMARK VINA RESULT:     -12.0      4.488      9.437
REMARK SMILES CCc1ccc2[nH]c(C(=O)c3cc(C)ccn3)c(CC(=O)NCCCNC(=O)c3ccc(-c4c5nc(c(-c6c(F)cccc6F)c6ccc([nH]6)c(-c6c(F)cccc6F)c6nc(c(-c7c(F)cccc7F)c7ccc4[nH]7)C=C6)C=C5)cc3)c2c1
REMARK SMILES IDX 23 1 22 2 20 3 21 4 19 6 18 7 3 8 4 9 84 10 5 11 83 12 6 13
REMARK SMILES IDX 7 14 8 15 2 17 1 18 9 19 10 20 11 21 12 22 17 23 13 24 16 25
REMARK SMILES IDX 14 26 15 27 24 28 25 29 26 30 27 31 28 33 29 34 30 35 82 36
REMARK SMILES IDX 31 37 81 38 32 39 33 40 34 41 75 42 35 43 80 44 74 45 76 46
REMARK SMILES IDX 36 47 79 48 73 49 72 50 37 52 63 53 46 54 62 55 47 56 50 57
REMARK SMILES IDX 61 58 77 59 48 60 49 61 60 63 78 64 51 65 38 66 39 67 44 68
REMARK SMILES IDX 40 69 41 70 43 71 45 72 42 73 64 74 65 75 70 76 66 77 67 78
REMARK SMILES IDX 69 79 71 80 68 81 52 82 53 83 58 84 54 85 55 86 57 87 59 88
REMARK SMILES IDX 56 89
REMARK H PARENT 22 5 7 16 26 32 76 51 50 62
REMARK Flexibility Score: inf
ROOT
ATOM      1  C   UNL A   1      31.030  30.452  25.322  1.00  0.00     0.117 C 
ENDROOT
BRANCH   1   2
ATOM      2  N   UNL A   1      32.360  29.918  25.128  1.00  0.00    -0.356 N 
ATOM      3  C   UNL A   1      32.789  28.621  25.109  1.00  0.00     0.224 C 
ATOM      4  O   UNL A   1      33.939  28.427  24.706  1.00  0.00    -0.275 OA
ATOM      5  H   UNL A   1      33.064  30.592  24.988  1.00  0.00     0.163 HD
BRANCH   3   6
ATOM      6  C   UNL A   1      31.851  27.468  25.443  1.00  0.00     0.138 C 
BRANCH   6   7
ATOM      7  C   UNL A   1      31.704  26.428  24.361  1.00  0.00    -0.002 A 
ATOM      8  C   UNL A   1      34.679  24.011  24.006  1.00  0.00    -0.048 A 
ATOM      9  C   UNL A   1      34.155  23.327  22.904  1.00  0.00     0.006 A 
ATOM     10  C   UNL A   1      33.931  25.052  24.580  1.00  0.00     0.014 A 
ATOM     11  C   UNL A   1      32.902  23.648  22.367  1.00  0.00     0.027 A 
ATOM     12  C   UNL A   1      32.669  25.409  24.050  1.00  0.00     0.004 A 
ATOM     13  C   UNL A   1      32.188  24.694  22.961  1.00  0.00     0.046 A 
ATOM     14  N   UNL A   1      30.968  25.230  22.635  1.00  0.00    -0.352 N 
ATOM     15  C   UNL A   1      30.609  26.230  23.516  1.00  0.00     0.093 A 
ATOM     16  H   UNL A   1      30.419  24.939  21.872  1.00  0.00     0.167 HD
BRANCH   8  17
ATOM     17  C   UNL A   1      36.063  23.681  24.515  1.00  0.00     0.032 C 
ATOM     18  C   UNL A   1      36.695  22.461  23.856  1.00  0.00     0.009 C 
ENDBRANCH   8  17
BRANCH  15  19
ATOM     19  C   UNL A   1      29.326  26.929  23.513  1.00  0.00     0.227 C 
ATOM     20  O   UNL A   1      28.273  26.406  23.876  1.00  0.00    -0.285 OA
BRANCH  19  21
ATOM     21  C   UNL A   1      29.256  28.320  22.994  1.00  0.00     0.113 A 
ATOM     22  C   UNL A   1      28.299  29.197  23.496  1.00  0.00     0.036 A 
ATOM     23  N   UNL A   1      30.173  28.656  22.052  1.00  0.00    -0.253 NA
ATOM     24  C   UNL A   1      28.277  30.504  23.005  1.00  0.00    -0.047 A 
ATOM     25  C   UNL A   1      30.155  29.935  21.626  1.00  0.00     0.112 A 
ATOM     26  C   UNL A   1      27.279  31.505  23.503  1.00  0.00     0.044 C 
ATOM     27  C   UNL A   1      29.238  30.880  22.063  1.00  0.00     0.023 A 
ENDBRANCH  19  21
ENDBRANCH  15  19
ENDBRANCH   6   7
ENDBRANCH   3   6
ENDBRANCH   1   2
BRANCH   1  28
ATOM     28  C   UNL A   1      31.028  31.858  25.912  1.00  0.00     0.042 C 
BRANCH  28  29
ATOM     29  C   UNL A   1      32.159  32.136  26.899  1.00  0.00     0.118 C 
BRANCH  29  30
ATOM     30  N   UNL A   1      32.259  33.541  27.265  1.00  0.00    -0.352 N 
ATOM     31  C   UNL A   1      33.129  34.193  28.100  1.00  0.00     0.251 C 
ATOM     32  H   UNL A   1      31.588  34.124  26.839  1.00  0.00     0.163 HD
ATOM     33  O   UNL A   1      32.919  35.374  28.375  1.00  0.00    -0.269 OA
BRANCH  31  34
ATOM     34  C   UNL A   1      34.304  33.510  28.689  1.00  0.00     0.039 A 
ATOM     35  C   UNL A   1      34.077  32.486  29.616  1.00  0.00     0.014 A 
ATOM     36  C   UNL A   1      35.615  33.906  28.407  1.00  0.00     0.014 A 
ATOM     37  C   UNL A   1      35.153  31.834  30.223  1.00  0.00     0.010 A 
ATOM     38  C   UNL A   1      36.691  33.215  28.968  1.00  0.00     0.010 A 
ATOM     39  C   UNL A   1      36.470  32.179  29.887  1.00  0.00    -0.014 A 
BRANCH  39  40
ATOM     40  C   UNL A   1      37.623  31.474  30.503  1.00  0.00     0.031 A 
ATOM     41  C   UNL A   1      38.008  31.747  31.930  1.00  0.00     0.074 A 
ATOM     42  C   UNL A   1      38.350  30.614  29.765  1.00  0.00     0.049 A 
ATOM     43  N   UNL A   1      39.010  31.267  32.623  1.00  0.00    -0.248 NA
ATOM     44  C   UNL A   1      37.170  32.702  32.670  1.00  0.00     0.031 C 
ATOM     45  C   UNL A   1      38.102  30.284  28.360  1.00  0.00     0.029 A 
ATOM     46  N   UNL A   1      39.450  29.862  30.094  1.00  0.00    -0.354 N 
ATOM     47  C   UNL A   1      38.933  31.872  33.870  1.00  0.00     0.074 A 
ATOM     48  C   UNL A   1      37.809  32.783  33.828  1.00  0.00     0.031 C 
ATOM     49  C   UNL A   1      39.009  29.381  27.955  1.00  0.00     0.029 A 
ATOM     50  C   UNL A   1      39.917  29.089  29.061  1.00  0.00     0.049 A 
ATOM     51  H   UNL A   1      39.865  29.876  30.987  1.00  0.00     0.167 HD
ATOM     52  C   UNL A   1      39.717  31.676  34.958  1.00  0.00     0.037 A 
ATOM     53  C   UNL A   1      40.960  28.239  29.009  1.00  0.00     0.037 A 
ATOM     54  C   UNL A   1      40.814  30.747  35.015  1.00  0.00     0.049 A 
ATOM     55  C   UNL A   1      41.804  28.026  30.233  1.00  0.00     0.074 A 
ATOM     56  C   UNL A   1      41.633  30.443  36.088  1.00  0.00     0.029 A 
ATOM     57  N   UNL A   1      41.242  29.968  33.952  1.00  0.00    -0.354 N 
ATOM     58  N   UNL A   1      41.692  28.575  31.418  1.00  0.00    -0.248 NA
ATOM     59  C   UNL A   1      42.916  27.072  30.113  1.00  0.00     0.031 C 
ATOM     60  C   UNL A   1      42.574  29.497  35.667  1.00  0.00     0.029 A 
ATOM     61  C   UNL A   1      42.320  29.190  34.340  1.00  0.00     0.049 A 
ATOM     62  H   UNL A   1      40.839  29.967  33.053  1.00  0.00     0.167 HD
ATOM     63  C   UNL A   1      42.701  28.016  32.191  1.00  0.00     0.074 A 
ATOM     64  C   UNL A   1      43.410  27.080  31.343  1.00  0.00     0.031 C 
ATOM     65  C   UNL A   1      43.009  28.257  33.488  1.00  0.00     0.037 A 
BRANCH  52  66
ATOM     66  C   UNL A   1      39.405  32.484  36.182  1.00  0.00     0.057 A 
ATOM     67  C   UNL A   1      40.048  33.700  36.444  1.00  0.00     0.134 A 
ATOM     68  C   UNL A   1      38.433  32.054  37.094  1.00  0.00     0.134 A 
ATOM     69  F   UNL A   1      40.997  34.159  35.615  1.00  0.00    -0.206 F 
ATOM     70  C   UNL A   1      39.752  34.450  37.584  1.00  0.00     0.040 A 
ATOM     71  C   UNL A   1      38.114  32.806  38.226  1.00  0.00     0.040 A 
ATOM     72  F   UNL A   1      37.776  30.900  36.898  1.00  0.00    -0.206 F 
ATOM     73  C   UNL A   1      38.778  34.005  38.476  1.00  0.00     0.006 A 
ENDBRANCH  52  66
BRANCH  53  74
ATOM     74  C   UNL A   1      41.243  27.494  27.759  1.00  0.00     0.057 A 
ATOM     75  C   UNL A   1      40.687  26.230  27.536  1.00  0.00     0.134 A 
ATOM     76  C   UNL A   1      42.070  28.025  26.762  1.00  0.00     0.134 A 
ATOM     77  F   UNL A   1      39.902  25.666  28.465  1.00  0.00    -0.206 F 
ATOM     78  C   UNL A   1      40.951  25.512  26.369  1.00  0.00     0.040 A 
ATOM     79  C   UNL A   1      42.328  27.325  25.582  1.00  0.00     0.040 A 
ATOM     80  F   UNL A   1      42.627  29.234  26.917  1.00  0.00    -0.206 F 
ATOM     81  C   UNL A   1      41.771  26.062  25.386  1.00  0.00     0.006 A 
ENDBRANCH  53  74
BRANCH  65  82
ATOM     82  C   UNL A   1      44.143  27.473  34.076  1.00  0.00     0.057 A 
ATOM     83  C   UNL A   1      45.448  27.978  34.104  1.00  0.00     0.134 A 
ATOM     84  C   UNL A   1      43.918  26.216  34.650  1.00  0.00     0.134 A 
ATOM     85  F   UNL A   1      45.729  29.170  33.557  1.00  0.00    -0.206 F 
ATOM     86  C   UNL A   1      46.496  27.250  34.670  1.00  0.00     0.040 A 
ATOM     87  C   UNL A   1      44.954  25.488  35.235  1.00  0.00     0.040 A 
ATOM     88  F   UNL A   1      42.687  25.682  34.658  1.00  0.00    -0.206 F 
ATOM     89  C   UNL A   1      46.249  26.003  35.242  1.00  0.00     0.006 A 
ENDBRANCH  65  82
ENDBRANCH  39  40
ENDBRANCH  31  34
ENDBRANCH  29  30
ENDBRANCH  28  29
ENDBRANCH   1  28
TORSDOF 14
ENDMDL
