MODEL 1
REMARK VINA RESULT:     -12.5      0.000      0.000
REMARK SMILES Cc1nc(C(=O)N2C[C@@H]3CC[N@@H+](C)C[C@]3(C(=O)NCCCNC(=O)c3ccc(-c4c5nc(c(-c6c(F)cccc6F)c6ccc([nH]6)c(-c6c(F)cccc6F)c6nc(c(-c7c(F)cccc7F)c7ccc4[nH]7)C=C6)C=C5)cc3)C2)cs1
REMARK SMILES IDX 20 1 19 2 18 3 16 4 17 5 15 7 7 8 8 9 79 10 9 11 10 12 14 13
REMARK SMILES IDX 11 14 12 15 13 16 5 18 6 19 4 20 1 21 2 22 3 23 81 24 80 25
REMARK SMILES IDX 21 26 22 27 23 28 24 30 25 31 26 32 78 33 27 34 77 35 28 36
REMARK SMILES IDX 29 37 30 38 71 39 31 40 76 41 70 42 72 43 32 44 75 45 69 46
REMARK SMILES IDX 68 47 33 49 59 50 42 51 58 52 43 53 46 54 57 55 73 56 44 57
REMARK SMILES IDX 45 58 56 60 74 61 47 62 34 63 35 64 40 65 36 66 37 67 39 68
REMARK SMILES IDX 41 69 38 70 60 71 61 72 66 73 62 74 63 75 65 76 67 77 64 78
REMARK SMILES IDX 48 79 49 80 54 81 50 82 51 83 53 84 55 85 52 86
REMARK H PARENT 18 6 12 17 22 29 72 48 46 59
REMARK Flexibility Score: inf
ROOT
ATOM      1  C   UNL A   1      32.497  28.663  26.766  1.00  0.00     0.042 C 
ENDROOT
BRANCH   1   2
ATOM      2  C   UNL A   1      32.248  27.205  26.375  1.00  0.00     0.117 C 
BRANCH   2   3
ATOM      3  N   UNL A   1      30.889  26.636  26.539  1.00  0.00    -0.355 N 
ATOM      4  C   UNL A   1      30.041  25.871  25.741  1.00  0.00     0.234 C 
ATOM      5  O   UNL A   1      29.202  25.181  26.325  1.00  0.00    -0.274 OA
ATOM      6  H   UNL A   1      30.494  26.849  27.416  1.00  0.00     0.163 HD
BRANCH   4   7
ATOM      7  C   UNL A   1      30.038  26.022  24.204  1.00  0.00     0.120 C 
ATOM      8  N   UNL A   1      28.647  27.770  23.265  1.00  0.00    -0.336 N 
ATOM      9  C   UNL A   1      29.885  27.963  22.615  1.00  0.00     0.125 C 
ATOM     10  C   UNL A   1      28.590  26.477  23.904  1.00  0.00     0.143 C 
ATOM     11  C   UNL A   1      30.866  27.147  23.463  1.00  0.00     0.037 C 
ATOM     12  C   UNL A   1      31.895  26.631  22.447  1.00  0.00     0.068 C 
ATOM     13  C   UNL A   1      30.606  24.645  23.735  1.00  0.00     0.281 C 
ATOM     14  C   UNL A   1      32.822  25.648  23.099  1.00  0.00     0.262 C 
ATOM     15  N   UNL A   1      32.094  24.504  23.653  1.00  0.00    -0.336 N 
ATOM     16  C   UNL A   1      32.774  24.083  24.879  1.00  0.00     0.332 C 
ATOM     17  H   UNL A   1      32.135  23.736  22.984  1.00  0.00     0.347 HD
BRANCH   8  18
ATOM     18  C   UNL A   1      27.692  28.766  23.266  1.00  0.00     0.273 C 
ATOM     19  O   UNL A   1      26.522  28.523  23.547  1.00  0.00    -0.267 OA
BRANCH  18  20
ATOM     20  C   UNL A   1      28.101  30.079  22.732  1.00  0.00     0.139 A 
ATOM     21  C   UNL A   1      27.940  32.520  19.996  1.00  0.00     0.079 C 
ATOM     22  C   UNL A   1      28.157  31.745  21.251  1.00  0.00     0.090 A 
ATOM     23  N   UNL A   1      27.931  30.453  21.394  1.00  0.00    -0.236 NA
ATOM     24  S   UNL A   1      28.703  32.559  22.661  1.00  0.00    -0.127 S 
ATOM     25  C   UNL A   1      28.539  31.109  23.550  1.00  0.00     0.101 A 
ENDBRANCH  18  20
ENDBRANCH   8  18
ENDBRANCH   4   7
ENDBRANCH   2   3
ENDBRANCH   1   2
BRANCH   1  26
ATOM     26  C   UNL A   1      33.905  28.975  27.272  1.00  0.00     0.118 C 
BRANCH  26  27
ATOM     27  N   UNL A   1      34.004  30.287  27.907  1.00  0.00    -0.352 N 
ATOM     28  C   UNL A   1      34.960  30.863  28.704  1.00  0.00     0.251 C 
ATOM     29  H   UNL A   1      33.232  30.872  27.728  1.00  0.00     0.163 HD
ATOM     30  O   UNL A   1      34.675  31.883  29.328  1.00  0.00    -0.269 OA
BRANCH  28  31
ATOM     31  C   UNL A   1      36.320  30.294  28.830  1.00  0.00     0.039 A 
ATOM     32  C   UNL A   1      37.150  30.270  27.702  1.00  0.00     0.014 A 
ATOM     33  C   UNL A   1      36.758  29.716  30.022  1.00  0.00     0.014 A 
ATOM     34  C   UNL A   1      38.442  29.745  27.794  1.00  0.00     0.010 A 
ATOM     35  C   UNL A   1      38.070  29.257  30.133  1.00  0.00     0.010 A 
ATOM     36  C   UNL A   1      38.930  29.280  29.025  1.00  0.00    -0.014 A 
BRANCH  36  37
ATOM     37  C   UNL A   1      40.349  28.866  29.187  1.00  0.00     0.031 A 
ATOM     38  C   UNL A   1      41.386  29.842  29.669  1.00  0.00     0.074 A 
ATOM     39  C   UNL A   1      40.716  27.626  28.806  1.00  0.00     0.049 A 
ATOM     40  N   UNL A   1      42.682  29.685  29.773  1.00  0.00    -0.248 NA
ATOM     41  C   UNL A   1      40.910  31.175  30.066  1.00  0.00     0.031 C 
ATOM     42  C   UNL A   1      39.812  26.604  28.273  1.00  0.00     0.029 A 
ATOM     43  N   UNL A   1      41.947  27.018  28.786  1.00  0.00    -0.354 N 
ATOM     44  C   UNL A   1      43.177  30.901  30.227  1.00  0.00     0.074 A 
ATOM     45  C   UNL A   1      42.048  31.799  30.339  1.00  0.00     0.031 C 
ATOM     46  C   UNL A   1      40.514  25.496  27.991  1.00  0.00     0.029 A 
ATOM     47  C   UNL A   1      41.923  25.742  28.276  1.00  0.00     0.049 A 
ATOM     48  H   UNL A   1      42.768  27.456  29.107  1.00  0.00     0.167 HD
ATOM     49  C   UNL A   1      44.454  31.231  30.535  1.00  0.00     0.037 A 
ATOM     50  C   UNL A   1      42.925  24.873  28.043  1.00  0.00     0.037 A 
ATOM     51  C   UNL A   1      45.571  30.327  30.440  1.00  0.00     0.049 A 
ATOM     52  C   UNL A   1      44.335  25.273  28.380  1.00  0.00     0.074 A 
ATOM     53  C   UNL A   1      46.888  30.545  30.803  1.00  0.00     0.029 A 
ATOM     54  N   UNL A   1      45.504  29.037  29.936  1.00  0.00    -0.354 N 
ATOM     55  N   UNL A   1      44.775  26.398  28.889  1.00  0.00    -0.248 NA
ATOM     56  C   UNL A   1      45.387  24.282  28.113  1.00  0.00     0.031 C 
ATOM     57  C   UNL A   1      47.629  29.408  30.464  1.00  0.00     0.029 A 
ATOM     58  C   UNL A   1      46.764  28.461  29.944  1.00  0.00     0.049 A 
ATOM     59  H   UNL A   1      44.683  28.596  29.620  1.00  0.00     0.167 HD
ATOM     60  C   UNL A   1      46.149  26.243  29.023  1.00  0.00     0.074 A 
ATOM     61  C   UNL A   1      46.466  24.908  28.563  1.00  0.00     0.031 C 
ATOM     62  C   UNL A   1      47.065  27.130  29.482  1.00  0.00     0.037 A 
BRANCH  49  63
ATOM     63  C   UNL A   1      44.722  32.633  31.005  1.00  0.00     0.057 A 
ATOM     64  C   UNL A   1      44.686  32.981  32.362  1.00  0.00     0.134 A 
ATOM     65  C   UNL A   1      45.080  33.635  30.093  1.00  0.00     0.134 A 
ATOM     66  F   UNL A   1      44.342  32.072  33.288  1.00  0.00    -0.206 F 
ATOM     67  C   UNL A   1      44.975  34.276  32.793  1.00  0.00     0.040 A 
ATOM     68  C   UNL A   1      45.400  34.928  30.514  1.00  0.00     0.040 A 
ATOM     69  F   UNL A   1      45.144  33.370  28.780  1.00  0.00    -0.206 F 
ATOM     70  C   UNL A   1      45.343  35.252  31.868  1.00  0.00     0.006 A 
ENDBRANCH  49  63
BRANCH  50  71
ATOM     71  C   UNL A   1      42.635  23.540  27.454  1.00  0.00     0.057 A 
ATOM     72  C   UNL A   1      42.699  23.330  26.072  1.00  0.00     0.134 A 
ATOM     73  C   UNL A   1      42.271  22.450  28.254  1.00  0.00     0.134 A 
ATOM     74  F   UNL A   1      43.023  24.339  25.250  1.00  0.00    -0.206 F 
ATOM     75  C   UNL A   1      42.389  22.093  25.505  1.00  0.00     0.040 A 
ATOM     76  C   UNL A   1      41.989  21.199  27.703  1.00  0.00     0.040 A 
ATOM     77  F   UNL A   1      42.200  22.581  29.587  1.00  0.00    -0.206 F 
ATOM     78  C   UNL A   1      42.037  21.021  26.323  1.00  0.00     0.006 A 
ENDBRANCH  50  71
BRANCH  62  79
ATOM     79  C   UNL A   1      48.496  26.676  29.530  1.00  0.00     0.057 A 
ATOM     80  C   UNL A   1      49.397  26.960  28.496  1.00  0.00     0.134 A 
ATOM     81  C   UNL A   1      48.988  25.984  30.645  1.00  0.00     0.134 A 
ATOM     82  F   UNL A   1      48.986  27.607  27.395  1.00  0.00    -0.206 F 
ATOM     83  C   UNL A   1      50.731  26.553  28.559  1.00  0.00     0.040 A 
ATOM     84  C   UNL A   1      50.327  25.598  30.732  1.00  0.00     0.040 A 
ATOM     85  F   UNL A   1      48.181  25.688  31.674  1.00  0.00    -0.206 F 
ATOM     86  C   UNL A   1      51.200  25.878  29.683  1.00  0.00     0.006 A 
ENDBRANCH  62  79
ENDBRANCH  36  37
ENDBRANCH  28  31
ENDBRANCH  26  27
ENDBRANCH   1  26
TORSDOF 12
ENDMDL
MODEL 2
REMARK VINA RESULT:     -12.5      3.589      7.087
REMARK SMILES Cc1nc(C(=O)N2C[C@@H]3CC[N@@H+](C)C[C@]3(C(=O)NCCCNC(=O)c3ccc(-c4c5nc(c(-c6c(F)cccc6F)c6ccc([nH]6)c(-c6c(F)cccc6F)c6nc(c(-c7c(F)cccc7F)c7ccc4[nH]7)C=C6)C=C5)cc3)C2)cs1
REMARK SMILES IDX 20 1 19 2 18 3 16 4 17 5 15 7 7 8 8 9 79 10 9 11 10 12 14 13
REMARK SMILES IDX 11 14 12 15 13 16 5 18 6 19 4 20 1 21 2 22 3 23 81 24 80 25
REMARK SMILES IDX 21 26 22 27 23 28 24 30 25 31 26 32 78 33 27 34 77 35 28 36
REMARK SMILES IDX 29 37 30 38 71 39 31 40 76 41 70 42 72 43 32 44 75 45 69 46
REMARK SMILES IDX 68 47 33 49 59 50 42 51 58 52 43 53 46 54 57 55 73 56 44 57
REMARK SMILES IDX 45 58 56 60 74 61 47 62 34 63 35 64 40 65 36 66 37 67 39 68
REMARK SMILES IDX 41 69 38 70 60 71 61 72 66 73 62 74 63 75 65 76 67 77 64 78
REMARK SMILES IDX 48 79 49 80 54 81 50 82 51 83 53 84 55 85 52 86
REMARK H PARENT 18 6 12 17 22 29 72 48 46 59
REMARK Flexibility Score: inf
ROOT
ATOM      1  C   UNL A   1      32.355  30.085  25.672  1.00  0.00     0.042 C 
ENDROOT
BRANCH   1   2
ATOM      2  C   UNL A   1      32.672  28.599  25.853  1.00  0.00     0.117 C 
BRANCH   2   3
ATOM      3  N   UNL A   1      31.592  27.678  26.279  1.00  0.00    -0.355 N 
ATOM      4  C   UNL A   1      30.970  26.565  25.716  1.00  0.00     0.234 C 
ATOM      5  O   UNL A   1      30.457  25.761  26.497  1.00  0.00    -0.274 OA
ATOM      6  H   UNL A   1      31.231  27.904  27.166  1.00  0.00     0.163 HD
BRANCH   4   7
ATOM      7  C   UNL A   1      30.779  26.444  24.188  1.00  0.00     0.120 C 
ATOM      8  N   UNL A   1      29.099  27.861  23.165  1.00  0.00    -0.336 N 
ATOM      9  C   UNL A   1      30.227  28.055  22.339  1.00  0.00     0.125 C 
ATOM     10  C   UNL A   1      29.264  26.699  24.007  1.00  0.00     0.143 C 
ATOM     11  C   UNL A   1      31.384  27.497  23.174  1.00  0.00     0.037 C 
ATOM     12  C   UNL A   1      32.347  26.913  22.131  1.00  0.00     0.068 C 
ATOM     13  C   UNL A   1      31.449  25.068  23.878  1.00  0.00     0.281 C 
ATOM     14  C   UNL A   1      33.448  26.152  22.809  1.00  0.00     0.262 C 
ATOM     15  N   UNL A   1      32.924  25.058  23.630  1.00  0.00    -0.336 N 
ATOM     16  C   UNL A   1      33.780  24.925  24.810  1.00  0.00     0.332 C 
ATOM     17  H   UNL A   1      32.981  24.192  23.094  1.00  0.00     0.347 HD
BRANCH   8  18
ATOM     18  C   UNL A   1      28.041  28.745  23.128  1.00  0.00     0.273 C 
ATOM     19  O   UNL A   1      26.891  28.366  23.328  1.00  0.00    -0.267 OA
BRANCH  18  20
ATOM     20  C   UNL A   1      28.333  30.110  22.652  1.00  0.00     0.139 A 
ATOM     21  C   UNL A   1      27.842  32.690  20.087  1.00  0.00     0.079 C 
ATOM     22  C   UNL A   1      28.188  31.859  21.276  1.00  0.00     0.090 A 
ATOM     23  N   UNL A   1      28.051  30.550  21.353  1.00  0.00    -0.236 NA
ATOM     24  S   UNL A   1      28.778  32.624  22.697  1.00  0.00    -0.127 S 
ATOM     25  C   UNL A   1      28.762  31.117  23.502  1.00  0.00     0.101 A 
ENDBRANCH  18  20
ENDBRANCH   8  18
ENDBRANCH   4   7
ENDBRANCH   2   3
ENDBRANCH   1   2
BRANCH   1  26
ATOM     26  C   UNL A   1      31.705  30.769  26.875  1.00  0.00     0.118 C 
BRANCH  26  27
ATOM     27  N   UNL A   1      31.886  32.218  26.873  1.00  0.00    -0.352 N 
ATOM     28  C   UNL A   1      32.805  33.040  27.473  1.00  0.00     0.251 C 
ATOM     29  H   UNL A   1      31.215  32.699  26.335  1.00  0.00     0.163 HD
ATOM     30  O   UNL A   1      32.574  34.246  27.529  1.00  0.00    -0.269 OA
BRANCH  28  31
ATOM     31  C   UNL A   1      34.063  32.517  28.049  1.00  0.00     0.039 A 
ATOM     32  C   UNL A   1      35.161  33.378  28.169  1.00  0.00     0.014 A 
ATOM     33  C   UNL A   1      34.197  31.173  28.399  1.00  0.00     0.014 A 
ATOM     34  C   UNL A   1      36.359  32.911  28.717  1.00  0.00     0.010 A 
ATOM     35  C   UNL A   1      35.369  30.726  29.010  1.00  0.00     0.010 A 
ATOM     36  C   UNL A   1      36.457  31.593  29.188  1.00  0.00    -0.014 A 
BRANCH  36  37
ATOM     37  C   UNL A   1      37.663  31.119  29.917  1.00  0.00     0.031 A 
ATOM     38  C   UNL A   1      38.612  30.142  29.281  1.00  0.00     0.074 A 
ATOM     39  C   UNL A   1      37.847  31.503  31.196  1.00  0.00     0.049 A 
ATOM     40  N   UNL A   1      39.654  29.544  29.803  1.00  0.00    -0.248 NA
ATOM     41  C   UNL A   1      38.345  29.769  27.884  1.00  0.00     0.031 C 
ATOM     42  C   UNL A   1      36.968  32.406  31.942  1.00  0.00     0.029 A 
ATOM     43  N   UNL A   1      38.821  31.166  32.104  1.00  0.00    -0.354 N 
ATOM     44  C   UNL A   1      40.154  28.714  28.807  1.00  0.00     0.074 A 
ATOM     45  C   UNL A   1      39.277  28.852  27.665  1.00  0.00     0.031 C 
ATOM     46  C   UNL A   1      37.447  32.562  33.185  1.00  0.00     0.029 A 
ATOM     47  C   UNL A   1      38.638  31.735  33.342  1.00  0.00     0.049 A 
ATOM     48  H   UNL A   1      39.578  30.576  31.889  1.00  0.00     0.167 HD
ATOM     49  C   UNL A   1      41.252  27.921  28.841  1.00  0.00     0.037 A 
ATOM     50  C   UNL A   1      39.337  31.590  34.485  1.00  0.00     0.037 A 
ATOM     51  C   UNL A   1      42.132  27.802  29.975  1.00  0.00     0.049 A 
ATOM     52  C   UNL A   1      40.542  30.691  34.497  1.00  0.00     0.074 A 
ATOM     53  C   UNL A   1      43.311  27.086  30.079  1.00  0.00     0.029 A 
ATOM     54  N   UNL A   1      41.923  28.407  31.206  1.00  0.00    -0.354 N 
ATOM     55  N   UNL A   1      41.050  29.978  33.521  1.00  0.00    -0.248 NA
ATOM     56  C   UNL A   1      41.272  30.577  35.768  1.00  0.00     0.031 C 
ATOM     57  C   UNL A   1      43.784  27.208  31.389  1.00  0.00     0.029 A 
ATOM     58  C   UNL A   1      42.932  28.049  32.085  1.00  0.00     0.049 A 
ATOM     59  H   UNL A   1      41.169  29.002  31.422  1.00  0.00     0.167 HD
ATOM     60  C   UNL A   1      42.169  29.349  34.053  1.00  0.00     0.074 A 
ATOM     61  C   UNL A   1      42.277  29.783  35.430  1.00  0.00     0.031 C 
ATOM     62  C   UNL A   1      43.027  28.487  33.455  1.00  0.00     0.037 A 
BRANCH  49  63
ATOM     63  C   UNL A   1      41.570  27.112  27.616  1.00  0.00     0.057 A 
ATOM     64  C   UNL A   1      42.343  27.627  26.566  1.00  0.00     0.134 A 
ATOM     65  C   UNL A   1      41.150  25.779  27.512  1.00  0.00     0.134 A 
ATOM     66  F   UNL A   1      42.772  28.898  26.598  1.00  0.00    -0.206 F 
ATOM     67  C   UNL A   1      42.667  26.854  25.450  1.00  0.00     0.040 A 
ATOM     68  C   UNL A   1      41.491  24.987  26.413  1.00  0.00     0.040 A 
ATOM     69  F   UNL A   1      40.415  25.219  28.483  1.00  0.00    -0.206 F 
ATOM     70  C   UNL A   1      42.249  25.527  25.376  1.00  0.00     0.006 A 
ENDBRANCH  49  63
BRANCH  50  71
ATOM     71  C   UNL A   1      38.913  32.308  35.715  1.00  0.00     0.057 A 
ATOM     72  C   UNL A   1      39.266  33.645  35.931  1.00  0.00     0.134 A 
ATOM     73  C   UNL A   1      38.159  31.672  36.710  1.00  0.00     0.134 A 
ATOM     74  F   UNL A   1      40.002  34.303  35.024  1.00  0.00    -0.206 F 
ATOM     75  C   UNL A   1      38.906  34.316  37.101  1.00  0.00     0.040 A 
ATOM     76  C   UNL A   1      37.767  32.340  37.871  1.00  0.00     0.040 A 
ATOM     77  F   UNL A   1      37.780  30.394  36.560  1.00  0.00    -0.206 F 
ATOM     78  C   UNL A   1      38.150  33.664  38.073  1.00  0.00     0.006 A 
ENDBRANCH  50  71
BRANCH  62  79
ATOM     79  C   UNL A   1      44.171  27.973  34.280  1.00  0.00     0.057 A 
ATOM     80  C   UNL A   1      44.087  26.769  34.991  1.00  0.00     0.134 A 
ATOM     81  C   UNL A   1      45.387  28.669  34.327  1.00  0.00     0.134 A 
ATOM     82  F   UNL A   1      42.948  26.062  34.997  1.00  0.00    -0.206 F 
ATOM     83  C   UNL A   1      45.164  26.287  35.737  1.00  0.00     0.040 A 
ATOM     84  C   UNL A   1      46.479  28.182  35.047  1.00  0.00     0.040 A 
ATOM     85  F   UNL A   1      45.537  29.824  33.662  1.00  0.00    -0.206 F 
ATOM     86  C   UNL A   1      46.366  26.991  35.760  1.00  0.00     0.006 A 
ENDBRANCH  62  79
ENDBRANCH  36  37
ENDBRANCH  28  31
ENDBRANCH  26  27
ENDBRANCH   1  26
TORSDOF 12
ENDMDL
MODEL 3
REMARK VINA RESULT:     -12.4      1.616      2.673
REMARK SMILES Cc1nc(C(=O)N2C[C@@H]3CC[N@@H+](C)C[C@]3(C(=O)NCCCNC(=O)c3ccc(-c4c5nc(c(-c6c(F)cccc6F)c6ccc([nH]6)c(-c6c(F)cccc6F)c6nc(c(-c7c(F)cccc7F)c7ccc4[nH]7)C=C6)C=C5)cc3)C2)cs1
REMARK SMILES IDX 20 1 19 2 18 3 16 4 17 5 15 7 7 8 8 9 79 10 9 11 10 12 14 13
REMARK SMILES IDX 11 14 12 15 13 16 5 18 6 19 4 20 1 21 2 22 3 23 81 24 80 25
REMARK SMILES IDX 21 26 22 27 23 28 24 30 25 31 26 32 78 33 27 34 77 35 28 36
REMARK SMILES IDX 29 37 30 38 71 39 31 40 76 41 70 42 72 43 32 44 75 45 69 46
REMARK SMILES IDX 68 47 33 49 59 50 42 51 58 52 43 53 46 54 57 55 73 56 44 57
REMARK SMILES IDX 45 58 56 60 74 61 47 62 34 63 35 64 40 65 36 66 37 67 39 68
REMARK SMILES IDX 41 69 38 70 60 71 61 72 66 73 62 74 63 75 65 76 67 77 64 78
REMARK SMILES IDX 48 79 49 80 54 81 50 82 51 83 53 84 55 85 52 86
REMARK H PARENT 18 6 12 17 22 29 72 48 46 59
REMARK Flexibility Score: inf
ROOT
ATOM      1  C   UNL A   1      34.057  28.134  26.101  1.00  0.00     0.042 C 
ENDROOT
BRANCH   1   2
ATOM      2  C   UNL A   1      33.867  26.654  25.756  1.00  0.00     0.117 C 
BRANCH   2   3
ATOM      3  N   UNL A   1      32.596  25.986  26.122  1.00  0.00    -0.355 N 
ATOM      4  C   UNL A   1      32.134  24.671  26.096  1.00  0.00     0.234 C 
ATOM      5  O   UNL A   1      31.231  24.386  26.886  1.00  0.00    -0.274 OA
ATOM      6  H   UNL A   1      31.921  26.618  26.461  1.00  0.00     0.163 HD
BRANCH   4   7
ATOM      7  C   UNL A   1      32.607  23.679  25.012  1.00  0.00     0.120 C 
ATOM      8  N   UNL A   1      32.833  24.530  22.754  1.00  0.00    -0.336 N 
ATOM      9  C   UNL A   1      34.052  23.850  22.963  1.00  0.00     0.125 C 
ATOM     10  C   UNL A   1      31.854  24.162  23.749  1.00  0.00     0.143 C 
ATOM     11  C   UNL A   1      34.097  23.651  24.481  1.00  0.00     0.037 C 
ATOM     12  C   UNL A   1      34.823  22.312  24.660  1.00  0.00     0.068 C 
ATOM     13  C   UNL A   1      32.331  22.297  25.684  1.00  0.00     0.281 C 
ATOM     14  C   UNL A   1      34.775  21.881  26.096  1.00  0.00     0.262 C 
ATOM     15  N   UNL A   1      33.397  21.735  26.571  1.00  0.00    -0.336 N 
ATOM     16  C   UNL A   1      33.355  22.145  27.976  1.00  0.00     0.332 C 
ATOM     17  H   UNL A   1      33.136  20.751  26.516  1.00  0.00     0.347 HD
BRANCH   8  18
ATOM     18  C   UNL A   1      32.704  25.440  21.725  1.00  0.00     0.273 C 
ATOM     19  O   UNL A   1      33.207  25.230  20.625  1.00  0.00    -0.267 OA
BRANCH  18  20
ATOM     20  C   UNL A   1      32.108  26.746  22.066  1.00  0.00     0.139 A 
ATOM     21  C   UNL A   1      29.096  28.686  22.864  1.00  0.00     0.079 C 
ATOM     22  C   UNL A   1      30.464  28.154  22.603  1.00  0.00     0.090 A 
ATOM     23  N   UNL A   1      30.731  26.999  22.024  1.00  0.00    -0.236 NA
ATOM     24  S   UNL A   1      31.833  29.059  23.112  1.00  0.00    -0.127 S 
ATOM     25  C   UNL A   1      32.851  27.781  22.611  1.00  0.00     0.101 A 
ENDBRANCH  18  20
ENDBRANCH   8  18
ENDBRANCH   4   7
ENDBRANCH   2   3
ENDBRANCH   1   2
BRANCH   1  26
ATOM     26  C   UNL A   1      33.454  28.580  27.433  1.00  0.00     0.118 C 
BRANCH  26  27
ATOM     27  N   UNL A   1      33.606  30.012  27.675  1.00  0.00    -0.352 N 
ATOM     28  C   UNL A   1      34.605  30.756  28.248  1.00  0.00     0.251 C 
ATOM     29  H   UNL A   1      32.840  30.548  27.366  1.00  0.00     0.163 HD
ATOM     30  O   UNL A   1      34.367  31.917  28.573  1.00  0.00    -0.269 OA
BRANCH  28  31
ATOM     31  C   UNL A   1      35.956  30.203  28.482  1.00  0.00     0.039 A 
ATOM     32  C   UNL A   1      36.889  30.231  27.437  1.00  0.00     0.014 A 
ATOM     33  C   UNL A   1      36.290  29.588  29.689  1.00  0.00     0.014 A 
ATOM     34  C   UNL A   1      38.176  29.722  27.633  1.00  0.00     0.010 A 
ATOM     35  C   UNL A   1      37.594  29.144  29.908  1.00  0.00     0.010 A 
ATOM     36  C   UNL A   1      38.555  29.219  28.888  1.00  0.00    -0.014 A 
BRANCH  36  37
ATOM     37  C   UNL A   1      39.958  28.819  29.169  1.00  0.00     0.031 A 
ATOM     38  C   UNL A   1      40.928  29.790  29.784  1.00  0.00     0.074 A 
ATOM     39  C   UNL A   1      40.382  27.601  28.777  1.00  0.00     0.049 A 
ATOM     40  N   UNL A   1      42.211  29.648  30.005  1.00  0.00    -0.248 NA
ATOM     41  C   UNL A   1      40.392  31.100  30.184  1.00  0.00     0.031 C 
ATOM     42  C   UNL A   1      39.552  26.587  28.123  1.00  0.00     0.029 A 
ATOM     43  N   UNL A   1      41.621  27.013  28.852  1.00  0.00    -0.354 N 
ATOM     44  C   UNL A   1      42.638  30.853  30.550  1.00  0.00     0.074 A 
ATOM     45  C   UNL A   1      41.487  31.729  30.588  1.00  0.00     0.031 C 
ATOM     46  C   UNL A   1      40.297  25.502  27.867  1.00  0.00     0.029 A 
ATOM     47  C   UNL A   1      41.668  25.757  28.295  1.00  0.00     0.049 A 
ATOM     48  H   UNL A   1      42.400  27.449  29.266  1.00  0.00     0.167 HD
ATOM     49  C   UNL A   1      43.874  31.189  30.991  1.00  0.00     0.037 A 
ATOM     50  C   UNL A   1      42.704  24.912  28.126  1.00  0.00     0.037 A 
ATOM     51  C   UNL A   1      45.011  30.306  30.969  1.00  0.00     0.049 A 
ATOM     52  C   UNL A   1      44.068  25.319  28.610  1.00  0.00     0.074 A 
ATOM     53  C   UNL A   1      46.284  30.528  31.464  1.00  0.00     0.029 A 
ATOM     54  N   UNL A   1      45.016  29.035  30.412  1.00  0.00    -0.354 N 
ATOM     55  N   UNL A   1      44.437  26.429  29.202  1.00  0.00    -0.248 NA
ATOM     56  C   UNL A   1      45.158  24.355  28.408  1.00  0.00     0.031 C 
ATOM     57  C   UNL A   1      47.074  29.416  31.154  1.00  0.00     0.029 A 
ATOM     58  C   UNL A   1      46.280  28.477  30.518  1.00  0.00     0.049 A 
ATOM     59  H   UNL A   1      44.236  28.595  30.002  1.00  0.00     0.167 HD
ATOM     60  C   UNL A   1      45.794  26.290  29.459  1.00  0.00     0.074 A 
ATOM     61  C   UNL A   1      46.178  24.978  28.981  1.00  0.00     0.031 C 
ATOM     62  C   UNL A   1      46.647  27.170  30.037  1.00  0.00     0.037 A 
BRANCH  49  63
ATOM     63  C   UNL A   1      44.070  32.575  31.537  1.00  0.00     0.057 A 
ATOM     64  C   UNL A   1      43.910  32.866  32.898  1.00  0.00     0.134 A 
ATOM     65  C   UNL A   1      44.485  33.619  30.700  1.00  0.00     0.134 A 
ATOM     66  F   UNL A   1      43.506  31.915  33.754  1.00  0.00    -0.206 F 
ATOM     67  C   UNL A   1      44.133  34.148  33.403  1.00  0.00     0.040 A 
ATOM     68  C   UNL A   1      44.740  34.899  31.197  1.00  0.00     0.040 A 
ATOM     69  F   UNL A   1      44.668  33.410  29.388  1.00  0.00    -0.206 F 
ATOM     70  C   UNL A   1      44.559  35.167  32.552  1.00  0.00     0.006 A 
ENDBRANCH  49  63
BRANCH  50  71
ATOM     71  C   UNL A   1      42.494  23.599  27.461  1.00  0.00     0.057 A 
ATOM     72  C   UNL A   1      42.196  22.452  28.204  1.00  0.00     0.134 A 
ATOM     73  C   UNL A   1      42.603  23.457  26.072  1.00  0.00     0.134 A 
ATOM     74  F   UNL A   1      42.098  22.519  29.540  1.00  0.00    -0.206 F 
ATOM     75  C   UNL A   1      42.037  21.206  27.594  1.00  0.00     0.040 A 
ATOM     76  C   UNL A   1      42.416  22.224  25.446  1.00  0.00     0.040 A 
ATOM     77  F   UNL A   1      42.877  24.520  25.301  1.00  0.00    -0.206 F 
ATOM     78  C   UNL A   1      42.142  21.091  26.209  1.00  0.00     0.006 A 
ENDBRANCH  50  71
BRANCH  62  79
ATOM     79  C   UNL A   1      48.075  26.735  30.204  1.00  0.00     0.057 A 
ATOM     80  C   UNL A   1      49.061  27.059  29.264  1.00  0.00     0.134 A 
ATOM     81  C   UNL A   1      48.475  26.022  31.343  1.00  0.00     0.134 A 
ATOM     82  F   UNL A   1      48.741  27.728  28.147  1.00  0.00    -0.206 F 
ATOM     83  C   UNL A   1      50.390  26.670  29.439  1.00  0.00     0.040 A 
ATOM     84  C   UNL A   1      49.806  25.653  31.541  1.00  0.00     0.040 A 
ATOM     85  F   UNL A   1      47.582  25.687  32.286  1.00  0.00    -0.206 F 
ATOM     86  C   UNL A   1      50.767  25.972  30.584  1.00  0.00     0.006 A 
ENDBRANCH  62  79
ENDBRANCH  36  37
ENDBRANCH  28  31
ENDBRANCH  26  27
ENDBRANCH   1  26
TORSDOF 12
ENDMDL
