MODEL 1
REMARK VINA RESULT:     -10.6      0.000      0.000
REMARK SMILES CCN(CC(C)(C)O)C(=O)[C@H]1CC=CC[C@H]1C(=O)NCCCNC(=O)c1ccc(-c2c3nc(c(-c4c(F)cccc4F)c4ccc([nH]4)c(-c4c(F)cccc4F)c4nc(c(-c5c(F)cccc5F)c5ccc2[nH]5)C=C4)C=C3)cc1
REMARK SMILES IDX 17 1 18 2 19 3 16 5 11 6 12 7 13 8 15 9 14 10 9 11 10 12
REMARK SMILES IDX 3 13 2 14 1 15 4 16 5 17 6 18 7 19 8 20 20 22 21 23 22 24
REMARK SMILES IDX 23 25 24 26 25 28 26 29 27 30 79 31 28 32 78 33 29 34 30 35
REMARK SMILES IDX 31 36 72 37 32 38 77 39 71 40 73 41 33 42 76 43 70 44 69 45
REMARK SMILES IDX 34 47 60 48 43 49 59 50 44 51 47 52 58 53 74 54 45 55 46 56
REMARK SMILES IDX 57 58 75 59 48 60 35 61 36 62 41 63 37 64 38 65 40 66 42 67
REMARK SMILES IDX 39 68 61 69 62 70 67 71 63 72 64 73 66 74 68 75 65 76 49 77
REMARK SMILES IDX 50 78 55 79 51 80 52 81 54 82 56 83 53 84
REMARK H PARENT 19 4 8 21 23 27 73 46 47 57
REMARK Flexibility Score: inf
ROOT
ATOM      1  C   UNL A   1      30.865  25.756  26.058  1.00  0.00     0.224 C 
ATOM      2  O   UNL A   1      30.264  24.798  26.580  1.00  0.00    -0.275 OA
ATOM      3  N   UNL A   1      31.084  26.762  26.924  1.00  0.00    -0.356 N 
ATOM      4  H   UNL A   1      30.846  26.518  27.848  1.00  0.00     0.163 HD
ENDROOT
BRANCH   1   5
ATOM      5  C   UNL A   1      31.375  25.560  24.617  1.00  0.00     0.095 C 
ATOM      6  C   UNL A   1      30.769  26.117  23.291  1.00  0.00     0.095 C 
ATOM      7  C   UNL A   1      31.563  25.749  22.022  1.00  0.00     0.041 C 
ATOM      8  C   UNL A   1      33.039  25.575  22.195  1.00  0.00    -0.030 C 
ATOM      9  C   UNL A   1      32.920  25.479  24.696  1.00  0.00     0.041 C 
ATOM     10  C   UNL A   1      33.641  25.441  23.382  1.00  0.00    -0.030 C 
BRANCH   6  11
ATOM     11  C   UNL A   1      29.887  27.382  23.221  1.00  0.00     0.226 C 
ATOM     12  O   UNL A   1      28.693  27.178  23.495  1.00  0.00    -0.275 OA
BRANCH  11  13
ATOM     13  N   UNL A   1      30.295  28.673  22.893  1.00  0.00    -0.340 N 
BRANCH  13  14
ATOM     14  C   UNL A   1      31.478  29.247  23.589  1.00  0.00     0.116 C 
ATOM     15  C   UNL A   1      32.843  29.096  22.919  1.00  0.00     0.027 C 
ENDBRANCH  13  14
BRANCH  13  16
ATOM     16  C   UNL A   1      29.748  29.560  21.846  1.00  0.00     0.154 C 
BRANCH  16  17
ATOM     17  C   UNL A   1      28.433  30.336  22.173  1.00  0.00     0.077 C 
ATOM     18  C   UNL A   1      28.555  31.119  23.463  1.00  0.00     0.043 C 
ATOM     19  C   UNL A   1      28.147  31.330  21.039  1.00  0.00     0.043 C 
BRANCH  17  20
ATOM     20  O   UNL A   1      27.319  29.452  22.284  1.00  0.00    -0.389 OA
ATOM     21  H   UNL A   1      27.610  28.542  22.117  1.00  0.00     0.211 HD
ENDBRANCH  17  20
ENDBRANCH  16  17
ENDBRANCH  13  16
ENDBRANCH  11  13
ENDBRANCH   6  11
ENDBRANCH   1   5
BRANCH   3  22
ATOM     22  C   UNL A   1      31.585  28.114  26.827  1.00  0.00     0.117 C 
BRANCH  22  23
ATOM     23  C   UNL A   1      33.054  28.194  27.233  1.00  0.00     0.042 C 
BRANCH  23  24
ATOM     24  C   UNL A   1      33.881  29.141  26.385  1.00  0.00     0.118 C 
BRANCH  24  25
ATOM     25  N   UNL A   1      33.850  30.513  26.882  1.00  0.00    -0.352 N 
ATOM     26  C   UNL A   1      34.617  31.197  27.795  1.00  0.00     0.251 C 
ATOM     27  H   UNL A   1      33.134  31.059  26.483  1.00  0.00     0.163 HD
ATOM     28  O   UNL A   1      34.230  32.301  28.167  1.00  0.00    -0.269 OA
BRANCH  26  29
ATOM     29  C   UNL A   1      35.878  30.647  28.357  1.00  0.00     0.039 A 
ATOM     30  C   UNL A   1      35.799  29.698  29.386  1.00  0.00     0.014 A 
ATOM     31  C   UNL A   1      37.133  31.088  27.947  1.00  0.00     0.014 A 
ATOM     32  C   UNL A   1      36.966  29.160  29.943  1.00  0.00     0.010 A 
ATOM     33  C   UNL A   1      38.286  30.454  28.400  1.00  0.00     0.010 A 
ATOM     34  C   UNL A   1      38.223  29.501  29.423  1.00  0.00    -0.014 A 
BRANCH  34  35
ATOM     35  C   UNL A   1      39.485  28.910  29.947  1.00  0.00     0.031 A 
ATOM     36  C   UNL A   1      40.144  29.497  31.171  1.00  0.00     0.074 A 
ATOM     37  C   UNL A   1      40.084  27.904  29.279  1.00  0.00     0.049 A 
ATOM     38  N   UNL A   1      41.301  29.203  31.712  1.00  0.00    -0.248 NA
ATOM     39  C   UNL A   1      39.428  30.586  31.856  1.00  0.00     0.031 C 
ATOM     40  C   UNL A   1      39.582  27.285  28.051  1.00  0.00     0.029 A 
ATOM     41  N   UNL A   1      41.255  27.234  29.532  1.00  0.00    -0.354 N 
ATOM     42  C   UNL A   1      41.459  30.090  32.771  1.00  0.00     0.074 A 
ATOM     43  C   UNL A   1      40.314  30.971  32.761  1.00  0.00     0.031 C 
ATOM     44  C   UNL A   1      40.423  26.309  27.674  1.00  0.00     0.029 A 
ATOM     45  C   UNL A   1      41.548  26.266  28.601  1.00  0.00     0.049 A 
ATOM     46  H   UNL A   1      41.831  27.428  30.306  1.00  0.00     0.167 HD
ATOM     47  C   UNL A   1      42.456  30.149  33.688  1.00  0.00     0.037 A 
ATOM     48  C   UNL A   1      42.611  25.445  28.499  1.00  0.00     0.037 A 
ATOM     49  C   UNL A   1      43.573  29.243  33.720  1.00  0.00     0.049 A 
ATOM     50  C   UNL A   1      43.699  25.523  29.534  1.00  0.00     0.074 A 
ATOM     51  C   UNL A   1      44.594  29.168  34.651  1.00  0.00     0.029 A 
ATOM     52  N   UNL A   1      43.814  28.255  32.779  1.00  0.00    -0.354 N 
ATOM     53  N   UNL A   1      43.797  26.317  30.573  1.00  0.00    -0.248 NA
ATOM     54  C   UNL A   1      44.820  24.585  29.387  1.00  0.00     0.031 C 
ATOM     55  C   UNL A   1      45.482  28.168  34.243  1.00  0.00     0.029 A 
ATOM     56  C   UNL A   1      44.982  27.580  33.092  1.00  0.00     0.049 A 
ATOM     57  H   UNL A   1      43.240  28.060  32.002  1.00  0.00     0.167 HD
ATOM     58  C   UNL A   1      44.973  25.956  31.217  1.00  0.00     0.074 A 
ATOM     59  C   UNL A   1      45.544  24.861  30.462  1.00  0.00     0.031 C 
ATOM     60  C   UNL A   1      45.531  26.485  32.334  1.00  0.00     0.037 A 
BRANCH  47  61
ATOM     61  C   UNL A   1      42.378  31.225  34.735  1.00  0.00     0.057 A 
ATOM     62  C   UNL A   1      41.713  31.031  35.953  1.00  0.00     0.134 A 
ATOM     63  C   UNL A   1      43.009  32.461  34.536  1.00  0.00     0.134 A 
ATOM     64  F   UNL A   1      41.078  29.876  36.205  1.00  0.00    -0.206 F 
ATOM     65  C   UNL A   1      41.650  32.036  36.921  1.00  0.00     0.040 A 
ATOM     66  C   UNL A   1      42.980  33.461  35.511  1.00  0.00     0.040 A 
ATOM     67  F   UNL A   1      43.671  32.714  33.398  1.00  0.00    -0.206 F 
ATOM     68  C   UNL A   1      42.293  33.252  36.704  1.00  0.00     0.006 A 
ENDBRANCH  47  61
BRANCH  48  69
ATOM     69  C   UNL A   1      42.691  24.466  27.384  1.00  0.00     0.057 A 
ATOM     70  C   UNL A   1      42.206  23.160  27.533  1.00  0.00     0.134 A 
ATOM     71  C   UNL A   1      43.259  24.804  26.149  1.00  0.00     0.134 A 
ATOM     72  F   UNL A   1      41.667  22.770  28.696  1.00  0.00    -0.206 F 
ATOM     73  C   UNL A   1      42.304  22.221  26.504  1.00  0.00     0.040 A 
ATOM     74  C   UNL A   1      43.336  23.883  25.103  1.00  0.00     0.040 A 
ATOM     75  F   UNL A   1      43.734  26.040  25.938  1.00  0.00    -0.206 F 
ATOM     76  C   UNL A   1      42.866  22.584  25.283  1.00  0.00     0.006 A 
ENDBRANCH  48  69
BRANCH  60  77
ATOM     77  C   UNL A   1      46.802  25.858  32.831  1.00  0.00     0.057 A 
ATOM     78  C   UNL A   1      46.800  24.807  33.757  1.00  0.00     0.134 A 
ATOM     79  C   UNL A   1      48.043  26.285  32.341  1.00  0.00     0.134 A 
ATOM     80  F   UNL A   1      45.646  24.359  34.274  1.00  0.00    -0.206 F 
ATOM     81  C   UNL A   1      47.988  24.222  34.198  1.00  0.00     0.040 A 
ATOM     82  C   UNL A   1      49.235  25.688  32.751  1.00  0.00     0.040 A 
ATOM     83  F   UNL A   1      48.116  27.280  31.444  1.00  0.00    -0.206 F 
ATOM     84  C   UNL A   1      49.209  24.658  33.688  1.00  0.00     0.006 A 
ENDBRANCH  60  77
ENDBRANCH  34  35
ENDBRANCH  26  29
ENDBRANCH  24  25
ENDBRANCH  23  24
ENDBRANCH  22  23
ENDBRANCH   3  22
TORSDOF 16
ENDMDL
MODEL 2
REMARK VINA RESULT:     -10.5      1.965      2.395
REMARK SMILES CCN(CC(C)(C)O)C(=O)[C@H]1CC=CC[C@H]1C(=O)NCCCNC(=O)c1ccc(-c2c3nc(c(-c4c(F)cccc4F)c4ccc([nH]4)c(-c4c(F)cccc4F)c4nc(c(-c5c(F)cccc5F)c5ccc2[nH]5)C=C4)C=C3)cc1
REMARK SMILES IDX 17 1 18 2 19 3 16 5 11 6 12 7 13 8 15 9 14 10 9 11 10 12
REMARK SMILES IDX 3 13 2 14 1 15 4 16 5 17 6 18 7 19 8 20 20 22 21 23 22 24
REMARK SMILES IDX 23 25 24 26 25 28 26 29 27 30 79 31 28 32 78 33 29 34 30 35
REMARK SMILES IDX 31 36 72 37 32 38 77 39 71 40 73 41 33 42 76 43 70 44 69 45
REMARK SMILES IDX 34 47 60 48 43 49 59 50 44 51 47 52 58 53 74 54 45 55 46 56
REMARK SMILES IDX 57 58 75 59 48 60 35 61 36 62 41 63 37 64 38 65 40 66 42 67
REMARK SMILES IDX 39 68 61 69 62 70 67 71 63 72 64 73 66 74 68 75 65 76 49 77
REMARK SMILES IDX 50 78 55 79 51 80 52 81 54 82 56 83 53 84
REMARK H PARENT 19 4 8 21 23 27 73 46 47 57
REMARK Flexibility Score: inf
ROOT
ATOM      1  C   UNL A   1      30.678  25.950  26.183  1.00  0.00     0.224 C 
ATOM      2  O   UNL A   1      29.952  25.080  26.697  1.00  0.00    -0.275 OA
ATOM      3  N   UNL A   1      31.023  26.915  27.054  1.00  0.00    -0.356 N 
ATOM      4  H   UNL A   1      30.748  26.703  27.975  1.00  0.00     0.163 HD
ENDROOT
BRANCH   1   5
ATOM      5  C   UNL A   1      31.168  25.692  24.744  1.00  0.00     0.095 C 
ATOM      6  C   UNL A   1      30.549  26.199  23.404  1.00  0.00     0.095 C 
ATOM      7  C   UNL A   1      31.323  25.773  22.142  1.00  0.00     0.041 C 
ATOM      8  C   UNL A   1      32.800  25.597  22.303  1.00  0.00    -0.030 C 
ATOM      9  C   UNL A   1      32.713  25.604  24.807  1.00  0.00     0.041 C 
ATOM     10  C   UNL A   1      33.417  25.508  23.486  1.00  0.00    -0.030 C 
BRANCH   6  11
ATOM     11  C   UNL A   1      29.674  27.465  23.294  1.00  0.00     0.226 C 
ATOM     12  O   UNL A   1      28.463  27.257  23.471  1.00  0.00    -0.275 OA
BRANCH  11  13
ATOM     13  N   UNL A   1      30.104  28.762  23.026  1.00  0.00    -0.340 N 
BRANCH  13  14
ATOM     14  C   UNL A   1      31.271  29.298  23.779  1.00  0.00     0.116 C 
ATOM     15  C   UNL A   1      32.659  29.123  23.164  1.00  0.00     0.027 C 
ENDBRANCH  13  14
BRANCH  13  16
ATOM     16  C   UNL A   1      29.599  29.693  21.995  1.00  0.00     0.154 C 
BRANCH  16  17
ATOM     17  C   UNL A   1      28.325  30.526  22.338  1.00  0.00     0.077 C 
ATOM     18  C   UNL A   1      28.486  31.281  23.641  1.00  0.00     0.043 C 
ATOM     19  C   UNL A   1      28.086  31.552  21.222  1.00  0.00     0.043 C 
BRANCH  17  20
ATOM     20  O   UNL A   1      27.169  29.696  22.437  1.00  0.00    -0.389 OA
ATOM     21  H   UNL A   1      26.879  29.653  23.361  1.00  0.00     0.211 HD
ENDBRANCH  17  20
ENDBRANCH  16  17
ENDBRANCH  13  16
ENDBRANCH  11  13
ENDBRANCH   6  11
ENDBRANCH   1   5
BRANCH   3  22
ATOM     22  C   UNL A   1      31.701  28.189  26.965  1.00  0.00     0.117 C 
BRANCH  22  23
ATOM     23  C   UNL A   1      33.196  28.044  27.232  1.00  0.00     0.042 C 
BRANCH  23  24
ATOM     24  C   UNL A   1      34.035  29.186  26.693  1.00  0.00     0.118 C 
BRANCH  24  25
ATOM     25  N   UNL A   1      33.991  30.368  27.548  1.00  0.00    -0.352 N 
ATOM     26  C   UNL A   1      34.856  30.878  28.487  1.00  0.00     0.251 C 
ATOM     27  H   UNL A   1      33.178  30.910  27.427  1.00  0.00     0.163 HD
ATOM     28  O   UNL A   1      34.459  31.794  29.203  1.00  0.00    -0.269 OA
BRANCH  26  29
ATOM     29  C   UNL A   1      36.233  30.356  28.679  1.00  0.00     0.039 A 
ATOM     30  C   UNL A   1      37.136  30.430  27.609  1.00  0.00     0.014 A 
ATOM     31  C   UNL A   1      36.640  29.738  29.857  1.00  0.00     0.014 A 
ATOM     32  C   UNL A   1      38.443  29.945  27.752  1.00  0.00     0.010 A 
ATOM     33  C   UNL A   1      37.973  29.385  30.046  1.00  0.00     0.010 A 
ATOM     34  C   UNL A   1      38.888  29.458  28.988  1.00  0.00    -0.014 A 
BRANCH  34  35
ATOM     35  C   UNL A   1      40.283  28.985  29.200  1.00  0.00     0.031 A 
ATOM     36  C   UNL A   1      41.310  29.907  29.810  1.00  0.00     0.074 A 
ATOM     37  C   UNL A   1      40.651  27.762  28.769  1.00  0.00     0.049 A 
ATOM     38  N   UNL A   1      42.599  29.726  29.967  1.00  0.00    -0.248 NA
ATOM     39  C   UNL A   1      40.836  31.223  30.267  1.00  0.00     0.031 C 
ATOM     40  C   UNL A   1      39.771  26.794  28.110  1.00  0.00     0.029 A 
ATOM     41  N   UNL A   1      41.868  27.127  28.807  1.00  0.00    -0.354 N 
ATOM     42  C   UNL A   1      43.084  30.912  30.507  1.00  0.00     0.074 A 
ATOM     43  C   UNL A   1      41.968  31.826  30.593  1.00  0.00     0.031 C 
ATOM     44  C   UNL A   1      40.467  25.681  27.833  1.00  0.00     0.029 A 
ATOM     45  C   UNL A   1      41.853  25.872  28.246  1.00  0.00     0.049 A 
ATOM     46  H   UNL A   1      42.675  27.532  29.199  1.00  0.00     0.167 HD
ATOM     47  C   UNL A   1      44.341  31.206  30.919  1.00  0.00     0.037 A 
ATOM     48  C   UNL A   1      42.848  24.981  28.071  1.00  0.00     0.037 A 
ATOM     49  C   UNL A   1      45.440  30.278  30.872  1.00  0.00     0.049 A 
ATOM     50  C   UNL A   1      44.233  25.327  28.546  1.00  0.00     0.074 A 
ATOM     51  C   UNL A   1      46.732  30.449  31.336  1.00  0.00     0.029 A 
ATOM     52  N   UNL A   1      45.375  29.005  30.327  1.00  0.00    -0.354 N 
ATOM     53  N   UNL A   1      44.660  26.424  29.123  1.00  0.00    -0.248 NA
ATOM     54  C   UNL A   1      45.272  24.306  28.354  1.00  0.00     0.031 C 
ATOM     55  C   UNL A   1      47.463  29.299  31.024  1.00  0.00     0.029 A 
ATOM     56  C   UNL A   1      46.610  28.388  30.420  1.00  0.00     0.049 A 
ATOM     57  H   UNL A   1      44.568  28.599  29.931  1.00  0.00     0.167 HD
ATOM     58  C   UNL A   1      46.007  26.215  29.387  1.00  0.00     0.074 A 
ATOM     59  C   UNL A   1      46.322  24.881  28.923  1.00  0.00     0.031 C 
ATOM     60  C   UNL A   1      46.904  27.054  29.962  1.00  0.00     0.037 A 
BRANCH  47  61
ATOM     61  C   UNL A   1      44.592  32.583  31.465  1.00  0.00     0.057 A 
ATOM     62  C   UNL A   1      44.456  32.880  32.828  1.00  0.00     0.134 A 
ATOM     63  C   UNL A   1      45.012  33.620  30.620  1.00  0.00     0.134 A 
ATOM     64  F   UNL A   1      44.048  31.937  33.692  1.00  0.00    -0.206 F 
ATOM     65  C   UNL A   1      44.696  34.162  33.326  1.00  0.00     0.040 A 
ATOM     66  C   UNL A   1      45.286  34.898  31.113  1.00  0.00     0.040 A 
ATOM     67  F   UNL A   1      45.171  33.407  29.306  1.00  0.00    -0.206 F 
ATOM     68  C   UNL A   1      45.121  35.174  32.468  1.00  0.00     0.006 A 
ENDBRANCH  47  61
BRANCH  48  69
ATOM     69  C   UNL A   1      42.569  23.670  27.431  1.00  0.00     0.057 A 
ATOM     70  C   UNL A   1      42.220  22.551  28.198  1.00  0.00     0.134 A 
ATOM     71  C   UNL A   1      42.652  23.498  26.043  1.00  0.00     0.134 A 
ATOM     72  F   UNL A   1      42.141  22.647  29.532  1.00  0.00    -0.206 F 
ATOM     73  C   UNL A   1      41.986  21.305  27.613  1.00  0.00     0.040 A 
ATOM     74  C   UNL A   1      42.393  22.264  25.442  1.00  0.00     0.040 A 
ATOM     75  F   UNL A   1      42.974  24.531  25.251  1.00  0.00    -0.206 F 
ATOM     76  C   UNL A   1      42.068  21.162  26.229  1.00  0.00     0.006 A 
ENDBRANCH  48  69
BRANCH  60  77
ATOM     77  C   UNL A   1      48.300  26.538  30.160  1.00  0.00     0.057 A 
ATOM     78  C   UNL A   1      48.672  25.821  31.304  1.00  0.00     0.134 A 
ATOM     79  C   UNL A   1      49.273  26.725  29.169  1.00  0.00     0.134 A 
ATOM     80  F   UNL A   1      47.790  25.617  32.295  1.00  0.00    -0.206 F 
ATOM     81  C   UNL A   1      49.969  25.331  31.467  1.00  0.00     0.040 A 
ATOM     82  C   UNL A   1      50.563  26.214  29.308  1.00  0.00     0.040 A 
ATOM     83  F   UNL A   1      48.980  27.393  28.044  1.00  0.00    -0.206 F 
ATOM     84  C   UNL A   1      50.916  25.521  30.463  1.00  0.00     0.006 A 
ENDBRANCH  60  77
ENDBRANCH  34  35
ENDBRANCH  26  29
ENDBRANCH  24  25
ENDBRANCH  23  24
ENDBRANCH  22  23
ENDBRANCH   3  22
TORSDOF 16
ENDMDL
MODEL 3
REMARK VINA RESULT:     -10.3      4.652      8.909
REMARK SMILES CCN(CC(C)(C)O)C(=O)[C@H]1CC=CC[C@H]1C(=O)NCCCNC(=O)c1ccc(-c2c3nc(c(-c4c(F)cccc4F)c4ccc([nH]4)c(-c4c(F)cccc4F)c4nc(c(-c5c(F)cccc5F)c5ccc2[nH]5)C=C4)C=C3)cc1
REMARK SMILES IDX 17 1 18 2 19 3 16 5 11 6 12 7 13 8 15 9 14 10 9 11 10 12
REMARK SMILES IDX 3 13 2 14 1 15 4 16 5 17 6 18 7 19 8 20 20 22 21 23 22 24
REMARK SMILES IDX 23 25 24 26 25 28 26 29 27 30 79 31 28 32 78 33 29 34 30 35
REMARK SMILES IDX 31 36 72 37 32 38 77 39 71 40 73 41 33 42 76 43 70 44 69 45
REMARK SMILES IDX 34 47 60 48 43 49 59 50 44 51 47 52 58 53 74 54 45 55 46 56
REMARK SMILES IDX 57 58 75 59 48 60 35 61 36 62 41 63 37 64 38 65 40 66 42 67
REMARK SMILES IDX 39 68 61 69 62 70 67 71 63 72 64 73 66 74 68 75 65 76 49 77
REMARK SMILES IDX 50 78 55 79 51 80 52 81 54 82 56 83 53 84
REMARK H PARENT 19 4 8 21 23 27 73 46 47 57
REMARK Flexibility Score: inf
ROOT
ATOM      1  C   UNL A   1      33.812  23.667  22.902  1.00  0.00     0.224 C 
ATOM      2  O   UNL A   1      33.512  24.282  21.862  1.00  0.00    -0.275 OA
ATOM      3  N   UNL A   1      35.100  23.279  22.919  1.00  0.00    -0.356 N 
ATOM      4  H   UNL A   1      35.613  23.655  22.167  1.00  0.00     0.163 HD
ENDROOT
BRANCH   1   5
ATOM      5  C   UNL A   1      32.744  23.606  24.012  1.00  0.00     0.095 C 
ATOM      6  C   UNL A   1      31.920  22.372  24.496  1.00  0.00     0.095 C 
ATOM      7  C   UNL A   1      30.954  22.666  25.659  1.00  0.00     0.041 C 
ATOM      8  C   UNL A   1      31.372  23.747  26.606  1.00  0.00    -0.030 C 
ATOM      9  C   UNL A   1      33.165  24.629  25.095  1.00  0.00     0.041 C 
ATOM     10  C   UNL A   1      32.345  24.628  26.350  1.00  0.00    -0.030 C 
BRANCH   6  11
ATOM     11  C   UNL A   1      32.395  20.912  24.333  1.00  0.00     0.226 C 
ATOM     12  O   UNL A   1      32.159  20.429  23.214  1.00  0.00    -0.275 OA
BRANCH  11  13
ATOM     13  N   UNL A   1      33.034  20.126  25.288  1.00  0.00    -0.340 N 
BRANCH  13  14
ATOM     14  C   UNL A   1      34.167  20.713  26.055  1.00  0.00     0.116 C 
ATOM     15  C   UNL A   1      33.854  21.375  27.397  1.00  0.00     0.027 C 
ENDBRANCH  13  14
BRANCH  13  16
ATOM     16  C   UNL A   1      32.679  18.761  25.728  1.00  0.00     0.154 C 
BRANCH  16  17
ATOM     17  C   UNL A   1      33.038  17.579  24.773  1.00  0.00     0.077 C 
ATOM     18  C   UNL A   1      34.456  17.692  24.255  1.00  0.00     0.043 C 
ATOM     19  C   UNL A   1      32.919  16.260  25.549  1.00  0.00     0.043 C 
BRANCH  17  20
ATOM     20  O   UNL A   1      32.151  17.523  23.657  1.00  0.00    -0.389 OA
ATOM     21  H   UNL A   1      31.485  18.222  23.737  1.00  0.00     0.211 HD
ENDBRANCH  17  20
ENDBRANCH  16  17
ENDBRANCH  13  16
ENDBRANCH  11  13
ENDBRANCH   6  11
ENDBRANCH   1   5
BRANCH   3  22
ATOM     22  C   UNL A   1      35.914  22.443  23.773  1.00  0.00     0.117 C 
BRANCH  22  23
ATOM     23  C   UNL A   1      36.907  23.273  24.579  1.00  0.00     0.042 C 
BRANCH  23  24
ATOM     24  C   UNL A   1      37.107  22.789  26.003  1.00  0.00     0.118 C 
BRANCH  24  25
ATOM     25  N   UNL A   1      38.357  22.055  26.177  1.00  0.00    -0.352 N 
ATOM     26  C   UNL A   1      39.640  22.447  26.476  1.00  0.00     0.251 C 
ATOM     27  H   UNL A   1      38.261  21.083  26.057  1.00  0.00     0.163 HD
ATOM     28  O   UNL A   1      40.540  21.621  26.360  1.00  0.00    -0.269 OA
BRANCH  26  29
ATOM     29  C   UNL A   1      39.978  23.827  26.911  1.00  0.00     0.039 A 
ATOM     30  C   UNL A   1      40.538  24.014  28.183  1.00  0.00     0.014 A 
ATOM     31  C   UNL A   1      39.698  24.946  26.133  1.00  0.00     0.014 A 
ATOM     32  C   UNL A   1      40.867  25.300  28.629  1.00  0.00     0.010 A 
ATOM     33  C   UNL A   1      40.151  26.205  26.516  1.00  0.00     0.010 A 
ATOM     34  C   UNL A   1      40.718  26.405  27.781  1.00  0.00    -0.014 A 
BRANCH  34  35
ATOM     35  C   UNL A   1      41.107  27.781  28.194  1.00  0.00     0.031 A 
ATOM     36  C   UNL A   1      42.559  28.192  28.186  1.00  0.00     0.074 A 
ATOM     37  C   UNL A   1      40.171  28.634  28.655  1.00  0.00     0.049 A 
ATOM     38  N   UNL A   1      43.111  29.298  28.619  1.00  0.00    -0.248 NA
ATOM     39  C   UNL A   1      43.524  27.213  27.659  1.00  0.00     0.031 C 
ATOM     40  C   UNL A   1      38.740  28.343  28.769  1.00  0.00     0.029 A 
ATOM     41  N   UNL A   1      40.284  29.918  29.129  1.00  0.00    -0.354 N 
ATOM     42  C   UNL A   1      44.481  29.131  28.446  1.00  0.00     0.074 A 
ATOM     43  C   UNL A   1      44.682  27.797  27.928  1.00  0.00     0.031 C 
ATOM     44  C   UNL A   1      38.107  29.424  29.252  1.00  0.00     0.029 A 
ATOM     45  C   UNL A   1      39.089  30.466  29.530  1.00  0.00     0.049 A 
ATOM     46  H   UNL A   1      41.141  30.401  29.177  1.00  0.00     0.167 HD
ATOM     47  C   UNL A   1      45.480  30.017  28.673  1.00  0.00     0.037 A 
ATOM     48  C   UNL A   1      38.817  31.668  30.073  1.00  0.00     0.037 A 
ATOM     49  C   UNL A   1      45.272  31.359  29.148  1.00  0.00     0.049 A 
ATOM     50  C   UNL A   1      39.942  32.638  30.305  1.00  0.00     0.074 A 
ATOM     51  C   UNL A   1      46.207  32.361  29.336  1.00  0.00     0.029 A 
ATOM     52  N   UNL A   1      44.042  31.886  29.510  1.00  0.00    -0.354 N 
ATOM     53  N   UNL A   1      41.223  32.492  30.067  1.00  0.00    -0.248 NA
ATOM     54  C   UNL A   1      39.583  33.944  30.875  1.00  0.00     0.031 C 
ATOM     55  C   UNL A   1      45.550  33.478  29.862  1.00  0.00     0.029 A 
ATOM     56  C   UNL A   1      44.196  33.191  29.945  1.00  0.00     0.049 A 
ATOM     57  H   UNL A   1      43.184  31.403  29.465  1.00  0.00     0.167 HD
ATOM     58  C   UNL A   1      41.817  33.694  30.430  1.00  0.00     0.074 A 
ATOM     59  C   UNL A   1      40.754  34.563  30.889  1.00  0.00     0.031 C 
ATOM     60  C   UNL A   1      43.126  34.046  30.388  1.00  0.00     0.037 A 
BRANCH  47  61
ATOM     61  C   UNL A   1      46.888  29.565  28.401  1.00  0.00     0.057 A 
ATOM     62  C   UNL A   1      47.695  29.005  29.401  1.00  0.00     0.134 A 
ATOM     63  C   UNL A   1      47.431  29.658  27.112  1.00  0.00     0.134 A 
ATOM     64  F   UNL A   1      47.242  28.896  30.659  1.00  0.00    -0.206 F 
ATOM     65  C   UNL A   1      49.000  28.584  29.137  1.00  0.00     0.040 A 
ATOM     66  C   UNL A   1      48.724  29.210  26.831  1.00  0.00     0.040 A 
ATOM     67  F   UNL A   1      46.713  30.176  26.105  1.00  0.00    -0.206 F 
ATOM     68  C   UNL A   1      49.515  28.679  27.846  1.00  0.00     0.006 A 
ENDBRANCH  47  61
BRANCH  48  69
ATOM     69  C   UNL A   1      37.418  32.029  30.419  1.00  0.00     0.057 A 
ATOM     70  C   UNL A   1      36.883  31.723  31.677  1.00  0.00     0.134 A 
ATOM     71  C   UNL A   1      36.580  32.679  29.505  1.00  0.00     0.134 A 
ATOM     72  F   UNL A   1      37.629  31.086  32.590  1.00  0.00    -0.206 F 
ATOM     73  C   UNL A   1      35.560  32.028  32.005  1.00  0.00     0.040 A 
ATOM     74  C   UNL A   1      35.264  33.016  29.829  1.00  0.00     0.040 A 
ATOM     75  F   UNL A   1      37.033  33.008  28.286  1.00  0.00    -0.206 F 
ATOM     76  C   UNL A   1      34.749  32.682  31.079  1.00  0.00     0.006 A 
ENDBRANCH  48  69
BRANCH  60  77
ATOM     77  C   UNL A   1      43.476  35.444  30.810  1.00  0.00     0.057 A 
ATOM     78  C   UNL A   1      43.814  35.758  32.132  1.00  0.00     0.134 A 
ATOM     79  C   UNL A   1      43.516  36.481  29.869  1.00  0.00     0.134 A 
ATOM     80  F   UNL A   1      43.783  34.814  33.085  1.00  0.00    -0.206 F 
ATOM     81  C   UNL A   1      44.154  37.059  32.508  1.00  0.00     0.040 A 
ATOM     82  C   UNL A   1      43.884  37.778  30.226  1.00  0.00     0.040 A 
ATOM     83  F   UNL A   1      43.215  36.246  28.583  1.00  0.00    -0.206 F 
ATOM     84  C   UNL A   1      44.197  38.071  31.551  1.00  0.00     0.006 A 
ENDBRANCH  60  77
ENDBRANCH  34  35
ENDBRANCH  26  29
ENDBRANCH  24  25
ENDBRANCH  23  24
ENDBRANCH  22  23
ENDBRANCH   3  22
TORSDOF 16
ENDMDL
