MODEL 1
REMARK VINA RESULT:     -13.3      0.000      0.000
REMARK SMILES Cc1ccccc1NC(=O)CSc1nc(C(=O)NCCCNC(=O)c2ccc(-c3c4nc(c(-c5c(F)cccc5F)c5ccc([nH]5)c(-c5c(F)cccc5F)c5nc(c(-c6c(F)cccc6F)c6ccc3[nH]6)C=C5)C=C4)cc2)c2ccccc2n1
REMARK SMILES IDX 19 1 18 2 16 3 17 4 15 6 13 7 14 8 85 9 84 10 79 11 83 12
REMARK SMILES IDX 80 13 82 14 81 15 12 16 11 17 9 18 8 19 10 21 7 22 1 23 2 24
REMARK SMILES IDX 3 25 4 26 6 27 5 28 20 29 21 30 22 31 23 32 24 34 25 35
REMARK SMILES IDX 26 36 78 37 27 38 77 39 28 40 29 41 30 42 71 43 31 44 76 45
REMARK SMILES IDX 70 46 72 47 32 48 75 49 69 50 68 51 33 53 59 54 42 55 58 56
REMARK SMILES IDX 43 57 46 58 57 59 73 60 44 61 45 62 56 64 74 65 47 66 34 67
REMARK SMILES IDX 35 68 40 69 36 70 37 71 39 72 41 73 38 74 60 75 61 76 66 77
REMARK SMILES IDX 62 78 63 79 65 80 67 81 64 82 48 83 49 84 54 85 50 86 51 87
REMARK SMILES IDX 53 88 55 89 52 90
REMARK H PARENT 18 5 8 20 22 33 72 52 46 63
REMARK Flexibility Score: inf
ROOT
ATOM      1  C   UNL A   1      34.210  29.762  27.048  1.00  0.00     0.118 C 
ENDROOT
BRANCH   1   2
ATOM      2  N   UNL A   1      33.010  29.238  27.676  1.00  0.00    -0.351 N 
ATOM      3  C   UNL A   1      32.232  28.149  27.312  1.00  0.00     0.270 C 
ATOM      4  O   UNL A   1      31.305  27.827  28.055  1.00  0.00    -0.267 OA
ATOM      5  H   UNL A   1      32.707  29.725  28.477  1.00  0.00     0.163 HD
BRANCH   3   6
ATOM      6  C   UNL A   1      32.427  27.441  25.999  1.00  0.00     0.140 A 
ATOM      7  C   UNL A   1      33.198  25.518  25.072  1.00  0.00     0.189 A 
ATOM      8  N   UNL A   1      33.186  26.329  26.123  1.00  0.00    -0.217 NA
ATOM      9  N   UNL A   1      32.421  25.650  23.992  1.00  0.00    -0.222 NA
ATOM     10  C   UNL A   1      31.691  26.764  23.887  1.00  0.00     0.076 A 
ATOM     11  C   UNL A   1      31.744  27.793  24.827  1.00  0.00     0.032 A 
ATOM     12  C   UNL A   1      30.808  26.888  22.822  1.00  0.00     0.029 A 
ATOM     13  C   UNL A   1      31.065  29.013  24.563  1.00  0.00     0.013 A 
ATOM     14  C   UNL A   1      30.026  28.032  22.640  1.00  0.00     0.002 A 
ATOM     15  C   UNL A   1      30.182  29.116  23.492  1.00  0.00     0.001 A 
BRANCH   7  16
ATOM     16  S   UNL A   1      34.273  24.119  25.120  1.00  0.00    -0.076 SA
BRANCH  16  17
ATOM     17  C   UNL A   1      33.737  23.390  26.697  1.00  0.00     0.178 C 
BRANCH  17  18
ATOM     18  C   UNL A   1      32.278  22.983  26.723  1.00  0.00     0.234 C 
ATOM     19  N   UNL A   1      31.746  21.912  26.072  1.00  0.00    -0.325 N 
ATOM     20  H   UNL A   1      30.769  21.863  26.183  1.00  0.00     0.169 HD
ATOM     21  O   UNL A   1      31.469  23.665  27.368  1.00  0.00    -0.274 OA
BRANCH  19  22
ATOM     22  C   UNL A   1      32.242  20.858  25.278  1.00  0.00     0.044 A 
ATOM     23  C   UNL A   1      31.745  22.214  23.118  1.00  0.00     0.046 C 
ATOM     24  C   UNL A   1      32.180  20.980  23.868  1.00  0.00    -0.027 A 
ATOM     25  C   UNL A   1      32.521  19.872  23.063  1.00  0.00     0.005 A 
ATOM     26  C   UNL A   1      32.963  18.681  23.626  1.00  0.00     0.000 A 
ATOM     27  C   UNL A   1      32.772  19.682  25.812  1.00  0.00     0.026 A 
ATOM     28  C   UNL A   1      33.114  18.596  25.000  1.00  0.00     0.002 A 
ENDBRANCH  19  22
ENDBRANCH  17  18
ENDBRANCH  16  17
ENDBRANCH   7  16
ENDBRANCH   3   6
ENDBRANCH   1   2
BRANCH   1  29
ATOM     29  C   UNL A   1      34.602  31.164  27.448  1.00  0.00     0.042 C 
BRANCH  29  30
ATOM     30  C   UNL A   1      34.847  31.326  28.936  1.00  0.00     0.118 C 
BRANCH  30  31
ATOM     31  N   UNL A   1      36.072  32.063  29.281  1.00  0.00    -0.352 N 
ATOM     32  C   UNL A   1      37.387  31.615  29.200  1.00  0.00     0.251 C 
ATOM     33  H   UNL A   1      35.946  32.982  29.610  1.00  0.00     0.163 HD
ATOM     34  O   UNL A   1      38.331  32.376  29.313  1.00  0.00    -0.269 OA
BRANCH  32  35
ATOM     35  C   UNL A   1      37.592  30.190  28.860  1.00  0.00     0.039 A 
ATOM     36  C   UNL A   1      37.719  29.303  29.931  1.00  0.00     0.014 A 
ATOM     37  C   UNL A   1      38.109  29.895  27.602  1.00  0.00     0.014 A 
ATOM     38  C   UNL A   1      38.645  28.275  29.827  1.00  0.00     0.010 A 
ATOM     39  C   UNL A   1      39.103  28.936  27.535  1.00  0.00     0.010 A 
ATOM     40  C   UNL A   1      39.441  28.207  28.684  1.00  0.00    -0.014 A 
BRANCH  40  41
ATOM     41  C   UNL A   1      40.753  27.560  28.699  1.00  0.00     0.031 A 
ATOM     42  C   UNL A   1      40.859  26.100  28.499  1.00  0.00     0.074 A 
ATOM     43  C   UNL A   1      41.879  28.294  28.881  1.00  0.00     0.049 A 
ATOM     44  N   UNL A   1      41.877  25.401  28.872  1.00  0.00    -0.248 NA
ATOM     45  C   UNL A   1      39.780  25.285  27.947  1.00  0.00     0.031 C 
ATOM     46  C   UNL A   1      43.263  27.862  28.682  1.00  0.00     0.029 A 
ATOM     47  N   UNL A   1      41.999  29.539  29.524  1.00  0.00    -0.354 N 
ATOM     48  C   UNL A   1      41.730  24.144  28.344  1.00  0.00     0.074 A 
ATOM     49  C   UNL A   1      40.357  24.080  27.919  1.00  0.00     0.031 C 
ATOM     50  C   UNL A   1      44.069  28.626  29.436  1.00  0.00     0.029 A 
ATOM     51  C   UNL A   1      43.221  29.490  30.235  1.00  0.00     0.049 A 
ATOM     52  H   UNL A   1      41.364  30.290  29.488  1.00  0.00     0.167 HD
ATOM     53  C   UNL A   1      42.835  23.365  28.194  1.00  0.00     0.037 A 
ATOM     54  C   UNL A   1      43.281  29.612  31.591  1.00  0.00     0.037 A 
ATOM     55  C   UNL A   1      43.948  23.874  28.998  1.00  0.00     0.049 A 
ATOM     56  C   UNL A   1      43.914  28.432  32.291  1.00  0.00     0.074 A 
ATOM     57  C   UNL A   1      45.150  24.489  28.696  1.00  0.00     0.029 A 
ATOM     58  N   UNL A   1      43.784  23.993  30.378  1.00  0.00    -0.354 N 
ATOM     59  N   UNL A   1      44.122  27.275  31.724  1.00  0.00    -0.248 NA
ATOM     60  C   UNL A   1      44.313  28.443  33.696  1.00  0.00     0.031 C 
ATOM     61  C   UNL A   1      45.658  25.063  29.894  1.00  0.00     0.029 A 
ATOM     62  C   UNL A   1      44.789  24.759  30.929  1.00  0.00     0.049 A 
ATOM     63  H   UNL A   1      43.048  23.584  30.890  1.00  0.00     0.167 HD
ATOM     64  C   UNL A   1      44.595  26.388  32.656  1.00  0.00     0.074 A 
ATOM     65  C   UNL A   1      44.736  27.178  33.864  1.00  0.00     0.031 C 
ATOM     66  C   UNL A   1      44.793  25.070  32.356  1.00  0.00     0.037 A 
BRANCH  53  67
ATOM     67  C   UNL A   1      42.978  22.257  27.165  1.00  0.00     0.057 A 
ATOM     68  C   UNL A   1      42.224  21.073  27.291  1.00  0.00     0.134 A 
ATOM     69  C   UNL A   1      43.929  22.220  26.121  1.00  0.00     0.134 A 
ATOM     70  F   UNL A   1      41.287  20.939  28.240  1.00  0.00    -0.206 F 
ATOM     71  C   UNL A   1      42.412  19.953  26.465  1.00  0.00     0.040 A 
ATOM     72  C   UNL A   1      44.089  21.127  25.258  1.00  0.00     0.040 A 
ATOM     73  F   UNL A   1      44.809  23.202  25.907  1.00  0.00    -0.206 F 
ATOM     74  C   UNL A   1      43.341  19.979  25.435  1.00  0.00     0.006 A 
ENDBRANCH  53  67
BRANCH  54  75
ATOM     75  C   UNL A   1      42.215  30.470  32.162  1.00  0.00     0.057 A 
ATOM     76  C   UNL A   1      42.386  31.866  32.134  1.00  0.00     0.134 A 
ATOM     77  C   UNL A   1      40.925  29.992  32.395  1.00  0.00     0.134 A 
ATOM     78  F   UNL A   1      43.603  32.391  31.917  1.00  0.00    -0.206 F 
ATOM     79  C   UNL A   1      41.305  32.744  32.220  1.00  0.00     0.040 A 
ATOM     80  C   UNL A   1      39.832  30.863  32.492  1.00  0.00     0.040 A 
ATOM     81  F   UNL A   1      40.678  28.674  32.412  1.00  0.00    -0.206 F 
ATOM     82  C   UNL A   1      40.016  32.240  32.367  1.00  0.00     0.006 A 
ENDBRANCH  54  75
BRANCH  66  83
ATOM     83  C   UNL A   1      45.069  23.967  33.355  1.00  0.00     0.057 A 
ATOM     84  C   UNL A   1      44.178  22.926  33.659  1.00  0.00     0.134 A 
ATOM     85  C   UNL A   1      46.342  23.852  33.956  1.00  0.00     0.134 A 
ATOM     86  F   UNL A   1      42.979  22.828  33.068  1.00  0.00    -0.206 F 
ATOM     87  C   UNL A   1      44.501  21.889  34.548  1.00  0.00     0.040 A 
ATOM     88  C   UNL A   1      46.694  22.794  34.801  1.00  0.00     0.040 A 
ATOM     89  F   UNL A   1      47.311  24.751  33.731  1.00  0.00    -0.206 F 
ATOM     90  C   UNL A   1      45.765  21.815  35.115  1.00  0.00     0.006 A 
ENDBRANCH  66  83
ENDBRANCH  40  41
ENDBRANCH  32  35
ENDBRANCH  30  31
ENDBRANCH  29  30
ENDBRANCH   1  29
TORSDOF 14
ENDMDL
MODEL 2
REMARK VINA RESULT:     -13.3      1.870      2.551
REMARK SMILES Cc1ccccc1NC(=O)CSc1nc(C(=O)NCCCNC(=O)c2ccc(-c3c4nc(c(-c5c(F)cccc5F)c5ccc([nH]5)c(-c5c(F)cccc5F)c5nc(c(-c6c(F)cccc6F)c6ccc3[nH]6)C=C5)C=C4)cc2)c2ccccc2n1
REMARK SMILES IDX 19 1 18 2 16 3 17 4 15 6 13 7 14 8 85 9 84 10 79 11 83 12
REMARK SMILES IDX 80 13 82 14 81 15 12 16 11 17 9 18 8 19 10 21 7 22 1 23 2 24
REMARK SMILES IDX 3 25 4 26 6 27 5 28 20 29 21 30 22 31 23 32 24 34 25 35
REMARK SMILES IDX 26 36 78 37 27 38 77 39 28 40 29 41 30 42 71 43 31 44 76 45
REMARK SMILES IDX 70 46 72 47 32 48 75 49 69 50 68 51 33 53 59 54 42 55 58 56
REMARK SMILES IDX 43 57 46 58 57 59 73 60 44 61 45 62 56 64 74 65 47 66 34 67
REMARK SMILES IDX 35 68 40 69 36 70 37 71 39 72 41 73 38 74 60 75 61 76 66 77
REMARK SMILES IDX 62 78 63 79 65 80 67 81 64 82 48 83 49 84 54 85 50 86 51 87
REMARK SMILES IDX 53 88 55 89 52 90
REMARK H PARENT 18 5 8 20 22 33 72 52 46 63
REMARK Flexibility Score: inf
ROOT
ATOM      1  C   UNL A   1      31.954  30.095  25.785  1.00  0.00     0.118 C 
ENDROOT
BRANCH   1   2
ATOM      2  N   UNL A   1      32.877  29.761  24.715  1.00  0.00    -0.351 N 
ATOM      3  C   UNL A   1      32.672  28.972  23.592  1.00  0.00     0.270 C 
ATOM      4  O   UNL A   1      33.576  28.905  22.761  1.00  0.00    -0.267 OA
ATOM      5  H   UNL A   1      33.778  30.151  24.797  1.00  0.00     0.163 HD
BRANCH   3   6
ATOM      6  C   UNL A   1      31.436  28.129  23.433  1.00  0.00     0.140 A 
ATOM      7  C   UNL A   1      30.460  26.195  24.113  1.00  0.00     0.189 A 
ATOM      8  N   UNL A   1      31.576  26.904  23.988  1.00  0.00    -0.217 NA
ATOM      9  N   UNL A   1      29.228  26.657  23.869  1.00  0.00    -0.222 NA
ATOM     10  C   UNL A   1      29.118  27.863  23.309  1.00  0.00     0.076 A 
ATOM     11  C   UNL A   1      30.224  28.627  22.937  1.00  0.00     0.032 A 
ATOM     12  C   UNL A   1      27.851  28.405  23.127  1.00  0.00     0.029 A 
ATOM     13  C   UNL A   1      30.027  29.825  22.199  1.00  0.00     0.013 A 
ATOM     14  C   UNL A   1      27.660  29.655  22.532  1.00  0.00     0.002 A 
ATOM     15  C   UNL A   1      28.750  30.353  22.031  1.00  0.00     0.001 A 
BRANCH   7  16
ATOM     16  S   UNL A   1      30.593  24.538  24.705  1.00  0.00    -0.076 SA
BRANCH  16  17
ATOM     17  C   UNL A   1      31.770  24.807  26.065  1.00  0.00     0.178 C 
BRANCH  17  18
ATOM     18  C   UNL A   1      32.223  23.532  26.748  1.00  0.00     0.234 C 
ATOM     19  N   UNL A   1      33.371  22.854  26.472  1.00  0.00    -0.325 N 
ATOM     20  H   UNL A   1      33.442  22.024  26.997  1.00  0.00     0.169 HD
ATOM     21  O   UNL A   1      31.509  23.028  27.626  1.00  0.00    -0.274 OA
BRANCH  19  22
ATOM     22  C   UNL A   1      34.480  23.040  25.623  1.00  0.00     0.044 A 
ATOM     23  C   UNL A   1      33.195  21.934  23.654  1.00  0.00     0.046 C 
ATOM     24  C   UNL A   1      34.415  22.542  24.298  1.00  0.00    -0.027 A 
ATOM     25  C   UNL A   1      35.572  22.575  23.490  1.00  0.00     0.005 A 
ATOM     26  C   UNL A   1      36.758  23.133  23.951  1.00  0.00     0.000 A 
ATOM     27  C   UNL A   1      35.657  23.671  26.029  1.00  0.00     0.026 A 
ATOM     28  C   UNL A   1      36.792  23.705  25.211  1.00  0.00     0.002 A 
ENDBRANCH  19  22
ENDBRANCH  17  18
ENDBRANCH  16  17
ENDBRANCH   7  16
ENDBRANCH   3   6
ENDBRANCH   1   2
BRANCH   1  29
ATOM     29  C   UNL A   1      32.496  31.007  26.859  1.00  0.00     0.042 C 
BRANCH  29  30
ATOM     30  C   UNL A   1      33.685  30.431  27.604  1.00  0.00     0.118 C 
BRANCH  30  31
ATOM     31  N   UNL A   1      34.485  31.418  28.344  1.00  0.00    -0.352 N 
ATOM     32  C   UNL A   1      35.742  31.241  28.916  1.00  0.00     0.251 C 
ATOM     33  H   UNL A   1      34.083  32.310  28.448  1.00  0.00     0.163 HD
ATOM     34  O   UNL A   1      36.399  32.182  29.324  1.00  0.00    -0.269 OA
BRANCH  32  35
ATOM     35  C   UNL A   1      36.295  29.869  28.910  1.00  0.00     0.039 A 
ATOM     36  C   UNL A   1      36.644  29.329  30.149  1.00  0.00     0.014 A 
ATOM     37  C   UNL A   1      36.864  29.409  27.726  1.00  0.00     0.014 A 
ATOM     38  C   UNL A   1      37.797  28.562  30.231  1.00  0.00     0.010 A 
ATOM     39  C   UNL A   1      38.066  28.732  27.823  1.00  0.00     0.010 A 
ATOM     40  C   UNL A   1      38.581  28.410  29.087  1.00  0.00    -0.014 A 
BRANCH  40  41
ATOM     41  C   UNL A   1      40.012  28.123  29.169  1.00  0.00     0.031 A 
ATOM     42  C   UNL A   1      40.528  26.808  28.738  1.00  0.00     0.074 A 
ATOM     43  C   UNL A   1      40.877  29.064  29.625  1.00  0.00     0.049 A 
ATOM     44  N   UNL A   1      41.662  26.325  29.121  1.00  0.00    -0.248 NA
ATOM     45  C   UNL A   1      39.763  25.876  27.913  1.00  0.00     0.031 C 
ATOM     46  C   UNL A   1      42.338  29.041  29.545  1.00  0.00     0.029 A 
ATOM     47  N   UNL A   1      40.598  30.144  30.483  1.00  0.00    -0.354 N 
ATOM     48  C   UNL A   1      41.908  25.205  28.370  1.00  0.00     0.074 A 
ATOM     49  C   UNL A   1      40.646  24.885  27.758  1.00  0.00     0.031 C 
ATOM     50  C   UNL A   1      42.838  29.815  30.521  1.00  0.00     0.029 A 
ATOM     51  C   UNL A   1      41.722  30.261  31.334  1.00  0.00     0.049 A 
ATOM     52  H   UNL A   1      39.788  30.703  30.489  1.00  0.00     0.167 HD
ATOM     53  C   UNL A   1      43.192  24.773  28.241  1.00  0.00     0.037 A 
ATOM     54  C   UNL A   1      41.630  30.118  32.685  1.00  0.00     0.037 A 
ATOM     55  C   UNL A   1      44.051  25.373  29.264  1.00  0.00     0.049 A 
ATOM     56  C   UNL A   1      42.497  29.019  33.253  1.00  0.00     0.074 A 
ATOM     57  C   UNL A   1      45.063  26.317  29.238  1.00  0.00     0.029 A 
ATOM     58  N   UNL A   1      43.743  25.166  30.609  1.00  0.00    -0.354 N 
ATOM     59  N   UNL A   1      43.060  28.089  32.530  1.00  0.00    -0.248 NA
ATOM     60  C   UNL A   1      42.756  28.846  34.680  1.00  0.00     0.031 C 
ATOM     61  C   UNL A   1      45.290  26.747  30.574  1.00  0.00     0.029 A 
ATOM     62  C   UNL A   1      44.451  26.034  31.414  1.00  0.00     0.049 A 
ATOM     63  H   UNL A   1      43.105  24.493  30.938  1.00  0.00     0.167 HD
ATOM     64  C   UNL A   1      43.674  27.180  33.352  1.00  0.00     0.074 A 
ATOM     65  C   UNL A   1      43.491  27.720  34.685  1.00  0.00     0.031 C 
ATOM     66  C   UNL A   1      44.248  26.042  32.860  1.00  0.00     0.037 A 
BRANCH  53  67
ATOM     67  C   UNL A   1      43.718  23.967  27.066  1.00  0.00     0.057 A 
ATOM     68  C   UNL A   1      44.322  24.620  25.974  1.00  0.00     0.134 A 
ATOM     69  C   UNL A   1      43.537  22.580  26.873  1.00  0.00     0.134 A 
ATOM     70  F   UNL A   1      44.554  25.941  25.989  1.00  0.00    -0.206 F 
ATOM     71  C   UNL A   1      44.695  23.956  24.794  1.00  0.00     0.040 A 
ATOM     72  C   UNL A   1      43.953  21.897  25.721  1.00  0.00     0.040 A 
ATOM     73  F   UNL A   1      42.890  21.804  27.747  1.00  0.00    -0.206 F 
ATOM     74  C   UNL A   1      44.521  22.585  24.667  1.00  0.00     0.006 A 
ENDBRANCH  53  67
BRANCH  54  75
ATOM     75  C   UNL A   1      40.326  30.549  33.245  1.00  0.00     0.057 A 
ATOM     76  C   UNL A   1      40.067  31.926  33.366  1.00  0.00     0.134 A 
ATOM     77  C   UNL A   1      39.231  29.686  33.321  1.00  0.00     0.134 A 
ATOM     78  F   UNL A   1      41.075  32.809  33.305  1.00  0.00    -0.206 F 
ATOM     79  C   UNL A   1      38.766  32.428  33.446  1.00  0.00     0.040 A 
ATOM     80  C   UNL A   1      37.922  30.177  33.410  1.00  0.00     0.040 A 
ATOM     81  F   UNL A   1      39.396  28.362  33.190  1.00  0.00    -0.206 F 
ATOM     82  C   UNL A   1      37.686  31.552  33.434  1.00  0.00     0.006 A 
ENDBRANCH  54  75
BRANCH  66  83
ATOM     83  C   UNL A   1      44.726  24.866  33.683  1.00  0.00     0.057 A 
ATOM     84  C   UNL A   1      43.884  23.990  34.386  1.00  0.00     0.134 A 
ATOM     85  C   UNL A   1      46.090  24.497  33.675  1.00  0.00     0.134 A 
ATOM     86  F   UNL A   1      42.553  24.136  34.380  1.00  0.00    -0.206 F 
ATOM     87  C   UNL A   1      44.369  22.875  35.087  1.00  0.00     0.040 A 
ATOM     88  C   UNL A   1      46.576  23.357  34.324  1.00  0.00     0.040 A 
ATOM     89  F   UNL A   1      47.010  25.216  33.014  1.00  0.00    -0.206 F 
ATOM     90  C   UNL A   1      45.717  22.549  35.050  1.00  0.00     0.006 A 
ENDBRANCH  66  83
ENDBRANCH  40  41
ENDBRANCH  32  35
ENDBRANCH  30  31
ENDBRANCH  29  30
ENDBRANCH   1  29
TORSDOF 14
ENDMDL
MODEL 3
REMARK VINA RESULT:     -13.1      4.094      6.978
REMARK SMILES Cc1ccccc1NC(=O)CSc1nc(C(=O)NCCCNC(=O)c2ccc(-c3c4nc(c(-c5c(F)cccc5F)c5ccc([nH]5)c(-c5c(F)cccc5F)c5nc(c(-c6c(F)cccc6F)c6ccc3[nH]6)C=C5)C=C4)cc2)c2ccccc2n1
REMARK SMILES IDX 19 1 18 2 16 3 17 4 15 6 13 7 14 8 85 9 84 10 79 11 83 12
REMARK SMILES IDX 80 13 82 14 81 15 12 16 11 17 9 18 8 19 10 21 7 22 1 23 2 24
REMARK SMILES IDX 3 25 4 26 6 27 5 28 20 29 21 30 22 31 23 32 24 34 25 35
REMARK SMILES IDX 26 36 78 37 27 38 77 39 28 40 29 41 30 42 71 43 31 44 76 45
REMARK SMILES IDX 70 46 72 47 32 48 75 49 69 50 68 51 33 53 59 54 42 55 58 56
REMARK SMILES IDX 43 57 46 58 57 59 73 60 44 61 45 62 56 64 74 65 47 66 34 67
REMARK SMILES IDX 35 68 40 69 36 70 37 71 39 72 41 73 38 74 60 75 61 76 66 77
REMARK SMILES IDX 62 78 63 79 65 80 67 81 64 82 48 83 49 84 54 85 50 86 51 87
REMARK SMILES IDX 53 88 55 89 52 90
REMARK H PARENT 18 5 8 20 22 33 72 52 46 63
REMARK Flexibility Score: inf
ROOT
ATOM      1  C   UNL A   1      37.087  23.732  25.614  1.00  0.00     0.118 C 
ENDROOT
BRANCH   1   2
ATOM      2  N   UNL A   1      37.357  23.239  24.275  1.00  0.00    -0.351 N 
ATOM      3  C   UNL A   1      36.488  23.082  23.205  1.00  0.00     0.270 C 
ATOM      4  O   UNL A   1      36.961  22.734  22.124  1.00  0.00    -0.267 OA
ATOM      5  H   UNL A   1      38.291  22.979  24.102  1.00  0.00     0.163 HD
BRANCH   3   6
ATOM      6  C   UNL A   1      34.999  23.219  23.369  1.00  0.00     0.140 A 
ATOM      7  C   UNL A   1      33.199  24.412  22.668  1.00  0.00     0.189 A 
ATOM      8  N   UNL A   1      34.520  24.341  22.787  1.00  0.00    -0.217 NA
ATOM      9  N   UNL A   1      32.351  23.415  22.943  1.00  0.00    -0.222 NA
ATOM     10  C   UNL A   1      32.847  22.323  23.529  1.00  0.00     0.076 A 
ATOM     11  C   UNL A   1      34.188  22.206  23.896  1.00  0.00     0.032 A 
ATOM     12  C   UNL A   1      32.007  21.237  23.744  1.00  0.00     0.029 A 
ATOM     13  C   UNL A   1      34.605  21.083  24.661  1.00  0.00     0.013 A 
ATOM     14  C   UNL A   1      32.454  20.069  24.367  1.00  0.00     0.002 A 
ATOM     15  C   UNL A   1      33.749  20.004  24.862  1.00  0.00     0.001 A 
BRANCH   7  16
ATOM     16  S   UNL A   1      32.504  25.907  22.041  1.00  0.00    -0.076 SA
BRANCH  16  17
ATOM     17  C   UNL A   1      30.841  25.784  22.768  1.00  0.00     0.178 C 
BRANCH  17  18
ATOM     18  C   UNL A   1      30.621  26.695  23.959  1.00  0.00     0.234 C 
ATOM     19  N   UNL A   1      30.841  26.359  25.260  1.00  0.00    -0.325 N 
ATOM     20  H   UNL A   1      30.583  27.083  25.875  1.00  0.00     0.169 HD
ATOM     21  O   UNL A   1      30.192  27.843  23.774  1.00  0.00    -0.274 OA
BRANCH  19  22
ATOM     22  C   UNL A   1      31.343  25.236  25.947  1.00  0.00     0.044 A 
ATOM     23  C   UNL A   1      33.738  26.240  25.900  1.00  0.00     0.046 C 
ATOM     24  C   UNL A   1      32.735  25.153  26.193  1.00  0.00    -0.027 A 
ATOM     25  C   UNL A   1      33.272  23.964  26.733  1.00  0.00     0.005 A 
ATOM     26  C   UNL A   1      32.455  22.894  27.074  1.00  0.00     0.000 A 
ATOM     27  C   UNL A   1      30.537  24.180  26.380  1.00  0.00     0.026 A 
ATOM     28  C   UNL A   1      31.084  23.013  26.922  1.00  0.00     0.002 A 
ENDBRANCH  19  22
ENDBRANCH  17  18
ENDBRANCH  16  17
ENDBRANCH   7  16
ENDBRANCH   3   6
ENDBRANCH   1   2
BRANCH   1  29
ATOM     29  C   UNL A   1      38.298  23.971  26.482  1.00  0.00     0.042 C 
BRANCH  29  30
ATOM     30  C   UNL A   1      39.064  22.707  26.822  1.00  0.00     0.118 C 
BRANCH  30  31
ATOM     31  N   UNL A   1      40.212  22.428  25.946  1.00  0.00    -0.352 N 
ATOM     32  C   UNL A   1      41.561  22.642  26.214  1.00  0.00     0.251 C 
ATOM     33  H   UNL A   1      40.001  22.044  25.065  1.00  0.00     0.163 HD
ATOM     34  O   UNL A   1      42.437  22.183  25.503  1.00  0.00    -0.269 OA
BRANCH  32  35
ATOM     35  C   UNL A   1      41.891  23.360  27.465  1.00  0.00     0.039 A 
ATOM     36  C   UNL A   1      41.784  24.752  27.434  1.00  0.00     0.014 A 
ATOM     37  C   UNL A   1      42.708  22.710  28.385  1.00  0.00     0.014 A 
ATOM     38  C   UNL A   1      42.743  25.499  28.103  1.00  0.00     0.010 A 
ATOM     39  C   UNL A   1      43.721  23.451  28.966  1.00  0.00     0.010 A 
ATOM     40  C   UNL A   1      43.795  24.831  28.728  1.00  0.00    -0.014 A 
BRANCH  40  41
ATOM     41  C   UNL A   1      45.085  25.478  28.964  1.00  0.00     0.031 A 
ATOM     42  C   UNL A   1      46.247  25.143  28.115  1.00  0.00     0.074 A 
ATOM     43  C   UNL A   1      45.221  26.400  29.950  1.00  0.00     0.049 A 
ATOM     44  N   UNL A   1      47.471  25.345  28.469  1.00  0.00    -0.248 NA
ATOM     45  C   UNL A   1      46.130  24.458  26.830  1.00  0.00     0.031 C 
ATOM     46  C   UNL A   1      46.346  27.311  30.166  1.00  0.00     0.029 A 
ATOM     47  N   UNL A   1      44.447  26.530  31.117  1.00  0.00    -0.354 N 
ATOM     48  C   UNL A   1      48.259  25.119  27.370  1.00  0.00     0.074 A 
ATOM     49  C   UNL A   1      47.408  24.428  26.439  1.00  0.00     0.031 C 
ATOM     50  C   UNL A   1      46.378  27.663  31.460  1.00  0.00     0.029 A 
ATOM     51  C   UNL A   1      45.352  26.896  32.142  1.00  0.00     0.049 A 
ATOM     52  H   UNL A   1      43.476  26.396  31.204  1.00  0.00     0.167 HD
ATOM     53  C   UNL A   1      49.498  25.681  27.328  1.00  0.00     0.037 A 
ATOM     54  C   UNL A   1      45.554  26.123  33.245  1.00  0.00     0.037 A 
ATOM     55  C   UNL A   1      49.921  26.117  28.660  1.00  0.00     0.049 A 
ATOM     56  C   UNL A   1      46.985  25.679  33.436  1.00  0.00     0.074 A 
ATOM     57  C   UNL A   1      50.102  27.354  29.255  1.00  0.00     0.029 A 
ATOM     58  N   UNL A   1      49.996  25.175  29.686  1.00  0.00    -0.354 N 
ATOM     59  N   UNL A   1      47.902  25.755  32.510  1.00  0.00    -0.248 NA
ATOM     60  C   UNL A   1      47.486  25.065  34.664  1.00  0.00     0.031 C 
ATOM     61  C   UNL A   1      50.189  27.151  30.660  1.00  0.00     0.029 A 
ATOM     62  C   UNL A   1      50.106  25.792  30.914  1.00  0.00     0.049 A 
ATOM     63  H   UNL A   1      49.973  24.200  29.550  1.00  0.00     0.167 HD
ATOM     64  C   UNL A   1      49.054  25.163  32.956  1.00  0.00     0.074 A 
ATOM     65  C   UNL A   1      48.756  24.783  34.324  1.00  0.00     0.031 C 
ATOM     66  C   UNL A   1      50.141  25.005  32.143  1.00  0.00     0.037 A 
BRANCH  53  67
ATOM     67  C   UNL A   1      50.247  26.024  26.052  1.00  0.00     0.057 A 
ATOM     68  C   UNL A   1      51.589  25.627  25.892  1.00  0.00     0.134 A 
ATOM     69  C   UNL A   1      49.770  26.857  25.016  1.00  0.00     0.134 A 
ATOM     70  F   UNL A   1      52.200  24.845  26.794  1.00  0.00    -0.206 F 
ATOM     71  C   UNL A   1      52.386  26.035  24.809  1.00  0.00     0.040 A 
ATOM     72  C   UNL A   1      50.539  27.227  23.903  1.00  0.00     0.040 A 
ATOM     73  F   UNL A   1      48.560  27.422  25.037  1.00  0.00    -0.206 F 
ATOM     74  C   UNL A   1      51.859  26.831  23.802  1.00  0.00     0.006 A 
ENDBRANCH  53  67
BRANCH  54  75
ATOM     75  C   UNL A   1      44.359  25.348  33.660  1.00  0.00     0.057 A 
ATOM     76  C   UNL A   1      44.237  24.016  33.229  1.00  0.00     0.134 A 
ATOM     77  C   UNL A   1      43.550  25.750  34.724  1.00  0.00     0.134 A 
ATOM     78  F   UNL A   1      44.985  23.567  32.208  1.00  0.00    -0.206 F 
ATOM     79  C   UNL A   1      43.429  23.094  33.897  1.00  0.00     0.040 A 
ATOM     80  C   UNL A   1      42.729  24.836  35.398  1.00  0.00     0.040 A 
ATOM     81  F   UNL A   1      43.627  26.998  35.208  1.00  0.00    -0.206 F 
ATOM     82  C   UNL A   1      42.696  23.497  35.009  1.00  0.00     0.006 A 
ENDBRANCH  54  75
BRANCH  66  83
ATOM     83  C   UNL A   1      51.356  24.157  32.447  1.00  0.00     0.057 A 
ATOM     84  C   UNL A   1      52.681  24.620  32.414  1.00  0.00     0.134 A 
ATOM     85  C   UNL A   1      51.203  22.837  32.928  1.00  0.00     0.134 A 
ATOM     86  F   UNL A   1      52.977  25.889  32.102  1.00  0.00    -0.206 F 
ATOM     87  C   UNL A   1      53.774  23.812  32.764  1.00  0.00     0.040 A 
ATOM     88  C   UNL A   1      52.279  22.041  33.331  1.00  0.00     0.040 A 
ATOM     89  F   UNL A   1      49.993  22.269  33.051  1.00  0.00    -0.206 F 
ATOM     90  C   UNL A   1      53.575  22.521  33.233  1.00  0.00     0.006 A 
ENDBRANCH  66  83
ENDBRANCH  40  41
ENDBRANCH  32  35
ENDBRANCH  30  31
ENDBRANCH  29  30
ENDBRANCH   1  29
TORSDOF 14
ENDMDL
