MODEL 1
REMARK VINA RESULT:     -11.0      0.000      0.000
REMARK SMILES CC(C)C[C@@H](CNc1ccc([N+](=O)[O-])nc1)C(=O)NCCCNC(=O)c1ccc(-c2c3nc(c(-c4c(F)cccc4F)c4ccc([nH]4)c(-c4c(F)cccc4F)c4nc(c(-c5c(F)cccc5F)c5ccc2[nH]5)C=C4)C=C3)cc1
REMARK SMILES IDX 20 1 19 2 17 3 18 4 5 6 4 7 2 8 1 9 3 10 6 11 7 12 8 14 9 15
REMARK SMILES IDX 16 16 10 17 15 18 11 19 12 20 13 21 14 22 21 23 22 24 23 25
REMARK SMILES IDX 24 26 25 28 26 29 27 30 79 31 28 32 78 33 29 34 30 35 31 36
REMARK SMILES IDX 72 37 32 38 77 39 71 40 73 41 33 42 76 43 70 44 69 45 34 47
REMARK SMILES IDX 60 48 43 49 59 50 44 51 47 52 58 53 74 54 45 55 46 56 57 58
REMARK SMILES IDX 75 59 48 60 35 61 36 62 41 63 37 64 38 65 40 66 42 67 39 68
REMARK SMILES IDX 61 69 62 70 67 71 63 72 64 73 66 74 68 75 65 76 49 77 50 78
REMARK SMILES IDX 55 79 51 80 52 81 54 82 56 83 53 84
REMARK H PARENT 19 5 7 13 23 27 73 46 47 57
REMARK Flexibility Score: inf
ROOT
ATOM      1  C   UNL A   1      36.749  20.883  24.840  1.00  0.00     0.117 C 
ENDROOT
BRANCH   1   2
ATOM      2  N   UNL A   1      36.003  21.114  26.057  1.00  0.00    -0.356 N 
ATOM      3  C   UNL A   1      34.785  21.695  26.221  1.00  0.00     0.224 C 
ATOM      4  O   UNL A   1      34.225  21.527  27.308  1.00  0.00    -0.275 OA
ATOM      5  H   UNL A   1      36.440  20.809  26.884  1.00  0.00     0.163 HD
BRANCH   3   6
ATOM      6  C   UNL A   1      34.118  22.552  25.143  1.00  0.00     0.098 C 
BRANCH   6   7
ATOM      7  C   UNL A   1      34.907  23.841  24.851  1.00  0.00     0.018 C 
BRANCH   7   8
ATOM      8  C   UNL A   1      34.152  25.165  25.063  1.00  0.00    -0.017 C 
ATOM      9  C   UNL A   1      33.574  25.730  23.766  1.00  0.00     0.007 C 
ATOM     10  C   UNL A   1      33.017  24.936  26.069  1.00  0.00     0.007 C 
ENDBRANCH   7   8
ENDBRANCH   6   7
BRANCH   6  11
ATOM     11  C   UNL A   1      33.571  21.725  23.964  1.00  0.00     0.126 C 
BRANCH  11  12
ATOM     12  N   UNL A   1      32.493  20.799  24.297  1.00  0.00    -0.381 N 
ATOM     13  H   UNL A   1      31.582  21.166  24.382  1.00  0.00     0.160 HD
BRANCH  12  14
ATOM     14  C   UNL A   1      32.662  19.440  24.503  1.00  0.00     0.079 A 
ATOM     15  C   UNL A   1      32.502  18.818  25.738  1.00  0.00     0.038 A 
ATOM     16  C   UNL A   1      33.143  18.615  23.480  1.00  0.00     0.280 A 
ATOM     17  C   UNL A   1      32.843  17.472  25.919  1.00  0.00     0.109 A 
ATOM     18  N   UNL A   1      33.514  17.319  23.615  1.00  0.00    -0.044 NA
ATOM     19  C   UNL A   1      33.371  16.756  24.846  1.00  0.00     0.363 A 
BRANCH  19  20
ATOM     20  N   UNL A   1      33.808  15.364  25.128  1.00  0.00    -0.024 N 
ATOM     21  O   UNL A   1      32.926  14.509  25.286  1.00  0.00    -0.358 OA
ATOM     22  O   UNL A   1      35.028  15.136  25.168  1.00  0.00    -0.358 OA
ENDBRANCH  19  20
ENDBRANCH  12  14
ENDBRANCH  11  12
ENDBRANCH   6  11
ENDBRANCH   3   6
ENDBRANCH   1   2
BRANCH   1  23
ATOM     23  C   UNL A   1      37.848  19.847  24.975  1.00  0.00     0.042 C 
BRANCH  23  24
ATOM     24  C   UNL A   1      39.002  20.334  25.832  1.00  0.00     0.118 C 
BRANCH  24  25
ATOM     25  N   UNL A   1      40.121  19.393  25.860  1.00  0.00    -0.352 N 
ATOM     26  C   UNL A   1      41.460  19.588  26.101  1.00  0.00     0.251 C 
ATOM     27  H   UNL A   1      39.872  18.459  25.675  1.00  0.00     0.163 HD
ATOM     28  O   UNL A   1      42.260  18.684  25.900  1.00  0.00    -0.269 OA
BRANCH  26  29
ATOM     29  C   UNL A   1      41.947  20.900  26.573  1.00  0.00     0.039 A 
ATOM     30  C   UNL A   1      42.421  21.828  25.641  1.00  0.00     0.014 A 
ATOM     31  C   UNL A   1      41.931  21.215  27.928  1.00  0.00     0.014 A 
ATOM     32  C   UNL A   1      42.780  23.109  26.063  1.00  0.00     0.010 A 
ATOM     33  C   UNL A   1      42.173  22.520  28.331  1.00  0.00     0.010 A 
ATOM     34  C   UNL A   1      42.602  23.481  27.404  1.00  0.00    -0.014 A 
BRANCH  34  35
ATOM     35  C   UNL A   1      42.862  24.858  27.888  1.00  0.00     0.031 A 
ATOM     36  C   UNL A   1      44.250  25.238  28.324  1.00  0.00     0.074 A 
ATOM     37  C   UNL A   1      41.836  25.716  28.054  1.00  0.00     0.049 A 
ATOM     38  N   UNL A   1      44.653  26.302  28.969  1.00  0.00    -0.248 NA
ATOM     39  C   UNL A   1      45.318  24.266  28.039  1.00  0.00     0.031 C 
ATOM     40  C   UNL A   1      40.437  25.447  27.717  1.00  0.00     0.029 A 
ATOM     41  N   UNL A   1      41.812  26.985  28.574  1.00  0.00    -0.354 N 
ATOM     42  C   UNL A   1      46.008  26.104  29.207  1.00  0.00     0.074 A 
ATOM     43  C   UNL A   1      46.347  24.801  28.680  1.00  0.00     0.031 C 
ATOM     44  C   UNL A   1      39.695  26.525  28.020  1.00  0.00     0.029 A 
ATOM     45  C   UNL A   1      40.556  27.540  28.615  1.00  0.00     0.049 A 
ATOM     46  H   UNL A   1      42.619  27.455  28.888  1.00  0.00     0.167 HD
ATOM     47  C   UNL A   1      46.893  26.944  29.793  1.00  0.00     0.037 A 
ATOM     48  C   UNL A   1      40.144  28.728  29.095  1.00  0.00     0.037 A 
ATOM     49  C   UNL A   1      46.561  28.263  30.255  1.00  0.00     0.049 A 
ATOM     50  C   UNL A   1      41.153  29.659  29.706  1.00  0.00     0.074 A 
ATOM     51  C   UNL A   1      47.400  29.226  30.789  1.00  0.00     0.029 A 
ATOM     52  N   UNL A   1      45.287  28.810  30.224  1.00  0.00    -0.354 N 
ATOM     53  N   UNL A   1      42.439  29.480  29.883  1.00  0.00    -0.248 NA
ATOM     54  C   UNL A   1      40.654  30.957  30.184  1.00  0.00     0.031 C 
ATOM     55  C   UNL A   1      46.626  30.348  31.106  1.00  0.00     0.029 A 
ATOM     56  C   UNL A   1      45.314  30.094  30.737  1.00  0.00     0.049 A 
ATOM     57  H   UNL A   1      44.483  28.352  29.887  1.00  0.00     0.167 HD
ATOM     58  C   UNL A   1      42.909  30.649  30.465  1.00  0.00     0.074 A 
ATOM     59  C   UNL A   1      41.772  31.534  30.606  1.00  0.00     0.031 C 
ATOM     60  C   UNL A   1      44.171  30.962  30.849  1.00  0.00     0.037 A 
BRANCH  47  61
ATOM     61  C   UNL A   1      48.305  26.460  29.949  1.00  0.00     0.057 A 
ATOM     62  C   UNL A   1      48.726  25.769  31.093  1.00  0.00     0.134 A 
ATOM     63  C   UNL A   1      49.248  26.671  28.937  1.00  0.00     0.134 A 
ATOM     64  F   UNL A   1      47.874  25.548  32.106  1.00  0.00    -0.206 F 
ATOM     65  C   UNL A   1      50.043  25.332  31.238  1.00  0.00     0.040 A 
ATOM     66  C   UNL A   1      50.562  26.214  29.058  1.00  0.00     0.040 A 
ATOM     67  F   UNL A   1      48.911  27.322  27.814  1.00  0.00    -0.206 F 
ATOM     68  C   UNL A   1      50.965  25.549  30.215  1.00  0.00     0.006 A 
ENDBRANCH  47  61
BRANCH  48  69
ATOM     69  C   UNL A   1      38.716  29.115  28.993  1.00  0.00     0.057 A 
ATOM     70  C   UNL A   1      38.180  29.564  27.781  1.00  0.00     0.134 A 
ATOM     71  C   UNL A   1      37.852  29.042  30.093  1.00  0.00     0.134 A 
ATOM     72  F   UNL A   1      38.962  29.671  26.697  1.00  0.00    -0.206 F 
ATOM     73  C   UNL A   1      36.842  29.945  27.667  1.00  0.00     0.040 A 
ATOM     74  C   UNL A   1      36.506  29.398  29.989  1.00  0.00     0.040 A 
ATOM     75  F   UNL A   1      38.301  28.609  31.280  1.00  0.00    -0.206 F 
ATOM     76  C   UNL A   1      35.999  29.858  28.774  1.00  0.00     0.006 A 
ENDBRANCH  48  69
BRANCH  60  77
ATOM     77  C   UNL A   1      44.395  32.330  31.415  1.00  0.00     0.057 A 
ATOM     78  C   UNL A   1      44.701  33.425  30.597  1.00  0.00     0.134 A 
ATOM     79  C   UNL A   1      44.239  32.566  32.787  1.00  0.00     0.134 A 
ATOM     80  F   UNL A   1      44.876  33.259  29.278  1.00  0.00    -0.206 F 
ATOM     81  C   UNL A   1      44.855  34.706  31.127  1.00  0.00     0.040 A 
ATOM     82  C   UNL A   1      44.368  33.845  33.325  1.00  0.00     0.040 A 
ATOM     83  F   UNL A   1      43.937  31.559  33.621  1.00  0.00    -0.206 F 
ATOM     84  C   UNL A   1      44.679  34.920  32.494  1.00  0.00     0.006 A 
ENDBRANCH  60  77
ENDBRANCH  34  35
ENDBRANCH  26  29
ENDBRANCH  24  25
ENDBRANCH  23  24
ENDBRANCH   1  23
TORSDOF 16
ENDMDL
MODEL 2
REMARK VINA RESULT:     -11.0      0.996      6.288
REMARK SMILES CC(C)C[C@@H](CNc1ccc([N+](=O)[O-])nc1)C(=O)NCCCNC(=O)c1ccc(-c2c3nc(c(-c4c(F)cccc4F)c4ccc([nH]4)c(-c4c(F)cccc4F)c4nc(c(-c5c(F)cccc5F)c5ccc2[nH]5)C=C4)C=C3)cc1
REMARK SMILES IDX 20 1 19 2 17 3 18 4 5 6 4 7 2 8 1 9 3 10 6 11 7 12 8 14 9 15
REMARK SMILES IDX 16 16 10 17 15 18 11 19 12 20 13 21 14 22 21 23 22 24 23 25
REMARK SMILES IDX 24 26 25 28 26 29 27 30 79 31 28 32 78 33 29 34 30 35 31 36
REMARK SMILES IDX 72 37 32 38 77 39 71 40 73 41 33 42 76 43 70 44 69 45 34 47
REMARK SMILES IDX 60 48 43 49 59 50 44 51 47 52 58 53 74 54 45 55 46 56 57 58
REMARK SMILES IDX 75 59 48 60 35 61 36 62 41 63 37 64 38 65 40 66 42 67 39 68
REMARK SMILES IDX 61 69 62 70 67 71 63 72 64 73 66 74 68 75 65 76 49 77 50 78
REMARK SMILES IDX 55 79 51 80 52 81 54 82 56 83 53 84
REMARK H PARENT 19 5 7 13 23 27 73 46 47 57
REMARK Flexibility Score: inf
ROOT
ATOM      1  C   UNL A   1      35.966  21.694  25.087  1.00  0.00     0.117 C 
ENDROOT
BRANCH   1   2
ATOM      2  N   UNL A   1      35.429  22.097  23.807  1.00  0.00    -0.356 N 
ATOM      3  C   UNL A   1      34.336  22.860  23.535  1.00  0.00     0.224 C 
ATOM      4  O   UNL A   1      34.236  23.307  22.389  1.00  0.00    -0.275 OA
ATOM      5  H   UNL A   1      35.923  21.773  23.021  1.00  0.00     0.163 HD
BRANCH   3   6
ATOM      6  C   UNL A   1      33.243  23.146  24.566  1.00  0.00     0.098 C 
BRANCH   6   7
ATOM      7  C   UNL A   1      32.799  24.619  24.553  1.00  0.00     0.018 C 
BRANCH   7   8
ATOM      8  C   UNL A   1      32.655  25.300  25.926  1.00  0.00    -0.017 C 
ATOM      9  C   UNL A   1      33.444  26.606  26.025  1.00  0.00     0.007 C 
ATOM     10  C   UNL A   1      31.171  25.581  26.190  1.00  0.00     0.007 C 
ENDBRANCH   7   8
ENDBRANCH   6   7
BRANCH   6  11
ATOM     11  C   UNL A   1      32.172  22.041  24.636  1.00  0.00     0.126 C 
BRANCH  11  12
ATOM     12  N   UNL A   1      32.358  20.929  23.708  1.00  0.00    -0.381 N 
ATOM     13  H   UNL A   1      32.252  21.113  22.746  1.00  0.00     0.160 HD
BRANCH  12  14
ATOM     14  C   UNL A   1      32.671  19.636  24.087  1.00  0.00     0.079 A 
ATOM     15  C   UNL A   1      32.952  18.611  23.187  1.00  0.00     0.038 A 
ATOM     16  C   UNL A   1      32.594  19.243  25.429  1.00  0.00     0.280 A 
ATOM     17  C   UNL A   1      33.103  17.288  23.622  1.00  0.00     0.109 A 
ATOM     18  N   UNL A   1      32.702  17.974  25.891  1.00  0.00    -0.044 NA
ATOM     19  C   UNL A   1      32.947  16.997  24.976  1.00  0.00     0.363 A 
BRANCH  19  20
ATOM     20  N   UNL A   1      33.017  15.563  25.358  1.00  0.00    -0.024 N 
ATOM     21  O   UNL A   1      31.971  15.022  25.741  1.00  0.00    -0.358 OA
ATOM     22  O   UNL A   1      34.111  14.987  25.250  1.00  0.00    -0.358 OA
ENDBRANCH  19  20
ENDBRANCH  12  14
ENDBRANCH  11  12
ENDBRANCH   6  11
ENDBRANCH   3   6
ENDBRANCH   1   2
BRANCH   1  23
ATOM     23  C   UNL A   1      36.982  20.571  25.006  1.00  0.00     0.042 C 
BRANCH  23  24
ATOM     24  C   UNL A   1      38.372  21.014  25.425  1.00  0.00     0.118 C 
BRANCH  24  25
ATOM     25  N   UNL A   1      39.318  19.902  25.507  1.00  0.00    -0.352 N 
ATOM     26  C   UNL A   1      40.631  19.861  25.913  1.00  0.00     0.251 C 
ATOM     27  H   UNL A   1      38.952  19.034  25.223  1.00  0.00     0.163 HD
ATOM     28  O   UNL A   1      41.298  18.851  25.735  1.00  0.00    -0.269 OA
BRANCH  26  29
ATOM     29  C   UNL A   1      41.253  21.046  26.537  1.00  0.00     0.039 A 
ATOM     30  C   UNL A   1      41.883  21.993  25.726  1.00  0.00     0.014 A 
ATOM     31  C   UNL A   1      41.211  21.223  27.917  1.00  0.00     0.014 A 
ATOM     32  C   UNL A   1      42.377  23.169  26.293  1.00  0.00     0.010 A 
ATOM     33  C   UNL A   1      41.594  22.439  28.464  1.00  0.00     0.010 A 
ATOM     34  C   UNL A   1      42.182  23.425  27.659  1.00  0.00    -0.014 A 
BRANCH  34  35
ATOM     35  C   UNL A   1      42.588  24.702  28.294  1.00  0.00     0.031 A 
ATOM     36  C   UNL A   1      41.557  25.773  28.521  1.00  0.00     0.074 A 
ATOM     37  C   UNL A   1      43.889  24.942  28.546  1.00  0.00     0.049 A 
ATOM     38  N   UNL A   1      41.726  27.026  28.860  1.00  0.00    -0.248 NA
ATOM     39  C   UNL A   1      40.154  25.398  28.286  1.00  0.00     0.031 C 
ATOM     40  C   UNL A   1      44.989  24.002  28.322  1.00  0.00     0.029 A 
ATOM     41  N   UNL A   1      44.510  26.068  29.026  1.00  0.00    -0.354 N 
ATOM     42  C   UNL A   1      40.459  27.594  28.832  1.00  0.00     0.074 A 
ATOM     43  C   UNL A   1      39.539  26.566  28.398  1.00  0.00     0.031 C 
ATOM     44  C   UNL A   1      46.145  24.582  28.682  1.00  0.00     0.029 A 
ATOM     45  C   UNL A   1      45.875  25.948  29.116  1.00  0.00     0.049 A 
ATOM     46  H   UNL A   1      44.023  26.885  29.282  1.00  0.00     0.167 HD
ATOM     47  C   UNL A   1      40.092  28.855  29.160  1.00  0.00     0.037 A 
ATOM     48  C   UNL A   1      46.805  26.846  29.492  1.00  0.00     0.037 A 
ATOM     49  C   UNL A   1      41.003  29.852  29.652  1.00  0.00     0.049 A 
ATOM     50  C   UNL A   1      46.370  28.227  29.888  1.00  0.00     0.074 A 
ATOM     51  C   UNL A   1      40.723  31.134  30.091  1.00  0.00     0.029 A 
ATOM     52  N   UNL A   1      42.372  29.671  29.784  1.00  0.00    -0.354 N 
ATOM     53  N   UNL A   1      45.163  28.739  29.902  1.00  0.00    -0.248 NA
ATOM     54  C   UNL A   1      47.423  29.157  30.321  1.00  0.00     0.031 C 
ATOM     55  C   UNL A   1      41.928  31.739  30.464  1.00  0.00     0.029 A 
ATOM     56  C   UNL A   1      42.951  30.820  30.290  1.00  0.00     0.049 A 
ATOM     57  H   UNL A   1      42.857  28.846  29.553  1.00  0.00     0.167 HD
ATOM     58  C   UNL A   1      45.306  30.038  30.370  1.00  0.00     0.074 A 
ATOM     59  C   UNL A   1      46.716  30.234  30.636  1.00  0.00     0.031 C 
ATOM     60  C   UNL A   1      44.355  30.984  30.563  1.00  0.00     0.037 A 
BRANCH  47  61
ATOM     61  C   UNL A   1      38.644  29.216  29.009  1.00  0.00     0.057 A 
ATOM     62  C   UNL A   1      37.754  29.169  30.090  1.00  0.00     0.134 A 
ATOM     63  C   UNL A   1      38.137  29.632  27.772  1.00  0.00     0.134 A 
ATOM     64  F   UNL A   1      38.174  28.763  31.299  1.00  0.00    -0.206 F 
ATOM     65  C   UNL A   1      36.405  29.494  29.941  1.00  0.00     0.040 A 
ATOM     66  C   UNL A   1      36.795  29.987  27.617  1.00  0.00     0.040 A 
ATOM     67  F   UNL A   1      38.935  29.704  26.696  1.00  0.00    -0.206 F 
ATOM     68  C   UNL A   1      35.924  29.911  28.701  1.00  0.00     0.006 A 
ENDBRANCH  47  61
BRANCH  48  69
ATOM     69  C   UNL A   1      48.237  26.457  29.536  1.00  0.00     0.057 A 
ATOM     70  C   UNL A   1      49.082  26.714  28.450  1.00  0.00     0.134 A 
ATOM     71  C   UNL A   1      48.797  25.831  30.656  1.00  0.00     0.134 A 
ATOM     72  F   UNL A   1      48.600  27.297  27.343  1.00  0.00    -0.206 F 
ATOM     73  C   UNL A   1      50.429  26.345  28.467  1.00  0.00     0.040 A 
ATOM     74  C   UNL A   1      50.146  25.477  30.696  1.00  0.00     0.040 A 
ATOM     75  F   UNL A   1      48.043  25.568  31.733  1.00  0.00    -0.206 F 
ATOM     76  C   UNL A   1      50.965  25.728  29.595  1.00  0.00     0.006 A 
ENDBRANCH  48  69
BRANCH  60  77
ATOM     77  C   UNL A   1      44.800  32.298  31.127  1.00  0.00     0.057 A 
ATOM     78  C   UNL A   1      45.130  33.380  30.302  1.00  0.00     0.134 A 
ATOM     79  C   UNL A   1      44.835  32.501  32.513  1.00  0.00     0.134 A 
ATOM     80  F   UNL A   1      45.128  33.242  28.968  1.00  0.00    -0.206 F 
ATOM     81  C   UNL A   1      45.490  34.617  30.837  1.00  0.00     0.040 A 
ATOM     82  C   UNL A   1      45.171  33.739  33.059  1.00  0.00     0.040 A 
ATOM     83  F   UNL A   1      44.521  31.505  33.355  1.00  0.00    -0.206 F 
ATOM     84  C   UNL A   1      45.503  34.801  32.219  1.00  0.00     0.006 A 
ENDBRANCH  60  77
ENDBRANCH  34  35
ENDBRANCH  26  29
ENDBRANCH  24  25
ENDBRANCH  23  24
ENDBRANCH   1  23
TORSDOF 16
ENDMDL
MODEL 3
REMARK VINA RESULT:     -10.9      1.407      6.360
REMARK SMILES CC(C)C[C@@H](CNc1ccc([N+](=O)[O-])nc1)C(=O)NCCCNC(=O)c1ccc(-c2c3nc(c(-c4c(F)cccc4F)c4ccc([nH]4)c(-c4c(F)cccc4F)c4nc(c(-c5c(F)cccc5F)c5ccc2[nH]5)C=C4)C=C3)cc1
REMARK SMILES IDX 20 1 19 2 17 3 18 4 5 6 4 7 2 8 1 9 3 10 6 11 7 12 8 14 9 15
REMARK SMILES IDX 16 16 10 17 15 18 11 19 12 20 13 21 14 22 21 23 22 24 23 25
REMARK SMILES IDX 24 26 25 28 26 29 27 30 79 31 28 32 78 33 29 34 30 35 31 36
REMARK SMILES IDX 72 37 32 38 77 39 71 40 73 41 33 42 76 43 70 44 69 45 34 47
REMARK SMILES IDX 60 48 43 49 59 50 44 51 47 52 58 53 74 54 45 55 46 56 57 58
REMARK SMILES IDX 75 59 48 60 35 61 36 62 41 63 37 64 38 65 40 66 42 67 39 68
REMARK SMILES IDX 61 69 62 70 67 71 63 72 64 73 66 74 68 75 65 76 49 77 50 78
REMARK SMILES IDX 55 79 51 80 52 81 54 82 56 83 53 84
REMARK H PARENT 19 5 7 13 23 27 73 46 47 57
REMARK Flexibility Score: inf
ROOT
ATOM      1  C   UNL A   1      36.838  21.257  24.941  1.00  0.00     0.117 C 
ENDROOT
BRANCH   1   2
ATOM      2  N   UNL A   1      36.089  21.384  26.170  1.00  0.00    -0.356 N 
ATOM      3  C   UNL A   1      34.824  21.845  26.363  1.00  0.00     0.224 C 
ATOM      4  O   UNL A   1      34.295  21.595  27.449  1.00  0.00    -0.275 OA
ATOM      5  H   UNL A   1      36.562  21.096  26.984  1.00  0.00     0.163 HD
BRANCH   3   6
ATOM      6  C   UNL A   1      34.069  22.667  25.316  1.00  0.00     0.098 C 
BRANCH   6   7
ATOM      7  C   UNL A   1      34.639  24.090  25.170  1.00  0.00     0.018 C 
BRANCH   7   8
ATOM      8  C   UNL A   1      33.617  25.240  25.205  1.00  0.00    -0.017 C 
ATOM      9  C   UNL A   1      33.013  25.537  23.833  1.00  0.00     0.007 C 
ATOM     10  C   UNL A   1      32.497  24.882  26.189  1.00  0.00     0.007 C 
ENDBRANCH   7   8
ENDBRANCH   6   7
BRANCH   6  11
ATOM     11  C   UNL A   1      33.723  21.864  24.049  1.00  0.00     0.126 C 
BRANCH  11  12
ATOM     12  N   UNL A   1      32.540  21.015  24.150  1.00  0.00    -0.381 N 
ATOM     13  H   UNL A   1      31.659  21.437  24.017  1.00  0.00     0.160 HD
BRANCH  12  14
ATOM     14  C   UNL A   1      32.570  19.658  24.421  1.00  0.00     0.079 A 
ATOM     15  C   UNL A   1      32.591  19.125  25.707  1.00  0.00     0.038 A 
ATOM     16  C   UNL A   1      32.715  18.724  23.388  1.00  0.00     0.280 A 
ATOM     17  C   UNL A   1      32.784  17.754  25.918  1.00  0.00     0.109 A 
ATOM     18  N   UNL A   1      32.935  17.396  23.545  1.00  0.00    -0.044 NA
ATOM     19  C   UNL A   1      32.979  16.919  24.819  1.00  0.00     0.363 A 
BRANCH  19  20
ATOM     20  N   UNL A   1      33.280  15.494  25.114  1.00  0.00    -0.024 N 
ATOM     21  O   UNL A   1      32.320  14.730  25.284  1.00  0.00    -0.358 OA
ATOM     22  O   UNL A   1      34.472  15.149  25.150  1.00  0.00    -0.358 OA
ENDBRANCH  19  20
ENDBRANCH  12  14
ENDBRANCH  11  12
ENDBRANCH   6  11
ENDBRANCH   3   6
ENDBRANCH   1   2
BRANCH   1  23
ATOM     23  C   UNL A   1      37.855  20.132  24.949  1.00  0.00     0.042 C 
BRANCH  23  24
ATOM     24  C   UNL A   1      39.049  20.436  25.835  1.00  0.00     0.118 C 
BRANCH  24  25
ATOM     25  N   UNL A   1      40.025  19.348  25.860  1.00  0.00    -0.352 N 
ATOM     26  C   UNL A   1      41.384  19.357  26.070  1.00  0.00     0.251 C 
ATOM     27  H   UNL A   1      39.644  18.455  25.698  1.00  0.00     0.163 HD
ATOM     28  O   UNL A   1      42.044  18.346  25.872  1.00  0.00    -0.269 OA
BRANCH  26  29
ATOM     29  C   UNL A   1      42.060  20.595  26.506  1.00  0.00     0.039 A 
ATOM     30  C   UNL A   1      42.682  21.405  25.552  1.00  0.00     0.014 A 
ATOM     31  C   UNL A   1      42.075  20.958  27.850  1.00  0.00     0.014 A 
ATOM     32  C   UNL A   1      43.228  22.631  25.938  1.00  0.00     0.010 A 
ATOM     33  C   UNL A   1      42.510  22.224  28.213  1.00  0.00     0.010 A 
ATOM     34  C   UNL A   1      43.092  23.074  27.262  1.00  0.00    -0.014 A 
BRANCH  34  35
ATOM     35  C   UNL A   1      43.554  24.412  27.704  1.00  0.00     0.031 A 
ATOM     36  C   UNL A   1      42.541  25.449  28.100  1.00  0.00     0.074 A 
ATOM     37  C   UNL A   1      44.861  24.729  27.627  1.00  0.00     0.049 A 
ATOM     38  N   UNL A   1      42.706  26.730  28.312  1.00  0.00    -0.248 NA
ATOM     39  C   UNL A   1      41.146  24.994  28.225  1.00  0.00     0.031 C 
ATOM     40  C   UNL A   1      45.935  23.826  27.208  1.00  0.00     0.029 A 
ATOM     41  N   UNL A   1      45.506  25.915  27.877  1.00  0.00    -0.354 N 
ATOM     42  C   UNL A   1      41.433  27.236  28.548  1.00  0.00     0.074 A 
ATOM     43  C   UNL A   1      40.504  26.138  28.407  1.00  0.00     0.031 C 
ATOM     44  C   UNL A   1      47.105  24.483  27.249  1.00  0.00     0.029 A 
ATOM     45  C   UNL A   1      46.860  25.864  27.649  1.00  0.00     0.049 A 
ATOM     46  H   UNL A   1      45.042  26.725  28.189  1.00  0.00     0.167 HD
ATOM     47  C   UNL A   1      41.076  28.500  28.874  1.00  0.00     0.037 A 
ATOM     48  C   UNL A   1      47.794  26.829  27.739  1.00  0.00     0.037 A 
ATOM     49  C   UNL A   1      42.013  29.571  29.076  1.00  0.00     0.049 A 
ATOM     50  C   UNL A   1      47.378  28.214  28.141  1.00  0.00     0.074 A 
ATOM     51  C   UNL A   1      41.763  30.869  29.488  1.00  0.00     0.029 A 
ATOM     52  N   UNL A   1      43.383  29.463  28.893  1.00  0.00    -0.354 N 
ATOM     53  N   UNL A   1      46.178  28.670  28.407  1.00  0.00    -0.248 NA
ATOM     54  C   UNL A   1      48.443  29.221  28.255  1.00  0.00     0.031 C 
ATOM     55  C   UNL A   1      42.983  31.554  29.528  1.00  0.00     0.029 A 
ATOM     56  C   UNL A   1      43.992  30.672  29.175  1.00  0.00     0.049 A 
ATOM     57  H   UNL A   1      43.852  28.646  28.605  1.00  0.00     0.167 HD
ATOM     58  C   UNL A   1      46.345  30.006  28.747  1.00  0.00     0.074 A 
ATOM     59  C   UNL A   1      47.764  30.286  28.660  1.00  0.00     0.031 C 
ATOM     60  C   UNL A   1      45.409  30.919  29.100  1.00  0.00     0.037 A 
BRANCH  47  61
ATOM     61  C   UNL A   1      39.613  28.782  29.046  1.00  0.00     0.057 A 
ATOM     62  C   UNL A   1      38.966  28.607  30.277  1.00  0.00     0.134 A 
ATOM     63  C   UNL A   1      38.845  29.252  27.974  1.00  0.00     0.134 A 
ATOM     64  F   UNL A   1      39.642  28.145  31.340  1.00  0.00    -0.206 F 
ATOM     65  C   UNL A   1      37.603  28.860  30.428  1.00  0.00     0.040 A 
ATOM     66  C   UNL A   1      37.485  29.535  28.120  1.00  0.00     0.040 A 
ATOM     67  F   UNL A   1      39.401  29.446  26.769  1.00  0.00    -0.206 F 
ATOM     68  C   UNL A   1      36.859  29.331  29.348  1.00  0.00     0.006 A 
ENDBRANCH  47  61
BRANCH  48  69
ATOM     69  C   UNL A   1      49.218  26.510  27.469  1.00  0.00     0.057 A 
ATOM     70  C   UNL A   1      50.063  26.076  28.497  1.00  0.00     0.134 A 
ATOM     71  C   UNL A   1      49.768  26.624  26.186  1.00  0.00     0.134 A 
ATOM     72  F   UNL A   1      49.596  25.963  29.749  1.00  0.00    -0.206 F 
ATOM     73  C   UNL A   1      51.408  25.783  28.265  1.00  0.00     0.040 A 
ATOM     74  C   UNL A   1      51.105  26.313  25.935  1.00  0.00     0.040 A 
ATOM     75  F   UNL A   1      49.008  27.024  25.156  1.00  0.00    -0.206 F 
ATOM     76  C   UNL A   1      51.931  25.898  26.979  1.00  0.00     0.006 A 
ENDBRANCH  48  69
BRANCH  60  77
ATOM     77  C   UNL A   1      45.890  32.291  29.461  1.00  0.00     0.057 A 
ATOM     78  C   UNL A   1      45.976  33.315  28.510  1.00  0.00     0.134 A 
ATOM     79  C   UNL A   1      46.208  32.605  30.788  1.00  0.00     0.134 A 
ATOM     80  F   UNL A   1      45.697  33.071  27.221  1.00  0.00    -0.206 F 
ATOM     81  C   UNL A   1      46.373  34.604  28.866  1.00  0.00     0.040 A 
ATOM     82  C   UNL A   1      46.584  33.895  31.160  1.00  0.00     0.040 A 
ATOM     83  F   UNL A   1      46.136  31.669  31.746  1.00  0.00    -0.206 F 
ATOM     84  C   UNL A   1      46.670  34.899  30.197  1.00  0.00     0.006 A 
ENDBRANCH  60  77
ENDBRANCH  34  35
ENDBRANCH  26  29
ENDBRANCH  24  25
ENDBRANCH  23  24
ENDBRANCH   1  23
TORSDOF 16
ENDMDL
