MODEL 1
REMARK VINA RESULT:     -12.1      0.000      0.000
REMARK SMILES Cc1cc(=O)cc(C)n1-c1ccc(Cl)cc1C(=O)NCCCNC(=O)c1ccc(-c2c3nc(c(-c4c(F)cccc4F)c4ccc([nH]4)c(-c4c(F)cccc4F)c4nc(c(-c5c(F)cccc5F)c5ccc2[nH]5)C=C4)C=C3)cc1
REMARK SMILES IDX 21 1 20 2 19 3 17 4 18 5 16 7 10 8 11 9 12 10 15 11 13 12
REMARK SMILES IDX 14 13 9 14 1 15 2 16 3 17 4 18 7 19 5 20 6 21 8 22 22 23
REMARK SMILES IDX 23 24 24 25 25 27 26 28 27 29 79 30 28 31 78 32 29 33 30 34
REMARK SMILES IDX 31 35 72 36 32 37 77 38 71 39 73 40 33 41 76 42 70 43 69 44
REMARK SMILES IDX 34 46 60 47 43 48 59 49 44 50 47 51 58 52 74 53 45 54 46 55
REMARK SMILES IDX 57 57 75 58 48 59 35 60 36 61 41 62 37 63 38 64 40 65 42 66
REMARK SMILES IDX 39 67 61 68 62 69 67 70 63 71 64 72 66 73 68 74 65 75 49 76
REMARK SMILES IDX 50 77 55 78 51 79 52 80 54 81 56 82 53 83
REMARK H PARENT 19 6 23 26 73 45 47 56
REMARK Flexibility Score: inf
ROOT
ATOM      1  C   UNL A   1      37.924  19.876  24.681  1.00  0.00     0.042 C 
ENDROOT
BRANCH   1   2
ATOM      2  C   UNL A   1      37.051  21.118  24.605  1.00  0.00     0.118 C 
BRANCH   2   3
ATOM      3  N   UNL A   1      36.271  21.425  25.775  1.00  0.00    -0.352 N 
ATOM      4  C   UNL A   1      34.936  21.248  26.026  1.00  0.00     0.253 C 
ATOM      5  O   UNL A   1      34.569  21.486  27.182  1.00  0.00    -0.269 OA
ATOM      6  H   UNL A   1      36.780  21.827  26.515  1.00  0.00     0.163 HD
BRANCH   4   7
ATOM      7  C   UNL A   1      33.884  20.876  25.027  1.00  0.00     0.065 A 
ATOM      8  C   UNL A   1      32.973  21.705  24.329  1.00  0.00     0.058 A 
ATOM      9  C   UNL A   1      32.167  21.122  23.312  1.00  0.00     0.029 A 
ATOM     10  C   UNL A   1      32.220  19.763  23.013  1.00  0.00     0.023 A 
ATOM     11  C   UNL A   1      33.919  19.497  24.698  1.00  0.00     0.036 A 
ATOM     12  C   UNL A   1      33.094  18.952  23.716  1.00  0.00     0.041 A 
ATOM     13  Cl  UNL A   1      33.169  17.271  23.363  1.00  0.00    -0.084 Cl
BRANCH   8  14
ATOM     14  N   UNL A   1      32.767  23.105  24.552  1.00  0.00    -0.317 N 
ATOM     15  C   UNL A   1      30.758  22.627  26.062  1.00  0.00     0.065 C 
ATOM     16  C   UNL A   1      31.728  23.573  25.394  1.00  0.00     0.024 A 
ATOM     17  C   UNL A   1      31.542  24.889  25.625  1.00  0.00     0.073 A 
ATOM     18  C   UNL A   1      32.433  25.883  24.998  1.00  0.00     0.182 A 
ATOM     19  C   UNL A   1      33.681  24.045  23.993  1.00  0.00     0.024 A 
ATOM     20  O   UNL A   1      32.262  27.088  25.139  1.00  0.00    -0.290 OA
ATOM     21  C   UNL A   1      33.543  25.371  24.179  1.00  0.00     0.073 A 
ATOM     22  C   UNL A   1      34.793  23.622  23.051  1.00  0.00     0.065 C 
ENDBRANCH   8  14
ENDBRANCH   4   7
ENDBRANCH   2   3
ENDBRANCH   1   2
BRANCH   1  23
ATOM     23  C   UNL A   1      38.722  19.760  25.973  1.00  0.00     0.118 C 
BRANCH  23  24
ATOM     24  N   UNL A   1      39.973  19.022  25.857  1.00  0.00    -0.352 N 
ATOM     25  C   UNL A   1      41.296  19.346  26.041  1.00  0.00     0.251 C 
ATOM     26  H   UNL A   1      39.842  18.083  25.587  1.00  0.00     0.163 HD
ATOM     27  O   UNL A   1      42.140  18.475  25.830  1.00  0.00    -0.269 OA
BRANCH  25  28
ATOM     28  C   UNL A   1      41.745  20.702  26.444  1.00  0.00     0.039 A 
ATOM     29  C   UNL A   1      42.072  20.931  27.788  1.00  0.00     0.014 A 
ATOM     30  C   UNL A   1      41.798  21.768  25.553  1.00  0.00     0.014 A 
ATOM     31  C   UNL A   1      42.501  22.198  28.210  1.00  0.00     0.010 A 
ATOM     32  C   UNL A   1      42.343  22.989  25.941  1.00  0.00     0.010 A 
ATOM     33  C   UNL A   1      42.681  23.232  27.278  1.00  0.00    -0.014 A 
BRANCH  33  34
ATOM     34  C   UNL A   1      43.173  24.583  27.661  1.00  0.00     0.031 A 
ATOM     35  C   UNL A   1      42.198  25.640  28.120  1.00  0.00     0.074 A 
ATOM     36  C   UNL A   1      44.475  24.897  27.517  1.00  0.00     0.049 A 
ATOM     37  N   UNL A   1      42.400  26.913  28.352  1.00  0.00    -0.248 NA
ATOM     38  C   UNL A   1      40.799  25.217  28.297  1.00  0.00     0.031 C 
ATOM     39  C   UNL A   1      45.521  23.988  27.047  1.00  0.00     0.029 A 
ATOM     40  N   UNL A   1      45.140  26.075  27.751  1.00  0.00    -0.354 N 
ATOM     41  C   UNL A   1      41.154  27.441  28.667  1.00  0.00     0.074 A 
ATOM     42  C   UNL A   1      40.192  26.371  28.522  1.00  0.00     0.031 C 
ATOM     43  C   UNL A   1      46.702  24.623  27.077  1.00  0.00     0.029 A 
ATOM     44  C   UNL A   1      46.493  25.998  27.521  1.00  0.00     0.049 A 
ATOM     45  H   UNL A   1      44.692  26.897  28.053  1.00  0.00     0.167 HD
ATOM     46  C   UNL A   1      40.839  28.691  29.083  1.00  0.00     0.037 A 
ATOM     47  C   UNL A   1      47.457  26.927  27.659  1.00  0.00     0.037 A 
ATOM     48  C   UNL A   1      41.802  29.740  29.287  1.00  0.00     0.049 A 
ATOM     49  C   UNL A   1      47.090  28.312  28.111  1.00  0.00     0.074 A 
ATOM     50  C   UNL A   1      41.594  31.020  29.765  1.00  0.00     0.029 A 
ATOM     51  N   UNL A   1      43.160  29.619  29.034  1.00  0.00    -0.354 N 
ATOM     52  N   UNL A   1      45.912  28.789  28.435  1.00  0.00    -0.248 NA
ATOM     53  C   UNL A   1      48.182  29.291  28.206  1.00  0.00     0.031 C 
ATOM     54  C   UNL A   1      42.825  31.685  29.777  1.00  0.00     0.029 A 
ATOM     55  C   UNL A   1      43.802  30.807  29.335  1.00  0.00     0.049 A 
ATOM     56  H   UNL A   1      43.602  28.808  28.693  1.00  0.00     0.167 HD
ATOM     57  C   UNL A   1      46.121  30.114  28.789  1.00  0.00     0.074 A 
ATOM     58  C   UNL A   1      47.542  30.365  28.650  1.00  0.00     0.031 C 
ATOM     59  C   UNL A   1      45.217  31.040  29.190  1.00  0.00     0.037 A 
BRANCH  46  60
ATOM     60  C   UNL A   1      39.393  28.975  29.375  1.00  0.00     0.057 A 
ATOM     61  C   UNL A   1      38.848  28.770  30.650  1.00  0.00     0.134 A 
ATOM     62  C   UNL A   1      38.536  29.462  28.380  1.00  0.00     0.134 A 
ATOM     63  F   UNL A   1      39.610  28.295  31.647  1.00  0.00    -0.206 F 
ATOM     64  C   UNL A   1      37.497  28.999  30.915  1.00  0.00     0.040 A 
ATOM     65  C   UNL A   1      37.190  29.724  28.640  1.00  0.00     0.040 A 
ATOM     66  F   UNL A   1      38.994  29.691  27.139  1.00  0.00    -0.206 F 
ATOM     67  C   UNL A   1      36.664  29.482  29.908  1.00  0.00     0.006 A 
ENDBRANCH  46  60
BRANCH  47  68
ATOM     68  C   UNL A   1      48.873  26.551  27.426  1.00  0.00     0.057 A 
ATOM     69  C   UNL A   1      49.665  26.086  28.482  1.00  0.00     0.134 A 
ATOM     70  C   UNL A   1      49.454  26.597  26.153  1.00  0.00     0.134 A 
ATOM     71  F   UNL A   1      49.166  26.034  29.726  1.00  0.00    -0.206 F 
ATOM     72  C   UNL A   1      50.984  25.677  28.283  1.00  0.00     0.040 A 
ATOM     73  C   UNL A   1      50.767  26.174  25.936  1.00  0.00     0.040 A 
ATOM     74  F   UNL A   1      48.745  27.025  25.098  1.00  0.00    -0.206 F 
ATOM     75  C   UNL A   1      51.536  25.713  27.004  1.00  0.00     0.006 A 
ENDBRANCH  47  68
BRANCH  59  76
ATOM     76  C   UNL A   1      45.724  32.412  29.513  1.00  0.00     0.057 A 
ATOM     77  C   UNL A   1      45.702  33.441  28.564  1.00  0.00     0.134 A 
ATOM     78  C   UNL A   1      46.149  32.732  30.810  1.00  0.00     0.134 A 
ATOM     79  F   UNL A   1      45.314  33.194  27.304  1.00  0.00    -0.206 F 
ATOM     80  C   UNL A   1      46.085  34.742  28.893  1.00  0.00     0.040 A 
ATOM     81  C   UNL A   1      46.515  34.033  31.156  1.00  0.00     0.040 A 
ATOM     82  F   UNL A   1      46.184  31.792  31.766  1.00  0.00    -0.206 F 
ATOM     83  C   UNL A   1      46.482  35.043  30.195  1.00  0.00     0.006 A 
ENDBRANCH  59  76
ENDBRANCH  33  34
ENDBRANCH  25  28
ENDBRANCH  23  24
ENDBRANCH   1  23
TORSDOF 11
ENDMDL
MODEL 2
REMARK VINA RESULT:     -12.0      5.268     10.232
REMARK SMILES Cc1cc(=O)cc(C)n1-c1ccc(Cl)cc1C(=O)NCCCNC(=O)c1ccc(-c2c3nc(c(-c4c(F)cccc4F)c4ccc([nH]4)c(-c4c(F)cccc4F)c4nc(c(-c5c(F)cccc5F)c5ccc2[nH]5)C=C4)C=C3)cc1
REMARK SMILES IDX 21 1 20 2 19 3 17 4 18 5 16 7 10 8 11 9 12 10 15 11 13 12
REMARK SMILES IDX 14 13 9 14 1 15 2 16 3 17 4 18 7 19 5 20 6 21 8 22 22 23
REMARK SMILES IDX 23 24 24 25 25 27 26 28 27 29 79 30 28 31 78 32 29 33 30 34
REMARK SMILES IDX 31 35 72 36 32 37 77 38 71 39 73 40 33 41 76 42 70 43 69 44
REMARK SMILES IDX 34 46 60 47 43 48 59 49 44 50 47 51 58 52 74 53 45 54 46 55
REMARK SMILES IDX 57 57 75 58 48 59 35 60 36 61 41 62 37 63 38 64 40 65 42 66
REMARK SMILES IDX 39 67 61 68 62 69 67 70 63 71 64 72 66 73 68 74 65 75 49 76
REMARK SMILES IDX 50 77 55 78 51 79 52 80 54 81 56 82 53 83
REMARK H PARENT 19 6 23 26 73 45 47 56
REMARK Flexibility Score: inf
ROOT
ATOM      1  C   UNL A   1      31.313  31.554  26.751  1.00  0.00     0.042 C 
ENDROOT
BRANCH   1   2
ATOM      2  C   UNL A   1      31.791  30.118  26.606  1.00  0.00     0.118 C 
BRANCH   2   3
ATOM      3  N   UNL A   1      32.650  29.840  25.484  1.00  0.00    -0.352 N 
ATOM      4  C   UNL A   1      32.358  29.333  24.245  1.00  0.00     0.253 C 
ATOM      5  O   UNL A   1      33.290  29.328  23.434  1.00  0.00    -0.269 OA
ATOM      6  H   UNL A   1      33.601  30.048  25.632  1.00  0.00     0.163 HD
BRANCH   4   7
ATOM      7  C   UNL A   1      31.060  28.722  23.816  1.00  0.00     0.065 A 
ATOM      8  C   UNL A   1      30.665  27.363  23.808  1.00  0.00     0.058 A 
ATOM      9  C   UNL A   1      29.313  27.052  23.491  1.00  0.00     0.029 A 
ATOM     10  C   UNL A   1      28.385  28.034  23.155  1.00  0.00     0.023 A 
ATOM     11  C   UNL A   1      30.093  29.702  23.473  1.00  0.00     0.036 A 
ATOM     12  C   UNL A   1      28.784  29.360  23.139  1.00  0.00     0.041 A 
ATOM     13  Cl  UNL A   1      27.653  30.586  22.722  1.00  0.00    -0.084 Cl
BRANCH   8  14
ATOM     14  N   UNL A   1      31.508  26.239  24.083  1.00  0.00    -0.317 N 
ATOM     15  C   UNL A   1      32.036  25.953  21.596  1.00  0.00     0.065 C 
ATOM     16  C   UNL A   1      32.194  25.559  23.046  1.00  0.00     0.024 A 
ATOM     17  C   UNL A   1      33.007  24.513  23.300  1.00  0.00     0.073 A 
ATOM     18  C   UNL A   1      33.203  24.050  24.687  1.00  0.00     0.182 A 
ATOM     19  C   UNL A   1      31.739  25.852  25.435  1.00  0.00     0.024 A 
ATOM     20  O   UNL A   1      33.889  23.070  24.953  1.00  0.00    -0.290 OA
ATOM     21  C   UNL A   1      32.532  24.811  25.753  1.00  0.00     0.073 A 
ATOM     22  C   UNL A   1      31.012  26.507  26.594  1.00  0.00     0.065 C 
ENDBRANCH   8  14
ENDBRANCH   4   7
ENDBRANCH   2   3
ENDBRANCH   1   2
BRANCH   1  23
ATOM     23  C   UNL A   1      32.397  32.595  26.501  1.00  0.00     0.118 C 
BRANCH  23  24
ATOM     24  N   UNL A   1      32.249  33.830  27.260  1.00  0.00    -0.352 N 
ATOM     25  C   UNL A   1      32.936  34.398  28.306  1.00  0.00     0.251 C 
ATOM     26  H   UNL A   1      31.488  34.378  26.958  1.00  0.00     0.163 HD
ATOM     27  O   UNL A   1      32.528  35.471  28.752  1.00  0.00    -0.269 OA
BRANCH  25  28
ATOM     28  C   UNL A   1      34.117  33.758  28.937  1.00  0.00     0.039 A 
ATOM     29  C   UNL A   1      35.377  34.346  28.762  1.00  0.00     0.014 A 
ATOM     30  C   UNL A   1      34.031  32.565  29.647  1.00  0.00     0.014 A 
ATOM     31  C   UNL A   1      36.518  33.773  29.342  1.00  0.00     0.010 A 
ATOM     32  C   UNL A   1      35.137  32.065  30.329  1.00  0.00     0.010 A 
ATOM     33  C   UNL A   1      36.401  32.646  30.169  1.00  0.00    -0.014 A 
BRANCH  33  34
ATOM     34  C   UNL A   1      37.570  32.020  30.845  1.00  0.00     0.031 A 
ATOM     35  C   UNL A   1      38.388  30.974  30.126  1.00  0.00     0.074 A 
ATOM     36  C   UNL A   1      37.852  32.317  32.128  1.00  0.00     0.049 A 
ATOM     37  N   UNL A   1      39.342  30.204  30.585  1.00  0.00    -0.248 NA
ATOM     38  C   UNL A   1      38.053  30.729  28.713  1.00  0.00     0.031 C 
ATOM     39  C   UNL A   1      37.123  33.279  32.956  1.00  0.00     0.029 A 
ATOM     40  N   UNL A   1      38.830  31.835  32.963  1.00  0.00    -0.354 N 
ATOM     41  C   UNL A   1      39.694  29.370  29.531  1.00  0.00     0.074 A 
ATOM     42  C   UNL A   1      38.800  29.673  28.436  1.00  0.00     0.031 C 
ATOM     43  C   UNL A   1      37.710  33.356  34.161  1.00  0.00     0.029 A 
ATOM     44  C   UNL A   1      38.825  32.415  34.208  1.00  0.00     0.049 A 
ATOM     45  H   UNL A   1      39.473  31.140  32.695  1.00  0.00     0.167 HD
ATOM     46  C   UNL A   1      40.698  28.463  29.461  1.00  0.00     0.037 A 
ATOM     47  C   UNL A   1      39.632  32.217  35.267  1.00  0.00     0.037 A 
ATOM     48  C   UNL A   1      41.626  28.203  30.528  1.00  0.00     0.049 A 
ATOM     49  C   UNL A   1      40.733  31.199  35.177  1.00  0.00     0.074 A 
ATOM     50  C   UNL A   1      42.715  27.351  30.536  1.00  0.00     0.029 A 
ATOM     51  N   UNL A   1      41.578  28.808  31.775  1.00  0.00    -0.354 N 
ATOM     52  N   UNL A   1      41.074  30.439  34.164  1.00  0.00    -0.248 NA
ATOM     53  C   UNL A   1      41.557  31.003  36.379  1.00  0.00     0.031 C 
ATOM     54  C   UNL A   1      43.312  27.419  31.800  1.00  0.00     0.029 A 
ATOM     55  C   UNL A   1      42.612  28.338  32.566  1.00  0.00     0.049 A 
ATOM     56  H   UNL A   1      40.909  29.474  32.055  1.00  0.00     0.167 HD
ATOM     57  C   UNL A   1      42.158  29.689  34.597  1.00  0.00     0.074 A 
ATOM     58  C   UNL A   1      42.427  30.092  35.963  1.00  0.00     0.031 C 
ATOM     59  C   UNL A   1      42.865  28.749  33.924  1.00  0.00     0.037 A 
BRANCH  46  60
ATOM     60  C   UNL A   1      40.856  27.711  28.170  1.00  0.00     0.057 A 
ATOM     61  C   UNL A   1      40.228  26.476  27.958  1.00  0.00     0.134 A 
ATOM     62  C   UNL A   1      41.638  28.223  27.127  1.00  0.00     0.134 A 
ATOM     63  F   UNL A   1      39.474  25.924  28.920  1.00  0.00    -0.206 F 
ATOM     64  C   UNL A   1      40.403  25.759  26.773  1.00  0.00     0.040 A 
ATOM     65  C   UNL A   1      41.796  27.529  25.926  1.00  0.00     0.040 A 
ATOM     66  F   UNL A   1      42.261  29.405  27.258  1.00  0.00    -0.206 F 
ATOM     67  C   UNL A   1      41.187  26.289  25.751  1.00  0.00     0.006 A 
ENDBRANCH  46  60
BRANCH  47  68
ATOM     68  C   UNL A   1      39.462  33.051  36.482  1.00  0.00     0.057 A 
ATOM     69  C   UNL A   1      40.167  34.253  36.619  1.00  0.00     0.134 A 
ATOM     70  C   UNL A   1      38.568  32.706  37.502  1.00  0.00     0.134 A 
ATOM     71  F   UNL A   1      41.048  34.628  35.680  1.00  0.00    -0.206 F 
ATOM     72  C   UNL A   1      39.989  35.083  37.727  1.00  0.00     0.040 A 
ATOM     73  C   UNL A   1      38.367  33.536  38.607  1.00  0.00     0.040 A 
ATOM     74  F   UNL A   1      37.856  31.572  37.425  1.00  0.00    -0.206 F 
ATOM     75  C   UNL A   1      39.080  34.728  38.721  1.00  0.00     0.006 A 
ENDBRANCH  47  68
BRANCH  59  76
ATOM     76  C   UNL A   1      44.001  28.087  34.643  1.00  0.00     0.057 A 
ATOM     77  C   UNL A   1      43.828  26.873  35.318  1.00  0.00     0.134 A 
ATOM     78  C   UNL A   1      45.296  28.618  34.578  1.00  0.00     0.134 A 
ATOM     79  F   UNL A   1      42.611  26.320  35.420  1.00  0.00    -0.206 F 
ATOM     80  C   UNL A   1      44.906  26.209  35.905  1.00  0.00     0.040 A 
ATOM     81  C   UNL A   1      46.384  27.953  35.144  1.00  0.00     0.040 A 
ATOM     82  F   UNL A   1      45.527  29.774  33.938  1.00  0.00    -0.206 F 
ATOM     83  C   UNL A   1      46.189  26.744  35.809  1.00  0.00     0.006 A 
ENDBRANCH  59  76
ENDBRANCH  33  34
ENDBRANCH  25  28
ENDBRANCH  23  24
ENDBRANCH   1  23
TORSDOF 11
ENDMDL
MODEL 3
REMARK VINA RESULT:     -12.0      1.108      2.029
REMARK SMILES Cc1cc(=O)cc(C)n1-c1ccc(Cl)cc1C(=O)NCCCNC(=O)c1ccc(-c2c3nc(c(-c4c(F)cccc4F)c4ccc([nH]4)c(-c4c(F)cccc4F)c4nc(c(-c5c(F)cccc5F)c5ccc2[nH]5)C=C4)C=C3)cc1
REMARK SMILES IDX 21 1 20 2 19 3 17 4 18 5 16 7 10 8 11 9 12 10 15 11 13 12
REMARK SMILES IDX 14 13 9 14 1 15 2 16 3 17 4 18 7 19 5 20 6 21 8 22 22 23
REMARK SMILES IDX 23 24 24 25 25 27 26 28 27 29 79 30 28 31 78 32 29 33 30 34
REMARK SMILES IDX 31 35 72 36 32 37 77 38 71 39 73 40 33 41 76 42 70 43 69 44
REMARK SMILES IDX 34 46 60 47 43 48 59 49 44 50 47 51 58 52 74 53 45 54 46 55
REMARK SMILES IDX 57 57 75 58 48 59 35 60 36 61 41 62 37 63 38 64 40 65 42 66
REMARK SMILES IDX 39 67 61 68 62 69 67 70 63 71 64 72 66 73 68 74 65 75 49 76
REMARK SMILES IDX 50 77 55 78 51 79 52 80 54 81 56 82 53 83
REMARK H PARENT 19 6 23 26 73 45 47 56
REMARK Flexibility Score: inf
ROOT
ATOM      1  C   UNL A   1      37.846  20.157  24.653  1.00  0.00     0.042 C 
ENDROOT
BRANCH   1   2
ATOM      2  C   UNL A   1      37.012  21.427  24.721  1.00  0.00     0.118 C 
BRANCH   2   3
ATOM      3  N   UNL A   1      36.206  21.601  25.901  1.00  0.00    -0.352 N 
ATOM      4  C   UNL A   1      34.889  21.299  26.130  1.00  0.00     0.253 C 
ATOM      5  O   UNL A   1      34.501  21.440  27.295  1.00  0.00    -0.269 OA
ATOM      6  H   UNL A   1      36.678  22.000  26.667  1.00  0.00     0.163 HD
BRANCH   4   7
ATOM      7  C   UNL A   1      33.875  20.900  25.103  1.00  0.00     0.065 A 
ATOM      8  C   UNL A   1      32.998  21.710  24.342  1.00  0.00     0.058 A 
ATOM      9  C   UNL A   1      32.229  21.097  23.315  1.00  0.00     0.029 A 
ATOM     10  C   UNL A   1      32.284  19.728  23.063  1.00  0.00     0.023 A 
ATOM     11  C   UNL A   1      33.914  19.511  24.823  1.00  0.00     0.036 A 
ATOM     12  C   UNL A   1      33.124  18.937  23.827  1.00  0.00     0.041 A 
ATOM     13  Cl  UNL A   1      33.202  17.245  23.534  1.00  0.00    -0.084 Cl
BRANCH   8  14
ATOM     14  N   UNL A   1      32.793  23.117  24.510  1.00  0.00    -0.317 N 
ATOM     15  C   UNL A   1      30.823  22.701  26.089  1.00  0.00     0.065 C 
ATOM     16  C   UNL A   1      31.774  23.619  25.357  1.00  0.00     0.024 A 
ATOM     17  C   UNL A   1      31.589  24.943  25.536  1.00  0.00     0.073 A 
ATOM     18  C   UNL A   1      32.461  25.912  24.845  1.00  0.00     0.182 A 
ATOM     19  C   UNL A   1      33.690  24.034  23.889  1.00  0.00     0.024 A 
ATOM     20  O   UNL A   1      32.289  27.121  24.938  1.00  0.00    -0.290 OA
ATOM     21  C   UNL A   1      33.552  25.367  24.021  1.00  0.00     0.073 A 
ATOM     22  C   UNL A   1      34.780  23.574  22.939  1.00  0.00     0.065 C 
ENDBRANCH   8  14
ENDBRANCH   4   7
ENDBRANCH   2   3
ENDBRANCH   1   2
BRANCH   1  23
ATOM     23  C   UNL A   1      38.610  19.850  25.935  1.00  0.00     0.118 C 
BRANCH  23  24
ATOM     24  N   UNL A   1      39.906  19.212  25.738  1.00  0.00    -0.352 N 
ATOM     25  C   UNL A   1      41.205  19.595  25.967  1.00  0.00     0.251 C 
ATOM     26  H   UNL A   1      39.833  18.306  25.357  1.00  0.00     0.163 HD
ATOM     27  O   UNL A   1      42.103  18.810  25.658  1.00  0.00    -0.269 OA
BRANCH  25  28
ATOM     28  C   UNL A   1      41.568  20.918  26.531  1.00  0.00     0.039 A 
ATOM     29  C   UNL A   1      41.638  21.061  27.924  1.00  0.00     0.014 A 
ATOM     30  C   UNL A   1      41.784  22.038  25.734  1.00  0.00     0.014 A 
ATOM     31  C   UNL A   1      41.978  22.295  28.497  1.00  0.00     0.010 A 
ATOM     32  C   UNL A   1      42.245  23.227  26.293  1.00  0.00     0.010 A 
ATOM     33  C   UNL A   1      42.326  23.382  27.683  1.00  0.00    -0.014 A 
BRANCH  33  34
ATOM     34  C   UNL A   1      42.736  24.702  28.235  1.00  0.00     0.031 A 
ATOM     35  C   UNL A   1      41.704  25.781  28.457  1.00  0.00     0.074 A 
ATOM     36  C   UNL A   1      44.037  24.971  28.457  1.00  0.00     0.049 A 
ATOM     37  N   UNL A   1      41.872  27.038  28.783  1.00  0.00    -0.248 NA
ATOM     38  C   UNL A   1      40.297  25.406  28.237  1.00  0.00     0.031 C 
ATOM     39  C   UNL A   1      45.144  24.037  28.249  1.00  0.00     0.029 A 
ATOM     40  N   UNL A   1      44.648  26.116  28.905  1.00  0.00    -0.354 N 
ATOM     41  C   UNL A   1      40.603  27.603  28.773  1.00  0.00     0.074 A 
ATOM     42  C   UNL A   1      39.685  26.575  28.335  1.00  0.00     0.031 C 
ATOM     43  C   UNL A   1      46.292  24.626  28.619  1.00  0.00     0.029 A 
ATOM     44  C   UNL A   1      46.010  25.994  29.044  1.00  0.00     0.049 A 
ATOM     45  H   UNL A   1      44.159  26.945  29.108  1.00  0.00     0.167 HD
ATOM     46  C   UNL A   1      40.223  28.851  29.138  1.00  0.00     0.037 A 
ATOM     47  C   UNL A   1      46.927  26.882  29.470  1.00  0.00     0.037 A 
ATOM     48  C   UNL A   1      41.125  29.857  29.632  1.00  0.00     0.049 A 
ATOM     49  C   UNL A   1      46.492  28.266  29.860  1.00  0.00     0.074 A 
ATOM     50  C   UNL A   1      40.833  31.129  30.086  1.00  0.00     0.029 A 
ATOM     51  N   UNL A   1      42.497  29.692  29.748  1.00  0.00    -0.354 N 
ATOM     52  N   UNL A   1      45.284  28.777  29.875  1.00  0.00    -0.248 NA
ATOM     53  C   UNL A   1      47.546  29.200  30.282  1.00  0.00     0.031 C 
ATOM     54  C   UNL A   1      42.034  31.747  30.452  1.00  0.00     0.029 A 
ATOM     55  C   UNL A   1      43.068  30.846  30.254  1.00  0.00     0.049 A 
ATOM     56  H   UNL A   1      42.991  28.875  29.506  1.00  0.00     0.167 HD
ATOM     57  C   UNL A   1      45.428  30.083  30.323  1.00  0.00     0.074 A 
ATOM     58  C   UNL A   1      46.840  30.284  30.579  1.00  0.00     0.031 C 
ATOM     59  C   UNL A   1      44.476  31.030  30.502  1.00  0.00     0.037 A 
BRANCH  46  60
ATOM     60  C   UNL A   1      38.761  29.181  29.043  1.00  0.00     0.057 A 
ATOM     61  C   UNL A   1      38.175  29.579  27.833  1.00  0.00     0.134 A 
ATOM     62  C   UNL A   1      37.926  29.097  30.165  1.00  0.00     0.134 A 
ATOM     63  F   UNL A   1      38.919  29.691  26.723  1.00  0.00    -0.206 F 
ATOM     64  C   UNL A   1      36.824  29.920  27.750  1.00  0.00     0.040 A 
ATOM     65  C   UNL A   1      36.567  29.406  30.088  1.00  0.00     0.040 A 
ATOM     66  F   UNL A   1      38.418  28.713  31.353  1.00  0.00    -0.206 F 
ATOM     67  C   UNL A   1      36.015  29.830  28.881  1.00  0.00     0.006 A 
ENDBRANCH  46  60
BRANCH  47  68
ATOM     68  C   UNL A   1      48.343  26.461  29.610  1.00  0.00     0.057 A 
ATOM     69  C   UNL A   1      49.258  26.701  28.578  1.00  0.00     0.134 A 
ATOM     70  C   UNL A   1      48.828  25.861  30.777  1.00  0.00     0.134 A 
ATOM     71  F   UNL A   1      48.847  27.259  27.429  1.00  0.00    -0.206 F 
ATOM     72  C   UNL A   1      50.606  26.361  28.701  1.00  0.00     0.040 A 
ATOM     73  C   UNL A   1      50.178  25.534  30.922  1.00  0.00     0.040 A 
ATOM     74  F   UNL A   1      48.004  25.614  31.806  1.00  0.00    -0.206 F 
ATOM     75  C   UNL A   1      51.070  25.783  29.880  1.00  0.00     0.006 A 
ENDBRANCH  47  68
BRANCH  59  76
ATOM     76  C   UNL A   1      44.916  32.372  31.002  1.00  0.00     0.057 A 
ATOM     77  C   UNL A   1      45.042  32.635  32.371  1.00  0.00     0.134 A 
ATOM     78  C   UNL A   1      45.309  33.376  30.108  1.00  0.00     0.134 A 
ATOM     79  F   UNL A   1      44.673  31.716  33.276  1.00  0.00    -0.206 F 
ATOM     80  C   UNL A   1      45.543  33.853  32.835  1.00  0.00     0.040 A 
ATOM     81  C   UNL A   1      45.830  34.589  30.558  1.00  0.00     0.040 A 
ATOM     82  F   UNL A   1      45.222  33.181  28.783  1.00  0.00    -0.206 F 
ATOM     83  C   UNL A   1      45.949  34.829  31.926  1.00  0.00     0.006 A 
ENDBRANCH  59  76
ENDBRANCH  33  34
ENDBRANCH  25  28
ENDBRANCH  23  24
ENDBRANCH   1  23
TORSDOF 11
ENDMDL
