MODEL 1
REMARK VINA RESULT:     -12.1      0.000      0.000
REMARK SMILES CC1(C)CC[N@H+](Cc2ccc(F)cc2/C=C/C(=O)NCCCNC(=O)c2ccc(-c3c4nc(c(-c5c(F)cccc5F)c5ccc([nH]5)c(-c5c(F)cccc5F)c5nc(c(-c6c(F)cccc6F)c6ccc3[nH]6)C=C5)C=C4)cc2)C1
REMARK SMILES IDX 20 1 19 2 17 3 18 4 16 6 15 7 14 8 8 9 9 10 10 11 13 12
REMARK SMILES IDX 11 13 12 14 7 15 6 16 1 17 2 18 3 19 4 20 80 21 5 22 21 24
REMARK SMILES IDX 22 25 23 26 24 27 25 29 26 30 27 31 79 32 28 33 78 34 29 35
REMARK SMILES IDX 30 36 31 37 72 38 32 39 77 40 71 41 73 42 33 43 76 44 70 45
REMARK SMILES IDX 69 46 34 48 60 49 43 50 59 51 44 52 47 53 58 54 74 55 45 56
REMARK SMILES IDX 46 57 57 59 75 60 48 61 35 62 36 63 41 64 37 65 38 66 40 67
REMARK SMILES IDX 42 68 39 69 61 70 62 71 67 72 63 73 64 74 66 75 68 76 65 77
REMARK SMILES IDX 49 78 50 79 55 80 51 81 52 82 54 83 56 84 53 85
REMARK H PARENT 19 5 6 23 23 28 73 47 47 58
REMARK Flexibility Score: inf
ROOT
ATOM      1  C   UNL A   1      32.080  27.164  25.867  1.00  0.00     0.118 C 
ENDROOT
BRANCH   1   2
ATOM      2  N   UNL A   1      31.335  26.080  26.480  1.00  0.00    -0.352 N 
ATOM      3  C   UNL A   1      31.639  24.761  26.592  1.00  0.00     0.244 C 
ATOM      4  O   UNL A   1      30.918  24.021  27.256  1.00  0.00    -0.270 OA
ATOM      5  H   UNL A   1      30.472  26.342  26.875  1.00  0.00     0.163 HD
BRANCH   3   6
ATOM      6  C   UNL A   1      32.881  24.225  25.997  1.00  0.00     0.072 C 
ATOM      7  C   UNL A   1      33.704  23.371  26.623  1.00  0.00     0.014 C 
BRANCH   7   8
ATOM      8  C   UNL A   1      34.962  22.898  26.019  1.00  0.00    -0.014 A 
ATOM      9  C   UNL A   1      35.055  21.684  25.292  1.00  0.00     0.014 A 
ATOM     10  C   UNL A   1      36.296  21.345  24.712  1.00  0.00     0.013 A 
ATOM     11  C   UNL A   1      37.425  22.144  24.887  1.00  0.00     0.040 A 
ATOM     12  C   UNL A   1      36.114  23.686  26.194  1.00  0.00     0.047 A 
ATOM     13  C   UNL A   1      37.325  23.304  25.633  1.00  0.00     0.123 A 
ATOM     14  F   UNL A   1      38.406  24.075  25.806  1.00  0.00    -0.207 F 
BRANCH   9  15
ATOM     15  C   UNL A   1      33.866  20.754  25.067  1.00  0.00     0.299 C 
BRANCH  15  16
ATOM     16  N   UNL A   1      34.046  19.328  25.372  1.00  0.00    -0.331 N 
ATOM     17  C   UNL A   1      34.698  16.186  25.323  1.00  0.00     0.017 C 
ATOM     18  C   UNL A   1      34.053  17.164  24.326  1.00  0.00     0.019 C 
ATOM     19  C   UNL A   1      34.075  16.543  22.927  1.00  0.00     0.017 C 
ATOM     20  C   UNL A   1      32.631  17.525  24.762  1.00  0.00     0.073 C 
ATOM     21  C   UNL A   1      34.741  18.538  24.347  1.00  0.00     0.269 C 
ATOM     22  C   UNL A   1      32.852  18.605  25.806  1.00  0.00     0.263 C 
ATOM     23  H   UNL A   1      34.666  19.410  26.178  1.00  0.00     0.348 HD
ENDBRANCH  15  16
ENDBRANCH   9  15
ENDBRANCH   7   8
ENDBRANCH   3   6
ENDBRANCH   1   2
BRANCH   1  24
ATOM     24  C   UNL A   1      32.986  27.862  26.880  1.00  0.00     0.042 C 
BRANCH  24  25
ATOM     25  C   UNL A   1      34.002  28.802  26.233  1.00  0.00     0.118 C 
BRANCH  25  26
ATOM     26  N   UNL A   1      33.827  30.180  26.670  1.00  0.00    -0.352 N 
ATOM     27  C   UNL A   1      34.522  30.908  27.602  1.00  0.00     0.251 C 
ATOM     28  H   UNL A   1      33.095  30.666  26.225  1.00  0.00     0.163 HD
ATOM     29  O   UNL A   1      34.079  31.989  27.979  1.00  0.00    -0.269 OA
BRANCH  27  30
ATOM     30  C   UNL A   1      35.793  30.401  28.162  1.00  0.00     0.039 A 
ATOM     31  C   UNL A   1      35.757  29.674  29.356  1.00  0.00     0.014 A 
ATOM     32  C   UNL A   1      37.018  30.679  27.550  1.00  0.00     0.014 A 
ATOM     33  C   UNL A   1      36.943  29.184  29.907  1.00  0.00     0.010 A 
ATOM     34  C   UNL A   1      38.191  30.134  28.063  1.00  0.00     0.010 A 
ATOM     35  C   UNL A   1      38.166  29.385  29.249  1.00  0.00    -0.014 A 
BRANCH  35  36
ATOM     36  C   UNL A   1      39.429  28.818  29.785  1.00  0.00     0.031 A 
ATOM     37  C   UNL A   1      40.077  29.422  30.999  1.00  0.00     0.074 A 
ATOM     38  C   UNL A   1      40.021  27.794  29.142  1.00  0.00     0.049 A 
ATOM     39  N   UNL A   1      41.216  29.115  31.564  1.00  0.00    -0.248 NA
ATOM     40  C   UNL A   1      39.364  30.532  31.650  1.00  0.00     0.031 C 
ATOM     41  C   UNL A   1      39.506  27.144  27.935  1.00  0.00     0.029 A 
ATOM     42  N   UNL A   1      41.188  27.123  29.409  1.00  0.00    -0.354 N 
ATOM     43  C   UNL A   1      41.363  30.000  32.625  1.00  0.00     0.074 A 
ATOM     44  C   UNL A   1      40.220  30.886  32.598  1.00  0.00     0.031 C 
ATOM     45  C   UNL A   1      40.339  26.152  27.582  1.00  0.00     0.029 A 
ATOM     46  C   UNL A   1      41.466  26.121  28.511  1.00  0.00     0.049 A 
ATOM     47  H   UNL A   1      41.772  27.339  30.173  1.00  0.00     0.167 HD
ATOM     48  C   UNL A   1      42.351  30.054  33.549  1.00  0.00     0.037 A 
ATOM     49  C   UNL A   1      42.512  25.277  28.438  1.00  0.00     0.037 A 
ATOM     50  C   UNL A   1      43.471  29.151  33.590  1.00  0.00     0.049 A 
ATOM     51  C   UNL A   1      43.599  25.362  29.471  1.00  0.00     0.074 A 
ATOM     52  C   UNL A   1      44.493  29.093  34.521  1.00  0.00     0.029 A 
ATOM     53  N   UNL A   1      43.713  28.149  32.664  1.00  0.00    -0.354 N 
ATOM     54  N   UNL A   1      43.702  26.176  30.493  1.00  0.00    -0.248 NA
ATOM     55  C   UNL A   1      44.715  24.414  29.342  1.00  0.00     0.031 C 
ATOM     56  C   UNL A   1      45.377  28.081  34.136  1.00  0.00     0.029 A 
ATOM     57  C   UNL A   1      44.880  27.478  32.990  1.00  0.00     0.049 A 
ATOM     58  H   UNL A   1      43.141  27.944  31.889  1.00  0.00     0.167 HD
ATOM     59  C   UNL A   1      44.879  25.826  31.142  1.00  0.00     0.074 A 
ATOM     60  C   UNL A   1      45.451  24.718  30.403  1.00  0.00     0.031 C 
ATOM     61  C   UNL A   1      45.435  26.374  32.249  1.00  0.00     0.037 A 
BRANCH  48  62
ATOM     62  C   UNL A   1      42.262  31.116  34.605  1.00  0.00     0.057 A 
ATOM     63  C   UNL A   1      41.533  30.898  35.782  1.00  0.00     0.134 A 
ATOM     64  C   UNL A   1      42.841  32.380  34.429  1.00  0.00     0.134 A 
ATOM     65  F   UNL A   1      40.947  29.712  36.010  1.00  0.00    -0.206 F 
ATOM     66  C   UNL A   1      41.374  31.901  36.738  1.00  0.00     0.040 A 
ATOM     67  C   UNL A   1      42.711  33.383  35.390  1.00  0.00     0.040 A 
ATOM     68  F   UNL A   1      43.560  32.650  33.330  1.00  0.00    -0.206 F 
ATOM     69  C   UNL A   1      41.967  33.147  36.546  1.00  0.00     0.006 A 
ENDBRANCH  48  62
BRANCH  49  70
ATOM     70  C   UNL A   1      42.556  24.256  27.362  1.00  0.00     0.057 A 
ATOM     71  C   UNL A   1      42.068  22.959  27.560  1.00  0.00     0.134 A 
ATOM     72  C   UNL A   1      43.122  24.550  26.117  1.00  0.00     0.134 A 
ATOM     73  F   UNL A   1      41.522  22.613  28.734  1.00  0.00    -0.206 F 
ATOM     74  C   UNL A   1      42.159  21.985  26.564  1.00  0.00     0.040 A 
ATOM     75  C   UNL A   1      43.198  23.593  25.104  1.00  0.00     0.040 A 
ATOM     76  F   UNL A   1      43.590  25.781  25.862  1.00  0.00    -0.206 F 
ATOM     77  C   UNL A   1      42.723  22.303  25.330  1.00  0.00     0.006 A 
ENDBRANCH  49  70
BRANCH  61  78
ATOM     78  C   UNL A   1      46.717  25.780  32.751  1.00  0.00     0.057 A 
ATOM     79  C   UNL A   1      46.703  24.783  33.735  1.00  0.00     0.134 A 
ATOM     80  C   UNL A   1      47.963  26.254  32.323  1.00  0.00     0.134 A 
ATOM     81  F   UNL A   1      45.540  24.296  34.194  1.00  0.00    -0.206 F 
ATOM     82  C   UNL A   1      47.885  24.288  34.288  1.00  0.00     0.040 A 
ATOM     83  C   UNL A   1      49.152  25.750  32.852  1.00  0.00     0.040 A 
ATOM     84  F   UNL A   1      48.043  27.200  31.377  1.00  0.00    -0.206 F 
ATOM     85  C   UNL A   1      49.114  24.772  33.845  1.00  0.00     0.006 A 
ENDBRANCH  61  78
ENDBRANCH  35  36
ENDBRANCH  27  30
ENDBRANCH  25  26
ENDBRANCH  24  25
ENDBRANCH   1  24
TORSDOF 13
ENDMDL
MODEL 2
REMARK VINA RESULT:     -12.1      3.748      8.440
REMARK SMILES CC1(C)CC[N@H+](Cc2ccc(F)cc2/C=C/C(=O)NCCCNC(=O)c2ccc(-c3c4nc(c(-c5c(F)cccc5F)c5ccc([nH]5)c(-c5c(F)cccc5F)c5nc(c(-c6c(F)cccc6F)c6ccc3[nH]6)C=C5)C=C4)cc2)C1
REMARK SMILES IDX 20 1 19 2 17 3 18 4 16 6 15 7 14 8 8 9 9 10 10 11 13 12
REMARK SMILES IDX 11 13 12 14 7 15 6 16 1 17 2 18 3 19 4 20 80 21 5 22 21 24
REMARK SMILES IDX 22 25 23 26 24 27 25 29 26 30 27 31 79 32 28 33 78 34 29 35
REMARK SMILES IDX 30 36 31 37 72 38 32 39 77 40 71 41 73 42 33 43 76 44 70 45
REMARK SMILES IDX 69 46 34 48 60 49 43 50 59 51 44 52 47 53 58 54 74 55 45 56
REMARK SMILES IDX 46 57 57 59 75 60 48 61 35 62 36 63 41 64 37 65 38 66 40 67
REMARK SMILES IDX 42 68 39 69 61 70 62 71 67 72 63 73 64 74 66 75 68 76 65 77
REMARK SMILES IDX 49 78 50 79 55 80 51 81 52 82 54 83 56 84 53 85
REMARK H PARENT 19 5 6 23 23 28 73 47 47 58
REMARK Flexibility Score: inf
ROOT
ATOM      1  C   UNL A   1      31.778  30.579  26.892  1.00  0.00     0.118 C 
ENDROOT
BRANCH   1   2
ATOM      2  N   UNL A   1      33.121  30.289  27.360  1.00  0.00    -0.352 N 
ATOM      3  C   UNL A   1      33.912  29.207  27.136  1.00  0.00     0.244 C 
ATOM      4  O   UNL A   1      35.074  29.207  27.533  1.00  0.00    -0.270 OA
ATOM      5  H   UNL A   1      33.520  30.986  27.930  1.00  0.00     0.163 HD
BRANCH   3   6
ATOM      6  C   UNL A   1      33.414  28.067  26.339  1.00  0.00     0.072 C 
ATOM      7  C   UNL A   1      33.454  28.015  24.999  1.00  0.00     0.014 C 
BRANCH   7   8
ATOM      8  C   UNL A   1      32.901  26.883  24.236  1.00  0.00    -0.014 A 
ATOM      9  C   UNL A   1      31.527  26.782  23.901  1.00  0.00     0.014 A 
ATOM     10  C   UNL A   1      31.106  25.680  23.126  1.00  0.00     0.013 A 
ATOM     11  C   UNL A   1      31.996  24.679  22.739  1.00  0.00     0.040 A 
ATOM     12  C   UNL A   1      33.782  25.858  23.847  1.00  0.00     0.047 A 
ATOM     13  C   UNL A   1      33.326  24.774  23.110  1.00  0.00     0.123 A 
ATOM     14  F   UNL A   1      34.185  23.815  22.743  1.00  0.00    -0.207 F 
BRANCH   9  15
ATOM     15  C   UNL A   1      30.492  27.832  24.297  1.00  0.00     0.299 C 
BRANCH  15  16
ATOM     16  N   UNL A   1      29.705  28.455  23.225  1.00  0.00    -0.331 N 
ATOM     17  C   UNL A   1      28.095  30.448  21.291  1.00  0.00     0.017 C 
ATOM     18  C   UNL A   1      28.177  30.265  22.817  1.00  0.00     0.019 C 
ATOM     19  C   UNL A   1      27.654  31.530  23.503  1.00  0.00     0.017 C 
ATOM     20  C   UNL A   1      27.402  29.021  23.257  1.00  0.00     0.073 C 
ATOM     21  C   UNL A   1      29.603  29.919  23.275  1.00  0.00     0.269 C 
ATOM     22  C   UNL A   1      28.379  27.890  22.986  1.00  0.00     0.263 C 
ATOM     23  H   UNL A   1      30.292  28.209  22.428  1.00  0.00     0.348 HD
ENDBRANCH  15  16
ENDBRANCH   9  15
ENDBRANCH   7   8
ENDBRANCH   3   6
ENDBRANCH   1   2
BRANCH   1  24
ATOM     24  C   UNL A   1      31.504  32.082  26.875  1.00  0.00     0.042 C 
BRANCH  24  25
ATOM     25  C   UNL A   1      32.771  32.927  26.980  1.00  0.00     0.118 C 
BRANCH  25  26
ATOM     26  N   UNL A   1      32.522  34.209  27.625  1.00  0.00    -0.352 N 
ATOM     27  C   UNL A   1      33.066  34.746  28.765  1.00  0.00     0.251 C 
ATOM     28  H   UNL A   1      31.860  34.780  27.172  1.00  0.00     0.163 HD
ATOM     29  O   UNL A   1      32.564  35.750  29.260  1.00  0.00    -0.269 OA
BRANCH  27  30
ATOM     30  C   UNL A   1      34.245  34.123  29.405  1.00  0.00     0.039 A 
ATOM     31  C   UNL A   1      34.039  33.186  30.422  1.00  0.00     0.014 A 
ATOM     32  C   UNL A   1      35.544  34.493  29.048  1.00  0.00     0.014 A 
ATOM     33  C   UNL A   1      35.134  32.584  31.044  1.00  0.00     0.010 A 
ATOM     34  C   UNL A   1      36.634  33.843  29.621  1.00  0.00     0.010 A 
ATOM     35  C   UNL A   1      36.440  32.886  30.628  1.00  0.00    -0.014 A 
BRANCH  35  36
ATOM     36  C   UNL A   1      37.615  32.209  31.233  1.00  0.00     0.031 A 
ATOM     37  C   UNL A   1      38.331  31.120  30.486  1.00  0.00     0.074 A 
ATOM     38  C   UNL A   1      37.999  32.538  32.481  1.00  0.00     0.049 A 
ATOM     39  N   UNL A   1      39.323  30.364  30.880  1.00  0.00    -0.248 NA
ATOM     40  C   UNL A   1      37.856  30.826  29.124  1.00  0.00     0.031 C 
ATOM     41  C   UNL A   1      37.363  33.555  33.320  1.00  0.00     0.029 A 
ATOM     42  N   UNL A   1      39.014  32.048  33.264  1.00  0.00    -0.354 N 
ATOM     43  C   UNL A   1      39.581  29.497  29.825  1.00  0.00     0.074 A 
ATOM     44  C   UNL A   1      38.613  29.789  28.791  1.00  0.00     0.031 C 
ATOM     45  C   UNL A   1      38.018  33.632  34.489  1.00  0.00     0.029 A 
ATOM     46  C   UNL A   1      39.092  32.642  34.500  1.00  0.00     0.049 A 
ATOM     47  H   UNL A   1      39.628  31.336  32.969  1.00  0.00     0.167 HD
ATOM     48  C   UNL A   1      40.551  28.559  29.722  1.00  0.00     0.037 A 
ATOM     49  C   UNL A   1      39.931  32.414  35.528  1.00  0.00     0.037 A 
ATOM     50  C   UNL A   1      41.532  28.292  30.741  1.00  0.00     0.049 A 
ATOM     51  C   UNL A   1      40.993  31.361  35.392  1.00  0.00     0.074 A 
ATOM     52  C   UNL A   1      42.588  27.398  30.704  1.00  0.00     0.029 A 
ATOM     53  N   UNL A   1      41.578  28.919  31.976  1.00  0.00    -0.354 N 
ATOM     54  N   UNL A   1      41.253  30.580  34.372  1.00  0.00    -0.248 NA
ATOM     55  C   UNL A   1      41.880  31.157  36.546  1.00  0.00     0.031 C 
ATOM     56  C   UNL A   1      43.250  27.455  31.934  1.00  0.00     0.029 A 
ATOM     57  C   UNL A   1      42.635  28.417  32.719  1.00  0.00     0.049 A 
ATOM     58  H   UNL A   1      40.954  29.616  32.281  1.00  0.00     0.167 HD
ATOM     59  C   UNL A   1      42.343  29.808  34.751  1.00  0.00     0.074 A 
ATOM     60  C   UNL A   1      42.704  30.223  36.091  1.00  0.00     0.031 C 
ATOM     61  C   UNL A   1      42.985  28.843  34.050  1.00  0.00     0.037 A 
BRANCH  48  62
ATOM     62  C   UNL A   1      40.614  27.755  28.456  1.00  0.00     0.057 A 
ATOM     63  C   UNL A   1      39.954  26.524  28.355  1.00  0.00     0.134 A 
ATOM     64  C   UNL A   1      41.383  28.168  27.360  1.00  0.00     0.134 A 
ATOM     65  F   UNL A   1      39.206  26.066  29.372  1.00  0.00    -0.206 F 
ATOM     66  C   UNL A   1      40.066  25.727  27.215  1.00  0.00     0.040 A 
ATOM     67  C   UNL A   1      41.482  27.392  26.204  1.00  0.00     0.040 A 
ATOM     68  F   UNL A   1      42.032  29.341  27.388  1.00  0.00    -0.206 F 
ATOM     69  C   UNL A   1      40.829  26.162  26.134  1.00  0.00     0.006 A 
ENDBRANCH  48  62
BRANCH  49  70
ATOM     70  C   UNL A   1      39.813  33.228  36.764  1.00  0.00     0.057 A 
ATOM     71  C   UNL A   1      38.912  32.893  37.781  1.00  0.00     0.134 A 
ATOM     72  C   UNL A   1      40.580  34.386  36.936  1.00  0.00     0.134 A 
ATOM     73  F   UNL A   1      38.142  31.801  37.671  1.00  0.00    -0.206 F 
ATOM     74  C   UNL A   1      38.765  33.690  38.918  1.00  0.00     0.040 A 
ATOM     75  C   UNL A   1      40.460  35.179  38.078  1.00  0.00     0.040 A 
ATOM     76  F   UNL A   1      41.473  34.749  36.003  1.00  0.00    -0.206 F 
ATOM     77  C   UNL A   1      39.544  34.835  39.069  1.00  0.00     0.006 A 
ENDBRANCH  49  70
BRANCH  61  78
ATOM     78  C   UNL A   1      44.160  28.175  34.701  1.00  0.00     0.057 A 
ATOM     79  C   UNL A   1      45.456  28.671  34.513  1.00  0.00     0.134 A 
ATOM     80  C   UNL A   1      44.016  26.996  35.442  1.00  0.00     0.134 A 
ATOM     81  F   UNL A   1      45.660  29.791  33.803  1.00  0.00    -0.206 F 
ATOM     82  C   UNL A   1      46.571  28.008  35.026  1.00  0.00     0.040 A 
ATOM     83  C   UNL A   1      45.122  26.337  35.980  1.00  0.00     0.040 A 
ATOM     84  F   UNL A   1      42.800  26.477  35.666  1.00  0.00    -0.206 F 
ATOM     85  C   UNL A   1      46.405  26.837  35.763  1.00  0.00     0.006 A 
ENDBRANCH  61  78
ENDBRANCH  35  36
ENDBRANCH  27  30
ENDBRANCH  25  26
ENDBRANCH  24  25
ENDBRANCH   1  24
TORSDOF 13
ENDMDL
MODEL 3
REMARK VINA RESULT:     -12.0      1.832      2.411
REMARK SMILES CC1(C)CC[N@H+](Cc2ccc(F)cc2/C=C/C(=O)NCCCNC(=O)c2ccc(-c3c4nc(c(-c5c(F)cccc5F)c5ccc([nH]5)c(-c5c(F)cccc5F)c5nc(c(-c6c(F)cccc6F)c6ccc3[nH]6)C=C5)C=C4)cc2)C1
REMARK SMILES IDX 20 1 19 2 17 3 18 4 16 6 15 7 14 8 8 9 9 10 10 11 13 12
REMARK SMILES IDX 11 13 12 14 7 15 6 16 1 17 2 18 3 19 4 20 80 21 5 22 21 24
REMARK SMILES IDX 22 25 23 26 24 27 25 29 26 30 27 31 79 32 28 33 78 34 29 35
REMARK SMILES IDX 30 36 31 37 72 38 32 39 77 40 71 41 73 42 33 43 76 44 70 45
REMARK SMILES IDX 69 46 34 48 60 49 43 50 59 51 44 52 47 53 58 54 74 55 45 56
REMARK SMILES IDX 46 57 57 59 75 60 48 61 35 62 36 63 41 64 37 65 38 66 40 67
REMARK SMILES IDX 42 68 39 69 61 70 62 71 67 72 63 73 64 74 66 75 68 76 65 77
REMARK SMILES IDX 49 78 50 79 55 80 51 81 52 82 54 83 56 84 53 85
REMARK H PARENT 19 5 6 23 23 28 73 47 47 58
REMARK Flexibility Score: inf
ROOT
ATOM      1  C   UNL A   1      31.894  27.325  26.292  1.00  0.00     0.118 C 
ENDROOT
BRANCH   1   2
ATOM      2  N   UNL A   1      31.106  26.162  26.657  1.00  0.00    -0.352 N 
ATOM      3  C   UNL A   1      31.426  24.842  26.626  1.00  0.00     0.244 C 
ATOM      4  O   UNL A   1      30.648  24.013  27.091  1.00  0.00    -0.270 OA
ATOM      5  H   UNL A   1      30.196  26.362  26.976  1.00  0.00     0.163 HD
BRANCH   3   6
ATOM      6  C   UNL A   1      32.742  24.401  26.119  1.00  0.00     0.072 C 
ATOM      7  C   UNL A   1      33.314  23.230  26.437  1.00  0.00     0.014 C 
BRANCH   7   8
ATOM      8  C   UNL A   1      34.652  22.847  25.953  1.00  0.00    -0.014 A 
ATOM      9  C   UNL A   1      34.892  21.655  25.224  1.00  0.00     0.014 A 
ATOM     10  C   UNL A   1      36.204  21.403  24.766  1.00  0.00     0.013 A 
ATOM     11  C   UNL A   1      37.257  22.267  25.061  1.00  0.00     0.040 A 
ATOM     12  C   UNL A   1      35.729  23.701  26.252  1.00  0.00     0.047 A 
ATOM     13  C   UNL A   1      37.011  23.405  25.809  1.00  0.00     0.123 A 
ATOM     14  F   UNL A   1      38.019  24.237  26.098  1.00  0.00    -0.207 F 
BRANCH   9  15
ATOM     15  C   UNL A   1      33.792  20.657  24.871  1.00  0.00     0.299 C 
BRANCH  15  16
ATOM     16  N   UNL A   1      34.000  19.251  25.240  1.00  0.00    -0.331 N 
ATOM     17  C   UNL A   1      34.738  16.129  25.343  1.00  0.00     0.017 C 
ATOM     18  C   UNL A   1      34.101  17.047  24.285  1.00  0.00     0.019 C 
ATOM     19  C   UNL A   1      34.187  16.371  22.915  1.00  0.00     0.017 C 
ATOM     20  C   UNL A   1      32.656  17.385  24.659  1.00  0.00     0.073 C 
ATOM     21  C   UNL A   1      34.751  18.440  24.272  1.00  0.00     0.269 C 
ATOM     22  C   UNL A   1      32.812  18.512  25.665  1.00  0.00     0.263 C 
ATOM     23  H   UNL A   1      34.590  19.383  26.062  1.00  0.00     0.348 HD
ENDBRANCH  15  16
ENDBRANCH   9  15
ENDBRANCH   7   8
ENDBRANCH   3   6
ENDBRANCH   1   2
BRANCH   1  24
ATOM     24  C   UNL A   1      32.567  27.950  27.512  1.00  0.00     0.042 C 
BRANCH  24  25
ATOM     25  C   UNL A   1      33.837  28.725  27.169  1.00  0.00     0.118 C 
BRANCH  25  26
ATOM     26  N   UNL A   1      33.784  30.101  27.643  1.00  0.00    -0.352 N 
ATOM     27  C   UNL A   1      34.697  30.823  28.368  1.00  0.00     0.251 C 
ATOM     28  H   UNL A   1      32.962  30.590  27.405  1.00  0.00     0.163 HD
ATOM     29  O   UNL A   1      34.369  31.902  28.852  1.00  0.00    -0.269 OA
BRANCH  27  30
ATOM     30  C   UNL A   1      36.069  30.312  28.578  1.00  0.00     0.039 A 
ATOM     31  C   UNL A   1      36.979  30.377  27.518  1.00  0.00     0.014 A 
ATOM     32  C   UNL A   1      36.447  29.724  29.788  1.00  0.00     0.014 A 
ATOM     33  C   UNL A   1      38.280  29.901  27.688  1.00  0.00     0.010 A 
ATOM     34  C   UNL A   1      37.763  29.311  29.978  1.00  0.00     0.010 A 
ATOM     35  C   UNL A   1      38.690  29.391  28.929  1.00  0.00    -0.014 A 
BRANCH  35  36
ATOM     36  C   UNL A   1      40.087  28.939  29.150  1.00  0.00     0.031 A 
ATOM     37  C   UNL A   1      41.093  29.860  29.780  1.00  0.00     0.074 A 
ATOM     38  C   UNL A   1      40.462  27.716  28.728  1.00  0.00     0.049 A 
ATOM     39  N   UNL A   1      42.372  29.672  29.980  1.00  0.00    -0.248 NA
ATOM     40  C   UNL A   1      40.603  31.176  30.221  1.00  0.00     0.031 C 
ATOM     41  C   UNL A   1      39.586  26.743  28.073  1.00  0.00     0.029 A 
ATOM     42  N   UNL A   1      41.679  27.084  28.782  1.00  0.00    -0.354 N 
ATOM     43  C   UNL A   1      42.842  30.846  30.557  1.00  0.00     0.074 A 
ATOM     44  C   UNL A   1      41.721  31.758  30.632  1.00  0.00     0.031 C 
ATOM     45  C   UNL A   1      40.286  25.629  27.810  1.00  0.00     0.029 A 
ATOM     46  C   UNL A   1      41.669  25.822  28.239  1.00  0.00     0.049 A 
ATOM     47  H   UNL A   1      42.484  27.496  29.173  1.00  0.00     0.167 HD
ATOM     48  C   UNL A   1      44.089  31.128  31.002  1.00  0.00     0.037 A 
ATOM     49  C   UNL A   1      42.661  24.924  28.097  1.00  0.00     0.037 A 
ATOM     50  C   UNL A   1      45.193  30.206  30.953  1.00  0.00     0.049 A 
ATOM     51  C   UNL A   1      44.039  25.264  28.591  1.00  0.00     0.074 A 
ATOM     52  C   UNL A   1      46.480  30.382  31.430  1.00  0.00     0.029 A 
ATOM     53  N   UNL A   1      45.140  28.937  30.398  1.00  0.00    -0.354 N 
ATOM     54  N   UNL A   1      44.457  26.360  29.173  1.00  0.00    -0.248 NA
ATOM     55  C   UNL A   1      45.081  24.243  28.411  1.00  0.00     0.031 C 
ATOM     56  C   UNL A   1      47.218  29.235  31.127  1.00  0.00     0.029 A 
ATOM     57  C   UNL A   1      46.378  28.325  30.504  1.00  0.00     0.049 A 
ATOM     58  H   UNL A   1      44.341  28.531  29.990  1.00  0.00     0.167 HD
ATOM     59  C   UNL A   1      45.803  26.157  29.448  1.00  0.00     0.074 A 
ATOM     60  C   UNL A   1      46.129  24.825  28.979  1.00  0.00     0.031 C 
ATOM     61  C   UNL A   1      46.687  26.998  30.036  1.00  0.00     0.037 A 
BRANCH  48  62
ATOM     62  C   UNL A   1      44.328  32.484  31.596  1.00  0.00     0.057 A 
ATOM     63  C   UNL A   1      44.122  32.715  32.962  1.00  0.00     0.134 A 
ATOM     64  C   UNL A   1      44.697  33.580  30.804  1.00  0.00     0.134 A 
ATOM     65  F   UNL A   1      43.760  31.711  33.776  1.00  0.00    -0.206 F 
ATOM     66  C   UNL A   1      44.263  33.988  33.517  1.00  0.00     0.040 A 
ATOM     67  C   UNL A   1      44.866  34.853  31.352  1.00  0.00     0.040 A 
ATOM     68  F   UNL A   1      44.919  33.425  29.491  1.00  0.00    -0.206 F 
ATOM     69  C   UNL A   1      44.640  35.060  32.712  1.00  0.00     0.006 A 
ENDBRANCH  48  62
BRANCH  49  70
ATOM     70  C   UNL A   1      42.371  23.602  27.487  1.00  0.00     0.057 A 
ATOM     71  C   UNL A   1      42.062  22.483  28.270  1.00  0.00     0.134 A 
ATOM     72  C   UNL A   1      42.431  23.423  26.101  1.00  0.00     0.134 A 
ATOM     73  F   UNL A   1      41.998  22.588  29.606  1.00  0.00    -0.206 F 
ATOM     74  C   UNL A   1      41.842  21.230  27.697  1.00  0.00     0.040 A 
ATOM     75  C   UNL A   1      42.190  22.180  25.513  1.00  0.00     0.040 A 
ATOM     76  F   UNL A   1      42.705  24.462  25.297  1.00  0.00    -0.206 F 
ATOM     77  C   UNL A   1      41.903  21.077  26.314  1.00  0.00     0.006 A 
ENDBRANCH  49  70
BRANCH  61  78
ATOM     78  C   UNL A   1      48.091  26.507  30.230  1.00  0.00     0.057 A 
ATOM     79  C   UNL A   1      49.047  26.667  29.219  1.00  0.00     0.134 A 
ATOM     80  C   UNL A   1      48.471  25.804  31.379  1.00  0.00     0.134 A 
ATOM     81  F   UNL A   1      48.741  27.322  28.089  1.00  0.00    -0.206 F 
ATOM     82  C   UNL A   1      50.330  26.130  29.338  1.00  0.00     0.040 A 
ATOM     83  C   UNL A   1      49.758  25.283  31.519  1.00  0.00     0.040 A 
ATOM     84  F   UNL A   1      47.604  25.627  32.387  1.00  0.00    -0.206 F 
ATOM     85  C   UNL A   1      50.688  25.435  30.492  1.00  0.00     0.006 A 
ENDBRANCH  61  78
ENDBRANCH  35  36
ENDBRANCH  27  30
ENDBRANCH  25  26
ENDBRANCH  24  25
ENDBRANCH   1  24
TORSDOF 13
ENDMDL
