MODEL 1
REMARK VINA RESULT:     -12.9      0.000      0.000
REMARK SMILES Cc1cccc(NC(=O)[C@H]2C[C@H]2C(=O)NCCCNC(=O)c2ccc(-c3c4nc(c(-c5c(F)cccc5F)c5ccc([nH]5)c(-c5c(F)cccc5F)c5nc(c(-c6c(F)cccc6F)c6ccc3[nH]6)C=C5)C=C4)cc2)c1
REMARK SMILES IDX 17 1 16 2 15 3 13 4 14 5 12 7 10 8 11 9 8 10 7 11 9 13 6 14
REMARK SMILES IDX 1 15 2 16 3 17 76 18 4 19 5 20 18 21 19 22 20 23 21 25 22 26
REMARK SMILES IDX 23 27 75 28 24 29 74 30 25 31 26 32 27 33 68 34 28 35 73 36
REMARK SMILES IDX 67 37 69 38 29 39 72 40 66 41 65 42 30 44 56 45 39 46 55 47
REMARK SMILES IDX 40 48 43 49 54 50 70 51 41 52 42 53 53 55 71 56 44 57 31 58
REMARK SMILES IDX 32 59 37 60 33 61 34 62 36 63 38 64 35 65 57 66 58 67 63 68
REMARK SMILES IDX 59 69 60 70 62 71 64 72 61 73 45 74 46 75 51 76 47 77 48 78
REMARK SMILES IDX 50 79 52 80 49 81
REMARK H PARENT 15 6 7 12 19 24 69 43 43 54
REMARK Flexibility Score: inf
ROOT
ATOM      1  C   UNL A   1      38.849  21.364  25.808  1.00  0.00     0.042 C 
ENDROOT
BRANCH   1   2
ATOM      2  C   UNL A   1      37.487  21.262  25.131  1.00  0.00     0.117 C 
BRANCH   2   3
ATOM      3  N   UNL A   1      36.454  21.856  25.958  1.00  0.00    -0.356 N 
ATOM      4  C   UNL A   1      35.272  22.477  25.686  1.00  0.00     0.223 C 
ATOM      5  O   UNL A   1      34.718  23.040  26.630  1.00  0.00    -0.275 OA
ATOM      6  H   UNL A   1      36.648  21.798  26.922  1.00  0.00     0.163 HD
BRANCH   4   7
ATOM      7  C   UNL A   1      34.556  22.496  24.388  1.00  0.00     0.091 C 
ATOM      8  C   UNL A   1      33.277  21.711  24.161  1.00  0.00     0.092 C 
ATOM      9  C   UNL A   1      33.338  23.209  23.913  1.00  0.00     0.028 C 
BRANCH   8  10
ATOM     10  C   UNL A   1      32.372  21.224  25.228  1.00  0.00     0.228 C 
ATOM     11  N   UNL A   1      32.298  19.895  25.555  1.00  0.00    -0.326 N 
ATOM     12  H   UNL A   1      31.559  19.683  26.170  1.00  0.00     0.169 HD
ATOM     13  O   UNL A   1      31.578  22.004  25.753  1.00  0.00    -0.274 OA
BRANCH  11  14
ATOM     14  C   UNL A   1      33.062  18.774  25.193  1.00  0.00     0.041 A 
ATOM     15  C   UNL A   1      32.593  14.989  25.466  1.00  0.00     0.044 C 
ATOM     16  C   UNL A   1      33.194  16.332  25.174  1.00  0.00    -0.049 A 
ATOM     17  C   UNL A   1      34.446  16.414  24.561  1.00  0.00     0.003 A 
ATOM     18  C   UNL A   1      32.519  17.518  25.502  1.00  0.00     0.029 A 
ATOM     19  C   UNL A   1      35.006  17.656  24.279  1.00  0.00     0.002 A 
ATOM     20  C   UNL A   1      34.314  18.828  24.588  1.00  0.00     0.026 A 
ENDBRANCH  11  14
ENDBRANCH   8  10
ENDBRANCH   4   7
ENDBRANCH   2   3
ENDBRANCH   1   2
BRANCH   1  21
ATOM     21  C   UNL A   1      39.207  22.773  26.251  1.00  0.00     0.118 C 
BRANCH  21  22
ATOM     22  N   UNL A   1      40.642  23.016  26.358  1.00  0.00    -0.352 N 
ATOM     23  C   UNL A   1      41.310  24.190  26.666  1.00  0.00     0.251 C 
ATOM     24  H   UNL A   1      41.217  22.235  26.186  1.00  0.00     0.163 HD
ATOM     25  O   UNL A   1      42.529  24.207  26.739  1.00  0.00    -0.269 OA
BRANCH  23  26
ATOM     26  C   UNL A   1      40.523  25.392  27.037  1.00  0.00     0.039 A 
ATOM     27  C   UNL A   1      40.749  26.571  26.322  1.00  0.00     0.014 A 
ATOM     28  C   UNL A   1      39.744  25.410  28.190  1.00  0.00     0.014 A 
ATOM     29  C   UNL A   1      40.417  27.793  26.903  1.00  0.00     0.010 A 
ATOM     30  C   UNL A   1      39.513  26.618  28.817  1.00  0.00     0.010 A 
ATOM     31  C   UNL A   1      39.915  27.809  28.204  1.00  0.00    -0.014 A 
BRANCH  31  32
ATOM     32  C   UNL A   1      39.905  29.004  29.043  1.00  0.00     0.031 A 
ATOM     33  C   UNL A   1      38.836  30.014  28.918  1.00  0.00     0.074 A 
ATOM     34  C   UNL A   1      40.855  29.154  29.995  1.00  0.00     0.049 A 
ATOM     35  N   UNL A   1      38.955  31.239  29.312  1.00  0.00    -0.248 NA
ATOM     36  C   UNL A   1      37.544  29.731  28.304  1.00  0.00     0.031 C 
ATOM     37  C   UNL A   1      40.877  30.131  31.080  1.00  0.00     0.029 A 
ATOM     38  N   UNL A   1      42.129  28.569  30.029  1.00  0.00    -0.354 N 
ATOM     39  C   UNL A   1      37.723  31.837  29.216  1.00  0.00     0.074 A 
ATOM     40  C   UNL A   1      36.881  30.864  28.560  1.00  0.00     0.031 C 
ATOM     41  C   UNL A   1      42.148  30.313  31.468  1.00  0.00     0.029 A 
ATOM     42  C   UNL A   1      42.991  29.556  30.560  1.00  0.00     0.049 A 
ATOM     43  H   UNL A   1      42.373  27.658  29.743  1.00  0.00     0.167 HD
ATOM     44  C   UNL A   1      37.522  33.062  29.781  1.00  0.00     0.037 A 
ATOM     45  C   UNL A   1      44.009  30.071  29.811  1.00  0.00     0.037 A 
ATOM     46  C   UNL A   1      38.741  33.594  30.380  1.00  0.00     0.049 A 
ATOM     47  C   UNL A   1      43.907  31.556  29.534  1.00  0.00     0.074 A 
ATOM     48  C   UNL A   1      39.263  33.616  31.663  1.00  0.00     0.029 A 
ATOM     49  N   UNL A   1      39.772  33.969  29.542  1.00  0.00    -0.354 N 
ATOM     50  N   UNL A   1      42.923  32.319  29.926  1.00  0.00    -0.248 NA
ATOM     51  C   UNL A   1      44.869  32.279  28.699  1.00  0.00     0.031 C 
ATOM     52  C   UNL A   1      40.632  34.000  31.578  1.00  0.00     0.029 A 
ATOM     53  C   UNL A   1      40.933  34.215  30.245  1.00  0.00     0.049 A 
ATOM     54  H   UNL A   1      39.688  34.052  28.565  1.00  0.00     0.167 HD
ATOM     55  C   UNL A   1      43.065  33.560  29.365  1.00  0.00     0.074 A 
ATOM     56  C   UNL A   1      44.304  33.494  28.617  1.00  0.00     0.031 C 
ATOM     57  C   UNL A   1      42.135  34.546  29.503  1.00  0.00     0.037 A 
BRANCH  44  58
ATOM     58  C   UNL A   1      36.166  33.692  29.948  1.00  0.00     0.057 A 
ATOM     59  C   UNL A   1      35.419  34.106  28.829  1.00  0.00     0.134 A 
ATOM     60  C   UNL A   1      35.552  33.936  31.188  1.00  0.00     0.134 A 
ATOM     61  F   UNL A   1      35.831  33.863  27.578  1.00  0.00    -0.206 F 
ATOM     62  C   UNL A   1      34.210  34.804  28.941  1.00  0.00     0.040 A 
ATOM     63  C   UNL A   1      34.373  34.683  31.318  1.00  0.00     0.040 A 
ATOM     64  F   UNL A   1      36.045  33.421  32.323  1.00  0.00    -0.206 F 
ATOM     65  C   UNL A   1      33.702  35.131  30.189  1.00  0.00     0.006 A 
ENDBRANCH  44  58
BRANCH  45  66
ATOM     66  C   UNL A   1      44.608  29.073  28.888  1.00  0.00     0.057 A 
ATOM     67  C   UNL A   1      45.521  28.138  29.407  1.00  0.00     0.134 A 
ATOM     68  C   UNL A   1      44.047  28.792  27.640  1.00  0.00     0.134 A 
ATOM     69  F   UNL A   1      46.098  28.349  30.602  1.00  0.00    -0.206 F 
ATOM     70  C   UNL A   1      45.775  26.922  28.769  1.00  0.00     0.040 A 
ATOM     71  C   UNL A   1      44.306  27.584  26.984  1.00  0.00     0.040 A 
ATOM     72  F   UNL A   1      43.152  29.625  27.091  1.00  0.00    -0.206 F 
ATOM     73  C   UNL A   1      45.138  26.629  27.567  1.00  0.00     0.006 A 
ENDBRANCH  45  66
BRANCH  57  74
ATOM     74  C   UNL A   1      42.296  35.914  28.913  1.00  0.00     0.057 A 
ATOM     75  C   UNL A   1      41.783  36.245  27.652  1.00  0.00     0.134 A 
ATOM     76  C   UNL A   1      43.081  36.902  29.537  1.00  0.00     0.134 A 
ATOM     77  F   UNL A   1      41.061  35.360  26.948  1.00  0.00    -0.206 F 
ATOM     78  C   UNL A   1      42.012  37.493  27.061  1.00  0.00     0.040 A 
ATOM     79  C   UNL A   1      43.353  38.133  28.939  1.00  0.00     0.040 A 
ATOM     80  F   UNL A   1      43.595  36.717  30.763  1.00  0.00    -0.206 F 
ATOM     81  C   UNL A   1      42.810  38.436  27.698  1.00  0.00     0.006 A 
ENDBRANCH  57  74
ENDBRANCH  31  32
ENDBRANCH  23  26
ENDBRANCH  21  22
ENDBRANCH   1  21
TORSDOF 12
ENDMDL
MODEL 2
REMARK VINA RESULT:     -12.8      4.067      9.393
REMARK SMILES Cc1cccc(NC(=O)[C@H]2C[C@H]2C(=O)NCCCNC(=O)c2ccc(-c3c4nc(c(-c5c(F)cccc5F)c5ccc([nH]5)c(-c5c(F)cccc5F)c5nc(c(-c6c(F)cccc6F)c6ccc3[nH]6)C=C5)C=C4)cc2)c1
REMARK SMILES IDX 17 1 16 2 15 3 13 4 14 5 12 7 10 8 11 9 8 10 7 11 9 13 6 14
REMARK SMILES IDX 1 15 2 16 3 17 76 18 4 19 5 20 18 21 19 22 20 23 21 25 22 26
REMARK SMILES IDX 23 27 75 28 24 29 74 30 25 31 26 32 27 33 68 34 28 35 73 36
REMARK SMILES IDX 67 37 69 38 29 39 72 40 66 41 65 42 30 44 56 45 39 46 55 47
REMARK SMILES IDX 40 48 43 49 54 50 70 51 41 52 42 53 53 55 71 56 44 57 31 58
REMARK SMILES IDX 32 59 37 60 33 61 34 62 36 63 38 64 35 65 57 66 58 67 63 68
REMARK SMILES IDX 59 69 60 70 62 71 64 72 61 73 45 74 46 75 51 76 47 77 48 78
REMARK SMILES IDX 50 79 52 80 49 81
REMARK H PARENT 15 6 7 12 19 24 69 43 43 54
REMARK Flexibility Score: inf
ROOT
ATOM      1  C   UNL A   1      32.921  30.829  27.251  1.00  0.00     0.042 C 
ENDROOT
BRANCH   1   2
ATOM      2  C   UNL A   1      32.006  29.610  27.210  1.00  0.00     0.117 C 
BRANCH   2   3
ATOM      3  N   UNL A   1      31.703  29.239  25.841  1.00  0.00    -0.356 N 
ATOM      4  C   UNL A   1      32.265  28.367  24.957  1.00  0.00     0.223 C 
ATOM      5  O   UNL A   1      31.868  28.434  23.793  1.00  0.00    -0.275 OA
ATOM      6  H   UNL A   1      30.926  29.717  25.472  1.00  0.00     0.163 HD
BRANCH   4   7
ATOM      7  C   UNL A   1      33.259  27.310  25.259  1.00  0.00     0.091 C 
ATOM      8  C   UNL A   1      32.946  26.149  26.184  1.00  0.00     0.092 C 
ATOM      9  C   UNL A   1      33.438  25.916  24.766  1.00  0.00     0.028 C 
BRANCH   8  10
ATOM     10  C   UNL A   1      31.585  25.674  26.530  1.00  0.00     0.228 C 
ATOM     11  N   UNL A   1      31.283  24.338  26.583  1.00  0.00    -0.326 N 
ATOM     12  H   UNL A   1      30.321  24.157  26.675  1.00  0.00     0.169 HD
ATOM     13  O   UNL A   1      30.672  26.489  26.654  1.00  0.00    -0.274 OA
BRANCH  11  14
ATOM     14  C   UNL A   1      32.068  23.174  26.532  1.00  0.00     0.041 A 
ATOM     15  C   UNL A   1      32.422  20.267  24.074  1.00  0.00     0.044 C 
ATOM     16  C   UNL A   1      32.607  21.147  25.274  1.00  0.00    -0.049 A 
ATOM     17  C   UNL A   1      33.532  20.793  26.259  1.00  0.00     0.003 A 
ATOM     18  C   UNL A   1      31.868  22.330  25.430  1.00  0.00     0.029 A 
ATOM     19  C   UNL A   1      33.714  21.609  27.372  1.00  0.00     0.002 A 
ATOM     20  C   UNL A   1      32.990  22.796  27.503  1.00  0.00     0.026 A 
ENDBRANCH  11  14
ENDBRANCH   8  10
ENDBRANCH   4   7
ENDBRANCH   2   3
ENDBRANCH   1   2
BRANCH   1  21
ATOM     21  C   UNL A   1      34.373  30.493  27.551  1.00  0.00     0.118 C 
BRANCH  21  22
ATOM     22  N   UNL A   1      34.971  31.321  28.592  1.00  0.00    -0.352 N 
ATOM     23  C   UNL A   1      36.097  31.080  29.362  1.00  0.00     0.251 C 
ATOM     24  H   UNL A   1      34.510  32.172  28.773  1.00  0.00     0.163 HD
ATOM     25  O   UNL A   1      36.476  31.904  30.180  1.00  0.00    -0.269 OA
BRANCH  23  26
ATOM     26  C   UNL A   1      36.912  29.870  29.090  1.00  0.00     0.039 A 
ATOM     27  C   UNL A   1      37.179  29.005  30.155  1.00  0.00     0.014 A 
ATOM     28  C   UNL A   1      37.568  29.707  27.874  1.00  0.00     0.014 A 
ATOM     29  C   UNL A   1      38.282  28.156  30.081  1.00  0.00     0.010 A 
ATOM     30  C   UNL A   1      38.722  28.950  27.837  1.00  0.00     0.010 A 
ATOM     31  C   UNL A   1      39.118  28.228  28.967  1.00  0.00    -0.014 A 
BRANCH  31  32
ATOM     32  C   UNL A   1      40.478  27.697  28.952  1.00  0.00     0.031 A 
ATOM     33  C   UNL A   1      40.752  26.317  28.504  1.00  0.00     0.074 A 
ATOM     34  C   UNL A   1      41.509  28.504  29.291  1.00  0.00     0.049 A 
ATOM     35  N   UNL A   1      41.815  25.656  28.822  1.00  0.00    -0.248 NA
ATOM     36  C   UNL A   1      39.824  25.551  27.679  1.00  0.00     0.031 C 
ATOM     37  C   UNL A   1      42.935  28.247  29.106  1.00  0.00     0.029 A 
ATOM     38  N   UNL A   1      41.465  29.654  30.093  1.00  0.00    -0.354 N 
ATOM     39  C   UNL A   1      41.829  24.495  28.090  1.00  0.00     0.074 A 
ATOM     40  C   UNL A   1      40.555  24.464  27.409  1.00  0.00     0.031 C 
ATOM     41  C   UNL A   1      43.622  28.983  29.992  1.00  0.00     0.029 A 
ATOM     42  C   UNL A   1      42.656  29.636  30.857  1.00  0.00     0.049 A 
ATOM     43  H   UNL A   1      40.753  30.334  30.119  1.00  0.00     0.167 HD
ATOM     44  C   UNL A   1      42.954  23.724  28.068  1.00  0.00     0.037 A 
ATOM     45  C   UNL A   1      42.612  29.529  32.216  1.00  0.00     0.037 A 
ATOM     46  C   UNL A   1      44.002  24.263  28.927  1.00  0.00     0.049 A 
ATOM     47  C   UNL A   1      43.267  28.285  32.779  1.00  0.00     0.074 A 
ATOM     48  C   UNL A   1      45.117  25.058  28.717  1.00  0.00     0.029 A 
ATOM     49  N   UNL A   1      43.810  24.230  30.294  1.00  0.00    -0.354 N 
ATOM     50  N   UNL A   1      43.809  27.342  32.058  1.00  0.00    -0.248 NA
ATOM     51  C   UNL A   1      43.271  27.963  34.207  1.00  0.00     0.031 C 
ATOM     52  C   UNL A   1      45.584  25.511  29.984  1.00  0.00     0.029 A 
ATOM     53  C   UNL A   1      44.754  24.986  30.957  1.00  0.00     0.049 A 
ATOM     54  H   UNL A   1      43.089  23.728  30.738  1.00  0.00     0.167 HD
ATOM     55  C   UNL A   1      44.153  26.296  32.873  1.00  0.00     0.074 A 
ATOM     56  C   UNL A   1      43.812  26.734  34.211  1.00  0.00     0.031 C 
ATOM     57  C   UNL A   1      44.646  25.118  32.398  1.00  0.00     0.037 A 
BRANCH  44  58
ATOM     58  C   UNL A   1      43.161  22.578  27.116  1.00  0.00     0.057 A 
ATOM     59  C   UNL A   1      42.387  21.407  27.216  1.00  0.00     0.134 A 
ATOM     60  C   UNL A   1      44.124  22.561  26.093  1.00  0.00     0.134 A 
ATOM     61  F   UNL A   1      41.371  21.306  28.084  1.00  0.00    -0.206 F 
ATOM     62  C   UNL A   1      42.625  20.271  26.432  1.00  0.00     0.040 A 
ATOM     63  C   UNL A   1      44.412  21.413  25.342  1.00  0.00     0.040 A 
ATOM     64  F   UNL A   1      44.795  23.668  25.747  1.00  0.00    -0.206 F 
ATOM     65  C   UNL A   1      43.668  20.256  25.518  1.00  0.00     0.006 A 
ENDBRANCH  44  58
BRANCH  45  66
ATOM     66  C   UNL A   1      41.435  30.214  32.811  1.00  0.00     0.057 A 
ATOM     67  C   UNL A   1      41.453  31.617  32.915  1.00  0.00     0.134 A 
ATOM     68  C   UNL A   1      40.197  29.581  32.932  1.00  0.00     0.134 A 
ATOM     69  F   UNL A   1      42.613  32.287  32.809  1.00  0.00    -0.206 F 
ATOM     70  C   UNL A   1      40.278  32.363  33.016  1.00  0.00     0.040 A 
ATOM     71  C   UNL A   1      39.013  30.318  33.049  1.00  0.00     0.040 A 
ATOM     72  F   UNL A   1      40.098  28.248  32.823  1.00  0.00    -0.206 F 
ATOM     73  C   UNL A   1      39.049  31.712  33.050  1.00  0.00     0.006 A 
ENDBRANCH  45  66
BRANCH  57  74
ATOM     74  C   UNL A   1      45.048  23.979  33.286  1.00  0.00     0.057 A 
ATOM     75  C   UNL A   1      44.156  22.955  33.631  1.00  0.00     0.134 A 
ATOM     76  C   UNL A   1      46.302  23.944  33.922  1.00  0.00     0.134 A 
ATOM     77  F   UNL A   1      42.917  22.918  33.119  1.00  0.00    -0.206 F 
ATOM     78  C   UNL A   1      44.503  21.941  34.532  1.00  0.00     0.040 A 
ATOM     79  C   UNL A   1      46.643  22.965  34.856  1.00  0.00     0.040 A 
ATOM     80  F   UNL A   1      47.254  24.849  33.645  1.00  0.00    -0.206 F 
ATOM     81  C   UNL A   1      45.743  21.952  35.158  1.00  0.00     0.006 A 
ENDBRANCH  57  74
ENDBRANCH  31  32
ENDBRANCH  23  26
ENDBRANCH  21  22
ENDBRANCH   1  21
TORSDOF 12
ENDMDL
MODEL 3
REMARK VINA RESULT:     -12.7      4.394      9.433
REMARK SMILES Cc1cccc(NC(=O)[C@H]2C[C@H]2C(=O)NCCCNC(=O)c2ccc(-c3c4nc(c(-c5c(F)cccc5F)c5ccc([nH]5)c(-c5c(F)cccc5F)c5nc(c(-c6c(F)cccc6F)c6ccc3[nH]6)C=C5)C=C4)cc2)c1
REMARK SMILES IDX 17 1 16 2 15 3 13 4 14 5 12 7 10 8 11 9 8 10 7 11 9 13 6 14
REMARK SMILES IDX 1 15 2 16 3 17 76 18 4 19 5 20 18 21 19 22 20 23 21 25 22 26
REMARK SMILES IDX 23 27 75 28 24 29 74 30 25 31 26 32 27 33 68 34 28 35 73 36
REMARK SMILES IDX 67 37 69 38 29 39 72 40 66 41 65 42 30 44 56 45 39 46 55 47
REMARK SMILES IDX 40 48 43 49 54 50 70 51 41 52 42 53 53 55 71 56 44 57 31 58
REMARK SMILES IDX 32 59 37 60 33 61 34 62 36 63 38 64 35 65 57 66 58 67 63 68
REMARK SMILES IDX 59 69 60 70 62 71 64 72 61 73 45 74 46 75 51 76 47 77 48 78
REMARK SMILES IDX 50 79 52 80 49 81
REMARK H PARENT 15 6 7 12 19 24 69 43 43 54
REMARK Flexibility Score: inf
ROOT
ATOM      1  C   UNL A   1      32.392  30.036  27.227  1.00  0.00     0.042 C 
ENDROOT
BRANCH   1   2
ATOM      2  C   UNL A   1      31.914  30.830  26.016  1.00  0.00     0.117 C 
BRANCH   2   3
ATOM      3  N   UNL A   1      31.248  29.965  25.062  1.00  0.00    -0.356 N 
ATOM      4  C   UNL A   1      31.691  29.117  24.092  1.00  0.00     0.223 C 
ATOM      5  O   UNL A   1      30.839  28.669  23.323  1.00  0.00    -0.275 OA
ATOM      6  H   UNL A   1      30.266  29.996  25.130  1.00  0.00     0.163 HD
BRANCH   4   7
ATOM      7  C   UNL A   1      33.078  28.631  23.900  1.00  0.00     0.091 C 
ATOM      8  C   UNL A   1      33.648  27.479  24.706  1.00  0.00     0.092 C 
ATOM      9  C   UNL A   1      33.652  27.457  23.187  1.00  0.00     0.028 C 
BRANCH   8  10
ATOM     10  C   UNL A   1      32.848  26.449  25.410  1.00  0.00     0.228 C 
ATOM     11  N   UNL A   1      33.163  25.118  25.333  1.00  0.00    -0.326 N 
ATOM     12  H   UNL A   1      32.475  24.529  25.718  1.00  0.00     0.169 HD
ATOM     13  O   UNL A   1      31.805  26.775  25.978  1.00  0.00    -0.274 OA
BRANCH  11  14
ATOM     14  C   UNL A   1      34.269  24.422  24.817  1.00  0.00     0.041 A 
ATOM     15  C   UNL A   1      37.784  23.624  26.092  1.00  0.00     0.044 C 
ATOM     16  C   UNL A   1      36.573  23.703  25.211  1.00  0.00    -0.049 A 
ATOM     17  C   UNL A   1      36.587  23.092  23.955  1.00  0.00     0.003 A 
ATOM     18  C   UNL A   1      35.416  24.382  25.624  1.00  0.00     0.029 A 
ATOM     19  C   UNL A   1      35.464  23.154  23.136  1.00  0.00     0.002 A 
ATOM     20  C   UNL A   1      34.311  23.811  23.568  1.00  0.00     0.026 A 
ENDBRANCH  11  14
ENDBRANCH   8  10
ENDBRANCH   4   7
ENDBRANCH   2   3
ENDBRANCH   1   2
BRANCH   1  21
ATOM     21  C   UNL A   1      33.902  30.019  27.390  1.00  0.00     0.118 C 
BRANCH  21  22
ATOM     22  N   UNL A   1      34.411  31.022  28.321  1.00  0.00    -0.352 N 
ATOM     23  C   UNL A   1      35.598  31.031  29.035  1.00  0.00     0.251 C 
ATOM     24  H   UNL A   1      33.828  31.803  28.460  1.00  0.00     0.163 HD
ATOM     25  O   UNL A   1      35.878  31.975  29.756  1.00  0.00    -0.269 OA
BRANCH  23  26
ATOM     26  C   UNL A   1      36.582  29.944  28.812  1.00  0.00     0.039 A 
ATOM     27  C   UNL A   1      36.879  29.096  29.883  1.00  0.00     0.014 A 
ATOM     28  C   UNL A   1      37.344  29.895  27.648  1.00  0.00     0.014 A 
ATOM     29  C   UNL A   1      38.086  28.399  29.884  1.00  0.00     0.010 A 
ATOM     30  C   UNL A   1      38.587  29.295  27.692  1.00  0.00     0.010 A 
ATOM     31  C   UNL A   1      38.987  28.604  28.840  1.00  0.00    -0.014 A 
BRANCH  31  32
ATOM     32  C   UNL A   1      40.402  28.255  28.924  1.00  0.00     0.031 A 
ATOM     33  C   UNL A   1      40.914  27.003  28.333  1.00  0.00     0.074 A 
ATOM     34  C   UNL A   1      41.267  29.124  29.496  1.00  0.00     0.049 A 
ATOM     35  N   UNL A   1      42.020  26.439  28.690  1.00  0.00    -0.248 NA
ATOM     36  C   UNL A   1      40.197  26.261  27.302  1.00  0.00     0.031 C 
ATOM     37  C   UNL A   1      42.726  29.077  29.458  1.00  0.00     0.029 A 
ATOM     38  N   UNL A   1      40.976  30.126  30.434  1.00  0.00    -0.354 N 
ATOM     39  C   UNL A   1      42.275  25.412  27.815  1.00  0.00     0.074 A 
ATOM     40  C   UNL A   1      41.098  25.325  26.982  1.00  0.00     0.031 C 
ATOM     41  C   UNL A   1      43.205  29.751  30.515  1.00  0.00     0.029 A 
ATOM     42  C   UNL A   1      42.070  30.141  31.331  1.00  0.00     0.049 A 
ATOM     43  H   UNL A   1      40.177  30.700  30.461  1.00  0.00     0.167 HD
ATOM     44  C   UNL A   1      43.493  24.799  27.830  1.00  0.00     0.037 A 
ATOM     45  C   UNL A   1      41.897  29.827  32.647  1.00  0.00     0.037 A 
ATOM     46  C   UNL A   1      44.358  25.329  28.879  1.00  0.00     0.049 A 
ATOM     47  C   UNL A   1      42.658  28.603  33.115  1.00  0.00     0.074 A 
ATOM     48  C   UNL A   1      45.365  26.278  28.920  1.00  0.00     0.029 A 
ATOM     49  N   UNL A   1      44.028  25.067  30.194  1.00  0.00    -0.354 N 
ATOM     50  N   UNL A   1      43.401  27.854  32.348  1.00  0.00    -0.248 NA
ATOM     51  C   UNL A   1      42.554  28.073  34.476  1.00  0.00     0.031 C 
ATOM     52  C   UNL A   1      45.626  26.590  30.285  1.00  0.00     0.029 A 
ATOM     53  C   UNL A   1      44.780  25.825  31.067  1.00  0.00     0.049 A 
ATOM     54  H   UNL A   1      43.342  24.418  30.472  1.00  0.00     0.167 HD
ATOM     55  C   UNL A   1      43.800  26.748  33.051  1.00  0.00     0.074 A 
ATOM     56  C   UNL A   1      43.260  26.935  34.382  1.00  0.00     0.031 C 
ATOM     57  C   UNL A   1      44.502  25.725  32.487  1.00  0.00     0.037 A 
BRANCH  44  58
ATOM     58  C   UNL A   1      43.960  23.843  26.767  1.00  0.00     0.057 A 
ATOM     59  C   UNL A   1      44.772  24.283  25.706  1.00  0.00     0.134 A 
ATOM     60  C   UNL A   1      43.624  22.480  26.724  1.00  0.00     0.134 A 
ATOM     61  F   UNL A   1      45.248  25.534  25.655  1.00  0.00    -0.206 F 
ATOM     62  C   UNL A   1      45.130  23.458  24.632  1.00  0.00     0.040 A 
ATOM     63  C   UNL A   1      43.924  21.658  25.628  1.00  0.00     0.040 A 
ATOM     64  F   UNL A   1      43.029  21.874  27.761  1.00  0.00    -0.206 F 
ATOM     65  C   UNL A   1      44.672  22.151  24.569  1.00  0.00     0.006 A 
ENDBRANCH  44  58
BRANCH  45  66
ATOM     66  C   UNL A   1      40.579  30.263  33.177  1.00  0.00     0.057 A 
ATOM     67  C   UNL A   1      40.364  31.634  33.401  1.00  0.00     0.134 A 
ATOM     68  C   UNL A   1      39.452  29.441  33.117  1.00  0.00     0.134 A 
ATOM     69  F   UNL A   1      41.406  32.480  33.470  1.00  0.00    -0.206 F 
ATOM     70  C   UNL A   1      39.080  32.181  33.447  1.00  0.00     0.040 A 
ATOM     71  C   UNL A   1      38.160  29.975  33.177  1.00  0.00     0.040 A 
ATOM     72  F   UNL A   1      39.577  28.126  32.885  1.00  0.00    -0.206 F 
ATOM     73  C   UNL A   1      37.972  31.351  33.300  1.00  0.00     0.006 A 
ENDBRANCH  45  66
BRANCH  57  74
ATOM     74  C   UNL A   1      44.964  24.525  33.256  1.00  0.00     0.057 A 
ATOM     75  C   UNL A   1      46.196  24.497  33.921  1.00  0.00     0.134 A 
ATOM     76  C   UNL A   1      44.241  23.317  33.246  1.00  0.00     0.134 A 
ATOM     77  F   UNL A   1      46.988  25.580  33.952  1.00  0.00    -0.206 F 
ATOM     78  C   UNL A   1      46.668  23.346  34.563  1.00  0.00     0.040 A 
ATOM     79  C   UNL A   1      44.722  22.151  33.843  1.00  0.00     0.040 A 
ATOM     80  F   UNL A   1      43.030  23.229  32.675  1.00  0.00    -0.206 F 
ATOM     81  C   UNL A   1      45.937  22.164  34.513  1.00  0.00     0.006 A 
ENDBRANCH  57  74
ENDBRANCH  31  32
ENDBRANCH  23  26
ENDBRANCH  21  22
ENDBRANCH   1  21
TORSDOF 12
ENDMDL
