MODEL 1
REMARK VINA RESULT:     -11.2      0.000      0.000
REMARK SMILES CC[C@](C)(NS(=O)(=O)c1ccc(OC)c(F)c1)C(=O)NCCCNC(=O)c1ccc(-c2c3nc(c(-c4c(F)cccc4F)c4ccc([nH]4)c(-c4c(F)cccc4F)c4nc(c(-c5c(F)cccc5F)c5ccc2[nH]5)C=C4)C=C3)cc1
REMARK SMILES IDX 21 1 20 2 18 3 19 4 3 6 4 7 2 8 1 9 5 10 6 12 7 13 8 14 9 15
REMARK SMILES IDX 10 16 17 17 11 18 15 19 12 20 16 21 13 22 14 23 22 24 23 25
REMARK SMILES IDX 24 26 25 27 26 29 27 30 28 31 80 32 29 33 79 34 30 35 31 36
REMARK SMILES IDX 32 37 73 38 33 39 78 40 72 41 74 42 34 43 77 44 71 45 70 46
REMARK SMILES IDX 35 48 61 49 44 50 60 51 45 52 48 53 59 54 75 55 46 56 47 57
REMARK SMILES IDX 58 59 76 60 49 61 36 62 37 63 42 64 38 65 39 66 41 67 43 68
REMARK SMILES IDX 40 69 62 70 63 71 68 72 64 73 65 74 67 75 69 76 66 77 50 78
REMARK SMILES IDX 51 79 56 80 52 81 53 82 55 83 57 84 54 85
REMARK H PARENT 20 5 5 11 24 28 74 47 48 58
REMARK Flexibility Score: inf
ROOT
ATOM      1  C   UNL A   1      36.229  19.890  24.900  1.00  0.00     0.117 C 
ENDROOT
BRANCH   1   2
ATOM      2  N   UNL A   1      35.997  21.003  25.812  1.00  0.00    -0.354 N 
ATOM      3  C   UNL A   1      35.163  22.080  25.783  1.00  0.00     0.241 C 
ATOM      4  O   UNL A   1      34.745  22.405  26.906  1.00  0.00    -0.273 OA
ATOM      5  H   UNL A   1      36.564  20.970  26.617  1.00  0.00     0.163 HD
BRANCH   3   6
ATOM      6  C   UNL A   1      34.826  22.966  24.543  1.00  0.00     0.108 C 
ATOM      7  C   UNL A   1      36.148  23.068  23.708  1.00  0.00     0.040 C 
BRANCH   6   8
ATOM      8  C   UNL A   1      34.339  24.382  24.956  1.00  0.00     0.030 C 
ATOM      9  C   UNL A   1      33.811  25.310  23.858  1.00  0.00     0.006 C 
ENDBRANCH   6   8
BRANCH   6  10
ATOM     10  N   UNL A   1      33.929  22.335  23.527  1.00  0.00    -0.196 NA
ATOM     11  H   UNL A   1      34.477  21.557  23.161  1.00  0.00     0.142 HD
BRANCH  10  12
ATOM     12  S   UNL A   1      32.406  21.714  23.689  1.00  0.00     0.241 S 
ATOM     13  O   UNL A   1      31.817  22.264  24.888  1.00  0.00    -0.207 OA
ATOM     14  O   UNL A   1      31.797  21.946  22.400  1.00  0.00    -0.207 OA
BRANCH  12  15
ATOM     15  C   UNL A   1      32.474  19.946  23.867  1.00  0.00     0.085 A 
ATOM     16  C   UNL A   1      32.499  19.070  22.788  1.00  0.00     0.026 A 
ATOM     17  C   UNL A   1      32.561  19.425  25.164  1.00  0.00     0.065 A 
ATOM     18  C   UNL A   1      32.798  17.719  22.985  1.00  0.00     0.051 A 
ATOM     19  C   UNL A   1      32.785  18.059  25.357  1.00  0.00     0.166 A 
ATOM     20  C   UNL A   1      32.960  17.199  24.270  1.00  0.00     0.154 A 
ATOM     21  F   UNL A   1      32.873  17.615  26.618  1.00  0.00    -0.203 F 
BRANCH  20  22
ATOM     22  O   UNL A   1      33.302  15.878  24.293  1.00  0.00    -0.494 OA
ATOM     23  C   UNL A   1      32.643  15.041  25.234  1.00  0.00     0.278 C 
ENDBRANCH  20  22
ENDBRANCH  12  15
ENDBRANCH  10  12
ENDBRANCH   6  10
ENDBRANCH   3   6
ENDBRANCH   1   2
BRANCH   1  24
ATOM     24  C   UNL A   1      37.589  19.175  24.953  1.00  0.00     0.042 C 
BRANCH  24  25
ATOM     25  C   UNL A   1      38.777  19.883  25.602  1.00  0.00     0.118 C 
BRANCH  25  26
ATOM     26  N   UNL A   1      39.950  19.031  25.693  1.00  0.00    -0.352 N 
ATOM     27  C   UNL A   1      41.244  19.346  26.036  1.00  0.00     0.251 C 
ATOM     28  H   UNL A   1      39.796  18.083  25.477  1.00  0.00     0.163 HD
ATOM     29  O   UNL A   1      42.121  18.496  25.893  1.00  0.00    -0.269 OA
BRANCH  27  30
ATOM     30  C   UNL A   1      41.625  20.685  26.556  1.00  0.00     0.039 A 
ATOM     31  C   UNL A   1      41.935  21.688  25.632  1.00  0.00     0.014 A 
ATOM     32  C   UNL A   1      41.791  20.941  27.921  1.00  0.00     0.014 A 
ATOM     33  C   UNL A   1      42.377  22.944  26.068  1.00  0.00     0.010 A 
ATOM     34  C   UNL A   1      42.209  22.210  28.359  1.00  0.00     0.010 A 
ATOM     35  C   UNL A   1      42.510  23.226  27.437  1.00  0.00    -0.014 A 
BRANCH  35  36
ATOM     36  C   UNL A   1      42.919  24.591  27.879  1.00  0.00     0.031 A 
ATOM     37  C   UNL A   1      44.362  25.016  27.917  1.00  0.00     0.074 A 
ATOM     38  C   UNL A   1      41.969  25.480  28.232  1.00  0.00     0.049 A 
ATOM     39  N   UNL A   1      44.866  26.196  28.192  1.00  0.00    -0.248 NA
ATOM     40  C   UNL A   1      45.368  23.990  27.614  1.00  0.00     0.031 C 
ATOM     41  C   UNL A   1      40.533  25.206  28.270  1.00  0.00     0.029 A 
ATOM     42  N   UNL A   1      42.068  26.797  28.615  1.00  0.00    -0.354 N 
ATOM     43  C   UNL A   1      46.245  26.060  28.083  1.00  0.00     0.074 A 
ATOM     44  C   UNL A   1      46.500  24.670  27.759  1.00  0.00     0.031 C 
ATOM     45  C   UNL A   1      39.883  26.325  28.626  1.00  0.00     0.029 A 
ATOM     46  C   UNL A   1      40.854  27.391  28.863  1.00  0.00     0.049 A 
ATOM     47  H   UNL A   1      42.927  27.270  28.702  1.00  0.00     0.167 HD
ATOM     48  C   UNL A   1      47.207  27.006  28.220  1.00  0.00     0.037 A 
ATOM     49  C   UNL A   1      40.548  28.651  29.229  1.00  0.00     0.037 A 
ATOM     50  C   UNL A   1      46.968  28.392  28.537  1.00  0.00     0.049 A 
ATOM     51  C   UNL A   1      41.635  29.674  29.403  1.00  0.00     0.074 A 
ATOM     52  C   UNL A   1      47.889  29.424  28.635  1.00  0.00     0.029 A 
ATOM     53  N   UNL A   1      45.727  28.942  28.818  1.00  0.00    -0.354 N 
ATOM     54  N   UNL A   1      42.925  29.544  29.225  1.00  0.00    -0.248 NA
ATOM     55  C   UNL A   1      41.220  31.022  29.822  1.00  0.00     0.031 C 
ATOM     56  C   UNL A   1      47.213  30.586  29.019  1.00  0.00     0.029 A 
ATOM     57  C   UNL A   1      45.864  30.290  29.118  1.00  0.00     0.049 A 
ATOM     58  H   UNL A   1      44.875  28.449  28.806  1.00  0.00     0.167 HD
ATOM     59  C   UNL A   1      43.474  30.792  29.495  1.00  0.00     0.074 A 
ATOM     60  C   UNL A   1      42.376  31.671  29.830  1.00  0.00     0.031 C 
ATOM     61  C   UNL A   1      44.776  31.167  29.464  1.00  0.00     0.037 A 
BRANCH  48  62
ATOM     62  C   UNL A   1      48.635  26.587  28.012  1.00  0.00     0.057 A 
ATOM     63  C   UNL A   1      49.196  26.560  26.729  1.00  0.00     0.134 A 
ATOM     64  C   UNL A   1      49.418  26.113  29.071  1.00  0.00     0.134 A 
ATOM     65  F   UNL A   1      48.494  26.984  25.668  1.00  0.00    -0.206 F 
ATOM     66  C   UNL A   1      50.483  26.066  26.507  1.00  0.00     0.040 A 
ATOM     67  C   UNL A   1      50.714  25.637  28.864  1.00  0.00     0.040 A 
ATOM     68  F   UNL A   1      48.938  26.112  30.325  1.00  0.00    -0.206 F 
ATOM     69  C   UNL A   1      51.247  25.604  27.577  1.00  0.00     0.006 A 
ENDBRANCH  48  62
BRANCH  49  70
ATOM     70  C   UNL A   1      39.126  29.026  29.426  1.00  0.00     0.057 A 
ATOM     71  C   UNL A   1      38.495  28.867  30.665  1.00  0.00     0.134 A 
ATOM     72  C   UNL A   1      38.364  29.538  28.370  1.00  0.00     0.134 A 
ATOM     73  F   UNL A   1      39.175  28.381  31.714  1.00  0.00    -0.206 F 
ATOM     74  C   UNL A   1      37.149  29.189  30.844  1.00  0.00     0.040 A 
ATOM     75  C   UNL A   1      37.022  29.884  28.541  1.00  0.00     0.040 A 
ATOM     76  F   UNL A   1      38.921  29.733  27.167  1.00  0.00    -0.206 F 
ATOM     77  C   UNL A   1      36.410  29.701  29.779  1.00  0.00     0.006 A 
ENDBRANCH  49  70
BRANCH  61  78
ATOM     78  C   UNL A   1      45.096  32.595  29.800  1.00  0.00     0.057 A 
ATOM     79  C   UNL A   1      45.412  32.973  31.112  1.00  0.00     0.134 A 
ATOM     80  C   UNL A   1      45.039  33.609  28.833  1.00  0.00     0.134 A 
ATOM     81  F   UNL A   1      45.478  32.054  32.088  1.00  0.00    -0.206 F 
ATOM     82  C   UNL A   1      45.653  34.305  31.451  1.00  0.00     0.040 A 
ATOM     83  C   UNL A   1      45.298  34.942  29.157  1.00  0.00     0.040 A 
ATOM     84  F   UNL A   1      44.753  33.314  27.556  1.00  0.00    -0.206 F 
ATOM     85  C   UNL A   1      45.599  35.294  30.472  1.00  0.00     0.006 A 
ENDBRANCH  61  78
ENDBRANCH  35  36
ENDBRANCH  27  30
ENDBRANCH  25  26
ENDBRANCH  24  25
ENDBRANCH   1  24
TORSDOF 15
ENDMDL
MODEL 2
REMARK VINA RESULT:     -10.9      1.851      3.561
REMARK SMILES CC[C@](C)(NS(=O)(=O)c1ccc(OC)c(F)c1)C(=O)NCCCNC(=O)c1ccc(-c2c3nc(c(-c4c(F)cccc4F)c4ccc([nH]4)c(-c4c(F)cccc4F)c4nc(c(-c5c(F)cccc5F)c5ccc2[nH]5)C=C4)C=C3)cc1
REMARK SMILES IDX 21 1 20 2 18 3 19 4 3 6 4 7 2 8 1 9 5 10 6 12 7 13 8 14 9 15
REMARK SMILES IDX 10 16 17 17 11 18 15 19 12 20 16 21 13 22 14 23 22 24 23 25
REMARK SMILES IDX 24 26 25 27 26 29 27 30 28 31 80 32 29 33 79 34 30 35 31 36
REMARK SMILES IDX 32 37 73 38 33 39 78 40 72 41 74 42 34 43 77 44 71 45 70 46
REMARK SMILES IDX 35 48 61 49 44 50 60 51 45 52 48 53 59 54 75 55 46 56 47 57
REMARK SMILES IDX 58 59 76 60 49 61 36 62 37 63 42 64 38 65 39 66 41 67 43 68
REMARK SMILES IDX 40 69 62 70 63 71 68 72 64 73 65 74 67 75 69 76 66 77 50 78
REMARK SMILES IDX 51 79 56 80 52 81 53 82 55 83 57 84 54 85
REMARK H PARENT 20 5 5 11 24 28 74 47 48 58
REMARK Flexibility Score: inf
ROOT
ATOM      1  C   UNL A   1      36.079  19.593  24.967  1.00  0.00     0.117 C 
ENDROOT
BRANCH   1   2
ATOM      2  N   UNL A   1      35.519  20.764  25.629  1.00  0.00    -0.354 N 
ATOM      3  C   UNL A   1      34.245  21.167  25.900  1.00  0.00     0.241 C 
ATOM      4  O   UNL A   1      34.145  21.776  26.977  1.00  0.00    -0.273 OA
ATOM      5  H   UNL A   1      36.204  21.397  25.946  1.00  0.00     0.163 HD
BRANCH   3   6
ATOM      6  C   UNL A   1      33.009  21.054  24.954  1.00  0.00     0.108 C 
ATOM      7  C   UNL A   1      31.891  21.951  25.588  1.00  0.00     0.040 C 
BRANCH   6   8
ATOM      8  C   UNL A   1      32.511  19.589  24.821  1.00  0.00     0.030 C 
ATOM      9  C   UNL A   1      32.652  18.902  23.460  1.00  0.00     0.006 C 
ENDBRANCH   6   8
BRANCH   6  10
ATOM     10  N   UNL A   1      33.153  21.724  23.626  1.00  0.00    -0.196 NA
ATOM     11  H   UNL A   1      32.197  21.968  23.365  1.00  0.00     0.142 HD
BRANCH  10  12
ATOM     12  S   UNL A   1      34.040  23.050  23.191  1.00  0.00     0.241 S 
ATOM     13  O   UNL A   1      35.431  22.773  23.462  1.00  0.00    -0.207 OA
ATOM     14  O   UNL A   1      33.597  23.338  21.847  1.00  0.00    -0.207 OA
BRANCH  12  15
ATOM     15  C   UNL A   1      33.557  24.461  24.159  1.00  0.00     0.085 A 
ATOM     16  C   UNL A   1      34.328  24.978  25.193  1.00  0.00     0.026 A 
ATOM     17  C   UNL A   1      32.363  25.107  23.817  1.00  0.00     0.065 A 
ATOM     18  C   UNL A   1      34.017  26.223  25.749  1.00  0.00     0.051 A 
ATOM     19  C   UNL A   1      32.018  26.314  24.431  1.00  0.00     0.166 A 
ATOM     20  C   UNL A   1      32.867  26.913  25.365  1.00  0.00     0.154 A 
ATOM     21  F   UNL A   1      30.871  26.898  24.058  1.00  0.00    -0.203 F 
BRANCH  20  22
ATOM     22  O   UNL A   1      32.733  28.136  25.957  1.00  0.00    -0.494 OA
ATOM     23  C   UNL A   1      31.848  28.240  27.065  1.00  0.00     0.278 C 
ENDBRANCH  20  22
ENDBRANCH  12  15
ENDBRANCH  10  12
ENDBRANCH   6  10
ENDBRANCH   3   6
ENDBRANCH   1   2
BRANCH   1  24
ATOM     24  C   UNL A   1      37.580  19.593  24.634  1.00  0.00     0.042 C 
BRANCH  24  25
ATOM     25  C   UNL A   1      38.579  20.052  25.695  1.00  0.00     0.118 C 
BRANCH  25  26
ATOM     26  N   UNL A   1      39.758  19.206  25.753  1.00  0.00    -0.352 N 
ATOM     27  C   UNL A   1      41.060  19.527  26.057  1.00  0.00     0.251 C 
ATOM     28  H   UNL A   1      39.601  18.257  25.543  1.00  0.00     0.163 HD
ATOM     29  O   UNL A   1      41.936  18.681  25.889  1.00  0.00    -0.269 OA
BRANCH  27  30
ATOM     30  C   UNL A   1      41.450  20.868  26.564  1.00  0.00     0.039 A 
ATOM     31  C   UNL A   1      41.207  21.162  27.910  1.00  0.00     0.014 A 
ATOM     32  C   UNL A   1      41.942  21.874  25.725  1.00  0.00     0.014 A 
ATOM     33  C   UNL A   1      41.481  22.438  28.420  1.00  0.00     0.010 A 
ATOM     34  C   UNL A   1      42.243  23.146  26.244  1.00  0.00     0.010 A 
ATOM     35  C   UNL A   1      42.013  23.444  27.597  1.00  0.00    -0.014 A 
BRANCH  35  36
ATOM     36  C   UNL A   1      42.359  24.773  28.178  1.00  0.00     0.031 A 
ATOM     37  C   UNL A   1      43.771  25.134  28.555  1.00  0.00     0.074 A 
ATOM     38  C   UNL A   1      41.385  25.690  28.351  1.00  0.00     0.049 A 
ATOM     39  N   UNL A   1      44.241  26.280  28.988  1.00  0.00    -0.248 NA
ATOM     40  C   UNL A   1      44.784  24.076  28.438  1.00  0.00     0.031 C 
ATOM     41  C   UNL A   1      39.969  25.477  28.056  1.00  0.00     0.029 A 
ATOM     42  N   UNL A   1      41.441  26.987  28.805  1.00  0.00    -0.354 N 
ATOM     43  C   UNL A   1      45.603  26.088  29.182  1.00  0.00     0.074 A 
ATOM     44  C   UNL A   1      45.876  24.700  28.861  1.00  0.00     0.031 C 
ATOM     45  C   UNL A   1      39.295  26.610  28.309  1.00  0.00     0.029 A 
ATOM     46  C   UNL A   1      40.224  27.624  28.802  1.00  0.00     0.049 A 
ATOM     47  H   UNL A   1      42.275  27.418  29.101  1.00  0.00     0.167 HD
ATOM     48  C   UNL A   1      46.543  26.985  29.571  1.00  0.00     0.037 A 
ATOM     49  C   UNL A   1      39.888  28.882  29.147  1.00  0.00     0.037 A 
ATOM     50  C   UNL A   1      46.286  28.368  29.889  1.00  0.00     0.049 A 
ATOM     51  C   UNL A   1      40.943  29.850  29.604  1.00  0.00     0.074 A 
ATOM     52  C   UNL A   1      47.198  29.355  30.235  1.00  0.00     0.029 A 
ATOM     53  N   UNL A   1      45.034  28.962  29.911  1.00  0.00    -0.354 N 
ATOM     54  N   UNL A   1      42.235  29.670  29.712  1.00  0.00    -0.248 NA
ATOM     55  C   UNL A   1      40.491  31.198  29.980  1.00  0.00     0.031 C 
ATOM     56  C   UNL A   1      46.493  30.531  30.511  1.00  0.00     0.029 A 
ATOM     57  C   UNL A   1      45.147  30.291  30.294  1.00  0.00     0.049 A 
ATOM     58  H   UNL A   1      44.190  28.507  29.688  1.00  0.00     0.167 HD
ATOM     59  C   UNL A   1      42.752  30.882  30.152  1.00  0.00     0.074 A 
ATOM     60  C   UNL A   1      41.638  31.796  30.274  1.00  0.00     0.031 C 
ATOM     61  C   UNL A   1      44.040  31.201  30.428  1.00  0.00     0.037 A 
BRANCH  48  62
ATOM     62  C   UNL A   1      47.965  26.512  29.668  1.00  0.00     0.057 A 
ATOM     63  C   UNL A   1      48.805  26.526  28.546  1.00  0.00     0.134 A 
ATOM     64  C   UNL A   1      48.469  25.948  30.846  1.00  0.00     0.134 A 
ATOM     65  F   UNL A   1      48.378  27.036  27.381  1.00  0.00    -0.206 F 
ATOM     66  C   UNL A   1      50.091  25.985  28.591  1.00  0.00     0.040 A 
ATOM     67  C   UNL A   1      49.762  25.425  30.909  1.00  0.00     0.040 A 
ATOM     68  F   UNL A   1      47.715  25.905  31.955  1.00  0.00    -0.206 F 
ATOM     69  C   UNL A   1      50.574  25.434  29.777  1.00  0.00     0.006 A 
ENDBRANCH  48  62
BRANCH  49  70
ATOM     70  C   UNL A   1      38.471  29.312  29.040  1.00  0.00     0.057 A 
ATOM     71  C   UNL A   1      37.631  29.338  30.159  1.00  0.00     0.134 A 
ATOM     72  C   UNL A   1      37.925  29.690  27.809  1.00  0.00     0.134 A 
ATOM     73  F   UNL A   1      38.098  28.985  31.365  1.00  0.00    -0.206 F 
ATOM     74  C   UNL A   1      36.290  29.710  30.054  1.00  0.00     0.040 A 
ATOM     75  C   UNL A   1      36.592  30.086  27.694  1.00  0.00     0.040 A 
ATOM     76  F   UNL A   1      38.689  29.707  26.707  1.00  0.00    -0.206 F 
ATOM     77  C   UNL A   1      35.769  30.087  28.818  1.00  0.00     0.006 A 
ENDBRANCH  49  70
BRANCH  61  78
ATOM     78  C   UNL A   1      44.326  32.602  30.890  1.00  0.00     0.057 A 
ATOM     79  C   UNL A   1      44.311  32.927  32.253  1.00  0.00     0.134 A 
ATOM     80  C   UNL A   1      44.564  33.641  29.981  1.00  0.00     0.134 A 
ATOM     81  F   UNL A   1      44.083  31.981  33.177  1.00  0.00    -0.206 F 
ATOM     82  C   UNL A   1      44.514  34.235  32.694  1.00  0.00     0.040 A 
ATOM     83  C   UNL A   1      44.789  34.950  30.412  1.00  0.00     0.040 A 
ATOM     84  F   UNL A   1      44.603  33.396  28.663  1.00  0.00    -0.206 F 
ATOM     85  C   UNL A   1      44.758  35.251  31.773  1.00  0.00     0.006 A 
ENDBRANCH  61  78
ENDBRANCH  35  36
ENDBRANCH  27  30
ENDBRANCH  25  26
ENDBRANCH  24  25
ENDBRANCH   1  24
TORSDOF 15
ENDMDL
MODEL 3
REMARK VINA RESULT:     -10.9      5.155      9.757
REMARK SMILES CC[C@](C)(NS(=O)(=O)c1ccc(OC)c(F)c1)C(=O)NCCCNC(=O)c1ccc(-c2c3nc(c(-c4c(F)cccc4F)c4ccc([nH]4)c(-c4c(F)cccc4F)c4nc(c(-c5c(F)cccc5F)c5ccc2[nH]5)C=C4)C=C3)cc1
REMARK SMILES IDX 21 1 20 2 18 3 19 4 3 6 4 7 2 8 1 9 5 10 6 12 7 13 8 14 9 15
REMARK SMILES IDX 10 16 17 17 11 18 15 19 12 20 16 21 13 22 14 23 22 24 23 25
REMARK SMILES IDX 24 26 25 27 26 29 27 30 28 31 80 32 29 33 79 34 30 35 31 36
REMARK SMILES IDX 32 37 73 38 33 39 78 40 72 41 74 42 34 43 77 44 71 45 70 46
REMARK SMILES IDX 35 48 61 49 44 50 60 51 45 52 48 53 59 54 75 55 46 56 47 57
REMARK SMILES IDX 58 59 76 60 49 61 36 62 37 63 42 64 38 65 39 66 41 67 43 68
REMARK SMILES IDX 40 69 62 70 63 71 68 72 64 73 65 74 67 75 69 76 66 77 50 78
REMARK SMILES IDX 51 79 56 80 52 81 53 82 55 83 57 84 54 85
REMARK H PARENT 20 5 5 11 24 28 74 47 48 58
REMARK Flexibility Score: inf
ROOT
ATOM      1  C   UNL A   1      30.832  31.011  25.319  1.00  0.00     0.117 C 
ENDROOT
BRANCH   1   2
ATOM      2  N   UNL A   1      31.810  29.972  25.028  1.00  0.00    -0.354 N 
ATOM      3  C   UNL A   1      31.870  28.974  24.101  1.00  0.00     0.241 C 
ATOM      4  O   UNL A   1      33.024  28.746  23.703  1.00  0.00    -0.273 OA
ATOM      5  H   UNL A   1      32.593  29.996  25.626  1.00  0.00     0.163 HD
BRANCH   3   6
ATOM      6  C   UNL A   1      30.694  28.058  23.639  1.00  0.00     0.108 C 
ATOM      7  C   UNL A   1      31.290  27.097  22.554  1.00  0.00     0.040 C 
BRANCH   6   8
ATOM      8  C   UNL A   1      29.518  28.879  23.042  1.00  0.00     0.030 C 
ATOM      9  C   UNL A   1      29.834  29.888  21.934  1.00  0.00     0.006 C 
ENDBRANCH   6   8
BRANCH   6  10
ATOM     10  N   UNL A   1      30.228  27.054  24.643  1.00  0.00    -0.196 NA
ATOM     11  H   UNL A   1      29.966  26.244  24.081  1.00  0.00     0.142 HD
BRANCH  10  12
ATOM     12  S   UNL A   1      31.014  26.405  25.944  1.00  0.00     0.241 S 
ATOM     13  O   UNL A   1      31.532  27.487  26.747  1.00  0.00    -0.207 OA
ATOM     14  O   UNL A   1      30.059  25.473  26.498  1.00  0.00    -0.207 OA
BRANCH  12  15
ATOM     15  C   UNL A   1      32.386  25.410  25.406  1.00  0.00     0.085 A 
ATOM     16  C   UNL A   1      33.714  25.759  25.621  1.00  0.00     0.026 A 
ATOM     17  C   UNL A   1      32.099  24.190  24.782  1.00  0.00     0.065 A 
ATOM     18  C   UNL A   1      34.732  24.828  25.395  1.00  0.00     0.051 A 
ATOM     19  C   UNL A   1      33.130  23.293  24.489  1.00  0.00     0.166 A 
ATOM     20  C   UNL A   1      34.452  23.578  24.840  1.00  0.00     0.154 A 
ATOM     21  F   UNL A   1      32.800  22.134  23.903  1.00  0.00    -0.203 F 
BRANCH  20  22
ATOM     22  O   UNL A   1      35.543  22.764  24.734  1.00  0.00    -0.494 OA
ATOM     23  C   UNL A   1      35.837  21.907  25.829  1.00  0.00     0.278 C 
ENDBRANCH  20  22
ENDBRANCH  12  15
ENDBRANCH  10  12
ENDBRANCH   6  10
ENDBRANCH   3   6
ENDBRANCH   1   2
BRANCH   1  24
ATOM     24  C   UNL A   1      31.037  31.875  26.574  1.00  0.00     0.042 C 
BRANCH  24  25
ATOM     25  C   UNL A   1      32.406  32.501  26.832  1.00  0.00     0.118 C 
BRANCH  25  26
ATOM     26  N   UNL A   1      32.311  33.823  27.425  1.00  0.00    -0.352 N 
ATOM     27  C   UNL A   1      33.082  34.411  28.400  1.00  0.00     0.251 C 
ATOM     28  H   UNL A   1      31.583  34.386  27.075  1.00  0.00     0.163 HD
ATOM     29  O   UNL A   1      32.726  35.489  28.872  1.00  0.00    -0.269 OA
BRANCH  27  30
ATOM     30  C   UNL A   1      34.323  33.779  28.918  1.00  0.00     0.039 A 
ATOM     31  C   UNL A   1      34.197  32.697  29.796  1.00  0.00     0.014 A 
ATOM     32  C   UNL A   1      35.596  34.294  28.650  1.00  0.00     0.014 A 
ATOM     33  C   UNL A   1      35.332  32.116  30.376  1.00  0.00     0.010 A 
ATOM     34  C   UNL A   1      36.737  33.693  29.212  1.00  0.00     0.010 A 
ATOM     35  C   UNL A   1      36.618  32.600  30.084  1.00  0.00    -0.014 A 
BRANCH  35  36
ATOM     36  C   UNL A   1      37.815  31.922  30.662  1.00  0.00     0.031 A 
ATOM     37  C   UNL A   1      38.314  32.234  32.048  1.00  0.00     0.074 A 
ATOM     38  C   UNL A   1      38.457  30.986  29.935  1.00  0.00     0.049 A 
ATOM     39  N   UNL A   1      39.287  31.665  32.721  1.00  0.00    -0.248 NA
ATOM     40  C   UNL A   1      37.644  33.324  32.769  1.00  0.00     0.031 C 
ATOM     41  C   UNL A   1      38.107  30.595  28.570  1.00  0.00     0.029 A 
ATOM     42  N   UNL A   1      39.531  30.185  30.247  1.00  0.00    -0.354 N 
ATOM     43  C   UNL A   1      39.338  32.316  33.947  1.00  0.00     0.074 A 
ATOM     44  C   UNL A   1      38.326  33.354  33.908  1.00  0.00     0.031 C 
ATOM     45  C   UNL A   1      38.929  29.612  28.172  1.00  0.00     0.029 A 
ATOM     46  C   UNL A   1      39.878  29.315  29.242  1.00  0.00     0.049 A 
ATOM     47  H   UNL A   1      40.005  30.231  31.109  1.00  0.00     0.167 HD
ATOM     48  C   UNL A   1      40.137  32.062  35.013  1.00  0.00     0.037 A 
ATOM     49  C   UNL A   1      40.842  28.376  29.184  1.00  0.00     0.037 A 
ATOM     50  C   UNL A   1      41.144  31.032  35.067  1.00  0.00     0.049 A 
ATOM     51  C   UNL A   1      41.735  28.133  30.368  1.00  0.00     0.074 A 
ATOM     52  C   UNL A   1      41.954  30.676  36.135  1.00  0.00     0.029 A 
ATOM     53  N   UNL A   1      41.489  30.199  34.015  1.00  0.00    -0.354 N 
ATOM     54  N   UNL A   1      41.720  28.710  31.543  1.00  0.00    -0.248 NA
ATOM     55  C   UNL A   1      42.775  27.103  30.218  1.00  0.00     0.031 C 
ATOM     56  C   UNL A   1      42.820  29.661  35.715  1.00  0.00     0.029 A 
ATOM     57  C   UNL A   1      42.519  29.353  34.399  1.00  0.00     0.049 A 
ATOM     58  H   UNL A   1      41.065  30.207  33.126  1.00  0.00     0.167 HD
ATOM     59  C   UNL A   1      42.734  28.105  32.277  1.00  0.00     0.074 A 
ATOM     60  C   UNL A   1      43.332  27.103  31.422  1.00  0.00     0.031 C 
ATOM     61  C   UNL A   1      43.126  28.363  33.548  1.00  0.00     0.037 A 
BRANCH  48  62
ATOM     62  C   UNL A   1      39.955  32.908  36.241  1.00  0.00     0.057 A 
ATOM     63  C   UNL A   1      40.785  34.012  36.483  1.00  0.00     0.134 A 
ATOM     64  C   UNL A   1      39.027  32.568  37.232  1.00  0.00     0.134 A 
ATOM     65  F   UNL A   1      41.707  34.382  35.582  1.00  0.00    -0.206 F 
ATOM     66  C   UNL A   1      40.703  34.739  37.672  1.00  0.00     0.040 A 
ATOM     67  C   UNL A   1      38.921  33.300  38.416  1.00  0.00     0.040 A 
ATOM     68  F   UNL A   1      38.204  31.521  37.061  1.00  0.00    -0.206 F 
ATOM     69  C   UNL A   1      39.768  34.384  38.642  1.00  0.00     0.006 A 
ENDBRANCH  48  62
BRANCH  49  70
ATOM     70  C   UNL A   1      40.992  27.561  27.953  1.00  0.00     0.057 A 
ATOM     71  C   UNL A   1      40.357  26.322  27.817  1.00  0.00     0.134 A 
ATOM     72  C   UNL A   1      41.789  28.002  26.891  1.00  0.00     0.134 A 
ATOM     73  F   UNL A   1      39.581  25.847  28.802  1.00  0.00    -0.206 F 
ATOM     74  C   UNL A   1      40.523  25.540  26.673  1.00  0.00     0.040 A 
ATOM     75  C   UNL A   1      41.947  27.239  25.732  1.00  0.00     0.040 A 
ATOM     76  F   UNL A   1      42.404  29.192  26.955  1.00  0.00    -0.206 F 
ATOM     77  C   UNL A   1      41.319  26.000  25.626  1.00  0.00     0.006 A 
ENDBRANCH  49  70
BRANCH  61  78
ATOM     78  C   UNL A   1      44.261  27.550  34.104  1.00  0.00     0.057 A 
ATOM     79  C   UNL A   1      44.025  26.316  34.725  1.00  0.00     0.134 A 
ATOM     80  C   UNL A   1      45.582  28.014  34.072  1.00  0.00     0.134 A 
ATOM     81  F   UNL A   1      42.782  25.815  34.796  1.00  0.00    -0.206 F 
ATOM     82  C   UNL A   1      45.060  25.577  35.299  1.00  0.00     0.040 A 
ATOM     83  C   UNL A   1      46.629  27.274  34.625  1.00  0.00     0.040 A 
ATOM     84  F   UNL A   1      45.878  29.182  33.483  1.00  0.00    -0.206 F 
ATOM     85  C   UNL A   1      46.368  26.054  35.248  1.00  0.00     0.006 A 
ENDBRANCH  61  78
ENDBRANCH  35  36
ENDBRANCH  27  30
ENDBRANCH  25  26
ENDBRANCH  24  25
ENDBRANCH   1  24
TORSDOF 15
ENDMDL
