MODEL 1
REMARK VINA RESULT:     -12.6      0.000      0.000
REMARK SMILES O=C(NCCCNC(=O)c1sccc1S(=O)(=O)N1CCO[C@@H]2CCCC[C@@H]21)c1ccc(-c2c3nc(c(-c4c(F)cccc4F)c4ccc([nH]4)c(-c4c(F)cccc4F)c4nc(c(-c5c(F)cccc5F)c5ccc2[nH]5)C=C4)C=C3)cc1
REMARK SMILES IDX 5 1 4 2 3 3 1 4 2 5 28 7 29 8 81 9 30 10 80 11 31 12 32 13
REMARK SMILES IDX 33 14 74 15 34 16 79 17 73 18 75 19 35 20 78 21 72 22 71 23
REMARK SMILES IDX 36 25 62 26 45 27 61 28 46 29 49 30 60 31 76 32 47 33 48 34
REMARK SMILES IDX 59 36 77 37 50 38 37 39 38 40 43 41 39 42 40 43 42 44 44 45
REMARK SMILES IDX 41 46 63 47 64 48 69 49 65 50 66 51 68 52 70 53 67 54 51 55
REMARK SMILES IDX 52 56 57 57 53 58 54 59 56 60 58 61 55 62 6 63 7 64 8 65
REMARK SMILES IDX 9 67 10 68 11 69 14 70 12 71 13 72 15 73 16 74 17 75 18 76
REMARK SMILES IDX 19 77 27 78 20 79 22 80 26 81 21 82 23 83 25 84 24 85
REMARK H PARENT 3 6 75 24 49 35 7 66
REMARK Flexibility Score: inf
ROOT
ATOM      1  C   UNL A   1      31.644  31.691  26.525  1.00  0.00     0.042 C 
ENDROOT
BRANCH   1   2
ATOM      2  C   UNL A   1      32.751  32.479  27.213  1.00  0.00     0.118 C 
BRANCH   2   3
ATOM      3  N   UNL A   1      32.395  33.840  27.578  1.00  0.00    -0.352 N 
ATOM      4  O   UNL A   1      32.685  35.794  28.704  1.00  0.00    -0.269 OA
ATOM      5  C   UNL A   1      33.068  34.657  28.460  1.00  0.00     0.251 C 
ATOM      6  H   UNL A   1      31.590  34.216  27.152  1.00  0.00     0.163 HD
BRANCH   5   7
ATOM      7  C   UNL A   1      34.259  34.113  29.148  1.00  0.00     0.039 A 
ATOM      8  C   UNL A   1      35.544  34.453  28.713  1.00  0.00     0.014 A 
ATOM      9  C   UNL A   1      34.077  33.192  30.181  1.00  0.00     0.014 A 
ATOM     10  C   UNL A   1      36.650  33.799  29.256  1.00  0.00     0.010 A 
ATOM     11  C   UNL A   1      35.188  32.565  30.747  1.00  0.00     0.010 A 
ATOM     12  C   UNL A   1      36.480  32.840  30.270  1.00  0.00    -0.014 A 
BRANCH  12  13
ATOM     13  C   UNL A   1      37.657  32.150  30.857  1.00  0.00     0.031 A 
ATOM     14  C   UNL A   1      38.368  31.061  30.102  1.00  0.00     0.074 A 
ATOM     15  C   UNL A   1      38.064  32.485  32.095  1.00  0.00     0.049 A 
ATOM     16  N   UNL A   1      39.371  30.312  30.487  1.00  0.00    -0.248 NA
ATOM     17  C   UNL A   1      37.891  30.771  28.741  1.00  0.00     0.031 C 
ATOM     18  C   UNL A   1      37.448  33.514  32.934  1.00  0.00     0.029 A 
ATOM     19  N   UNL A   1      39.077  31.981  32.871  1.00  0.00    -0.354 N 
ATOM     20  C   UNL A   1      39.635  29.453  29.428  1.00  0.00     0.074 A 
ATOM     21  C   UNL A   1      38.679  29.763  28.386  1.00  0.00     0.031 C 
ATOM     22  C   UNL A   1      38.089  33.557  34.113  1.00  0.00     0.029 A 
ATOM     23  C   UNL A   1      39.131  32.535  34.126  1.00  0.00     0.049 A 
ATOM     24  H   UNL A   1      39.704  31.290  32.558  1.00  0.00     0.167 HD
ATOM     25  C   UNL A   1      40.592  28.497  29.335  1.00  0.00     0.037 A 
ATOM     26  C   UNL A   1      39.909  32.232  35.182  1.00  0.00     0.037 A 
ATOM     27  C   UNL A   1      41.559  28.206  30.361  1.00  0.00     0.049 A 
ATOM     28  C   UNL A   1      40.931  31.138  35.062  1.00  0.00     0.074 A 
ATOM     29  C   UNL A   1      42.625  27.323  30.313  1.00  0.00     0.029 A 
ATOM     30  N   UNL A   1      41.568  28.774  31.624  1.00  0.00    -0.354 N 
ATOM     31  N   UNL A   1      41.221  30.390  34.027  1.00  0.00    -0.248 NA
ATOM     32  C   UNL A   1      41.730  30.843  36.260  1.00  0.00     0.031 C 
ATOM     33  C   UNL A   1      43.250  27.320  31.564  1.00  0.00     0.029 A 
ATOM     34  C   UNL A   1      42.595  28.228  32.379  1.00  0.00     0.049 A 
ATOM     35  H   UNL A   1      40.938  29.462  31.940  1.00  0.00     0.167 HD
ATOM     36  C   UNL A   1      42.238  29.541  34.445  1.00  0.00     0.074 A 
ATOM     37  C   UNL A   1      42.531  29.882  35.821  1.00  0.00     0.031 C 
ATOM     38  C   UNL A   1      42.869  28.564  33.750  1.00  0.00     0.037 A 
BRANCH  25  39
ATOM     39  C   UNL A   1      40.650  27.677  28.082  1.00  0.00     0.057 A 
ATOM     40  C   UNL A   1      41.413  28.072  26.976  1.00  0.00     0.134 A 
ATOM     41  C   UNL A   1      40.021  26.427  28.022  1.00  0.00     0.134 A 
ATOM     42  F   UNL A   1      42.037  29.260  26.970  1.00  0.00    -0.206 F 
ATOM     43  C   UNL A   1      41.546  27.253  25.854  1.00  0.00     0.040 A 
ATOM     44  C   UNL A   1      40.159  25.592  26.912  1.00  0.00     0.040 A 
ATOM     45  F   UNL A   1      39.283  25.987  29.052  1.00  0.00    -0.206 F 
ATOM     46  C   UNL A   1      40.926  26.004  25.824  1.00  0.00     0.006 A 
ENDBRANCH  25  39
BRANCH  26  47
ATOM     47  C   UNL A   1      39.723  32.950  36.465  1.00  0.00     0.057 A 
ATOM     48  C   UNL A   1      38.761  32.540  37.395  1.00  0.00     0.134 A 
ATOM     49  C   UNL A   1      40.492  34.077  36.782  1.00  0.00     0.134 A 
ATOM     50  F   UNL A   1      37.979  31.482  37.133  1.00  0.00    -0.206 F 
ATOM     51  C   UNL A   1      38.559  33.234  38.588  1.00  0.00     0.040 A 
ATOM     52  C   UNL A   1      40.318  34.765  37.983  1.00  0.00     0.040 A 
ATOM     53  F   UNL A   1      41.430  34.518  35.932  1.00  0.00    -0.206 F 
ATOM     54  C   UNL A   1      39.343  34.348  38.887  1.00  0.00     0.006 A 
ENDBRANCH  26  47
BRANCH  38  55
ATOM     55  C   UNL A   1      43.935  27.794  34.469  1.00  0.00     0.057 A 
ATOM     56  C   UNL A   1      43.654  26.577  35.103  1.00  0.00     0.134 A 
ATOM     57  C   UNL A   1      45.257  28.253  34.499  1.00  0.00     0.134 A 
ATOM     58  F   UNL A   1      42.403  26.093  35.122  1.00  0.00    -0.206 F 
ATOM     59  C   UNL A   1      44.650  25.851  35.757  1.00  0.00     0.040 A 
ATOM     60  C   UNL A   1      46.266  27.526  35.132  1.00  0.00     0.040 A 
ATOM     61  F   UNL A   1      45.591  29.408  33.904  1.00  0.00    -0.206 F 
ATOM     62  C   UNL A   1      45.962  26.323  35.768  1.00  0.00     0.006 A 
ENDBRANCH  38  55
ENDBRANCH  12  13
ENDBRANCH   5   7
ENDBRANCH   2   3
ENDBRANCH   1   2
BRANCH   1  63
ATOM     63  C   UNL A   1      31.774  30.182  26.638  1.00  0.00     0.118 C 
BRANCH  63  64
ATOM     64  N   UNL A   1      32.954  29.659  25.972  1.00  0.00    -0.351 N 
ATOM     65  C   UNL A   1      32.999  28.694  24.997  1.00  0.00     0.262 C 
ATOM     66  H   UNL A   1      33.817  30.041  26.251  1.00  0.00     0.163 HD
ATOM     67  O   UNL A   1      34.094  28.229  24.688  1.00  0.00    -0.268 OA
BRANCH  65  68
ATOM     68  C   UNL A   1      31.752  28.209  24.471  1.00  0.00     0.112 A 
ATOM     69  S   UNL A   1      31.174  29.018  23.067  1.00  0.00    -0.137 S 
ATOM     70  C   UNL A   1      30.905  27.194  24.871  1.00  0.00     0.106 A 
ATOM     71  C   UNL A   1      29.877  27.927  22.895  1.00  0.00     0.067 A 
ATOM     72  C   UNL A   1      29.840  27.009  23.922  1.00  0.00     0.034 A 
BRANCH  70  73
ATOM     73  S   UNL A   1      31.072  26.173  26.283  1.00  0.00     0.245 S 
ATOM     74  O   UNL A   1      31.490  27.106  27.305  1.00  0.00    -0.207 OA
ATOM     75  O   UNL A   1      29.786  25.509  26.363  1.00  0.00    -0.207 OA
BRANCH  73  76
ATOM     76  N   UNL A   1      32.285  25.021  26.070  1.00  0.00    -0.190 NA
ATOM     77  C   UNL A   1      32.164  23.732  26.808  1.00  0.00     0.131 C 
ATOM     78  C   UNL A   1      32.978  24.894  24.742  1.00  0.00     0.102 C 
ATOM     79  C   UNL A   1      31.643  22.621  25.891  1.00  0.00     0.177 C 
ATOM     80  C   UNL A   1      32.503  23.651  23.950  1.00  0.00     0.136 C 
ATOM     81  C   UNL A   1      34.503  24.927  24.950  1.00  0.00     0.023 C 
ATOM     82  O   UNL A   1      32.495  22.459  24.753  1.00  0.00    -0.375 OA
ATOM     83  C   UNL A   1      33.434  23.405  22.759  1.00  0.00     0.034 C 
ATOM     84  C   UNL A   1      35.249  23.665  24.556  1.00  0.00     0.002 C 
ATOM     85  C   UNL A   1      34.895  23.176  23.158  1.00  0.00     0.003 C 
ENDBRANCH  73  76
ENDBRANCH  70  73
ENDBRANCH  65  68
ENDBRANCH  63  64
ENDBRANCH   1  63
TORSDOF 12
ENDMDL
MODEL 2
REMARK VINA RESULT:     -12.6      4.940      9.886
REMARK SMILES O=C(NCCCNC(=O)c1sccc1S(=O)(=O)N1CCO[C@@H]2CCCC[C@@H]21)c1ccc(-c2c3nc(c(-c4c(F)cccc4F)c4ccc([nH]4)c(-c4c(F)cccc4F)c4nc(c(-c5c(F)cccc5F)c5ccc2[nH]5)C=C4)C=C3)cc1
REMARK SMILES IDX 5 1 4 2 3 3 1 4 2 5 28 7 29 8 81 9 30 10 80 11 31 12 32 13
REMARK SMILES IDX 33 14 74 15 34 16 79 17 73 18 75 19 35 20 78 21 72 22 71 23
REMARK SMILES IDX 36 25 62 26 45 27 61 28 46 29 49 30 60 31 76 32 47 33 48 34
REMARK SMILES IDX 59 36 77 37 50 38 37 39 38 40 43 41 39 42 40 43 42 44 44 45
REMARK SMILES IDX 41 46 63 47 64 48 69 49 65 50 66 51 68 52 70 53 67 54 51 55
REMARK SMILES IDX 52 56 57 57 53 58 54 59 56 60 58 61 55 62 6 63 7 64 8 65
REMARK SMILES IDX 9 67 10 68 11 69 14 70 12 71 13 72 15 73 16 74 17 75 18 76
REMARK SMILES IDX 19 77 27 78 20 79 22 80 26 81 21 82 23 83 25 84 24 85
REMARK H PARENT 3 6 75 24 49 35 7 66
REMARK Flexibility Score: inf
ROOT
ATOM      1  C   UNL A   1      37.813  19.940  24.997  1.00  0.00     0.042 C 
ENDROOT
BRANCH   1   2
ATOM      2  C   UNL A   1      39.117  20.181  25.747  1.00  0.00     0.118 C 
BRANCH   2   3
ATOM      3  N   UNL A   1      40.063  19.079  25.693  1.00  0.00    -0.352 N 
ATOM      4  O   UNL A   1      42.115  18.136  25.960  1.00  0.00    -0.269 OA
ATOM      5  C   UNL A   1      41.395  19.123  26.045  1.00  0.00     0.251 C 
ATOM      6  H   UNL A   1      39.718  18.214  25.372  1.00  0.00     0.163 HD
BRANCH   5   7
ATOM      7  C   UNL A   1      41.958  20.415  26.494  1.00  0.00     0.039 A 
ATOM      8  C   UNL A   1      41.964  20.750  27.852  1.00  0.00     0.014 A 
ATOM      9  C   UNL A   1      42.405  21.324  25.534  1.00  0.00     0.014 A 
ATOM     10  C   UNL A   1      42.335  22.036  28.242  1.00  0.00     0.010 A 
ATOM     11  C   UNL A   1      42.810  22.600  25.932  1.00  0.00     0.010 A 
ATOM     12  C   UNL A   1      42.750  22.976  27.284  1.00  0.00    -0.014 A 
BRANCH  12  13
ATOM     13  C   UNL A   1      43.156  24.343  27.698  1.00  0.00     0.031 A 
ATOM     14  C   UNL A   1      42.125  25.385  28.036  1.00  0.00     0.074 A 
ATOM     15  C   UNL A   1      44.464  24.657  27.734  1.00  0.00     0.049 A 
ATOM     16  N   UNL A   1      42.299  26.643  28.355  1.00  0.00    -0.248 NA
ATOM     17  C   UNL A   1      40.715  24.963  28.009  1.00  0.00     0.031 C 
ATOM     18  C   UNL A   1      45.559  23.740  27.414  1.00  0.00     0.029 A 
ATOM     19  N   UNL A   1      45.093  25.838  28.035  1.00  0.00    -0.354 N 
ATOM     20  C   UNL A   1      41.028  27.167  28.550  1.00  0.00     0.074 A 
ATOM     21  C   UNL A   1      40.087  26.095  28.301  1.00  0.00     0.031 C 
ATOM     22  C   UNL A   1      46.725  24.396  27.524  1.00  0.00     0.029 A 
ATOM     23  C   UNL A   1      46.456  25.786  27.883  1.00  0.00     0.049 A 
ATOM     24  H   UNL A   1      44.613  26.645  28.331  1.00  0.00     0.167 HD
ATOM     25  C   UNL A   1      40.681  28.427  28.909  1.00  0.00     0.037 A 
ATOM     26  C   UNL A   1      47.385  26.754  27.986  1.00  0.00     0.037 A 
ATOM     27  C   UNL A   1      41.617  29.487  29.182  1.00  0.00     0.049 A 
ATOM     28  C   UNL A   1      46.966  28.152  28.343  1.00  0.00     0.074 A 
ATOM     29  C   UNL A   1      41.357  30.766  29.647  1.00  0.00     0.029 A 
ATOM     30  N   UNL A   1      42.986  29.400  28.997  1.00  0.00    -0.354 N 
ATOM     31  N   UNL A   1      45.767  28.612  28.602  1.00  0.00    -0.248 NA
ATOM     32  C   UNL A   1      48.027  29.165  28.416  1.00  0.00     0.031 C 
ATOM     33  C   UNL A   1      42.565  31.468  29.696  1.00  0.00     0.029 A 
ATOM     34  C   UNL A   1      43.581  30.615  29.297  1.00  0.00     0.049 A 
ATOM     35  H   UNL A   1      43.467  28.595  28.696  1.00  0.00     0.167 HD
ATOM     36  C   UNL A   1      45.930  29.964  28.874  1.00  0.00     0.074 A 
ATOM     37  C   UNL A   1      47.346  30.245  28.772  1.00  0.00     0.031 C 
ATOM     38  C   UNL A   1      44.988  30.889  29.179  1.00  0.00     0.037 A 
BRANCH  25  39
ATOM     39  C   UNL A   1      39.222  28.751  29.028  1.00  0.00     0.057 A 
ATOM     40  C   UNL A   1      38.524  28.587  30.230  1.00  0.00     0.134 A 
ATOM     41  C   UNL A   1      38.536  29.333  27.954  1.00  0.00     0.134 A 
ATOM     42  F   UNL A   1      39.125  28.030  31.294  1.00  0.00    -0.206 F 
ATOM     43  C   UNL A   1      37.194  28.988  30.361  1.00  0.00     0.040 A 
ATOM     44  C   UNL A   1      37.210  29.753  28.077  1.00  0.00     0.040 A 
ATOM     45  F   UNL A   1      39.150  29.526  26.778  1.00  0.00    -0.206 F 
ATOM     46  C   UNL A   1      36.536  29.583  29.284  1.00  0.00     0.006 A 
ENDBRANCH  25  39
BRANCH  26  47
ATOM     47  C   UNL A   1      48.808  26.445  27.707  1.00  0.00     0.057 A 
ATOM     48  C   UNL A   1      49.333  26.548  26.414  1.00  0.00     0.134 A 
ATOM     49  C   UNL A   1      49.670  26.020  28.725  1.00  0.00     0.134 A 
ATOM     50  F   UNL A   1      48.548  26.926  25.395  1.00  0.00    -0.206 F 
ATOM     51  C   UNL A   1      50.663  26.224  26.141  1.00  0.00     0.040 A 
ATOM     52  C   UNL A   1      51.008  25.718  28.471  1.00  0.00     0.040 A 
ATOM     53  F   UNL A   1      49.224  25.903  29.985  1.00  0.00    -0.206 F 
ATOM     54  C   UNL A   1      51.505  25.812  27.173  1.00  0.00     0.006 A 
ENDBRANCH  26  47
BRANCH  38  55
ATOM     55  C   UNL A   1      45.460  32.291  29.418  1.00  0.00     0.057 A 
ATOM     56  C   UNL A   1      45.492  33.237  28.386  1.00  0.00     0.134 A 
ATOM     57  C   UNL A   1      45.853  32.709  30.695  1.00  0.00     0.134 A 
ATOM     58  F   UNL A   1      45.143  32.892  27.137  1.00  0.00    -0.206 F 
ATOM     59  C   UNL A   1      45.915  34.547  28.613  1.00  0.00     0.040 A 
ATOM     60  C   UNL A   1      46.258  34.022  30.939  1.00  0.00     0.040 A 
ATOM     61  F   UNL A   1      45.838  31.852  31.727  1.00  0.00    -0.206 F 
ATOM     62  C   UNL A   1      46.294  34.944  29.894  1.00  0.00     0.006 A 
ENDBRANCH  38  55
ENDBRANCH  12  13
ENDBRANCH   5   7
ENDBRANCH   2   3
ENDBRANCH   1   2
BRANCH   1  63
ATOM     63  C   UNL A   1      37.102  21.202  24.539  1.00  0.00     0.118 C 
BRANCH  63  64
ATOM     64  N   UNL A   1      36.669  22.045  25.639  1.00  0.00    -0.351 N 
ATOM     65  C   UNL A   1      35.388  22.454  25.919  1.00  0.00     0.262 C 
ATOM     66  H   UNL A   1      37.373  22.357  26.253  1.00  0.00     0.163 HD
ATOM     67  O   UNL A   1      35.229  23.327  26.770  1.00  0.00    -0.268 OA
BRANCH  65  68
ATOM     68  C   UNL A   1      34.320  21.912  25.126  1.00  0.00     0.112 A 
ATOM     69  S   UNL A   1      33.558  20.508  25.764  1.00  0.00    -0.137 S 
ATOM     70  C   UNL A   1      33.761  22.306  23.924  1.00  0.00     0.106 A 
ATOM     71  C   UNL A   1      32.385  20.505  24.529  1.00  0.00     0.067 A 
ATOM     72  C   UNL A   1      32.608  21.506  23.609  1.00  0.00     0.034 A 
BRANCH  70  73
ATOM     73  S   UNL A   1      34.277  23.629  22.902  1.00  0.00     0.245 S 
ATOM     74  O   UNL A   1      35.718  23.555  22.985  1.00  0.00    -0.207 OA
ATOM     75  O   UNL A   1      33.589  23.369  21.654  1.00  0.00    -0.207 OA
BRANCH  73  76
ATOM     76  N   UNL A   1      33.773  25.116  23.520  1.00  0.00    -0.190 NA
ATOM     77  C   UNL A   1      33.453  26.204  22.553  1.00  0.00     0.131 C 
ATOM     78  C   UNL A   1      32.957  25.169  24.781  1.00  0.00     0.102 C 
ATOM     79  C   UNL A   1      31.940  26.339  22.359  1.00  0.00     0.177 C 
ATOM     80  C   UNL A   1      31.464  25.470  24.501  1.00  0.00     0.136 C 
ATOM     81  C   UNL A   1      33.595  26.165  25.766  1.00  0.00     0.023 C 
ATOM     82  O   UNL A   1      31.286  26.583  23.608  1.00  0.00    -0.375 OA
ATOM     83  C   UNL A   1      30.744  25.803  25.811  1.00  0.00     0.034 C 
ATOM     84  C   UNL A   1      32.749  27.376  26.119  1.00  0.00     0.002 C 
ATOM     85  C   UNL A   1      31.334  27.010  26.546  1.00  0.00     0.003 C 
ENDBRANCH  73  76
ENDBRANCH  70  73
ENDBRANCH  65  68
ENDBRANCH  63  64
ENDBRANCH   1  63
TORSDOF 12
ENDMDL
MODEL 3
REMARK VINA RESULT:     -12.5      3.856      7.581
REMARK SMILES O=C(NCCCNC(=O)c1sccc1S(=O)(=O)N1CCO[C@@H]2CCCC[C@@H]21)c1ccc(-c2c3nc(c(-c4c(F)cccc4F)c4ccc([nH]4)c(-c4c(F)cccc4F)c4nc(c(-c5c(F)cccc5F)c5ccc2[nH]5)C=C4)C=C3)cc1
REMARK SMILES IDX 5 1 4 2 3 3 1 4 2 5 28 7 29 8 81 9 30 10 80 11 31 12 32 13
REMARK SMILES IDX 33 14 74 15 34 16 79 17 73 18 75 19 35 20 78 21 72 22 71 23
REMARK SMILES IDX 36 25 62 26 45 27 61 28 46 29 49 30 60 31 76 32 47 33 48 34
REMARK SMILES IDX 59 36 77 37 50 38 37 39 38 40 43 41 39 42 40 43 42 44 44 45
REMARK SMILES IDX 41 46 63 47 64 48 69 49 65 50 66 51 68 52 70 53 67 54 51 55
REMARK SMILES IDX 52 56 57 57 53 58 54 59 56 60 58 61 55 62 6 63 7 64 8 65
REMARK SMILES IDX 9 67 10 68 11 69 14 70 12 71 13 72 15 73 16 74 17 75 18 76
REMARK SMILES IDX 19 77 27 78 20 79 22 80 26 81 21 82 23 83 25 84 24 85
REMARK H PARENT 3 6 75 24 49 35 7 66
REMARK Flexibility Score: inf
ROOT
ATOM      1  C   UNL A   1      33.614  28.485  25.535  1.00  0.00     0.042 C 
ENDROOT
BRANCH   1   2
ATOM      2  C   UNL A   1      33.948  28.590  27.018  1.00  0.00     0.118 C 
BRANCH   2   3
ATOM      3  N   UNL A   1      33.754  29.910  27.594  1.00  0.00    -0.352 N 
ATOM      4  O   UNL A   1      34.431  31.764  28.722  1.00  0.00    -0.269 OA
ATOM      5  C   UNL A   1      34.695  30.658  28.269  1.00  0.00     0.251 C 
ATOM      6  H   UNL A   1      32.860  30.311  27.491  1.00  0.00     0.163 HD
BRANCH   5   7
ATOM      7  C   UNL A   1      36.037  30.072  28.475  1.00  0.00     0.039 A 
ATOM      8  C   UNL A   1      36.385  29.517  29.711  1.00  0.00     0.014 A 
ATOM      9  C   UNL A   1      36.974  30.159  27.444  1.00  0.00     0.014 A 
ATOM     10  C   UNL A   1      37.703  29.130  29.945  1.00  0.00     0.010 A 
ATOM     11  C   UNL A   1      38.286  29.738  27.670  1.00  0.00     0.010 A 
ATOM     12  C   UNL A   1      38.669  29.248  28.930  1.00  0.00    -0.014 A 
BRANCH  12  13
ATOM     13  C   UNL A   1      40.071  28.826  29.173  1.00  0.00     0.031 A 
ATOM     14  C   UNL A   1      41.070  29.777  29.775  1.00  0.00     0.074 A 
ATOM     15  C   UNL A   1      40.456  27.587  28.815  1.00  0.00     0.049 A 
ATOM     16  N   UNL A   1      42.347  29.597  29.999  1.00  0.00    -0.248 NA
ATOM     17  C   UNL A   1      40.572  31.103  30.173  1.00  0.00     0.031 C 
ATOM     18  C   UNL A   1      39.586  26.578  28.210  1.00  0.00     0.029 A 
ATOM     19  N   UNL A   1      41.681  26.974  28.890  1.00  0.00    -0.354 N 
ATOM     20  C   UNL A   1      42.811  30.786  30.546  1.00  0.00     0.074 A 
ATOM     21  C   UNL A   1      41.680  31.689  30.611  1.00  0.00     0.031 C 
ATOM     22  C   UNL A   1      40.308  25.475  27.956  1.00  0.00     0.029 A 
ATOM     23  C   UNL A   1      41.695  25.714  28.345  1.00  0.00     0.049 A 
ATOM     24  H   UNL A   1      42.472  27.396  29.295  1.00  0.00     0.167 HD
ATOM     25  C   UNL A   1      44.064  31.092  30.961  1.00  0.00     0.037 A 
ATOM     26  C   UNL A   1      42.715  24.858  28.147  1.00  0.00     0.037 A 
ATOM     27  C   UNL A   1      45.183  30.187  30.921  1.00  0.00     0.049 A 
ATOM     28  C   UNL A   1      44.102  25.243  28.578  1.00  0.00     0.074 A 
ATOM     29  C   UNL A   1      46.464  30.379  31.411  1.00  0.00     0.029 A 
ATOM     30  N   UNL A   1      45.161  28.928  30.343  1.00  0.00    -0.354 N 
ATOM     31  N   UNL A   1      44.507  26.340  29.167  1.00  0.00    -0.248 NA
ATOM     32  C   UNL A   1      45.172  24.273  28.311  1.00  0.00     0.031 C 
ATOM     33  C   UNL A   1      47.232  29.257  31.086  1.00  0.00     0.029 A 
ATOM     34  C   UNL A   1      46.418  28.350  30.426  1.00  0.00     0.049 A 
ATOM     35  H   UNL A   1      44.371  28.506  29.934  1.00  0.00     0.167 HD
ATOM     36  C   UNL A   1      45.876  26.190  29.347  1.00  0.00     0.074 A 
ATOM     37  C   UNL A   1      46.228  24.887  28.826  1.00  0.00     0.031 C 
ATOM     38  C   UNL A   1      46.761  27.059  29.892  1.00  0.00     0.037 A 
BRANCH  25  39
ATOM     39  C   UNL A   1      44.314  32.470  31.495  1.00  0.00     0.057 A 
ATOM     40  C   UNL A   1      44.686  33.530  30.660  1.00  0.00     0.134 A 
ATOM     41  C   UNL A   1      44.075  32.762  32.845  1.00  0.00     0.134 A 
ATOM     42  F   UNL A   1      44.934  33.314  29.358  1.00  0.00    -0.206 F 
ATOM     43  C   UNL A   1      44.815  34.831  31.147  1.00  0.00     0.040 A 
ATOM     44  C   UNL A   1      44.184  34.062  33.341  1.00  0.00     0.040 A 
ATOM     45  F   UNL A   1      43.707  31.793  33.695  1.00  0.00    -0.206 F 
ATOM     46  C   UNL A   1      44.554  35.102  32.490  1.00  0.00     0.006 A 
ENDBRANCH  25  39
BRANCH  26  47
ATOM     47  C   UNL A   1      42.470  23.563  27.469  1.00  0.00     0.057 A 
ATOM     48  C   UNL A   1      42.166  22.407  28.196  1.00  0.00     0.134 A 
ATOM     49  C   UNL A   1      42.554  23.449  26.075  1.00  0.00     0.134 A 
ATOM     50  F   UNL A   1      42.097  22.452  29.535  1.00  0.00    -0.206 F 
ATOM     51  C   UNL A   1      41.968  21.179  27.563  1.00  0.00     0.040 A 
ATOM     52  C   UNL A   1      42.334  22.233  25.428  1.00  0.00     0.040 A 
ATOM     53  F   UNL A   1      42.841  24.521  25.324  1.00  0.00    -0.206 F 
ATOM     54  C   UNL A   1      42.048  21.092  26.175  1.00  0.00     0.006 A 
ENDBRANCH  26  47
BRANCH  38  55
ATOM     55  C   UNL A   1      48.195  26.627  29.949  1.00  0.00     0.057 A 
ATOM     56  C   UNL A   1      49.105  26.984  28.945  1.00  0.00     0.134 A 
ATOM     57  C   UNL A   1      48.679  25.879  31.029  1.00  0.00     0.134 A 
ATOM     58  F   UNL A   1      48.698  27.687  27.878  1.00  0.00    -0.206 F 
ATOM     59  C   UNL A   1      50.444  26.597  29.007  1.00  0.00     0.040 A 
ATOM     60  C   UNL A   1      50.021  25.504  31.112  1.00  0.00     0.040 A 
ATOM     61  F   UNL A   1      47.859  25.512  32.025  1.00  0.00    -0.206 F 
ATOM     62  C   UNL A   1      50.907  25.859  30.095  1.00  0.00     0.006 A 
ENDBRANCH  38  55
ENDBRANCH  12  13
ENDBRANCH   5   7
ENDBRANCH   2   3
ENDBRANCH   1   2
BRANCH   1  63
ATOM     63  C   UNL A   1      33.875  27.120  24.921  1.00  0.00     0.118 C 
BRANCH  63  64
ATOM     64  N   UNL A   1      34.028  27.162  23.478  1.00  0.00    -0.351 N 
ATOM     65  C   UNL A   1      33.295  26.472  22.544  1.00  0.00     0.262 C 
ATOM     66  H   UNL A   1      34.734  27.754  23.131  1.00  0.00     0.163 HD
ATOM     67  O   UNL A   1      33.690  26.472  21.379  1.00  0.00    -0.268 OA
BRANCH  65  68
ATOM     68  C   UNL A   1      32.172  25.704  23.003  1.00  0.00     0.112 A 
ATOM     69  S   UNL A   1      30.753  26.606  23.367  1.00  0.00    -0.137 S 
ATOM     70  C   UNL A   1      31.993  24.349  23.211  1.00  0.00     0.106 A 
ATOM     71  C   UNL A   1      29.849  25.191  23.655  1.00  0.00     0.067 A 
ATOM     72  C   UNL A   1      30.625  24.058  23.547  1.00  0.00     0.034 A 
BRANCH  70  73
ATOM     73  S   UNL A   1      33.191  23.086  23.037  1.00  0.00     0.245 S 
ATOM     74  O   UNL A   1      32.417  21.881  23.234  1.00  0.00    -0.207 OA
ATOM     75  O   UNL A   1      33.797  23.380  21.754  1.00  0.00    -0.207 OA
BRANCH  73  76
ATOM     76  N   UNL A   1      34.364  23.180  24.246  1.00  0.00    -0.190 NA
ATOM     77  C   UNL A   1      33.905  23.256  25.662  1.00  0.00     0.131 C 
ATOM     78  C   UNL A   1      35.680  22.474  24.075  1.00  0.00     0.102 C 
ATOM     79  C   UNL A   1      34.022  21.894  26.352  1.00  0.00     0.177 C 
ATOM     80  C   UNL A   1      35.772  21.189  24.934  1.00  0.00     0.136 C 
ATOM     81  C   UNL A   1      36.832  23.459  24.343  1.00  0.00     0.023 C 
ATOM     82  O   UNL A   1      35.367  21.409  26.296  1.00  0.00    -0.375 OA
ATOM     83  C   UNL A   1      37.215  20.677  24.953  1.00  0.00     0.034 C 
ATOM     84  C   UNL A   1      37.721  23.127  25.529  1.00  0.00     0.002 C 
ATOM     85  C   UNL A   1      38.219  21.688  25.515  1.00  0.00     0.003 C 
ENDBRANCH  73  76
ENDBRANCH  70  73
ENDBRANCH  65  68
ENDBRANCH  63  64
ENDBRANCH   1  63
TORSDOF 12
ENDMDL
