MODEL 1
REMARK VINA RESULT:     -11.0      0.000      0.000
REMARK SMILES CC(C)(C)[N@H+](CCC(=O)NCCCNC(=O)c1ccc(-c2c3nc(c(-c4c(F)cccc4F)c4ccc([nH]4)c(-c4c(F)cccc4F)c4nc(c(-c5c(F)cccc5F)c5ccc2[nH]5)C=C4)C=C3)cc1)Cc1ccccc1C1CC1
REMARK SMILES IDX 8 1 9 2 10 3 7 5 6 6 5 7 2 9 1 10 3 11 4 12 71 13 72 14
REMARK SMILES IDX 73 15 77 16 74 17 76 18 75 19 78 20 79 21 80 22 11 23 12 24
REMARK SMILES IDX 13 25 14 26 15 27 16 29 17 30 18 31 70 32 19 33 69 34 20 35
REMARK SMILES IDX 21 36 22 37 63 38 23 39 68 40 62 41 64 42 24 43 67 44 61 45
REMARK SMILES IDX 60 46 25 48 51 49 34 50 50 51 35 52 38 53 49 54 65 55 36 56
REMARK SMILES IDX 37 57 48 59 66 60 39 61 26 62 27 63 32 64 28 65 29 66 31 67
REMARK SMILES IDX 33 68 30 69 52 70 53 71 58 72 54 73 55 74 57 75 59 76 56 77
REMARK SMILES IDX 40 78 41 79 46 80 42 81 43 82 45 83 47 84 44 85
REMARK H PARENT 10 4 5 8 14 28 64 47 38 58
REMARK Flexibility Score: inf
ROOT
ATOM      1  C   UNL A   1      34.849  21.296  25.275  1.00  0.00     0.225 C 
ATOM      2  O   UNL A   1      34.230  21.469  24.225  1.00  0.00    -0.275 OA
ATOM      3  N   UNL A   1      35.822  20.325  25.342  1.00  0.00    -0.356 N 
ATOM      4  H   UNL A   1      35.611  19.446  25.731  1.00  0.00     0.163 HD
ENDROOT
BRANCH   1   5
ATOM      5  C   UNL A   1      34.402  21.957  26.562  1.00  0.00     0.161 C 
BRANCH   5   6
ATOM      6  C   UNL A   1      32.972  22.482  26.619  1.00  0.00     0.272 C 
BRANCH   6   7
ATOM      7  N   UNL A   1      32.613  23.710  25.877  1.00  0.00    -0.327 N 
ATOM      8  H   UNL A   1      33.000  23.610  24.938  1.00  0.00     0.348 HD
BRANCH   7   9
ATOM      9  C   UNL A   1      31.124  23.828  25.667  1.00  0.00     0.089 C 
ATOM     10  C   UNL A   1      30.303  22.742  26.428  1.00  0.00     0.078 C 
ATOM     11  C   UNL A   1      30.793  23.608  24.175  1.00  0.00     0.078 C 
ATOM     12  C   UNL A   1      30.548  25.186  26.116  1.00  0.00     0.078 C 
ENDBRANCH   7   9
BRANCH   7  13
ATOM     13  C   UNL A   1      33.305  24.948  26.363  1.00  0.00     0.299 C 
BRANCH  13  14
ATOM     14  C   UNL A   1      33.605  26.022  25.306  1.00  0.00     0.010 A 
ATOM     15  C   UNL A   1      33.682  25.513  23.979  1.00  0.00     0.010 A 
ATOM     16  C   UNL A   1      33.596  27.442  25.492  1.00  0.00    -0.036 A 
ATOM     17  C   UNL A   1      33.693  26.331  22.854  1.00  0.00     0.001 A 
ATOM     18  C   UNL A   1      33.577  28.224  24.299  1.00  0.00     0.004 A 
ATOM     19  C   UNL A   1      33.622  27.697  23.014  1.00  0.00     0.000 A 
BRANCH  16  20
ATOM     20  C   UNL A   1      33.434  28.297  26.770  1.00  0.00     0.020 C 
ATOM     21  C   UNL A   1      32.705  29.598  27.031  1.00  0.00     0.009 C 
ATOM     22  C   UNL A   1      31.963  28.354  27.276  1.00  0.00     0.009 C 
ENDBRANCH  16  20
ENDBRANCH  13  14
ENDBRANCH   7  13
ENDBRANCH   6   7
ENDBRANCH   5   6
ENDBRANCH   1   5
BRANCH   3  23
ATOM     23  C   UNL A   1      37.163  20.591  24.838  1.00  0.00     0.117 C 
BRANCH  23  24
ATOM     24  C   UNL A   1      37.768  21.877  25.378  1.00  0.00     0.042 C 
BRANCH  24  25
ATOM     25  C   UNL A   1      39.091  21.627  26.090  1.00  0.00     0.118 C 
BRANCH  25  26
ATOM     26  N   UNL A   1      39.660  20.284  25.934  1.00  0.00    -0.352 N 
ATOM     27  C   UNL A   1      41.007  19.977  26.015  1.00  0.00     0.251 C 
ATOM     28  H   UNL A   1      39.036  19.544  25.758  1.00  0.00     0.163 HD
ATOM     29  O   UNL A   1      41.465  18.901  25.654  1.00  0.00    -0.269 OA
BRANCH  27  30
ATOM     30  C   UNL A   1      41.889  21.041  26.536  1.00  0.00     0.039 A 
ATOM     31  C   UNL A   1      42.371  22.020  25.665  1.00  0.00     0.014 A 
ATOM     32  C   UNL A   1      41.944  21.207  27.919  1.00  0.00     0.014 A 
ATOM     33  C   UNL A   1      42.796  23.240  26.193  1.00  0.00     0.010 A 
ATOM     34  C   UNL A   1      42.266  22.459  28.427  1.00  0.00     0.010 A 
ATOM     35  C   UNL A   1      42.670  23.498  27.570  1.00  0.00    -0.014 A 
BRANCH  35  36
ATOM     36  C   UNL A   1      42.909  24.857  28.126  1.00  0.00     0.031 A 
ATOM     37  C   UNL A   1      44.294  25.269  28.536  1.00  0.00     0.074 A 
ATOM     38  C   UNL A   1      41.869  25.690  28.345  1.00  0.00     0.049 A 
ATOM     39  N   UNL A   1      44.698  26.395  29.068  1.00  0.00    -0.248 NA
ATOM     40  C   UNL A   1      45.361  24.269  28.370  1.00  0.00     0.031 C 
ATOM     41  C   UNL A   1      40.460  25.383  28.087  1.00  0.00     0.029 A 
ATOM     42  N   UNL A   1      41.839  26.972  28.839  1.00  0.00    -0.354 N 
ATOM     43  C   UNL A   1      46.055  26.228  29.313  1.00  0.00     0.074 A 
ATOM     44  C   UNL A   1      46.388  24.870  28.949  1.00  0.00     0.031 C 
ATOM     45  C   UNL A   1      39.711  26.461  28.376  1.00  0.00     0.029 A 
ATOM     46  C   UNL A   1      40.581  27.528  28.863  1.00  0.00     0.049 A 
ATOM     47  H   UNL A   1      42.643  27.449  29.145  1.00  0.00     0.167 HD
ATOM     48  C   UNL A   1      46.955  27.134  29.761  1.00  0.00     0.037 A 
ATOM     49  C   UNL A   1      40.178  28.763  29.219  1.00  0.00     0.037 A 
ATOM     50  C   UNL A   1      46.638  28.499  30.076  1.00  0.00     0.049 A 
ATOM     51  C   UNL A   1      41.203  29.768  29.670  1.00  0.00     0.074 A 
ATOM     52  C   UNL A   1      47.492  29.519  30.455  1.00  0.00     0.029 A 
ATOM     53  N   UNL A   1      45.360  29.036  30.044  1.00  0.00    -0.354 N 
ATOM     54  N   UNL A   1      42.501  29.628  29.795  1.00  0.00    -0.248 NA
ATOM     55  C   UNL A   1      40.708  31.109  30.018  1.00  0.00     0.031 C 
ATOM     56  C   UNL A   1      46.726  30.668  30.681  1.00  0.00     0.029 A 
ATOM     57  C   UNL A   1      45.400  30.371  30.407  1.00  0.00     0.049 A 
ATOM     58  H   UNL A   1      44.545  28.541  29.799  1.00  0.00     0.167 HD
ATOM     59  C   UNL A   1      42.980  30.866  30.201  1.00  0.00     0.074 A 
ATOM     60  C   UNL A   1      41.836  31.749  30.293  1.00  0.00     0.031 C 
ATOM     61  C   UNL A   1      44.254  31.239  30.475  1.00  0.00     0.037 A 
BRANCH  48  62
ATOM     62  C   UNL A   1      48.374  26.670  29.904  1.00  0.00     0.057 A 
ATOM     63  C   UNL A   1      49.308  26.832  28.870  1.00  0.00     0.134 A 
ATOM     64  C   UNL A   1      48.813  26.054  31.082  1.00  0.00     0.134 A 
ATOM     65  F   UNL A   1      48.945  27.401  27.711  1.00  0.00    -0.206 F 
ATOM     66  C   UNL A   1      50.617  26.363  28.988  1.00  0.00     0.040 A 
ATOM     67  C   UNL A   1      50.128  25.606  31.222  1.00  0.00     0.040 A 
ATOM     68  F   UNL A   1      47.972  25.872  32.111  1.00  0.00    -0.206 F 
ATOM     69  C   UNL A   1      51.030  25.752  30.169  1.00  0.00     0.006 A 
ENDBRANCH  48  62
BRANCH  49  70
ATOM     70  C   UNL A   1      38.749  29.151  29.104  1.00  0.00     0.057 A 
ATOM     71  C   UNL A   1      37.891  29.062  30.208  1.00  0.00     0.134 A 
ATOM     72  C   UNL A   1      38.199  29.591  27.895  1.00  0.00     0.134 A 
ATOM     73  F   UNL A   1      38.356  28.629  31.389  1.00  0.00    -0.206 F 
ATOM     74  C   UNL A   1      36.533  29.371  30.110  1.00  0.00     0.040 A 
ATOM     75  C   UNL A   1      36.846  29.925  27.787  1.00  0.00     0.040 A 
ATOM     76  F   UNL A   1      38.968  29.705  26.803  1.00  0.00    -0.206 F 
ATOM     77  C   UNL A   1      36.008  29.807  28.895  1.00  0.00     0.006 A 
ENDBRANCH  49  70
BRANCH  61  78
ATOM     78  C   UNL A   1      44.484  32.670  30.861  1.00  0.00     0.057 A 
ATOM     79  C   UNL A   1      44.668  33.673  29.904  1.00  0.00     0.134 A 
ATOM     80  C   UNL A   1      44.471  33.052  32.209  1.00  0.00     0.134 A 
ATOM     81  F   UNL A   1      44.703  33.367  28.598  1.00  0.00    -0.206 F 
ATOM     82  C   UNL A   1      44.849  35.007  30.272  1.00  0.00     0.040 A 
ATOM     83  C   UNL A   1      44.627  34.386  32.589  1.00  0.00     0.040 A 
ATOM     84  F   UNL A   1      44.291  32.139  33.176  1.00  0.00    -0.206 F 
ATOM     85  C   UNL A   1      44.821  35.367  31.619  1.00  0.00     0.006 A 
ENDBRANCH  61  78
ENDBRANCH  35  36
ENDBRANCH  27  30
ENDBRANCH  25  26
ENDBRANCH  24  25
ENDBRANCH  23  24
ENDBRANCH   3  23
TORSDOF 16
ENDMDL
MODEL 2
REMARK VINA RESULT:     -10.9      1.098      2.242
REMARK SMILES CC(C)(C)[N@H+](CCC(=O)NCCCNC(=O)c1ccc(-c2c3nc(c(-c4c(F)cccc4F)c4ccc([nH]4)c(-c4c(F)cccc4F)c4nc(c(-c5c(F)cccc5F)c5ccc2[nH]5)C=C4)C=C3)cc1)Cc1ccccc1C1CC1
REMARK SMILES IDX 8 1 9 2 10 3 7 5 6 6 5 7 2 9 1 10 3 11 4 12 71 13 72 14
REMARK SMILES IDX 73 15 77 16 74 17 76 18 75 19 78 20 79 21 80 22 11 23 12 24
REMARK SMILES IDX 13 25 14 26 15 27 16 29 17 30 18 31 70 32 19 33 69 34 20 35
REMARK SMILES IDX 21 36 22 37 63 38 23 39 68 40 62 41 64 42 24 43 67 44 61 45
REMARK SMILES IDX 60 46 25 48 51 49 34 50 50 51 35 52 38 53 49 54 65 55 36 56
REMARK SMILES IDX 37 57 48 59 66 60 39 61 26 62 27 63 32 64 28 65 29 66 31 67
REMARK SMILES IDX 33 68 30 69 52 70 53 71 58 72 54 73 55 74 57 75 59 76 56 77
REMARK SMILES IDX 40 78 41 79 46 80 42 81 43 82 45 83 47 84 44 85
REMARK H PARENT 10 4 5 8 14 28 64 47 38 58
REMARK Flexibility Score: inf
ROOT
ATOM      1  C   UNL A   1      34.167  22.069  26.802  1.00  0.00     0.225 C 
ATOM      2  O   UNL A   1      33.543  21.096  27.224  1.00  0.00    -0.275 OA
ATOM      3  N   UNL A   1      35.537  22.003  26.683  1.00  0.00    -0.356 N 
ATOM      4  H   UNL A   1      36.109  22.384  27.387  1.00  0.00     0.163 HD
ENDROOT
BRANCH   1   5
ATOM      5  C   UNL A   1      33.495  23.416  26.640  1.00  0.00     0.161 C 
BRANCH   5   6
ATOM      6  C   UNL A   1      34.165  24.426  25.717  1.00  0.00     0.272 C 
BRANCH   6   7
ATOM      7  N   UNL A   1      33.338  25.257  24.815  1.00  0.00    -0.327 N 
ATOM      8  H   UNL A   1      33.811  26.157  24.729  1.00  0.00     0.348 HD
BRANCH   7   9
ATOM      9  C   UNL A   1      33.305  24.707  23.411  1.00  0.00     0.089 C 
ATOM     10  C   UNL A   1      34.395  23.622  23.146  1.00  0.00     0.078 C 
ATOM     11  C   UNL A   1      33.612  25.837  22.405  1.00  0.00     0.078 C 
ATOM     12  C   UNL A   1      31.958  24.053  23.040  1.00  0.00     0.078 C 
ENDBRANCH   7   9
BRANCH   7  13
ATOM     13  C   UNL A   1      32.014  25.660  25.391  1.00  0.00     0.299 C 
BRANCH  13  14
ATOM     14  C   UNL A   1      31.858  27.139  25.773  1.00  0.00     0.010 A 
ATOM     15  C   UNL A   1      32.328  27.445  27.080  1.00  0.00     0.010 A 
ATOM     16  C   UNL A   1      31.507  28.223  24.904  1.00  0.00    -0.036 A 
ATOM     17  C   UNL A   1      32.514  28.749  27.533  1.00  0.00     0.001 A 
ATOM     18  C   UNL A   1      31.750  29.532  25.415  1.00  0.00     0.004 A 
ATOM     19  C   UNL A   1      32.240  29.800  26.687  1.00  0.00     0.000 A 
BRANCH  16  20
ATOM     20  C   UNL A   1      31.059  28.232  23.424  1.00  0.00     0.020 C 
ATOM     21  C   UNL A   1      30.211  27.273  22.617  1.00  0.00     0.009 C 
ATOM     22  C   UNL A   1      29.521  28.399  23.259  1.00  0.00     0.009 C 
ENDBRANCH  16  20
ENDBRANCH  13  14
ENDBRANCH   7  13
ENDBRANCH   6   7
ENDBRANCH   5   6
ENDBRANCH   1   5
BRANCH   3  23
ATOM     23  C   UNL A   1      36.144  21.371  25.519  1.00  0.00     0.117 C 
BRANCH  23  24
ATOM     24  C   UNL A   1      37.339  22.133  24.971  1.00  0.00     0.042 C 
BRANCH  24  25
ATOM     25  C   UNL A   1      38.615  21.823  25.743  1.00  0.00     0.118 C 
BRANCH  25  26
ATOM     26  N   UNL A   1      39.068  20.428  25.700  1.00  0.00    -0.352 N 
ATOM     27  C   UNL A   1      40.360  20.003  25.955  1.00  0.00     0.251 C 
ATOM     28  H   UNL A   1      38.401  19.741  25.471  1.00  0.00     0.163 HD
ATOM     29  O   UNL A   1      40.752  18.876  25.686  1.00  0.00    -0.269 OA
BRANCH  27  30
ATOM     30  C   UNL A   1      41.271  21.004  26.545  1.00  0.00     0.039 A 
ATOM     31  C   UNL A   1      41.916  21.921  25.713  1.00  0.00     0.014 A 
ATOM     32  C   UNL A   1      41.203  21.196  27.925  1.00  0.00     0.014 A 
ATOM     33  C   UNL A   1      42.387  23.114  26.263  1.00  0.00     0.010 A 
ATOM     34  C   UNL A   1      41.577  22.429  28.444  1.00  0.00     0.010 A 
ATOM     35  C   UNL A   1      42.147  23.412  27.617  1.00  0.00    -0.014 A 
BRANCH  35  36
ATOM     36  C   UNL A   1      42.442  24.759  28.175  1.00  0.00     0.031 A 
ATOM     37  C   UNL A   1      43.841  25.108  28.599  1.00  0.00     0.074 A 
ATOM     38  C   UNL A   1      41.439  25.639  28.381  1.00  0.00     0.049 A 
ATOM     39  N   UNL A   1      44.290  26.216  29.134  1.00  0.00    -0.248 NA
ATOM     40  C   UNL A   1      44.863  24.060  28.445  1.00  0.00     0.031 C 
ATOM     41  C   UNL A   1      40.021  25.397  28.109  1.00  0.00     0.029 A 
ATOM     42  N   UNL A   1      41.463  26.922  28.874  1.00  0.00    -0.354 N 
ATOM     43  C   UNL A   1      45.634  25.987  29.395  1.00  0.00     0.074 A 
ATOM     44  C   UNL A   1      45.909  24.614  29.035  1.00  0.00     0.031 C 
ATOM     45  C   UNL A   1      39.319  26.509  28.388  1.00  0.00     0.029 A 
ATOM     46  C   UNL A   1      40.231  27.535  28.884  1.00  0.00     0.049 A 
ATOM     47  H   UNL A   1      42.285  27.362  29.189  1.00  0.00     0.167 HD
ATOM     48  C   UNL A   1      46.570  26.851  29.852  1.00  0.00     0.037 A 
ATOM     49  C   UNL A   1      39.881  28.787  29.234  1.00  0.00     0.037 A 
ATOM     50  C   UNL A   1      46.312  28.229  30.162  1.00  0.00     0.049 A 
ATOM     51  C   UNL A   1      40.946  29.745  29.696  1.00  0.00     0.074 A 
ATOM     52  C   UNL A   1      47.209  29.210  30.549  1.00  0.00     0.029 A 
ATOM     53  N   UNL A   1      45.061  28.824  30.116  1.00  0.00    -0.354 N 
ATOM     54  N   UNL A   1      42.235  29.546  29.835  1.00  0.00    -0.248 NA
ATOM     55  C   UNL A   1      40.510  31.108  30.037  1.00  0.00     0.031 C 
ATOM     56  C   UNL A   1      46.493  30.393  30.766  1.00  0.00     0.029 A 
ATOM     57  C   UNL A   1      45.158  30.157  30.478  1.00  0.00     0.049 A 
ATOM     58  H   UNL A   1      44.227  28.367  29.862  1.00  0.00     0.167 HD
ATOM     59  C   UNL A   1      42.766  30.762  30.246  1.00  0.00     0.074 A 
ATOM     60  C   UNL A   1      41.662  31.696  30.324  1.00  0.00     0.031 C 
ATOM     61  C   UNL A   1      44.052  31.076  30.533  1.00  0.00     0.037 A 
BRANCH  48  62
ATOM     62  C   UNL A   1      47.965  26.323  30.010  1.00  0.00     0.057 A 
ATOM     63  C   UNL A   1      48.420  25.803  31.231  1.00  0.00     0.134 A 
ATOM     64  C   UNL A   1      48.864  26.337  28.938  1.00  0.00     0.134 A 
ATOM     65  F   UNL A   1      47.611  25.777  32.301  1.00  0.00    -0.206 F 
ATOM     66  C   UNL A   1      49.730  25.351  31.389  1.00  0.00     0.040 A 
ATOM     67  C   UNL A   1      50.169  25.861  29.076  1.00  0.00     0.040 A 
ATOM     68  F   UNL A   1      48.492  26.817  27.742  1.00  0.00    -0.206 F 
ATOM     69  C   UNL A   1      50.607  25.376  30.308  1.00  0.00     0.006 A 
ENDBRANCH  48  62
BRANCH  49  70
ATOM     70  C   UNL A   1      38.473  29.240  29.104  1.00  0.00     0.057 A 
ATOM     71  C   UNL A   1      37.978  29.698  27.875  1.00  0.00     0.134 A 
ATOM     72  C   UNL A   1      37.598  29.255  30.195  1.00  0.00     0.134 A 
ATOM     73  F   UNL A   1      38.774  29.725  26.797  1.00  0.00    -0.206 F 
ATOM     74  C   UNL A   1      36.674  30.177  27.742  1.00  0.00     0.040 A 
ATOM     75  C   UNL A   1      36.283  29.711  30.072  1.00  0.00     0.040 A 
ATOM     76  F   UNL A   1      38.007  28.823  31.397  1.00  0.00    -0.206 F 
ATOM     77  C   UNL A   1      35.821  30.182  28.844  1.00  0.00     0.006 A 
ENDBRANCH  49  70
BRANCH  61  78
ATOM     78  C   UNL A   1      44.344  32.495  30.921  1.00  0.00     0.057 A 
ATOM     79  C   UNL A   1      44.631  33.477  29.967  1.00  0.00     0.134 A 
ATOM     80  C   UNL A   1      44.285  32.891  32.263  1.00  0.00     0.134 A 
ATOM     81  F   UNL A   1      44.714  33.158  28.666  1.00  0.00    -0.206 F 
ATOM     82  C   UNL A   1      44.869  34.803  30.335  1.00  0.00     0.040 A 
ATOM     83  C   UNL A   1      44.497  34.217  32.641  1.00  0.00     0.040 A 
ATOM     84  F   UNL A   1      44.006  31.999  33.226  1.00  0.00    -0.206 F 
ATOM     85  C   UNL A   1      44.794  35.177  31.675  1.00  0.00     0.006 A 
ENDBRANCH  61  78
ENDBRANCH  35  36
ENDBRANCH  27  30
ENDBRANCH  25  26
ENDBRANCH  24  25
ENDBRANCH  23  24
ENDBRANCH   3  23
TORSDOF 16
ENDMDL
MODEL 3
REMARK VINA RESULT:     -10.8      2.444      7.604
REMARK SMILES CC(C)(C)[N@H+](CCC(=O)NCCCNC(=O)c1ccc(-c2c3nc(c(-c4c(F)cccc4F)c4ccc([nH]4)c(-c4c(F)cccc4F)c4nc(c(-c5c(F)cccc5F)c5ccc2[nH]5)C=C4)C=C3)cc1)Cc1ccccc1C1CC1
REMARK SMILES IDX 8 1 9 2 10 3 7 5 6 6 5 7 2 9 1 10 3 11 4 12 71 13 72 14
REMARK SMILES IDX 73 15 77 16 74 17 76 18 75 19 78 20 79 21 80 22 11 23 12 24
REMARK SMILES IDX 13 25 14 26 15 27 16 29 17 30 18 31 70 32 19 33 69 34 20 35
REMARK SMILES IDX 21 36 22 37 63 38 23 39 68 40 62 41 64 42 24 43 67 44 61 45
REMARK SMILES IDX 60 46 25 48 51 49 34 50 50 51 35 52 38 53 49 54 65 55 36 56
REMARK SMILES IDX 37 57 48 59 66 60 39 61 26 62 27 63 32 64 28 65 29 66 31 67
REMARK SMILES IDX 33 68 30 69 52 70 53 71 58 72 54 73 55 74 57 75 59 76 56 77
REMARK SMILES IDX 40 78 41 79 46 80 42 81 43 82 45 83 47 84 44 85
REMARK H PARENT 10 4 5 8 14 28 64 47 38 58
REMARK Flexibility Score: inf
ROOT
ATOM      1  C   UNL A   1      32.939  28.484  23.838  1.00  0.00     0.225 C 
ATOM      2  O   UNL A   1      32.245  28.476  22.822  1.00  0.00    -0.275 OA
ATOM      3  N   UNL A   1      33.008  29.623  24.609  1.00  0.00    -0.356 N 
ATOM      4  H   UNL A   1      33.770  30.238  24.507  1.00  0.00     0.163 HD
ENDROOT
BRANCH   1   5
ATOM      5  C   UNL A   1      33.907  27.357  24.132  1.00  0.00     0.161 C 
BRANCH   5   6
ATOM      6  C   UNL A   1      33.347  25.939  24.141  1.00  0.00     0.272 C 
BRANCH   6   7
ATOM      7  N   UNL A   1      32.645  25.437  25.342  1.00  0.00    -0.327 N 
ATOM      8  H   UNL A   1      32.603  26.212  26.004  1.00  0.00     0.348 HD
BRANCH   7   9
ATOM      9  C   UNL A   1      31.203  25.101  25.054  1.00  0.00     0.089 C 
ATOM     10  C   UNL A   1      30.248  26.330  25.163  1.00  0.00     0.078 C 
ATOM     11  C   UNL A   1      30.685  24.097  26.106  1.00  0.00     0.078 C 
ATOM     12  C   UNL A   1      30.979  24.516  23.645  1.00  0.00     0.078 C 
ENDBRANCH   7   9
BRANCH   7  13
ATOM     13  C   UNL A   1      33.412  24.411  26.120  1.00  0.00     0.299 C 
BRANCH  13  14
ATOM     14  C   UNL A   1      34.547  23.695  25.371  1.00  0.00     0.010 A 
ATOM     15  C   UNL A   1      35.846  24.155  25.725  1.00  0.00     0.010 A 
ATOM     16  C   UNL A   1      34.438  22.519  24.559  1.00  0.00    -0.036 A 
ATOM     17  C   UNL A   1      37.011  23.486  25.364  1.00  0.00     0.001 A 
ATOM     18  C   UNL A   1      35.666  21.863  24.250  1.00  0.00     0.004 A 
ATOM     19  C   UNL A   1      36.920  22.320  24.636  1.00  0.00     0.000 A 
BRANCH  16  20
ATOM     20  C   UNL A   1      33.200  21.725  24.085  1.00  0.00     0.020 C 
ATOM     21  C   UNL A   1      32.892  20.242  24.072  1.00  0.00     0.009 C 
ATOM     22  C   UNL A   1      32.461  21.006  25.250  1.00  0.00     0.009 C 
ENDBRANCH  16  20
ENDBRANCH  13  14
ENDBRANCH   7  13
ENDBRANCH   6   7
ENDBRANCH   5   6
ENDBRANCH   1   5
BRANCH   3  23
ATOM     23  C   UNL A   1      31.959  29.924  25.573  1.00  0.00     0.117 C 
BRANCH  23  24
ATOM     24  C   UNL A   1      32.364  29.655  27.013  1.00  0.00     0.042 C 
BRANCH  24  25
ATOM     25  C   UNL A   1      33.818  30.028  27.274  1.00  0.00     0.118 C 
BRANCH  25  26
ATOM     26  N   UNL A   1      34.039  31.117  28.231  1.00  0.00    -0.352 N 
ATOM     27  C   UNL A   1      35.097  31.193  29.120  1.00  0.00     0.251 C 
ATOM     28  H   UNL A   1      33.383  31.851  28.243  1.00  0.00     0.163 HD
ATOM     29  O   UNL A   1      35.124  31.985  30.052  1.00  0.00    -0.269 OA
BRANCH  27  30
ATOM     30  C   UNL A   1      36.196  30.230  28.909  1.00  0.00     0.039 A 
ATOM     31  C   UNL A   1      36.948  30.293  27.734  1.00  0.00     0.014 A 
ATOM     32  C   UNL A   1      36.640  29.511  30.018  1.00  0.00     0.014 A 
ATOM     33  C   UNL A   1      38.225  29.732  27.722  1.00  0.00     0.010 A 
ATOM     34  C   UNL A   1      37.949  29.050  30.033  1.00  0.00     0.010 A 
ATOM     35  C   UNL A   1      38.766  29.178  28.896  1.00  0.00    -0.014 A 
BRANCH  35  36
ATOM     36  C   UNL A   1      40.196  28.772  28.971  1.00  0.00     0.031 A 
ATOM     37  C   UNL A   1      41.227  29.739  29.481  1.00  0.00     0.074 A 
ATOM     38  C   UNL A   1      40.582  27.568  28.499  1.00  0.00     0.049 A 
ATOM     39  N   UNL A   1      42.522  29.583  29.593  1.00  0.00    -0.248 NA
ATOM     40  C   UNL A   1      40.748  31.073  29.876  1.00  0.00     0.031 C 
ATOM     41  C   UNL A   1      39.703  26.569  27.885  1.00  0.00     0.029 A 
ATOM     42  N   UNL A   1      41.822  26.977  28.462  1.00  0.00    -0.354 N 
ATOM     43  C   UNL A   1      43.007  30.800  30.051  1.00  0.00     0.074 A 
ATOM     44  C   UNL A   1      41.884  31.707  30.120  1.00  0.00     0.031 C 
ATOM     45  C   UNL A   1      40.420  25.474  27.580  1.00  0.00     0.029 A 
ATOM     46  C   UNL A   1      41.814  25.699  27.952  1.00  0.00     0.049 A 
ATOM     47  H   UNL A   1      42.641  27.426  28.773  1.00  0.00     0.167 HD
ATOM     48  C   UNL A   1      44.267  31.128  30.424  1.00  0.00     0.037 A 
ATOM     49  C   UNL A   1      42.812  24.805  27.819  1.00  0.00     0.037 A 
ATOM     50  C   UNL A   1      45.376  30.215  30.406  1.00  0.00     0.049 A 
ATOM     51  C   UNL A   1      44.195  25.174  28.283  1.00  0.00     0.074 A 
ATOM     52  C   UNL A   1      46.672  30.422  30.844  1.00  0.00     0.029 A 
ATOM     53  N   UNL A   1      45.316  28.916  29.925  1.00  0.00    -0.354 N 
ATOM     54  N   UNL A   1      44.618  26.295  28.815  1.00  0.00    -0.248 NA
ATOM     55  C   UNL A   1      45.238  24.147  28.139  1.00  0.00     0.031 C 
ATOM     56  C   UNL A   1      47.406  29.255  30.601  1.00  0.00     0.029 A 
ATOM     57  C   UNL A   1      46.556  28.311  30.045  1.00  0.00     0.049 A 
ATOM     58  H   UNL A   1      44.512  28.486  29.555  1.00  0.00     0.167 HD
ATOM     59  C   UNL A   1      45.963  26.098  29.099  1.00  0.00     0.074 A 
ATOM     60  C   UNL A   1      46.284  24.746  28.691  1.00  0.00     0.031 C 
ATOM     61  C   UNL A   1      46.853  26.960  29.649  1.00  0.00     0.037 A 
BRANCH  48  62
ATOM     62  C   UNL A   1      44.491  32.528  30.910  1.00  0.00     0.057 A 
ATOM     63  C   UNL A   1      44.341  32.870  32.262  1.00  0.00     0.134 A 
ATOM     64  C   UNL A   1      44.858  33.546  30.022  1.00  0.00     0.134 A 
ATOM     65  F   UNL A   1      43.975  31.943  33.160  1.00  0.00    -0.206 F 
ATOM     66  C   UNL A   1      44.509  34.182  32.707  1.00  0.00     0.040 A 
ATOM     67  C   UNL A   1      45.057  34.857  30.461  1.00  0.00     0.040 A 
ATOM     68  F   UNL A   1      45.023  33.286  28.717  1.00  0.00    -0.206 F 
ATOM     69  C   UNL A   1      44.873  35.178  31.804  1.00  0.00     0.006 A 
ENDBRANCH  48  62
BRANCH  49  70
ATOM     70  C   UNL A   1      42.539  23.447  27.283  1.00  0.00     0.057 A 
ATOM     71  C   UNL A   1      42.651  23.182  25.911  1.00  0.00     0.134 A 
ATOM     72  C   UNL A   1      42.138  22.393  28.111  1.00  0.00     0.134 A 
ATOM     73  F   UNL A   1      43.013  24.157  25.064  1.00  0.00    -0.206 F 
ATOM     74  C   UNL A   1      42.349  21.927  25.379  1.00  0.00     0.040 A 
ATOM     75  C   UNL A   1      41.854  21.126  27.596  1.00  0.00     0.040 A 
ATOM     76  F   UNL A   1      42.020  22.579  29.434  1.00  0.00    -0.206 F 
ATOM     77  C   UNL A   1      41.951  20.893  26.225  1.00  0.00     0.006 A 
ENDBRANCH  49  70
BRANCH  61  78
ATOM     78  C   UNL A   1      48.247  26.456  29.878  1.00  0.00     0.057 A 
ATOM     79  C   UNL A   1      49.254  26.608  28.918  1.00  0.00     0.134 A 
ATOM     80  C   UNL A   1      48.595  25.858  31.096  1.00  0.00     0.134 A 
ATOM     81  F   UNL A   1      48.979  27.162  27.727  1.00  0.00    -0.206 F 
ATOM     82  C   UNL A   1      50.557  26.165  29.153  1.00  0.00     0.040 A 
ATOM     83  C   UNL A   1      49.899  25.434  31.351  1.00  0.00     0.040 A 
ATOM     84  F   UNL A   1      47.678  25.691  32.061  1.00  0.00    -0.206 F 
ATOM     85  C   UNL A   1      50.883  25.584  30.377  1.00  0.00     0.006 A 
ENDBRANCH  61  78
ENDBRANCH  35  36
ENDBRANCH  27  30
ENDBRANCH  25  26
ENDBRANCH  24  25
ENDBRANCH  23  24
ENDBRANCH   3  23
TORSDOF 16
ENDMDL
