MODEL 1
REMARK VINA RESULT:     -12.7      0.000      0.000
REMARK SMILES CCOC(=O)[C@@]1(C)C/C(=N/c2cccc(C(=O)NCCCNC(=O)c3ccc(-c4c5nc(c(-c6c(F)cccc6F)c6ccc([nH]6)c(-c6c(F)cccc6F)c6nc(c(-c7c(F)cccc7F)c7ccc4[nH]7)C=C6)C=C5)cc3)c2)C(=O)N1c1ccccc1
REMARK SMILES IDX 19 1 18 2 16 3 17 4 15 6 11 7 12 8 79 9 13 10 14 11 10 12
REMARK SMILES IDX 6 13 7 14 8 15 82 16 9 17 80 18 81 19 4 20 5 21 3 22 2 23
REMARK SMILES IDX 1 24 83 25 84 26 88 27 85 28 87 29 86 30 20 31 21 32 22 33
REMARK SMILES IDX 23 34 24 36 25 37 26 38 78 39 27 40 77 41 28 42 29 43 30 44
REMARK SMILES IDX 71 45 31 46 76 47 70 48 72 49 32 50 75 51 69 52 68 53 33 55
REMARK SMILES IDX 59 56 42 57 58 58 43 59 46 60 57 61 73 62 44 63 45 64 56 66
REMARK SMILES IDX 74 67 47 68 34 69 35 70 40 71 36 72 37 73 39 74 41 75 38 76
REMARK SMILES IDX 60 77 61 78 66 79 62 80 63 81 65 82 67 83 64 84 48 85 49 86
REMARK SMILES IDX 54 87 50 88 51 89 53 90 55 91 52 92
REMARK H PARENT 18 5 22 35 72 54 46 65
REMARK Flexibility Score: inf
ROOT
ATOM      1  C   UNL A   1      31.405  30.773  26.395  1.00  0.00     0.118 C 
ENDROOT
BRANCH   1   2
ATOM      2  N   UNL A   1      32.509  30.176  27.131  1.00  0.00    -0.352 N 
ATOM      3  C   UNL A   1      33.347  29.129  26.826  1.00  0.00     0.251 C 
ATOM      4  O   UNL A   1      34.314  28.927  27.560  1.00  0.00    -0.269 OA
ATOM      5  H   UNL A   1      32.689  30.596  28.003  1.00  0.00     0.163 HD
BRANCH   3   6
ATOM      6  C   UNL A   1      33.151  28.261  25.638  1.00  0.00     0.041 A 
ATOM      7  C   UNL A   1      32.252  26.286  24.534  1.00  0.00     0.064 A 
ATOM      8  C   UNL A   1      32.880  26.664  23.348  1.00  0.00     0.028 A 
ATOM      9  C   UNL A   1      32.438  27.061  25.686  1.00  0.00     0.042 A 
ATOM     10  C   UNL A   1      33.648  27.829  23.301  1.00  0.00     0.003 A 
ATOM     11  C   UNL A   1      33.776  28.630  24.440  1.00  0.00     0.014 A 
BRANCH   7  12
ATOM     12  N   UNL A   1      31.474  25.118  24.595  1.00  0.00    -0.248 NA
ATOM     13  C   UNL A   1      32.560  21.876  24.032  1.00  0.00     0.148 C 
ATOM     14  C   UNL A   1      32.529  22.143  22.510  1.00  0.00     0.048 C 
ATOM     15  C   UNL A   1      31.398  22.672  24.687  1.00  0.00     0.103 C 
ATOM     16  N   UNL A   1      33.776  22.452  24.657  1.00  0.00    -0.290 N 
ATOM     17  C   UNL A   1      32.070  23.992  24.847  1.00  0.00     0.109 C 
ATOM     18  C   UNL A   1      33.526  23.734  25.143  1.00  0.00     0.273 C 
ATOM     19  O   UNL A   1      34.254  24.544  25.679  1.00  0.00    -0.267 OA
BRANCH  13  20
ATOM     20  C   UNL A   1      32.229  20.387  24.273  1.00  0.00     0.332 C 
ATOM     21  O   UNL A   1      31.898  19.952  25.372  1.00  0.00    -0.249 OA
BRANCH  20  22
ATOM     22  O   UNL A   1      32.362  19.622  23.160  1.00  0.00    -0.464 OA
BRANCH  22  23
ATOM     23  C   UNL A   1      32.205  18.205  23.342  1.00  0.00     0.229 C 
ATOM     24  C   UNL A   1      33.578  17.567  23.365  1.00  0.00     0.049 C 
ENDBRANCH  22  23
ENDBRANCH  20  22
ENDBRANCH  13  20
BRANCH  16  25
ATOM     25  C   UNL A   1      35.065  21.846  24.701  1.00  0.00     0.045 A 
ATOM     26  C   UNL A   1      36.218  22.622  24.489  1.00  0.00     0.026 A 
ATOM     27  C   UNL A   1      35.244  20.484  24.969  1.00  0.00     0.026 A 
ATOM     28  C   UNL A   1      37.497  22.061  24.544  1.00  0.00     0.002 A 
ATOM     29  C   UNL A   1      36.524  19.915  25.002  1.00  0.00     0.002 A 
ATOM     30  C   UNL A   1      37.651  20.704  24.793  1.00  0.00     0.000 A 
ENDBRANCH  16  25
ENDBRANCH   7  12
ENDBRANCH   3   6
ENDBRANCH   1   2
BRANCH   1  31
ATOM     31  C   UNL A   1      31.395  32.297  26.518  1.00  0.00     0.042 C 
BRANCH  31  32
ATOM     32  C   UNL A   1      32.641  32.887  27.175  1.00  0.00     0.118 C 
BRANCH  32  33
ATOM     33  N   UNL A   1      32.420  34.252  27.627  1.00  0.00    -0.352 N 
ATOM     34  C   UNL A   1      33.002  34.929  28.671  1.00  0.00     0.251 C 
ATOM     35  H   UNL A   1      31.757  34.764  27.110  1.00  0.00     0.163 HD
ATOM     36  O   UNL A   1      32.528  36.005  29.031  1.00  0.00    -0.269 OA
BRANCH  34  37
ATOM     37  C   UNL A   1      34.181  34.379  29.384  1.00  0.00     0.039 A 
ATOM     38  C   UNL A   1      35.449  34.551  28.815  1.00  0.00     0.014 A 
ATOM     39  C   UNL A   1      34.047  33.632  30.559  1.00  0.00     0.014 A 
ATOM     40  C   UNL A   1      36.582  34.017  29.439  1.00  0.00     0.010 A 
ATOM     41  C   UNL A   1      35.181  33.125  31.199  1.00  0.00     0.010 A 
ATOM     42  C   UNL A   1      36.457  33.309  30.642  1.00  0.00    -0.014 A 
BRANCH  42  43
ATOM     43  C   UNL A   1      37.642  32.734  31.325  1.00  0.00     0.031 A 
ATOM     44  C   UNL A   1      38.360  31.558  30.726  1.00  0.00     0.074 A 
ATOM     45  C   UNL A   1      38.043  33.225  32.512  1.00  0.00     0.049 A 
ATOM     46  N   UNL A   1      39.314  30.824  31.239  1.00  0.00    -0.248 NA
ATOM     47  C   UNL A   1      37.938  31.146  29.379  1.00  0.00     0.031 C 
ATOM     48  C   UNL A   1      37.429  34.354  33.213  1.00  0.00     0.029 A 
ATOM     49  N   UNL A   1      39.052  32.818  33.348  1.00  0.00    -0.354 N 
ATOM     50  C   UNL A   1      39.578  29.836  30.300  1.00  0.00     0.074 A 
ATOM     51  C   UNL A   1      38.692  30.073  29.179  1.00  0.00     0.031 C 
ATOM     52  C   UNL A   1      38.075  34.547  34.375  1.00  0.00     0.029 A 
ATOM     53  C   UNL A   1      39.126  33.542  34.512  1.00  0.00     0.049 A 
ATOM     54  H   UNL A   1      39.665  32.078  33.134  1.00  0.00     0.167 HD
ATOM     55  C   UNL A   1      40.470  28.821  30.368  1.00  0.00     0.037 A 
ATOM     56  C   UNL A   1      39.936  33.401  35.577  1.00  0.00     0.037 A 
ATOM     57  C   UNL A   1      41.384  28.599  31.456  1.00  0.00     0.049 A 
ATOM     58  C   UNL A   1      40.958  32.303  35.602  1.00  0.00     0.074 A 
ATOM     59  C   UNL A   1      42.337  27.605  31.596  1.00  0.00     0.029 A 
ATOM     60  N   UNL A   1      41.468  29.396  32.586  1.00  0.00    -0.354 N 
ATOM     61  N   UNL A   1      41.187  31.371  34.712  1.00  0.00    -0.248 NA
ATOM     62  C   UNL A   1      41.832  32.236  36.784  1.00  0.00     0.031 C 
ATOM     63  C   UNL A   1      42.998  27.798  32.816  1.00  0.00     0.029 A 
ATOM     64  C   UNL A   1      42.461  28.919  33.426  1.00  0.00     0.049 A 
ATOM     65  H   UNL A   1      40.906  30.183  32.765  1.00  0.00     0.167 HD
ATOM     66  C   UNL A   1      42.229  30.608  35.220  1.00  0.00     0.074 A 
ATOM     67  C   UNL A   1      42.598  31.192  36.494  1.00  0.00     0.031 C 
ATOM     68  C   UNL A   1      42.823  29.518  34.681  1.00  0.00     0.037 A 
BRANCH  55  69
ATOM     69  C   UNL A   1      40.485  27.852  29.229  1.00  0.00     0.057 A 
ATOM     70  C   UNL A   1      39.655  26.727  29.214  1.00  0.00     0.134 A 
ATOM     71  C   UNL A   1      41.318  28.066  28.126  1.00  0.00     0.134 A 
ATOM     72  F   UNL A   1      38.846  26.464  30.251  1.00  0.00    -0.206 F 
ATOM     73  C   UNL A   1      39.661  25.837  28.139  1.00  0.00     0.040 A 
ATOM     74  C   UNL A   1      41.326  27.190  27.040  1.00  0.00     0.040 A 
ATOM     75  F   UNL A   1      42.137  29.129  28.087  1.00  0.00    -0.206 F 
ATOM     76  C   UNL A   1      40.496  26.070  27.046  1.00  0.00     0.006 A 
ENDBRANCH  55  69
BRANCH  56  77
ATOM     77  C   UNL A   1      39.807  34.329  36.722  1.00  0.00     0.057 A 
ATOM     78  C   UNL A   1      40.454  35.568  36.718  1.00  0.00     0.134 A 
ATOM     79  C   UNL A   1      39.034  33.998  37.839  1.00  0.00     0.134 A 
ATOM     80  F   UNL A   1      41.222  35.925  35.678  1.00  0.00    -0.206 F 
ATOM     81  C   UNL A   1      40.341  36.450  37.793  1.00  0.00     0.040 A 
ATOM     82  C   UNL A   1      38.903  34.874  38.917  1.00  0.00     0.040 A 
ATOM     83  F   UNL A   1      38.394  32.821  37.895  1.00  0.00    -0.206 F 
ATOM     84  C   UNL A   1      39.560  36.104  38.896  1.00  0.00     0.006 A 
ENDBRANCH  56  77
BRANCH  68  85
ATOM     85  C   UNL A   1      43.941  28.899  35.457  1.00  0.00     0.057 A 
ATOM     86  C   UNL A   1      43.702  27.890  36.396  1.00  0.00     0.134 A 
ATOM     87  C   UNL A   1      45.267  29.292  35.240  1.00  0.00     0.134 A 
ATOM     88  F   UNL A   1      42.451  27.482  36.652  1.00  0.00    -0.206 F 
ATOM     89  C   UNL A   1      44.749  27.292  37.099  1.00  0.00     0.040 A 
ATOM     90  C   UNL A   1      46.322  28.697  35.933  1.00  0.00     0.040 A 
ATOM     91  F   UNL A   1      45.553  30.257  34.353  1.00  0.00    -0.206 F 
ATOM     92  C   UNL A   1      46.063  27.693  36.866  1.00  0.00     0.006 A 
ENDBRANCH  68  85
ENDBRANCH  42  43
ENDBRANCH  34  37
ENDBRANCH  32  33
ENDBRANCH  31  32
ENDBRANCH   1  31
TORSDOF 15
ENDMDL
MODEL 2
REMARK VINA RESULT:     -12.6      5.112     10.616
REMARK SMILES CCOC(=O)[C@@]1(C)C/C(=N/c2cccc(C(=O)NCCCNC(=O)c3ccc(-c4c5nc(c(-c6c(F)cccc6F)c6ccc([nH]6)c(-c6c(F)cccc6F)c6nc(c(-c7c(F)cccc7F)c7ccc4[nH]7)C=C6)C=C5)cc3)c2)C(=O)N1c1ccccc1
REMARK SMILES IDX 19 1 18 2 16 3 17 4 15 6 11 7 12 8 79 9 13 10 14 11 10 12
REMARK SMILES IDX 6 13 7 14 8 15 82 16 9 17 80 18 81 19 4 20 5 21 3 22 2 23
REMARK SMILES IDX 1 24 83 25 84 26 88 27 85 28 87 29 86 30 20 31 21 32 22 33
REMARK SMILES IDX 23 34 24 36 25 37 26 38 78 39 27 40 77 41 28 42 29 43 30 44
REMARK SMILES IDX 71 45 31 46 76 47 70 48 72 49 32 50 75 51 69 52 68 53 33 55
REMARK SMILES IDX 59 56 42 57 58 58 43 59 46 60 57 61 73 62 44 63 45 64 56 66
REMARK SMILES IDX 74 67 47 68 34 69 35 70 40 71 36 72 37 73 39 74 41 75 38 76
REMARK SMILES IDX 60 77 61 78 66 79 62 80 63 81 65 82 67 83 64 84 48 85 49 86
REMARK SMILES IDX 54 87 50 88 51 89 53 90 55 91 52 92
REMARK H PARENT 18 5 22 35 72 54 46 65
REMARK Flexibility Score: inf
ROOT
ATOM      1  C   UNL A   1      36.970  20.655  24.728  1.00  0.00     0.118 C 
ENDROOT
BRANCH   1   2
ATOM      2  N   UNL A   1      37.472  21.987  25.028  1.00  0.00    -0.352 N 
ATOM      3  C   UNL A   1      36.837  23.119  25.483  1.00  0.00     0.251 C 
ATOM      4  O   UNL A   1      37.530  24.080  25.812  1.00  0.00    -0.269 OA
ATOM      5  H   UNL A   1      38.439  22.099  24.879  1.00  0.00     0.163 HD
BRANCH   3   6
ATOM      6  C   UNL A   1      35.362  23.213  25.622  1.00  0.00     0.041 A 
ATOM      7  C   UNL A   1      33.145  23.760  24.776  1.00  0.00     0.064 A 
ATOM      8  C   UNL A   1      32.589  23.399  26.002  1.00  0.00     0.028 A 
ATOM      9  C   UNL A   1      34.537  23.716  24.614  1.00  0.00     0.042 A 
ATOM     10  C   UNL A   1      33.409  22.953  27.041  1.00  0.00     0.003 A 
ATOM     11  C   UNL A   1      34.790  22.852  26.848  1.00  0.00     0.014 A 
BRANCH   7  12
ATOM     12  N   UNL A   1      32.333  24.208  23.722  1.00  0.00    -0.248 NA
ATOM     13  C   UNL A   1      30.389  27.076  23.679  1.00  0.00     0.148 C 
ATOM     14  C   UNL A   1      29.334  26.358  24.550  1.00  0.00     0.048 C 
ATOM     15  C   UNL A   1      31.027  26.026  22.729  1.00  0.00     0.103 C 
ATOM     16  N   UNL A   1      31.533  27.549  24.497  1.00  0.00    -0.290 N 
ATOM     17  C   UNL A   1      32.069  25.477  23.641  1.00  0.00     0.109 C 
ATOM     18  C   UNL A   1      32.558  26.605  24.515  1.00  0.00     0.273 C 
ATOM     19  O   UNL A   1      33.627  26.593  25.087  1.00  0.00    -0.267 OA
BRANCH  13  20
ATOM     20  C   UNL A   1      29.661  28.080  22.758  1.00  0.00     0.332 C 
ATOM     21  O   UNL A   1      30.212  28.621  21.805  1.00  0.00    -0.249 OA
BRANCH  20  22
ATOM     22  O   UNL A   1      28.376  28.309  23.126  1.00  0.00    -0.464 OA
BRANCH  22  23
ATOM     23  C   UNL A   1      27.709  29.391  22.457  1.00  0.00     0.229 C 
ATOM     24  C   UNL A   1      27.655  30.578  23.395  1.00  0.00     0.049 C 
ENDBRANCH  22  23
ENDBRANCH  20  22
ENDBRANCH  13  20
BRANCH  16  25
ATOM     25  C   UNL A   1      31.584  28.759  25.248  1.00  0.00     0.045 A 
ATOM     26  C   UNL A   1      32.226  28.788  26.498  1.00  0.00     0.026 A 
ATOM     27  C   UNL A   1      31.027  29.956  24.781  1.00  0.00     0.026 A 
ATOM     28  C   UNL A   1      32.309  29.964  27.251  1.00  0.00     0.002 A 
ATOM     29  C   UNL A   1      31.089  31.130  25.544  1.00  0.00     0.002 A 
ATOM     30  C   UNL A   1      31.734  31.134  26.777  1.00  0.00     0.000 A 
ENDBRANCH  16  25
ENDBRANCH   7  12
ENDBRANCH   3   6
ENDBRANCH   1   2
BRANCH   1  31
ATOM     31  C   UNL A   1      38.019  19.575  25.001  1.00  0.00     0.042 C 
BRANCH  31  32
ATOM     32  C   UNL A   1      39.176  20.027  25.888  1.00  0.00     0.118 C 
BRANCH  32  33
ATOM     33  N   UNL A   1      40.259  19.056  25.903  1.00  0.00    -0.352 N 
ATOM     34  C   UNL A   1      41.613  19.261  26.002  1.00  0.00     0.251 C 
ATOM     35  H   UNL A   1      39.980  18.114  25.832  1.00  0.00     0.163 HD
ATOM     36  O   UNL A   1      42.383  18.330  25.779  1.00  0.00    -0.269 OA
BRANCH  34  37
ATOM     37  C   UNL A   1      42.166  20.592  26.355  1.00  0.00     0.039 A 
ATOM     38  C   UNL A   1      42.284  20.931  27.709  1.00  0.00     0.014 A 
ATOM     39  C   UNL A   1      42.495  21.535  25.376  1.00  0.00     0.014 A 
ATOM     40  C   UNL A   1      42.768  22.189  28.083  1.00  0.00     0.010 A 
ATOM     41  C   UNL A   1      43.008  22.781  25.748  1.00  0.00     0.010 A 
ATOM     42  C   UNL A   1      43.145  23.120  27.104  1.00  0.00    -0.014 A 
BRANCH  42  43
ATOM     43  C   UNL A   1      43.663  24.460  27.475  1.00  0.00     0.031 A 
ATOM     44  C   UNL A   1      42.714  25.542  27.905  1.00  0.00     0.074 A 
ATOM     45  C   UNL A   1      44.977  24.730  27.368  1.00  0.00     0.049 A 
ATOM     46  N   UNL A   1      42.952  26.811  28.122  1.00  0.00    -0.248 NA
ATOM     47  C   UNL A   1      41.312  25.147  28.105  1.00  0.00     0.031 C 
ATOM     48  C   UNL A   1      46.006  23.777  26.949  1.00  0.00     0.029 A 
ATOM     49  N   UNL A   1      45.666  25.896  27.584  1.00  0.00    -0.354 N 
ATOM     50  C   UNL A   1      41.724  27.376  28.439  1.00  0.00     0.074 A 
ATOM     51  C   UNL A   1      40.745  26.309  28.400  1.00  0.00     0.031 C 
ATOM     52  C   UNL A   1      47.197  24.401  26.938  1.00  0.00     0.029 A 
ATOM     53  C   UNL A   1      47.009  25.797  27.321  1.00  0.00     0.049 A 
ATOM     54  H   UNL A   1      45.238  26.725  27.900  1.00  0.00     0.167 HD
ATOM     55  C   UNL A   1      41.437  28.667  28.728  1.00  0.00     0.037 A 
ATOM     56  C   UNL A   1      47.977  26.731  27.364  1.00  0.00     0.037 A 
ATOM     57  C   UNL A   1      42.404  29.727  28.811  1.00  0.00     0.049 A 
ATOM     58  C   UNL A   1      47.643  28.143  27.745  1.00  0.00     0.074 A 
ATOM     59  C   UNL A   1      42.201  31.062  29.120  1.00  0.00     0.029 A 
ATOM     60  N   UNL A   1      43.764  29.569  28.599  1.00  0.00    -0.354 N 
ATOM     61  N   UNL A   1      46.476  28.664  28.031  1.00  0.00    -0.248 NA
ATOM     62  C   UNL A   1      48.761  29.097  27.807  1.00  0.00     0.031 C 
ATOM     63  C   UNL A   1      43.441  31.713  29.091  1.00  0.00     0.029 A 
ATOM     64  C   UNL A   1      44.413  30.779  28.775  1.00  0.00     0.049 A 
ATOM     65  H   UNL A   1      44.203  28.721  28.358  1.00  0.00     0.167 HD
ATOM     66  C   UNL A   1      46.716  30.002  28.308  1.00  0.00     0.074 A 
ATOM     67  C   UNL A   1      48.142  30.214  28.168  1.00  0.00     0.031 C 
ATOM     68  C   UNL A   1      45.831  30.970  28.643  1.00  0.00     0.037 A 
BRANCH  55  69
ATOM     69  C   UNL A   1      39.999  29.008  28.959  1.00  0.00     0.057 A 
ATOM     70  C   UNL A   1      39.137  29.303  27.899  1.00  0.00     0.134 A 
ATOM     71  C   UNL A   1      39.469  29.011  30.254  1.00  0.00     0.134 A 
ATOM     72  F   UNL A   1      39.593  29.329  26.638  1.00  0.00    -0.206 F 
ATOM     73  C   UNL A   1      37.792  29.601  28.120  1.00  0.00     0.040 A 
ATOM     74  C   UNL A   1      38.124  29.298  30.488  1.00  0.00     0.040 A 
ATOM     75  F   UNL A   1      40.250  28.737  31.311  1.00  0.00    -0.206 F 
ATOM     76  C   UNL A   1      37.282  29.596  29.418  1.00  0.00     0.006 A 
ENDBRANCH  55  69
BRANCH  56  77
ATOM     77  C   UNL A   1      49.368  26.358  27.025  1.00  0.00     0.057 A 
ATOM     78  C   UNL A   1      49.831  26.430  25.707  1.00  0.00     0.134 A 
ATOM     79  C   UNL A   1      50.263  25.925  28.009  1.00  0.00     0.134 A 
ATOM     80  F   UNL A   1      49.008  26.822  24.725  1.00  0.00    -0.206 F 
ATOM     81  C   UNL A   1      51.140  26.078  25.377  1.00  0.00     0.040 A 
ATOM     82  C   UNL A   1      51.577  25.580  27.695  1.00  0.00     0.040 A 
ATOM     83  F   UNL A   1      49.870  25.836  29.288  1.00  0.00    -0.206 F 
ATOM     84  C   UNL A   1      52.018  25.654  26.374  1.00  0.00     0.006 A 
ENDBRANCH  56  77
BRANCH  68  85
ATOM     85  C   UNL A   1      46.382  32.336  28.898  1.00  0.00     0.057 A 
ATOM     86  C   UNL A   1      46.785  32.729  30.179  1.00  0.00     0.134 A 
ATOM     87  C   UNL A   1      46.541  33.251  27.851  1.00  0.00     0.134 A 
ATOM     88  F   UNL A   1      46.646  31.897  31.221  1.00  0.00    -0.206 F 
ATOM     89  C   UNL A   1      47.326  33.995  30.412  1.00  0.00     0.040 A 
ATOM     90  C   UNL A   1      47.087  34.517  28.072  1.00  0.00     0.040 A 
ATOM     91  F   UNL A   1      46.170  32.928  26.604  1.00  0.00    -0.206 F 
ATOM     92  C   UNL A   1      47.481  34.891  29.356  1.00  0.00     0.006 A 
ENDBRANCH  68  85
ENDBRANCH  42  43
ENDBRANCH  34  37
ENDBRANCH  32  33
ENDBRANCH  31  32
ENDBRANCH   1  31
TORSDOF 15
ENDMDL
MODEL 3
REMARK VINA RESULT:     -12.6      4.110      9.452
REMARK SMILES CCOC(=O)[C@@]1(C)C/C(=N/c2cccc(C(=O)NCCCNC(=O)c3ccc(-c4c5nc(c(-c6c(F)cccc6F)c6ccc([nH]6)c(-c6c(F)cccc6F)c6nc(c(-c7c(F)cccc7F)c7ccc4[nH]7)C=C6)C=C5)cc3)c2)C(=O)N1c1ccccc1
REMARK SMILES IDX 19 1 18 2 16 3 17 4 15 6 11 7 12 8 79 9 13 10 14 11 10 12
REMARK SMILES IDX 6 13 7 14 8 15 82 16 9 17 80 18 81 19 4 20 5 21 3 22 2 23
REMARK SMILES IDX 1 24 83 25 84 26 88 27 85 28 87 29 86 30 20 31 21 32 22 33
REMARK SMILES IDX 23 34 24 36 25 37 26 38 78 39 27 40 77 41 28 42 29 43 30 44
REMARK SMILES IDX 71 45 31 46 76 47 70 48 72 49 32 50 75 51 69 52 68 53 33 55
REMARK SMILES IDX 59 56 42 57 58 58 43 59 46 60 57 61 73 62 44 63 45 64 56 66
REMARK SMILES IDX 74 67 47 68 34 69 35 70 40 71 36 72 37 73 39 74 41 75 38 76
REMARK SMILES IDX 60 77 61 78 66 79 62 80 63 81 65 82 67 83 64 84 48 85 49 86
REMARK SMILES IDX 54 87 50 88 51 89 53 90 55 91 52 92
REMARK H PARENT 18 5 22 35 72 54 46 65
REMARK Flexibility Score: inf
ROOT
ATOM      1  C   UNL A   1      36.837  19.964  24.687  1.00  0.00     0.118 C 
ENDROOT
BRANCH   1   2
ATOM      2  N   UNL A   1      37.238  21.315  24.324  1.00  0.00    -0.352 N 
ATOM      3  C   UNL A   1      36.509  22.468  24.157  1.00  0.00     0.251 C 
ATOM      4  O   UNL A   1      37.121  23.524  24.004  1.00  0.00    -0.269 OA
ATOM      5  H   UNL A   1      38.205  21.422  24.169  1.00  0.00     0.163 HD
BRANCH   3   6
ATOM      6  C   UNL A   1      35.025  22.493  24.187  1.00  0.00     0.041 A 
ATOM      7  C   UNL A   1      32.864  23.295  23.402  1.00  0.00     0.064 A 
ATOM      8  C   UNL A   1      32.225  22.505  24.356  1.00  0.00     0.028 A 
ATOM      9  C   UNL A   1      34.265  23.324  23.362  1.00  0.00     0.042 A 
ATOM     10  C   UNL A   1      32.975  21.716  25.231  1.00  0.00     0.003 A 
ATOM     11  C   UNL A   1      34.371  21.704  25.141  1.00  0.00     0.014 A 
BRANCH   7  12
ATOM     12  N   UNL A   1      32.123  24.092  22.515  1.00  0.00    -0.248 NA
ATOM     13  C   UNL A   1      30.506  27.065  23.258  1.00  0.00     0.148 C 
ATOM     14  C   UNL A   1      29.364  26.263  23.923  1.00  0.00     0.048 C 
ATOM     15  C   UNL A   1      31.040  26.240  22.055  1.00  0.00     0.103 C 
ATOM     16  N   UNL A   1      31.682  27.177  24.156  1.00  0.00    -0.290 N 
ATOM     17  C   UNL A   1      32.001  25.358  22.775  1.00  0.00     0.109 C 
ATOM     18  C   UNL A   1      32.596  26.155  23.909  1.00  0.00     0.273 C 
ATOM     19  O   UNL A   1      33.648  25.875  24.444  1.00  0.00    -0.267 OA
BRANCH  13  20
ATOM     20  C   UNL A   1      29.907  28.350  22.645  1.00  0.00     0.332 C 
ATOM     21  O   UNL A   1      30.523  29.051  21.848  1.00  0.00    -0.249 OA
BRANCH  20  22
ATOM     22  O   UNL A   1      28.657  28.625  23.093  1.00  0.00    -0.464 OA
BRANCH  22  23
ATOM     23  C   UNL A   1      27.955  29.675  22.408  1.00  0.00     0.229 C 
ATOM     24  C   UNL A   1      27.623  30.764  23.406  1.00  0.00     0.049 C 
ENDBRANCH  22  23
ENDBRANCH  20  22
ENDBRANCH  13  20
BRANCH  16  25
ATOM     25  C   UNL A   1      31.853  28.133  25.199  1.00  0.00     0.045 A 
ATOM     26  C   UNL A   1      31.473  27.818  26.515  1.00  0.00     0.026 A 
ATOM     27  C   UNL A   1      32.412  29.396  24.974  1.00  0.00     0.026 A 
ATOM     28  C   UNL A   1      31.645  28.727  27.564  1.00  0.00     0.002 A 
ATOM     29  C   UNL A   1      32.564  30.317  26.019  1.00  0.00     0.002 A 
ATOM     30  C   UNL A   1      32.185  29.981  27.314  1.00  0.00     0.000 A 
ENDBRANCH  16  25
ENDBRANCH   7  12
ENDBRANCH   3   6
ENDBRANCH   1   2
BRANCH   1  31
ATOM     31  C   UNL A   1      38.034  19.102  25.092  1.00  0.00     0.042 C 
BRANCH  31  32
ATOM     32  C   UNL A   1      39.197  19.881  25.702  1.00  0.00     0.118 C 
BRANCH  32  33
ATOM     33  N   UNL A   1      40.403  19.073  25.790  1.00  0.00    -0.352 N 
ATOM     34  C   UNL A   1      41.694  19.461  26.051  1.00  0.00     0.251 C 
ATOM     35  H   UNL A   1      40.275  18.109  25.640  1.00  0.00     0.163 HD
ATOM     36  O   UNL A   1      42.612  18.664  25.870  1.00  0.00    -0.269 OA
BRANCH  34  37
ATOM     37  C   UNL A   1      42.005  20.830  26.532  1.00  0.00     0.039 A 
ATOM     38  C   UNL A   1      41.823  21.121  27.890  1.00  0.00     0.014 A 
ATOM     39  C   UNL A   1      42.397  21.846  25.654  1.00  0.00     0.014 A 
ATOM     40  C   UNL A   1      42.071  22.410  28.375  1.00  0.00     0.010 A 
ATOM     41  C   UNL A   1      42.675  23.125  26.143  1.00  0.00     0.010 A 
ATOM     42  C   UNL A   1      42.511  23.419  27.507  1.00  0.00    -0.014 A 
BRANCH  42  43
ATOM     43  C   UNL A   1      42.783  24.792  27.997  1.00  0.00     0.031 A 
ATOM     44  C   UNL A   1      44.172  25.182  28.416  1.00  0.00     0.074 A 
ATOM     45  C   UNL A   1      41.776  25.676  28.126  1.00  0.00     0.049 A 
ATOM     46  N   UNL A   1      44.580  26.276  29.008  1.00  0.00    -0.248 NA
ATOM     47  C   UNL A   1      45.239  24.207  28.146  1.00  0.00     0.031 C 
ATOM     48  C   UNL A   1      40.378  25.426  27.771  1.00  0.00     0.029 A 
ATOM     49  N   UNL A   1      41.775  26.958  28.614  1.00  0.00    -0.354 N 
ATOM     50  C   UNL A   1      45.941  26.104  29.222  1.00  0.00     0.074 A 
ATOM     51  C   UNL A   1      46.293  24.806  28.684  1.00  0.00     0.031 C 
ATOM     52  C   UNL A   1      39.654  26.522  28.054  1.00  0.00     0.029 A 
ATOM     53  C   UNL A   1      40.530  27.536  28.635  1.00  0.00     0.049 A 
ATOM     54  H   UNL A   1      42.588  27.421  28.918  1.00  0.00     0.167 HD
ATOM     55  C   UNL A   1      46.816  26.947  29.819  1.00  0.00     0.037 A 
ATOM     56  C   UNL A   1      40.135  28.740  29.089  1.00  0.00     0.037 A 
ATOM     57  C   UNL A   1      46.489  28.254  30.320  1.00  0.00     0.049 A 
ATOM     58  C   UNL A   1      41.135  29.680  29.692  1.00  0.00     0.074 A 
ATOM     59  C   UNL A   1      47.322  29.183  30.921  1.00  0.00     0.029 A 
ATOM     60  N   UNL A   1      45.228  28.825  30.263  1.00  0.00    -0.354 N 
ATOM     61  N   UNL A   1      42.416  29.499  29.898  1.00  0.00    -0.248 NA
ATOM     62  C   UNL A   1      40.635  30.992  30.131  1.00  0.00     0.031 C 
ATOM     63  C   UNL A   1      46.562  30.318  31.231  1.00  0.00     0.029 A 
ATOM     64  C   UNL A   1      45.261  30.095  30.812  1.00  0.00     0.049 A 
ATOM     65  H   UNL A   1      44.429  28.391  29.887  1.00  0.00     0.167 HD
ATOM     66  C   UNL A   1      42.875  30.669  30.485  1.00  0.00     0.074 A 
ATOM     67  C   UNL A   1      41.739  31.562  30.594  1.00  0.00     0.031 C 
ATOM     68  C   UNL A   1      44.126  30.973  30.902  1.00  0.00     0.037 A 
BRANCH  55  69
ATOM     69  C   UNL A   1      48.222  26.463  29.981  1.00  0.00     0.057 A 
ATOM     70  C   UNL A   1      48.628  25.761  31.120  1.00  0.00     0.134 A 
ATOM     71  C   UNL A   1      49.168  26.679  28.973  1.00  0.00     0.134 A 
ATOM     72  F   UNL A   1      47.767  25.537  32.124  1.00  0.00    -0.206 F 
ATOM     73  C   UNL A   1      49.937  25.296  31.256  1.00  0.00     0.040 A 
ATOM     74  C   UNL A   1      50.477  26.211  29.092  1.00  0.00     0.040 A 
ATOM     75  F   UNL A   1      48.835  27.348  27.858  1.00  0.00    -0.206 F 
ATOM     76  C   UNL A   1      50.864  25.518  30.238  1.00  0.00     0.006 A 
ENDBRANCH  55  69
BRANCH  56  77
ATOM     77  C   UNL A   1      38.709  29.125  28.995  1.00  0.00     0.057 A 
ATOM     78  C   UNL A   1      37.862  29.018  30.102  1.00  0.00     0.134 A 
ATOM     79  C   UNL A   1      38.166  29.608  27.800  1.00  0.00     0.134 A 
ATOM     80  F   UNL A   1      38.330  28.543  31.265  1.00  0.00    -0.206 F 
ATOM     81  C   UNL A   1      36.516  29.376  30.024  1.00  0.00     0.040 A 
ATOM     82  C   UNL A   1      36.825  29.980  27.711  1.00  0.00     0.040 A 
ATOM     83  F   UNL A   1      38.934  29.729  26.708  1.00  0.00    -0.206 F 
ATOM     84  C   UNL A   1      35.995  29.861  28.825  1.00  0.00     0.006 A 
ENDBRANCH  56  77
BRANCH  68  85
ATOM     85  C   UNL A   1      44.334  32.330  31.496  1.00  0.00     0.057 A 
ATOM     86  C   UNL A   1      44.644  33.433  30.694  1.00  0.00     0.134 A 
ATOM     87  C   UNL A   1      44.191  32.539  32.872  1.00  0.00     0.134 A 
ATOM     88  F   UNL A   1      44.804  33.289  29.370  1.00  0.00    -0.206 F 
ATOM     89  C   UNL A   1      44.810  34.705  31.245  1.00  0.00     0.040 A 
ATOM     90  C   UNL A   1      44.348  33.808  33.432  1.00  0.00     0.040 A 
ATOM     91  F   UNL A   1      43.897  31.517  33.688  1.00  0.00    -0.206 F 
ATOM     92  C   UNL A   1      44.659  34.895  32.617  1.00  0.00     0.006 A 
ENDBRANCH  68  85
ENDBRANCH  42  43
ENDBRANCH  34  37
ENDBRANCH  32  33
ENDBRANCH  31  32
ENDBRANCH   1  31
TORSDOF 15
ENDMDL
