MODEL 1
REMARK VINA RESULT:     -13.7      0.000      0.000
REMARK SMILES O=C(NCCCNC(=O)c1ccc2c(c1)[C@@H]1C=CC[C@@H]1[C@H](c1ccncc1)N2)c1ccc(-c2c3nc(c(-c4c(F)cccc4F)c4ccc([nH]4)c(-c4c(F)cccc4F)c4nc(c(-c5c(F)cccc5F)c5ccc2[nH]5)C=C4)C=C3)cc1
REMARK SMILES IDX 4 1 3 2 1 3 2 4 29 6 30 7 82 8 31 9 81 10 32 11 33 12 34 13
REMARK SMILES IDX 75 14 35 15 80 16 74 17 76 18 36 19 79 20 73 21 72 22 37 24
REMARK SMILES IDX 63 25 46 26 62 27 47 28 50 29 61 30 77 31 48 32 49 33 60 35
REMARK SMILES IDX 78 36 51 37 38 38 39 39 44 40 40 41 41 42 43 43 45 44 42 45
REMARK SMILES IDX 64 46 65 47 70 48 66 49 67 50 69 51 71 52 68 53 52 54 53 55
REMARK SMILES IDX 58 56 54 57 55 58 57 59 59 60 56 61 5 62 6 63 7 64 8 65 9 67
REMARK SMILES IDX 10 68 11 69 15 70 12 71 14 72 13 73 16 74 28 75 17 76 20 77
REMARK SMILES IDX 21 78 18 80 19 81 22 82 23 83 27 84 24 85 26 86 25 87
REMARK H PARENT 3 5 76 23 50 34 7 66 28 79
REMARK Flexibility Score: inf
ROOT
ATOM      1  C   UNL A   1      32.089  30.844  26.509  1.00  0.00     0.118 C 
ENDROOT
BRANCH   1   2
ATOM      2  N   UNL A   1      32.025  32.267  26.824  1.00  0.00    -0.352 N 
ATOM      3  O   UNL A   1      32.525  34.212  27.839  1.00  0.00    -0.269 OA
ATOM      4  C   UNL A   1      32.860  33.062  27.572  1.00  0.00     0.251 C 
ATOM      5  H   UNL A   1      31.254  32.738  26.434  1.00  0.00     0.163 HD
BRANCH   4   6
ATOM      6  C   UNL A   1      34.143  32.533  28.089  1.00  0.00     0.039 A 
ATOM      7  C   UNL A   1      34.296  31.180  28.383  1.00  0.00     0.014 A 
ATOM      8  C   UNL A   1      35.219  33.407  28.275  1.00  0.00     0.014 A 
ATOM      9  C   UNL A   1      35.430  30.743  29.055  1.00  0.00     0.010 A 
ATOM     10  C   UNL A   1      36.410  32.940  28.841  1.00  0.00     0.010 A 
ATOM     11  C   UNL A   1      36.506  31.614  29.288  1.00  0.00    -0.014 A 
BRANCH  11  12
ATOM     12  C   UNL A   1      37.718  31.094  29.975  1.00  0.00     0.031 A 
ATOM     13  C   UNL A   1      37.982  31.396  31.426  1.00  0.00     0.074 A 
ATOM     14  C   UNL A   1      38.556  30.288  29.293  1.00  0.00     0.049 A 
ATOM     15  N   UNL A   1      38.954  30.966  32.192  1.00  0.00    -0.248 NA
ATOM     16  C   UNL A   1      37.046  32.305  32.106  1.00  0.00     0.031 C 
ATOM     17  C   UNL A   1      38.416  29.932  27.878  1.00  0.00     0.029 A 
ATOM     18  N   UNL A   1      39.665  29.593  29.701  1.00  0.00    -0.354 N 
ATOM     19  C   UNL A   1      38.764  31.571  33.428  1.00  0.00     0.074 A 
ATOM     20  C   UNL A   1      37.598  32.417  33.306  1.00  0.00     0.031 C 
ATOM     21  C   UNL A   1      39.356  29.033  27.557  1.00  0.00     0.029 A 
ATOM     22  C   UNL A   1      40.204  28.797  28.719  1.00  0.00     0.049 A 
ATOM     23  H   UNL A   1      40.040  29.660  30.609  1.00  0.00     0.167 HD
ATOM     24  C   UNL A   1      39.491  31.428  34.563  1.00  0.00     0.037 A 
ATOM     25  C   UNL A   1      41.264  27.970  28.747  1.00  0.00     0.037 A 
ATOM     26  C   UNL A   1      40.633  30.558  34.693  1.00  0.00     0.049 A 
ATOM     27  C   UNL A   1      42.046  27.827  30.019  1.00  0.00     0.074 A 
ATOM     28  C   UNL A   1      41.405  30.311  35.816  1.00  0.00     0.029 A 
ATOM     29  N   UNL A   1      41.165  29.793  33.668  1.00  0.00    -0.354 N 
ATOM     30  N   UNL A   1      41.832  28.381  31.187  1.00  0.00    -0.248 NA
ATOM     31  C   UNL A   1      43.221  26.947  29.973  1.00  0.00     0.031 C 
ATOM     32  C   UNL A   1      42.428  29.427  35.458  1.00  0.00     0.029 A 
ATOM     33  C   UNL A   1      42.267  29.088  34.125  1.00  0.00     0.049 A 
ATOM     34  H   UNL A   1      40.812  29.756  32.749  1.00  0.00     0.167 HD
ATOM     35  C   UNL A   1      42.831  27.903  32.022  1.00  0.00     0.074 A 
ATOM     36  C   UNL A   1      43.641  27.000  31.230  1.00  0.00     0.031 C 
ATOM     37  C   UNL A   1      43.060  28.189  33.326  1.00  0.00     0.037 A 
BRANCH  24  38
ATOM     38  C   UNL A   1      39.086  32.244  35.756  1.00  0.00     0.057 A 
ATOM     39  C   UNL A   1      39.497  33.573  35.923  1.00  0.00     0.134 A 
ATOM     40  C   UNL A   1      38.236  31.705  36.732  1.00  0.00     0.134 A 
ATOM     41  F   UNL A   1      40.320  34.147  35.034  1.00  0.00    -0.206 F 
ATOM     42  C   UNL A   1      39.095  34.328  37.028  1.00  0.00     0.040 A 
ATOM     43  C   UNL A   1      37.809  32.457  37.827  1.00  0.00     0.040 A 
ATOM     44  F   UNL A   1      37.800  30.440  36.630  1.00  0.00    -0.206 F 
ATOM     45  C   UNL A   1      38.243  33.771  37.980  1.00  0.00     0.006 A 
ENDBRANCH  24  38
BRANCH  25  46
ATOM     46  C   UNL A   1      41.636  27.206  27.531  1.00  0.00     0.057 A 
ATOM     47  C   UNL A   1      42.437  27.777  26.536  1.00  0.00     0.134 A 
ATOM     48  C   UNL A   1      41.209  25.887  27.340  1.00  0.00     0.134 A 
ATOM     49  F   UNL A   1      42.863  29.043  26.657  1.00  0.00    -0.206 F 
ATOM     50  C   UNL A   1      42.789  27.068  25.387  1.00  0.00     0.040 A 
ATOM     51  C   UNL A   1      41.576  25.157  26.209  1.00  0.00     0.040 A 
ATOM     52  F   UNL A   1      40.447  25.281  28.263  1.00  0.00    -0.206 F 
ATOM     53  C   UNL A   1      42.363  25.751  25.225  1.00  0.00     0.006 A 
ENDBRANCH  25  46
BRANCH  37  54
ATOM     54  C   UNL A   1      44.213  27.488  33.982  1.00  0.00     0.057 A 
ATOM     55  C   UNL A   1      45.496  28.048  34.015  1.00  0.00     0.134 A 
ATOM     56  C   UNL A   1      44.031  26.245  34.599  1.00  0.00     0.134 A 
ATOM     57  F   UNL A   1      45.737  29.230  33.427  1.00  0.00    -0.206 F 
ATOM     58  C   UNL A   1      46.566  27.382  34.613  1.00  0.00     0.040 A 
ATOM     59  C   UNL A   1      45.087  25.580  35.223  1.00  0.00     0.040 A 
ATOM     60  F   UNL A   1      42.825  25.657  34.608  1.00  0.00    -0.206 F 
ATOM     61  C   UNL A   1      46.361  26.146  35.225  1.00  0.00     0.006 A 
ENDBRANCH  37  54
ENDBRANCH  11  12
ENDBRANCH   4   6
ENDBRANCH   1   2
BRANCH   1  62
ATOM     62  C   UNL A   1      31.153  30.438  25.384  1.00  0.00     0.042 C 
BRANCH  62  63
ATOM     63  C   UNL A   1      31.547  29.147  24.689  1.00  0.00     0.118 C 
BRANCH  63  64
ATOM     64  N   UNL A   1      32.659  29.326  23.763  1.00  0.00    -0.352 N 
ATOM     65  C   UNL A   1      33.516  28.406  23.209  1.00  0.00     0.251 C 
ATOM     66  H   UNL A   1      32.824  30.258  23.493  1.00  0.00     0.163 HD
ATOM     67  O   UNL A   1      34.521  28.790  22.621  1.00  0.00    -0.269 OA
BRANCH  65  68
ATOM     68  C   UNL A   1      33.238  26.958  23.321  1.00  0.00     0.040 A 
ATOM     69  C   UNL A   1      32.422  26.341  22.374  1.00  0.00     0.016 A 
ATOM     70  C   UNL A   1      33.771  26.207  24.367  1.00  0.00     0.020 A 
ATOM     71  C   UNL A   1      32.177  24.968  22.461  1.00  0.00     0.027 A 
ATOM     72  C   UNL A   1      33.615  24.815  24.396  1.00  0.00    -0.017 A 
ATOM     73  C   UNL A   1      32.749  24.194  23.482  1.00  0.00     0.038 A 
ATOM     74  C   UNL A   1      34.411  24.007  25.395  1.00  0.00     0.049 C 
ATOM     75  N   UNL A   1      32.517  22.825  23.520  1.00  0.00    -0.378 N 
ATOM     76  C   UNL A   1      35.902  24.183  25.218  1.00  0.00    -0.023 C 
ATOM     77  C   UNL A   1      34.282  22.488  25.205  1.00  0.00     0.031 C 
ATOM     78  C   UNL A   1      32.887  22.089  24.722  1.00  0.00     0.114 C 
ATOM     79  H   UNL A   1      32.112  22.361  22.751  1.00  0.00     0.161 HD
ATOM     80  C   UNL A   1      36.465  23.134  24.605  1.00  0.00    -0.030 C 
ATOM     81  C   UNL A   1      35.451  22.084  24.288  1.00  0.00     0.034 C 
BRANCH  78  82
ATOM     82  C   UNL A   1      32.766  20.584  24.544  1.00  0.00    -0.022 A 
ATOM     83  C   UNL A   1      32.412  20.073  23.287  1.00  0.00     0.026 A 
ATOM     84  C   UNL A   1      32.955  19.668  25.586  1.00  0.00     0.026 A 
ATOM     85  C   UNL A   1      32.269  18.705  23.128  1.00  0.00     0.111 A 
ATOM     86  C   UNL A   1      32.803  18.314  25.324  1.00  0.00     0.111 A 
ATOM     87  N   UNL A   1      32.462  17.813  24.119  1.00  0.00    -0.265 NA
ENDBRANCH  78  82
ENDBRANCH  65  68
ENDBRANCH  63  64
ENDBRANCH  62  63
ENDBRANCH   1  62
TORSDOF 11
ENDMDL
MODEL 2
REMARK VINA RESULT:     -13.5      4.087      8.957
REMARK SMILES O=C(NCCCNC(=O)c1ccc2c(c1)[C@@H]1C=CC[C@@H]1[C@H](c1ccncc1)N2)c1ccc(-c2c3nc(c(-c4c(F)cccc4F)c4ccc([nH]4)c(-c4c(F)cccc4F)c4nc(c(-c5c(F)cccc5F)c5ccc2[nH]5)C=C4)C=C3)cc1
REMARK SMILES IDX 4 1 3 2 1 3 2 4 29 6 30 7 82 8 31 9 81 10 32 11 33 12 34 13
REMARK SMILES IDX 75 14 35 15 80 16 74 17 76 18 36 19 79 20 73 21 72 22 37 24
REMARK SMILES IDX 63 25 46 26 62 27 47 28 50 29 61 30 77 31 48 32 49 33 60 35
REMARK SMILES IDX 78 36 51 37 38 38 39 39 44 40 40 41 41 42 43 43 45 44 42 45
REMARK SMILES IDX 64 46 65 47 70 48 66 49 67 50 69 51 71 52 68 53 52 54 53 55
REMARK SMILES IDX 58 56 54 57 55 58 57 59 59 60 56 61 5 62 6 63 7 64 8 65 9 67
REMARK SMILES IDX 10 68 11 69 15 70 12 71 14 72 13 73 16 74 28 75 17 76 20 77
REMARK SMILES IDX 21 78 18 80 19 81 22 82 23 83 27 84 24 85 26 86 25 87
REMARK H PARENT 3 5 76 23 50 34 7 66 28 79
REMARK Flexibility Score: inf
ROOT
ATOM      1  C   UNL A   1      38.147  20.834  25.361  1.00  0.00     0.118 C 
ENDROOT
BRANCH   1   2
ATOM      2  N   UNL A   1      39.144  19.775  25.474  1.00  0.00    -0.352 N 
ATOM      3  O   UNL A   1      41.159  18.819  25.771  1.00  0.00    -0.269 OA
ATOM      4  C   UNL A   1      40.446  19.807  25.915  1.00  0.00     0.251 C 
ATOM      5  H   UNL A   1      38.832  18.888  25.186  1.00  0.00     0.163 HD
BRANCH   4   6
ATOM      6  C   UNL A   1      41.005  21.034  26.527  1.00  0.00     0.039 A 
ATOM      7  C   UNL A   1      40.926  21.252  27.900  1.00  0.00     0.014 A 
ATOM      8  C   UNL A   1      41.632  21.981  25.711  1.00  0.00     0.014 A 
ATOM      9  C   UNL A   1      41.270  22.491  28.424  1.00  0.00     0.010 A 
ATOM     10  C   UNL A   1      42.091  23.183  26.261  1.00  0.00     0.010 A 
ATOM     11  C   UNL A   1      41.863  23.472  27.614  1.00  0.00    -0.014 A 
BRANCH  11  12
ATOM     12  C   UNL A   1      42.253  24.771  28.225  1.00  0.00     0.031 A 
ATOM     13  C   UNL A   1      43.691  25.083  28.542  1.00  0.00     0.074 A 
ATOM     14  C   UNL A   1      41.302  25.702  28.436  1.00  0.00     0.049 A 
ATOM     15  N   UNL A   1      44.209  26.191  29.012  1.00  0.00    -0.248 NA
ATOM     16  C   UNL A   1      44.678  24.015  28.314  1.00  0.00     0.031 C 
ATOM     17  C   UNL A   1      39.870  25.515  28.183  1.00  0.00     0.029 A 
ATOM     18  N   UNL A   1      41.393  26.998  28.874  1.00  0.00    -0.354 N 
ATOM     19  C   UNL A   1      45.568  25.946  29.163  1.00  0.00     0.074 A 
ATOM     20  C   UNL A   1      45.794  24.576  28.757  1.00  0.00     0.031 C 
ATOM     21  C   UNL A   1      39.231  26.672  28.401  1.00  0.00     0.029 A 
ATOM     22  C   UNL A   1      40.192  27.663  28.870  1.00  0.00     0.049 A 
ATOM     23  H   UNL A   1      42.239  27.411  29.164  1.00  0.00     0.167 HD
ATOM     24  C   UNL A   1      46.539  26.788  29.593  1.00  0.00     0.037 A 
ATOM     25  C   UNL A   1      39.892  28.930  29.208  1.00  0.00     0.037 A 
ATOM     26  C   UNL A   1      46.317  28.162  29.965  1.00  0.00     0.049 A 
ATOM     27  C   UNL A   1      40.988  29.841  29.676  1.00  0.00     0.074 A 
ATOM     28  C   UNL A   1      47.246  29.107  30.369  1.00  0.00     0.029 A 
ATOM     29  N   UNL A   1      45.081  28.789  29.977  1.00  0.00    -0.354 N 
ATOM     30  N   UNL A   1      42.272  29.602  29.780  1.00  0.00    -0.248 NA
ATOM     31  C   UNL A   1      40.591  31.196  30.076  1.00  0.00     0.031 C 
ATOM     32  C   UNL A   1      46.566  30.293  30.663  1.00  0.00     0.029 A 
ATOM     33  C   UNL A   1      45.219  30.101  30.400  1.00  0.00     0.049 A 
ATOM     34  H   UNL A   1      44.230  28.364  29.723  1.00  0.00     0.167 HD
ATOM     35  C   UNL A   1      42.840  30.780  30.239  1.00  0.00     0.074 A 
ATOM     36  C   UNL A   1      41.762  31.739  30.376  1.00  0.00     0.031 C 
ATOM     37  C   UNL A   1      44.138  31.045  30.526  1.00  0.00     0.037 A 
BRANCH  24  38
ATOM     38  C   UNL A   1      47.933  26.243  29.704  1.00  0.00     0.057 A 
ATOM     39  C   UNL A   1      48.826  26.257  28.625  1.00  0.00     0.134 A 
ATOM     40  C   UNL A   1      48.403  25.734  30.923  1.00  0.00     0.134 A 
ATOM     41  F   UNL A   1      48.439  26.719  27.428  1.00  0.00    -0.206 F 
ATOM     42  C   UNL A   1      50.129  25.767  28.748  1.00  0.00     0.040 A 
ATOM     43  C   UNL A   1      49.709  25.263  31.065  1.00  0.00     0.040 A 
ATOM     44  F   UNL A   1      47.602  25.697  31.999  1.00  0.00    -0.206 F 
ATOM     45  C   UNL A   1      50.575  25.273  29.974  1.00  0.00     0.006 A 
ENDBRANCH  24  38
BRANCH  25  46
ATOM     46  C   UNL A   1      38.492  29.410  29.104  1.00  0.00     0.057 A 
ATOM     47  C   UNL A   1      37.952  29.801  27.874  1.00  0.00     0.134 A 
ATOM     48  C   UNL A   1      37.660  29.480  30.227  1.00  0.00     0.134 A 
ATOM     49  F   UNL A   1      38.708  29.771  26.765  1.00  0.00    -0.206 F 
ATOM     50  C   UNL A   1      36.638  30.257  27.765  1.00  0.00     0.040 A 
ATOM     51  C   UNL A   1      36.335  29.909  30.129  1.00  0.00     0.040 A 
ATOM     52  F   UNL A   1      38.116  29.110  31.433  1.00  0.00    -0.206 F 
ATOM     53  C   UNL A   1      35.824  30.305  28.895  1.00  0.00     0.006 A 
ENDBRANCH  25  46
BRANCH  37  54
ATOM     54  C   UNL A   1      44.462  32.437  30.981  1.00  0.00     0.057 A 
ATOM     55  C   UNL A   1      44.493  32.782  32.338  1.00  0.00     0.134 A 
ATOM     56  C   UNL A   1      44.760  33.438  30.050  1.00  0.00     0.134 A 
ATOM     57  F   UNL A   1      44.201  31.870  33.278  1.00  0.00    -0.206 F 
ATOM     58  C   UNL A   1      44.780  34.083  32.752  1.00  0.00     0.040 A 
ATOM     59  C   UNL A   1      45.074  34.737  30.451  1.00  0.00     0.040 A 
ATOM     60  F   UNL A   1      44.754  33.171  28.735  1.00  0.00    -0.206 F 
ATOM     61  C   UNL A   1      45.077  35.063  31.806  1.00  0.00     0.006 A 
ENDBRANCH  37  54
ENDBRANCH  11  12
ENDBRANCH   4   6
ENDBRANCH   1   2
BRANCH   1  62
ATOM     62  C   UNL A   1      36.790  20.331  24.902  1.00  0.00     0.042 C 
BRANCH  62  63
ATOM     63  C   UNL A   1      35.661  21.326  25.107  1.00  0.00     0.118 C 
BRANCH  63  64
ATOM     64  N   UNL A   1      35.244  21.420  26.501  1.00  0.00    -0.352 N 
ATOM     65  C   UNL A   1      34.390  22.301  27.119  1.00  0.00     0.251 C 
ATOM     66  H   UNL A   1      35.640  20.743  27.096  1.00  0.00     0.163 HD
ATOM     67  O   UNL A   1      34.341  22.340  28.344  1.00  0.00    -0.269 OA
BRANCH  65  68
ATOM     68  C   UNL A   1      33.535  23.205  26.320  1.00  0.00     0.040 A 
ATOM     69  C   UNL A   1      32.265  22.782  25.933  1.00  0.00     0.016 A 
ATOM     70  C   UNL A   1      33.988  24.467  25.941  1.00  0.00     0.020 A 
ATOM     71  C   UNL A   1      31.443  23.642  25.199  1.00  0.00     0.027 A 
ATOM     72  C   UNL A   1      33.129  25.369  25.300  1.00  0.00    -0.017 A 
ATOM     73  C   UNL A   1      31.872  24.933  24.855  1.00  0.00     0.038 A 
ATOM     74  C   UNL A   1      33.567  26.805  25.130  1.00  0.00     0.049 C 
ATOM     75  N   UNL A   1      31.017  25.778  24.157  1.00  0.00    -0.378 N 
ATOM     76  C   UNL A   1      33.849  27.480  26.452  1.00  0.00    -0.023 C 
ATOM     77  C   UNL A   1      32.469  27.725  24.573  1.00  0.00     0.031 C 
ATOM     78  C   UNL A   1      31.565  26.997  23.576  1.00  0.00     0.114 C 
ATOM     79  H   UNL A   1      30.062  25.559  24.058  1.00  0.00     0.161 HD
ATOM     80  C   UNL A   1      32.859  28.301  26.822  1.00  0.00    -0.030 C 
ATOM     81  C   UNL A   1      31.765  28.322  25.805  1.00  0.00     0.034 C 
BRANCH  78  82
ATOM     82  C   UNL A   1      30.486  27.916  23.026  1.00  0.00    -0.022 A 
ATOM     83  C   UNL A   1      30.867  29.057  22.304  1.00  0.00     0.026 A 
ATOM     84  C   UNL A   1      29.118  27.707  23.232  1.00  0.00     0.026 A 
ATOM     85  C   UNL A   1      29.889  29.915  21.828  1.00  0.00     0.111 A 
ATOM     86  C   UNL A   1      28.213  28.615  22.703  1.00  0.00     0.111 A 
ATOM     87  N   UNL A   1      28.568  29.716  22.008  1.00  0.00    -0.265 NA
ENDBRANCH  78  82
ENDBRANCH  65  68
ENDBRANCH  63  64
ENDBRANCH  62  63
ENDBRANCH   1  62
TORSDOF 11
ENDMDL
MODEL 3
REMARK VINA RESULT:     -13.4      2.984      7.823
REMARK SMILES O=C(NCCCNC(=O)c1ccc2c(c1)[C@@H]1C=CC[C@@H]1[C@H](c1ccncc1)N2)c1ccc(-c2c3nc(c(-c4c(F)cccc4F)c4ccc([nH]4)c(-c4c(F)cccc4F)c4nc(c(-c5c(F)cccc5F)c5ccc2[nH]5)C=C4)C=C3)cc1
REMARK SMILES IDX 4 1 3 2 1 3 2 4 29 6 30 7 82 8 31 9 81 10 32 11 33 12 34 13
REMARK SMILES IDX 75 14 35 15 80 16 74 17 76 18 36 19 79 20 73 21 72 22 37 24
REMARK SMILES IDX 63 25 46 26 62 27 47 28 50 29 61 30 77 31 48 32 49 33 60 35
REMARK SMILES IDX 78 36 51 37 38 38 39 39 44 40 40 41 41 42 43 43 45 44 42 45
REMARK SMILES IDX 64 46 65 47 70 48 66 49 67 50 69 51 71 52 68 53 52 54 53 55
REMARK SMILES IDX 58 56 54 57 55 58 57 59 59 60 56 61 5 62 6 63 7 64 8 65 9 67
REMARK SMILES IDX 10 68 11 69 15 70 12 71 14 72 13 73 16 74 28 75 17 76 20 77
REMARK SMILES IDX 21 78 18 80 19 81 22 82 23 83 27 84 24 85 26 86 25 87
REMARK H PARENT 3 5 76 23 50 34 7 66 28 79
REMARK Flexibility Score: inf
ROOT
ATOM      1  C   UNL A   1      37.991  23.658  26.443  1.00  0.00     0.118 C 
ENDROOT
BRANCH   1   2
ATOM      2  N   UNL A   1      39.415  23.549  26.148  1.00  0.00    -0.352 N 
ATOM      3  O   UNL A   1      41.575  24.161  25.994  1.00  0.00    -0.269 OA
ATOM      4  C   UNL A   1      40.470  24.362  26.489  1.00  0.00     0.251 C 
ATOM      5  H   UNL A   1      39.662  22.760  25.615  1.00  0.00     0.163 HD
BRANCH   4   6
ATOM      6  C   UNL A   1      40.278  25.497  27.420  1.00  0.00     0.039 A 
ATOM      7  C   UNL A   1      40.924  26.713  27.213  1.00  0.00     0.014 A 
ATOM      8  C   UNL A   1      39.425  25.345  28.518  1.00  0.00     0.014 A 
ATOM      9  C   UNL A   1      40.894  27.690  28.200  1.00  0.00     0.010 A 
ATOM     10  C   UNL A   1      39.298  26.379  29.452  1.00  0.00     0.010 A 
ATOM     11  C   UNL A   1      40.076  27.540  29.331  1.00  0.00    -0.014 A 
BRANCH  11  12
ATOM     12  C   UNL A   1      40.041  28.628  30.344  1.00  0.00     0.031 A 
ATOM     13  C   UNL A   1      39.019  29.730  30.271  1.00  0.00     0.074 A 
ATOM     14  C   UNL A   1      40.906  28.581  31.377  1.00  0.00     0.049 A 
ATOM     15  N   UNL A   1      38.809  30.714  31.109  1.00  0.00    -0.248 NA
ATOM     16  C   UNL A   1      38.122  29.740  29.104  1.00  0.00     0.031 C 
ATOM     17  C   UNL A   1      41.954  27.572  31.553  1.00  0.00     0.029 A 
ATOM     18  N   UNL A   1      41.022  29.374  32.489  1.00  0.00    -0.354 N 
ATOM     19  C   UNL A   1      37.782  31.473  30.560  1.00  0.00     0.074 A 
ATOM     20  C   UNL A   1      37.425  30.849  29.305  1.00  0.00     0.031 C 
ATOM     21  C   UNL A   1      42.555  27.763  32.735  1.00  0.00     0.029 A 
ATOM     22  C   UNL A   1      41.983  28.944  33.371  1.00  0.00     0.049 A 
ATOM     23  H   UNL A   1      40.469  30.175  32.641  1.00  0.00     0.167 HD
ATOM     24  C   UNL A   1      37.186  32.583  31.061  1.00  0.00     0.037 A 
ATOM     25  C   UNL A   1      42.367  29.444  34.559  1.00  0.00     0.037 A 
ATOM     26  C   UNL A   1      37.520  33.183  32.328  1.00  0.00     0.049 A 
ATOM     27  C   UNL A   1      41.686  30.670  35.091  1.00  0.00     0.074 A 
ATOM     28  C   UNL A   1      36.940  34.281  32.941  1.00  0.00     0.029 A 
ATOM     29  N   UNL A   1      38.520  32.735  33.176  1.00  0.00    -0.354 N 
ATOM     30  N   UNL A   1      40.694  31.354  34.575  1.00  0.00    -0.248 NA
ATOM     31  C   UNL A   1      42.181  31.195  36.370  1.00  0.00     0.031 C 
ATOM     32  C   UNL A   1      37.617  34.521  34.142  1.00  0.00     0.029 A 
ATOM     33  C   UNL A   1      38.589  33.547  34.298  1.00  0.00     0.049 A 
ATOM     34  H   UNL A   1      39.098  31.957  33.007  1.00  0.00     0.167 HD
ATOM     35  C   UNL A   1      40.433  32.378  35.472  1.00  0.00     0.074 A 
ATOM     36  C   UNL A   1      41.359  32.214  36.575  1.00  0.00     0.031 C 
ATOM     37  C   UNL A   1      39.511  33.368  35.389  1.00  0.00     0.037 A 
BRANCH  24  38
ATOM     38  C   UNL A   1      36.121  33.236  30.229  1.00  0.00     0.057 A 
ATOM     39  C   UNL A   1      36.426  34.005  29.099  1.00  0.00     0.134 A 
ATOM     40  C   UNL A   1      34.766  33.057  30.540  1.00  0.00     0.134 A 
ATOM     41  F   UNL A   1      37.703  34.226  28.751  1.00  0.00    -0.206 F 
ATOM     42  C   UNL A   1      35.424  34.589  28.320  1.00  0.00     0.040 A 
ATOM     43  C   UNL A   1      33.756  33.616  29.757  1.00  0.00     0.040 A 
ATOM     44  F   UNL A   1      34.404  32.326  31.605  1.00  0.00    -0.206 F 
ATOM     45  C   UNL A   1      34.083  34.389  28.646  1.00  0.00     0.006 A 
ENDBRANCH  24  38
BRANCH  25  46
ATOM     46  C   UNL A   1      43.443  28.773  35.329  1.00  0.00     0.057 A 
ATOM     47  C   UNL A   1      44.789  29.086  35.111  1.00  0.00     0.134 A 
ATOM     48  C   UNL A   1      43.152  27.813  36.305  1.00  0.00     0.134 A 
ATOM     49  F   UNL A   1      45.130  29.986  34.176  1.00  0.00    -0.206 F 
ATOM     50  C   UNL A   1      45.810  28.458  35.826  1.00  0.00     0.040 A 
ATOM     51  C   UNL A   1      44.160  27.197  37.047  1.00  0.00     0.040 A 
ATOM     52  F   UNL A   1      41.880  27.478  36.567  1.00  0.00    -0.206 F 
ATOM     53  C   UNL A   1      45.494  27.515  36.803  1.00  0.00     0.006 A 
ENDBRANCH  25  46
BRANCH  37  54
ATOM     54  C   UNL A   1      39.440  34.326  36.541  1.00  0.00     0.057 A 
ATOM     55  C   UNL A   1      40.085  35.569  36.509  1.00  0.00     0.134 A 
ATOM     56  C   UNL A   1      38.706  34.005  37.689  1.00  0.00     0.134 A 
ATOM     57  F   UNL A   1      40.818  35.927  35.443  1.00  0.00    -0.206 F 
ATOM     58  C   UNL A   1      40.027  36.448  37.591  1.00  0.00     0.040 A 
ATOM     59  C   UNL A   1      38.619  34.886  38.767  1.00  0.00     0.040 A 
ATOM     60  F   UNL A   1      38.060  32.833  37.780  1.00  0.00    -0.206 F 
ATOM     61  C   UNL A   1      39.287  36.109  38.723  1.00  0.00     0.006 A 
ENDBRANCH  37  54
ENDBRANCH  11  12
ENDBRANCH   4   6
ENDBRANCH   1   2
BRANCH   1  62
ATOM     62  C   UNL A   1      37.125  23.713  25.196  1.00  0.00     0.042 C 
BRANCH  62  63
ATOM     63  C   UNL A   1      36.166  22.542  25.059  1.00  0.00     0.118 C 
BRANCH  63  64
ATOM     64  N   UNL A   1      35.517  22.200  26.318  1.00  0.00    -0.352 N 
ATOM     65  C   UNL A   1      34.384  22.709  26.904  1.00  0.00     0.251 C 
ATOM     66  H   UNL A   1      35.964  21.490  26.833  1.00  0.00     0.163 HD
ATOM     67  O   UNL A   1      34.127  22.431  28.071  1.00  0.00    -0.269 OA
BRANCH  65  68
ATOM     68  C   UNL A   1      33.475  23.592  26.142  1.00  0.00     0.040 A 
ATOM     69  C   UNL A   1      32.231  23.111  25.737  1.00  0.00     0.016 A 
ATOM     70  C   UNL A   1      33.852  24.894  25.814  1.00  0.00     0.020 A 
ATOM     71  C   UNL A   1      31.359  23.950  25.038  1.00  0.00     0.027 A 
ATOM     72  C   UNL A   1      32.940  25.768  25.209  1.00  0.00    -0.017 A 
ATOM     73  C   UNL A   1      31.709  25.276  24.746  1.00  0.00     0.038 A 
ATOM     74  C   UNL A   1      33.291  27.234  25.097  1.00  0.00     0.049 C 
ATOM     75  N   UNL A   1      30.805  26.097  24.082  1.00  0.00    -0.378 N 
ATOM     76  C   UNL A   1      33.535  27.870  26.447  1.00  0.00    -0.023 C 
ATOM     77  C   UNL A   1      32.139  28.108  24.578  1.00  0.00     0.031 C 
ATOM     78  C   UNL A   1      31.279  27.369  23.552  1.00  0.00     0.114 C 
ATOM     79  H   UNL A   1      29.865  25.825  23.973  1.00  0.00     0.161 HD
ATOM     80  C   UNL A   1      32.498  28.616  26.849  1.00  0.00    -0.030 C 
ATOM     81  C   UNL A   1      31.403  28.612  25.833  1.00  0.00     0.034 C 
BRANCH  78  82
ATOM     82  C   UNL A   1      30.146  28.244  23.038  1.00  0.00    -0.022 A 
ATOM     83  C   UNL A   1      30.457  29.428  22.355  1.00  0.00     0.026 A 
ATOM     84  C   UNL A   1      28.793  27.950  23.242  1.00  0.00     0.026 A 
ATOM     85  C   UNL A   1      29.429  30.245  21.914  1.00  0.00     0.111 A 
ATOM     86  C   UNL A   1      27.835  28.823  22.749  1.00  0.00     0.111 A 
ATOM     87  N   UNL A   1      28.123  29.965  22.091  1.00  0.00    -0.265 NA
ENDBRANCH  78  82
ENDBRANCH  65  68
ENDBRANCH  63  64
ENDBRANCH  62  63
ENDBRANCH   1  62
TORSDOF 11
ENDMDL
