MODEL 1
REMARK VINA RESULT:     -12.2      0.000      0.000
REMARK SMILES C=C1c2ccccc2C(=O)N1[C@](C)(C(=O)NCCCNC(=O)c1ccc(-c2c3nc(c(-c4c(F)cccc4F)c4ccc([nH]4)c(-c4c(F)cccc4F)c4nc(c(-c5c(F)cccc5F)c5ccc2[nH]5)C=C4)C=C3)cc1)C(F)(F)F
REMARK SMILES IDX 18 1 17 2 16 3 14 4 15 5 12 7 13 8 11 9 1 10 2 11 3 12 4 13
REMARK SMILES IDX 8 14 9 15 5 16 7 17 10 18 6 19 77 20 78 21 79 22 80 23 19 24
REMARK SMILES IDX 20 25 21 26 22 28 23 29 24 30 76 31 25 32 75 33 26 34 27 35
REMARK SMILES IDX 28 36 69 37 29 38 74 39 68 40 70 41 30 42 73 43 67 44 66 45
REMARK SMILES IDX 31 47 57 48 40 49 56 50 41 51 44 52 55 53 71 54 42 55 43 56
REMARK SMILES IDX 54 58 72 59 45 60 32 61 33 62 38 63 34 64 35 65 37 66 39 67
REMARK SMILES IDX 36 68 58 69 59 70 64 71 60 72 61 73 63 74 65 75 62 76 46 77
REMARK SMILES IDX 47 78 52 79 48 80 49 81 51 82 53 83 50 84
REMARK H PARENT 16 6 20 27 70 46 44 57
REMARK Flexibility Score: inf
ROOT
ATOM      1  C   UNL A   1      32.438  28.121  27.623  1.00  0.00     0.042 C 
ENDROOT
BRANCH   1   2
ATOM      2  C   UNL A   1      31.442  27.858  26.509  1.00  0.00     0.117 C 
BRANCH   2   3
ATOM      3  N   UNL A   1      30.695  26.620  26.649  1.00  0.00    -0.354 N 
ATOM      4  C   UNL A   1      30.671  25.483  25.894  1.00  0.00     0.255 C 
ATOM      5  O   UNL A   1      30.357  24.478  26.548  1.00  0.00    -0.272 OA
ATOM      6  H   UNL A   1      30.097  26.596  27.432  1.00  0.00     0.163 HD
BRANCH   4   7
ATOM      7  C   UNL A   1      31.085  25.373  24.395  1.00  0.00     0.219 C 
ATOM      8  C   UNL A   1      30.659  24.054  23.710  1.00  0.00     0.056 C 
BRANCH   7   9
ATOM      9  N   UNL A   1      30.551  26.577  23.670  1.00  0.00    -0.285 N 
ATOM     10  C   UNL A   1      32.434  27.548  22.360  1.00  0.00     0.038 C 
ATOM     11  C   UNL A   1      31.198  27.517  22.861  1.00  0.00     0.046 C 
ATOM     12  C   UNL A   1      30.219  28.572  22.541  1.00  0.00     0.010 A 
ATOM     13  C   UNL A   1      30.288  29.766  21.842  1.00  0.00     0.011 A 
ATOM     14  C   UNL A   1      29.012  28.204  23.113  1.00  0.00     0.049 A 
ATOM     15  C   UNL A   1      29.198  26.917  23.761  1.00  0.00     0.260 C 
ATOM     16  C   UNL A   1      29.137  30.568  21.757  1.00  0.00     0.001 A 
ATOM     17  C   UNL A   1      27.861  28.973  23.058  1.00  0.00     0.014 A 
ATOM     18  O   UNL A   1      28.255  26.317  24.245  1.00  0.00    -0.269 OA
ATOM     19  C   UNL A   1      27.934  30.178  22.368  1.00  0.00     0.001 A 
ENDBRANCH   7   9
BRANCH   7  20
ATOM     20  C   UNL A   1      32.628  25.231  24.540  1.00  0.00     0.420 C 
ATOM     21  F   UNL A   1      32.947  24.279  25.460  1.00  0.00    -0.168 F 
ATOM     22  F   UNL A   1      33.192  24.804  23.376  1.00  0.00    -0.168 F 
ATOM     23  F   UNL A   1      33.285  26.355  24.895  1.00  0.00    -0.168 F 
ENDBRANCH   7  20
ENDBRANCH   4   7
ENDBRANCH   2   3
ENDBRANCH   1   2
BRANCH   1  24
ATOM     24  C   UNL A   1      33.655  28.925  27.194  1.00  0.00     0.118 C 
BRANCH  24  25
ATOM     25  N   UNL A   1      33.756  30.230  27.838  1.00  0.00    -0.352 N 
ATOM     26  C   UNL A   1      34.777  30.846  28.523  1.00  0.00     0.251 C 
ATOM     27  H   UNL A   1      32.938  30.772  27.769  1.00  0.00     0.163 HD
ATOM     28  O   UNL A   1      34.560  31.917  29.086  1.00  0.00    -0.269 OA
BRANCH  26  29
ATOM     29  C   UNL A   1      36.119  30.229  28.635  1.00  0.00     0.039 A 
ATOM     30  C   UNL A   1      36.978  30.275  27.531  1.00  0.00     0.014 A 
ATOM     31  C   UNL A   1      36.533  29.578  29.795  1.00  0.00     0.014 A 
ATOM     32  C   UNL A   1      38.276  29.762  27.631  1.00  0.00     0.010 A 
ATOM     33  C   UNL A   1      37.858  29.179  29.935  1.00  0.00     0.010 A 
ATOM     34  C   UNL A   1      38.747  29.261  28.854  1.00  0.00    -0.014 A 
BRANCH  34  35
ATOM     35  C   UNL A   1      40.149  28.798  29.036  1.00  0.00     0.031 A 
ATOM     36  C   UNL A   1      41.185  29.739  29.593  1.00  0.00     0.074 A 
ATOM     37  C   UNL A   1      40.515  27.572  28.612  1.00  0.00     0.049 A 
ATOM     38  N   UNL A   1      42.484  29.595  29.664  1.00  0.00    -0.248 NA
ATOM     39  C   UNL A   1      40.700  31.035  30.096  1.00  0.00     0.031 C 
ATOM     40  C   UNL A   1      39.626  26.579  28.004  1.00  0.00     0.029 A 
ATOM     41  N   UNL A   1      41.742  26.957  28.612  1.00  0.00    -0.354 N 
ATOM     42  C   UNL A   1      42.970  30.792  30.177  1.00  0.00     0.074 A 
ATOM     43  C   UNL A   1      41.834  31.669  30.356  1.00  0.00     0.031 C 
ATOM     44  C   UNL A   1      40.330  25.472  27.717  1.00  0.00     0.029 A 
ATOM     45  C   UNL A   1      41.726  25.691  28.077  1.00  0.00     0.049 A 
ATOM     46  H   UNL A   1      42.558  27.383  28.963  1.00  0.00     0.167 HD
ATOM     47  C   UNL A   1      44.244  31.123  30.493  1.00  0.00     0.037 A 
ATOM     48  C   UNL A   1      42.727  24.810  27.890  1.00  0.00     0.037 A 
ATOM     49  C   UNL A   1      45.365  30.231  30.379  1.00  0.00     0.049 A 
ATOM     50  C   UNL A   1      44.124  25.185  28.298  1.00  0.00     0.074 A 
ATOM     51  C   UNL A   1      46.684  30.452  30.734  1.00  0.00     0.029 A 
ATOM     52  N   UNL A   1      45.291  28.935  29.893  1.00  0.00    -0.354 N 
ATOM     53  N   UNL A   1      44.560  26.308  28.812  1.00  0.00    -0.248 NA
ATOM     54  C   UNL A   1      45.166  24.167  28.101  1.00  0.00     0.031 C 
ATOM     55  C   UNL A   1      47.414  29.293  30.447  1.00  0.00     0.029 A 
ATOM     56  C   UNL A   1      46.542  28.343  29.939  1.00  0.00     0.049 A 
ATOM     57  H   UNL A   1      44.472  28.500  29.563  1.00  0.00     0.167 HD
ATOM     58  C   UNL A   1      45.920  26.125  29.025  1.00  0.00     0.074 A 
ATOM     59  C   UNL A   1      46.235  24.778  28.595  1.00  0.00     0.031 C 
ATOM     60  C   UNL A   1      46.828  26.994  29.528  1.00  0.00     0.037 A 
BRANCH  47  61
ATOM     61  C   UNL A   1      44.487  32.507  31.018  1.00  0.00     0.057 A 
ATOM     62  C   UNL A   1      44.776  33.578  30.163  1.00  0.00     0.134 A 
ATOM     63  C   UNL A   1      44.399  32.780  32.389  1.00  0.00     0.134 A 
ATOM     64  F   UNL A   1      44.888  33.380  28.840  1.00  0.00    -0.206 F 
ATOM     65  C   UNL A   1      44.993  34.867  30.653  1.00  0.00     0.040 A 
ATOM     66  C   UNL A   1      44.591  34.070  32.890  1.00  0.00     0.040 A 
ATOM     67  F   UNL A   1      44.121  31.801  33.262  1.00  0.00    -0.206 F 
ATOM     68  C   UNL A   1      44.894  35.116  32.020  1.00  0.00     0.006 A 
ENDBRANCH  47  61
BRANCH  48  69
ATOM     69  C   UNL A   1      42.445  23.471  27.314  1.00  0.00     0.057 A 
ATOM     70  C   UNL A   1      42.110  22.393  28.140  1.00  0.00     0.134 A 
ATOM     71  C   UNL A   1      42.521  23.232  25.938  1.00  0.00     0.134 A 
ATOM     72  F   UNL A   1      42.041  22.557  29.470  1.00  0.00    -0.206 F 
ATOM     73  C   UNL A   1      41.882  21.118  27.622  1.00  0.00     0.040 A 
ATOM     74  C   UNL A   1      42.275  21.967  25.402  1.00  0.00     0.040 A 
ATOM     75  F   UNL A   1      42.830  24.228  25.093  1.00  0.00    -0.206 F 
ATOM     76  C   UNL A   1      41.962  20.903  26.247  1.00  0.00     0.006 A 
ENDBRANCH  48  69
BRANCH  60  77
ATOM     77  C   UNL A   1      48.234  26.501  29.682  1.00  0.00     0.057 A 
ATOM     78  C   UNL A   1      49.183  26.654  28.665  1.00  0.00     0.134 A 
ATOM     79  C   UNL A   1      48.651  25.904  30.879  1.00  0.00     0.134 A 
ATOM     80  F   UNL A   1      48.839  27.206  27.492  1.00  0.00    -0.206 F 
ATOM     81  C   UNL A   1      50.498  26.213  28.826  1.00  0.00     0.040 A 
ATOM     82  C   UNL A   1      49.966  25.478  31.059  1.00  0.00     0.040 A 
ATOM     83  F   UNL A   1      47.789  25.736  31.893  1.00  0.00    -0.206 F 
ATOM     84  C   UNL A   1      50.893  25.629  30.028  1.00  0.00     0.006 A 
ENDBRANCH  60  77
ENDBRANCH  34  35
ENDBRANCH  26  29
ENDBRANCH  24  25
ENDBRANCH   1  24
TORSDOF 12
ENDMDL
MODEL 2
REMARK VINA RESULT:     -12.1      1.734      3.454
REMARK SMILES C=C1c2ccccc2C(=O)N1[C@](C)(C(=O)NCCCNC(=O)c1ccc(-c2c3nc(c(-c4c(F)cccc4F)c4ccc([nH]4)c(-c4c(F)cccc4F)c4nc(c(-c5c(F)cccc5F)c5ccc2[nH]5)C=C4)C=C3)cc1)C(F)(F)F
REMARK SMILES IDX 18 1 17 2 16 3 14 4 15 5 12 7 13 8 11 9 1 10 2 11 3 12 4 13
REMARK SMILES IDX 8 14 9 15 5 16 7 17 10 18 6 19 77 20 78 21 79 22 80 23 19 24
REMARK SMILES IDX 20 25 21 26 22 28 23 29 24 30 76 31 25 32 75 33 26 34 27 35
REMARK SMILES IDX 28 36 69 37 29 38 74 39 68 40 70 41 30 42 73 43 67 44 66 45
REMARK SMILES IDX 31 47 57 48 40 49 56 50 41 51 44 52 55 53 71 54 42 55 43 56
REMARK SMILES IDX 54 58 72 59 45 60 32 61 33 62 38 63 34 64 35 65 37 66 39 67
REMARK SMILES IDX 36 68 58 69 59 70 64 71 60 72 61 73 63 74 65 75 62 76 46 77
REMARK SMILES IDX 47 78 52 79 48 80 49 81 51 82 53 83 50 84
REMARK H PARENT 16 6 20 27 70 46 44 57
REMARK Flexibility Score: inf
ROOT
ATOM      1  C   UNL A   1      33.974  28.592  25.780  1.00  0.00     0.042 C 
ENDROOT
BRANCH   1   2
ATOM      2  C   UNL A   1      33.944  27.179  25.225  1.00  0.00     0.117 C 
BRANCH   2   3
ATOM      3  N   UNL A   1      33.272  27.050  23.943  1.00  0.00    -0.354 N 
ATOM      4  C   UNL A   1      32.200  26.304  23.550  1.00  0.00     0.255 C 
ATOM      5  O   UNL A   1      31.588  26.805  22.595  1.00  0.00    -0.272 OA
ATOM      6  H   UNL A   1      33.662  27.604  23.228  1.00  0.00     0.163 HD
BRANCH   4   7
ATOM      7  C   UNL A   1      31.681  25.010  24.250  1.00  0.00     0.219 C 
ATOM      8  C   UNL A   1      30.532  24.297  23.502  1.00  0.00     0.056 C 
BRANCH   7   9
ATOM      9  N   UNL A   1      32.853  24.096  24.475  1.00  0.00    -0.285 N 
ATOM     10  C   UNL A   1      32.476  22.931  26.645  1.00  0.00     0.038 C 
ATOM     11  C   UNL A   1      33.174  23.274  25.561  1.00  0.00     0.046 C 
ATOM     12  C   UNL A   1      34.518  22.721  25.312  1.00  0.00     0.010 A 
ATOM     13  C   UNL A   1      35.372  21.908  26.040  1.00  0.00     0.011 A 
ATOM     14  C   UNL A   1      34.931  23.176  24.070  1.00  0.00     0.049 A 
ATOM     15  C   UNL A   1      33.858  23.980  23.510  1.00  0.00     0.260 C 
ATOM     16  C   UNL A   1      36.630  21.592  25.500  1.00  0.00     0.001 A 
ATOM     17  C   UNL A   1      36.166  22.893  23.511  1.00  0.00     0.014 A 
ATOM     18  O   UNL A   1      33.923  24.406  22.371  1.00  0.00    -0.269 OA
ATOM     19  C   UNL A   1      37.028  22.089  24.247  1.00  0.00     0.001 A 
ENDBRANCH   7   9
BRANCH   7  20
ATOM     20  C   UNL A   1      30.983  25.627  25.496  1.00  0.00     0.420 C 
ATOM     21  F   UNL A   1      30.343  26.785  25.176  1.00  0.00    -0.168 F 
ATOM     22  F   UNL A   1      30.008  24.801  25.970  1.00  0.00    -0.168 F 
ATOM     23  F   UNL A   1      31.793  25.902  26.541  1.00  0.00    -0.168 F 
ENDBRANCH   7  20
ENDBRANCH   4   7
ENDBRANCH   2   3
ENDBRANCH   1   2
BRANCH   1  24
ATOM     24  C   UNL A   1      33.615  28.689  27.254  1.00  0.00     0.118 C 
BRANCH  24  25
ATOM     25  N   UNL A   1      33.719  30.039  27.798  1.00  0.00    -0.352 N 
ATOM     26  C   UNL A   1      34.751  30.713  28.408  1.00  0.00     0.251 C 
ATOM     27  H   UNL A   1      32.893  30.567  27.714  1.00  0.00     0.163 HD
ATOM     28  O   UNL A   1      34.538  31.820  28.897  1.00  0.00    -0.269 OA
BRANCH  26  29
ATOM     29  C   UNL A   1      36.102  30.118  28.526  1.00  0.00     0.039 A 
ATOM     30  C   UNL A   1      36.972  30.194  27.431  1.00  0.00     0.014 A 
ATOM     31  C   UNL A   1      36.517  29.462  29.682  1.00  0.00     0.014 A 
ATOM     32  C   UNL A   1      38.277  29.703  27.538  1.00  0.00     0.010 A 
ATOM     33  C   UNL A   1      37.848  29.085  29.831  1.00  0.00     0.010 A 
ATOM     34  C   UNL A   1      38.745  29.195  28.759  1.00  0.00    -0.014 A 
BRANCH  34  35
ATOM     35  C   UNL A   1      40.154  28.755  28.950  1.00  0.00     0.031 A 
ATOM     36  C   UNL A   1      41.173  29.716  29.505  1.00  0.00     0.074 A 
ATOM     37  C   UNL A   1      40.540  27.532  28.536  1.00  0.00     0.049 A 
ATOM     38  N   UNL A   1      42.474  29.592  29.582  1.00  0.00    -0.248 NA
ATOM     39  C   UNL A   1      40.666  31.008  29.997  1.00  0.00     0.031 C 
ATOM     40  C   UNL A   1      39.669  26.521  27.932  1.00  0.00     0.029 A 
ATOM     41  N   UNL A   1      41.777  26.936  28.545  1.00  0.00    -0.354 N 
ATOM     42  C   UNL A   1      42.939  30.800  30.087  1.00  0.00     0.074 A 
ATOM     43  C   UNL A   1      41.789  31.660  30.256  1.00  0.00     0.031 C 
ATOM     44  C   UNL A   1      40.391  25.423  27.655  1.00  0.00     0.029 A 
ATOM     45  C   UNL A   1      41.782  25.666  28.019  1.00  0.00     0.049 A 
ATOM     46  H   UNL A   1      42.584  27.377  28.896  1.00  0.00     0.167 HD
ATOM     47  C   UNL A   1      44.207  31.153  30.407  1.00  0.00     0.037 A 
ATOM     48  C   UNL A   1      42.797  24.799  27.842  1.00  0.00     0.037 A 
ATOM     49  C   UNL A   1      45.341  30.277  30.303  1.00  0.00     0.049 A 
ATOM     50  C   UNL A   1      44.186  25.198  28.252  1.00  0.00     0.074 A 
ATOM     51  C   UNL A   1      46.656  30.521  30.661  1.00  0.00     0.029 A 
ATOM     52  N   UNL A   1      45.290  28.977  29.825  1.00  0.00    -0.354 N 
ATOM     53  N   UNL A   1      44.604  26.332  28.760  1.00  0.00    -0.248 NA
ATOM     54  C   UNL A   1      45.245  24.196  28.067  1.00  0.00     0.031 C 
ATOM     55  C   UNL A   1      47.404  29.371  30.385  1.00  0.00     0.029 A 
ATOM     56  C   UNL A   1      46.549  28.405  29.881  1.00  0.00     0.049 A 
ATOM     57  H   UNL A   1      44.479  28.527  29.495  1.00  0.00     0.167 HD
ATOM     58  C   UNL A   1      45.965  26.171  28.980  1.00  0.00     0.074 A 
ATOM     59  C   UNL A   1      46.302  24.826  28.561  1.00  0.00     0.031 C 
ATOM     60  C   UNL A   1      46.858  27.057  29.480  1.00  0.00     0.037 A 
BRANCH  47  61
ATOM     61  C   UNL A   1      44.426  32.544  30.923  1.00  0.00     0.057 A 
ATOM     62  C   UNL A   1      44.363  32.840  32.291  1.00  0.00     0.134 A 
ATOM     63  C   UNL A   1      44.736  33.593  30.048  1.00  0.00     0.134 A 
ATOM     64  F   UNL A   1      44.057  31.882  33.179  1.00  0.00    -0.206 F 
ATOM     65  C   UNL A   1      44.577  34.134  32.768  1.00  0.00     0.040 A 
ATOM     66  C   UNL A   1      44.976  34.887  30.516  1.00  0.00     0.040 A 
ATOM     67  F   UNL A   1      44.817  33.377  28.727  1.00  0.00    -0.206 F 
ATOM     68  C   UNL A   1      44.890  35.160  31.880  1.00  0.00     0.006 A 
ENDBRANCH  47  61
BRANCH  48  69
ATOM     69  C   UNL A   1      42.538  23.453  27.274  1.00  0.00     0.057 A 
ATOM     70  C   UNL A   1      42.176  22.384  28.103  1.00  0.00     0.134 A 
ATOM     71  C   UNL A   1      42.663  23.195  25.905  1.00  0.00     0.134 A 
ATOM     72  F   UNL A   1      42.059  22.567  29.426  1.00  0.00    -0.206 F 
ATOM     73  C   UNL A   1      41.968  21.102  27.593  1.00  0.00     0.040 A 
ATOM     74  C   UNL A   1      42.438  21.922  25.378  1.00  0.00     0.040 A 
ATOM     75  F   UNL A   1      43.001  24.180  25.058  1.00  0.00    -0.206 F 
ATOM     76  C   UNL A   1      42.097  20.870  26.225  1.00  0.00     0.006 A 
ENDBRANCH  48  69
BRANCH  60  77
ATOM     77  C   UNL A   1      48.271  26.588  29.643  1.00  0.00     0.057 A 
ATOM     78  C   UNL A   1      49.236  26.799  28.652  1.00  0.00     0.134 A 
ATOM     79  C   UNL A   1      48.676  25.952  30.824  1.00  0.00     0.134 A 
ATOM     80  F   UNL A   1      48.903  27.391  27.495  1.00  0.00    -0.206 F 
ATOM     81  C   UNL A   1      50.556  26.379  28.822  1.00  0.00     0.040 A 
ATOM     82  C   UNL A   1      49.997  25.546  31.014  1.00  0.00     0.040 A 
ATOM     83  F   UNL A   1      47.799  25.726  31.813  1.00  0.00    -0.206 F 
ATOM     84  C   UNL A   1      50.940  25.756  30.008  1.00  0.00     0.006 A 
ENDBRANCH  60  77
ENDBRANCH  34  35
ENDBRANCH  26  29
ENDBRANCH  24  25
ENDBRANCH   1  24
TORSDOF 12
ENDMDL
MODEL 3
REMARK VINA RESULT:     -12.1      3.425      6.892
REMARK SMILES C=C1c2ccccc2C(=O)N1[C@](C)(C(=O)NCCCNC(=O)c1ccc(-c2c3nc(c(-c4c(F)cccc4F)c4ccc([nH]4)c(-c4c(F)cccc4F)c4nc(c(-c5c(F)cccc5F)c5ccc2[nH]5)C=C4)C=C3)cc1)C(F)(F)F
REMARK SMILES IDX 18 1 17 2 16 3 14 4 15 5 12 7 13 8 11 9 1 10 2 11 3 12 4 13
REMARK SMILES IDX 8 14 9 15 5 16 7 17 10 18 6 19 77 20 78 21 79 22 80 23 19 24
REMARK SMILES IDX 20 25 21 26 22 28 23 29 24 30 76 31 25 32 75 33 26 34 27 35
REMARK SMILES IDX 28 36 69 37 29 38 74 39 68 40 70 41 30 42 73 43 67 44 66 45
REMARK SMILES IDX 31 47 57 48 40 49 56 50 41 51 44 52 55 53 71 54 42 55 43 56
REMARK SMILES IDX 54 58 72 59 45 60 32 61 33 62 38 63 34 64 35 65 37 66 39 67
REMARK SMILES IDX 36 68 58 69 59 70 64 71 60 72 61 73 63 74 65 75 62 76 46 77
REMARK SMILES IDX 47 78 52 79 48 80 49 81 51 82 53 83 50 84
REMARK H PARENT 16 6 20 27 70 46 44 57
REMARK Flexibility Score: inf
ROOT
ATOM      1  C   UNL A   1      31.465  29.197  26.662  1.00  0.00     0.042 C 
ENDROOT
BRANCH   1   2
ATOM      2  C   UNL A   1      32.238  27.959  27.078  1.00  0.00     0.117 C 
BRANCH   2   3
ATOM      3  N   UNL A   1      31.455  26.734  27.085  1.00  0.00    -0.354 N 
ATOM      4  C   UNL A   1      31.485  25.632  26.281  1.00  0.00     0.255 C 
ATOM      5  O   UNL A   1      31.086  24.608  26.853  1.00  0.00    -0.272 OA
ATOM      6  H   UNL A   1      30.780  26.693  27.801  1.00  0.00     0.163 HD
BRANCH   4   7
ATOM      7  C   UNL A   1      32.049  25.576  24.828  1.00  0.00     0.219 C 
ATOM      8  C   UNL A   1      31.948  24.187  24.157  1.00  0.00     0.056 C 
BRANCH   7   9
ATOM      9  N   UNL A   1      31.364  26.639  24.016  1.00  0.00    -0.285 N 
ATOM     10  C   UNL A   1      33.132  27.871  22.766  1.00  0.00     0.038 C 
ATOM     11  C   UNL A   1      31.890  27.646  23.199  1.00  0.00     0.046 C 
ATOM     12  C   UNL A   1      30.767  28.501  22.774  1.00  0.00     0.010 A 
ATOM     13  C   UNL A   1      30.674  29.661  22.022  1.00  0.00     0.011 A 
ATOM     14  C   UNL A   1      29.607  27.952  23.296  1.00  0.00     0.049 A 
ATOM     15  C   UNL A   1      29.969  26.743  24.016  1.00  0.00     0.260 C 
ATOM     16  C   UNL A   1      29.412  30.247  21.834  1.00  0.00     0.001 A 
ATOM     17  C   UNL A   1      28.347  28.507  23.139  1.00  0.00     0.014 A 
ATOM     18  O   UNL A   1      29.114  26.007  24.476  1.00  0.00    -0.269 OA
ATOM     19  C   UNL A   1      28.256  29.678  22.397  1.00  0.00     0.001 A 
ENDBRANCH   7   9
BRANCH   7  20
ATOM     20  C   UNL A   1      33.570  25.738  25.112  1.00  0.00     0.420 C 
ATOM     21  F   UNL A   1      33.950  24.995  26.188  1.00  0.00    -0.168 F 
ATOM     22  F   UNL A   1      34.315  25.266  24.073  1.00  0.00    -0.168 F 
ATOM     23  F   UNL A   1      33.989  27.001  25.341  1.00  0.00    -0.168 F 
ENDBRANCH   7  20
ENDBRANCH   4   7
ENDBRANCH   2   3
ENDBRANCH   1   2
BRANCH   1  24
ATOM     24  C   UNL A   1      32.299  30.235  25.929  1.00  0.00     0.118 C 
BRANCH  24  25
ATOM     25  N   UNL A   1      32.066  31.603  26.379  1.00  0.00    -0.352 N 
ATOM     26  C   UNL A   1      32.763  32.428  27.230  1.00  0.00     0.251 C 
ATOM     27  H   UNL A   1      31.255  32.013  26.002  1.00  0.00     0.163 HD
ATOM     28  O   UNL A   1      32.278  33.511  27.546  1.00  0.00    -0.269 OA
BRANCH  26  29
ATOM     29  C   UNL A   1      34.065  32.022  27.809  1.00  0.00     0.039 A 
ATOM     30  C   UNL A   1      35.051  32.996  28.003  1.00  0.00     0.014 A 
ATOM     31  C   UNL A   1      34.342  30.697  28.135  1.00  0.00     0.014 A 
ATOM     32  C   UNL A   1      36.264  32.655  28.611  1.00  0.00     0.010 A 
ATOM     33  C   UNL A   1      35.493  30.381  28.849  1.00  0.00     0.010 A 
ATOM     34  C   UNL A   1      36.473  31.354  29.093  1.00  0.00    -0.014 A 
BRANCH  34  35
ATOM     35  C   UNL A   1      37.703  30.969  29.835  1.00  0.00     0.031 A 
ATOM     36  C   UNL A   1      38.723  30.071  29.186  1.00  0.00     0.074 A 
ATOM     37  C   UNL A   1      37.860  31.343  31.121  1.00  0.00     0.049 A 
ATOM     38  N   UNL A   1      39.764  29.479  29.715  1.00  0.00    -0.248 NA
ATOM     39  C   UNL A   1      38.520  29.759  27.761  1.00  0.00     0.031 C 
ATOM     40  C   UNL A   1      36.925  32.168  31.889  1.00  0.00     0.029 A 
ATOM     41  N   UNL A   1      38.860  31.060  32.017  1.00  0.00    -0.354 N 
ATOM     42  C   UNL A   1      40.308  28.696  28.704  1.00  0.00     0.074 A 
ATOM     43  C   UNL A   1      39.459  28.851  27.544  1.00  0.00     0.031 C 
ATOM     44  C   UNL A   1      37.408  32.347  33.129  1.00  0.00     0.029 A 
ATOM     45  C   UNL A   1      38.663  31.614  33.259  1.00  0.00     0.049 A 
ATOM     46  H   UNL A   1      39.646  30.511  31.791  1.00  0.00     0.167 HD
ATOM     47  C   UNL A   1      41.429  27.936  28.731  1.00  0.00     0.037 A 
ATOM     48  C   UNL A   1      39.406  31.533  34.379  1.00  0.00     0.037 A 
ATOM     49  C   UNL A   1      42.311  27.834  29.861  1.00  0.00     0.049 A 
ATOM     50  C   UNL A   1      40.672  30.724  34.366  1.00  0.00     0.074 A 
ATOM     51  C   UNL A   1      43.504  27.140  29.965  1.00  0.00     0.029 A 
ATOM     52  N   UNL A   1      42.105  28.464  31.078  1.00  0.00    -0.354 N 
ATOM     53  N   UNL A   1      41.190  30.018  33.391  1.00  0.00    -0.248 NA
ATOM     54  C   UNL A   1      41.457  30.704  35.608  1.00  0.00     0.031 C 
ATOM     55  C   UNL A   1      44.013  27.339  31.253  1.00  0.00     0.029 A 
ATOM     56  C   UNL A   1      43.150  28.177  31.939  1.00  0.00     0.049 A 
ATOM     57  H   UNL A   1      41.331  29.032  31.298  1.00  0.00     0.167 HD
ATOM     58  C   UNL A   1      42.373  29.492  33.892  1.00  0.00     0.074 A 
ATOM     59  C   UNL A   1      42.503  29.969  35.253  1.00  0.00     0.031 C 
ATOM     60  C   UNL A   1      43.271  28.682  33.281  1.00  0.00     0.037 A 
BRANCH  47  61
ATOM     61  C   UNL A   1      41.775  27.174  27.486  1.00  0.00     0.057 A 
ATOM     62  C   UNL A   1      42.539  27.746  26.461  1.00  0.00     0.134 A 
ATOM     63  C   UNL A   1      41.370  25.844  27.324  1.00  0.00     0.134 A 
ATOM     64  F   UNL A   1      42.947  29.022  26.550  1.00  0.00    -0.206 F 
ATOM     65  C   UNL A   1      42.867  27.032  25.308  1.00  0.00     0.040 A 
ATOM     66  C   UNL A   1      41.712  25.110  26.186  1.00  0.00     0.040 A 
ATOM     67  F   UNL A   1      40.640  25.233  28.270  1.00  0.00    -0.206 F 
ATOM     68  C   UNL A   1      42.458  25.707  25.172  1.00  0.00     0.006 A 
ENDBRANCH  47  61
BRANCH  48  69
ATOM     69  C   UNL A   1      38.991  32.261  35.604  1.00  0.00     0.057 A 
ATOM     70  C   UNL A   1      38.232  31.625  36.593  1.00  0.00     0.134 A 
ATOM     71  C   UNL A   1      39.323  33.605  35.809  1.00  0.00     0.134 A 
ATOM     72  F   UNL A   1      37.868  30.343  36.443  1.00  0.00    -0.206 F 
ATOM     73  C   UNL A   1      37.798  32.304  37.732  1.00  0.00     0.040 A 
ATOM     74  C   UNL A   1      38.914  34.291  36.953  1.00  0.00     0.040 A 
ATOM     75  F   UNL A   1      40.055  34.269  34.901  1.00  0.00    -0.206 F 
ATOM     76  C   UNL A   1      38.142  33.642  37.915  1.00  0.00     0.006 A 
ENDBRANCH  48  69
BRANCH  60  77
ATOM     77  C   UNL A   1      44.490  28.300  34.063  1.00  0.00     0.057 A 
ATOM     78  C   UNL A   1      45.645  29.089  34.057  1.00  0.00     0.134 A 
ATOM     79  C   UNL A   1      44.490  27.149  34.862  1.00  0.00     0.134 A 
ATOM     80  F   UNL A   1      45.709  30.196  33.301  1.00  0.00    -0.206 F 
ATOM     81  C   UNL A   1      46.769  28.738  34.807  1.00  0.00     0.040 A 
ATOM     82  C   UNL A   1      45.599  26.798  35.631  1.00  0.00     0.040 A 
ATOM     83  F   UNL A   1      43.410  26.355  34.913  1.00  0.00    -0.206 F 
ATOM     84  C   UNL A   1      46.745  27.593  35.601  1.00  0.00     0.006 A 
ENDBRANCH  60  77
ENDBRANCH  34  35
ENDBRANCH  26  29
ENDBRANCH  24  25
ENDBRANCH   1  24
TORSDOF 12
ENDMDL
