MODEL 1
REMARK VINA RESULT:     -11.9      0.000      0.000
REMARK SMILES C[C@@H]1[C@H](C)CCC[C@H]1NC(=O)C[N@H+]1CCC[C@@H]1C(=O)NCCCNC(=O)c1ccc(-c2c3nc(c(-c4c(F)cccc4F)c4ccc([nH]4)c(-c4c(F)cccc4F)c4nc(c(-c5c(F)cccc5F)c5ccc2[nH]5)C=C4)C=C3)cc1
REMARK SMILES IDX 21 1 20 2 18 3 19 4 17 6 13 7 14 8 15 10 16 11 12 12 10 13
REMARK SMILES IDX 9 14 11 16 8 17 1 18 2 19 3 20 4 21 5 22 7 23 6 24 22 25
REMARK SMILES IDX 23 26 24 27 25 28 26 30 27 31 28 32 80 33 29 34 79 35 30 36
REMARK SMILES IDX 31 37 32 38 73 39 33 40 78 41 72 42 74 43 34 44 77 45 71 46
REMARK SMILES IDX 70 47 35 49 61 50 44 51 60 52 45 53 48 54 59 55 75 56 46 57
REMARK SMILES IDX 47 58 58 60 76 61 49 62 36 63 37 64 42 65 38 66 39 67 41 68
REMARK SMILES IDX 43 69 40 70 62 71 63 72 68 73 64 74 65 75 67 76 69 77 66 78
REMARK SMILES IDX 50 79 51 80 56 81 52 82 53 83 55 84 57 85 54 86
REMARK H PARENT 20 5 13 9 9 15 24 29 74 48 48 59
REMARK Flexibility Score: inf
ROOT
ATOM      1  C   UNL A   1      31.311  30.825  25.825  1.00  0.00     0.118 C 
ENDROOT
BRANCH   1   2
ATOM      2  N   UNL A   1      32.554  30.152  26.138  1.00  0.00    -0.351 N 
ATOM      3  C   UNL A   1      33.252  29.241  25.405  1.00  0.00     0.278 C 
ATOM      4  O   UNL A   1      34.314  28.820  25.878  1.00  0.00    -0.268 OA
ATOM      5  H   UNL A   1      32.951  30.387  27.007  1.00  0.00     0.163 HD
BRANCH   3   6
ATOM      6  C   UNL A   1      32.719  28.670  24.086  1.00  0.00     0.274 C 
ATOM      7  N   UNL A   1      32.207  27.285  24.170  1.00  0.00    -0.317 N 
ATOM      8  C   UNL A   1      32.225  26.785  22.806  1.00  0.00     0.263 C 
ATOM      9  H   UNL A   1      32.806  26.710  24.762  1.00  0.00     0.349 HD
ATOM     10  C   UNL A   1      33.625  27.202  22.382  1.00  0.00     0.068 C 
ATOM     11  C   UNL A   1      33.802  28.585  23.005  1.00  0.00     0.081 C 
BRANCH   7  12
ATOM     12  C   UNL A   1      30.957  27.115  24.910  1.00  0.00     0.364 C 
BRANCH  12  13
ATOM     13  C   UNL A   1      31.292  26.703  26.355  1.00  0.00     0.275 C 
ATOM     14  N   UNL A   1      31.800  25.459  26.622  1.00  0.00    -0.348 N 
ATOM     15  H   UNL A   1      32.087  25.316  27.553  1.00  0.00     0.163 HD
ATOM     16  O   UNL A   1      31.147  27.480  27.301  1.00  0.00    -0.268 OA
BRANCH  14  17
ATOM     17  C   UNL A   1      31.981  24.310  25.733  1.00  0.00     0.085 C 
ATOM     18  C   UNL A   1      33.447  23.349  23.901  1.00  0.00     0.010 C 
ATOM     19  C   UNL A   1      33.415  24.255  25.142  1.00  0.00     0.011 C 
ATOM     20  C   UNL A   1      34.459  23.844  26.214  1.00  0.00    -0.009 C 
ATOM     21  C   UNL A   1      35.879  23.729  25.652  1.00  0.00     0.008 C 
ATOM     22  C   UNL A   1      34.066  22.541  26.927  1.00  0.00     0.004 C 
ATOM     23  C   UNL A   1      31.619  23.020  26.483  1.00  0.00     0.025 C 
ATOM     24  C   UNL A   1      32.664  22.621  27.522  1.00  0.00     0.002 C 
ENDBRANCH  14  17
ENDBRANCH  12  13
ENDBRANCH   7  12
ENDBRANCH   3   6
ENDBRANCH   1   2
BRANCH   1  25
ATOM     25  C   UNL A   1      31.204  32.186  26.479  1.00  0.00     0.042 C 
BRANCH  25  26
ATOM     26  C   UNL A   1      32.494  32.619  27.143  1.00  0.00     0.118 C 
BRANCH  26  27
ATOM     27  N   UNL A   1      32.431  33.991  27.634  1.00  0.00    -0.352 N 
ATOM     28  C   UNL A   1      33.160  34.601  28.620  1.00  0.00     0.251 C 
ATOM     29  H   UNL A   1      31.764  34.564  27.192  1.00  0.00     0.163 HD
ATOM     30  O   UNL A   1      32.821  35.708  29.034  1.00  0.00    -0.269 OA
BRANCH  28  31
ATOM     31  C   UNL A   1      34.346  33.930  29.191  1.00  0.00     0.039 A 
ATOM     32  C   UNL A   1      35.617  34.340  28.783  1.00  0.00     0.014 A 
ATOM     33  C   UNL A   1      34.208  32.879  30.101  1.00  0.00     0.014 A 
ATOM     34  C   UNL A   1      36.746  33.713  29.311  1.00  0.00     0.010 A 
ATOM     35  C   UNL A   1      35.328  32.334  30.711  1.00  0.00     0.010 A 
ATOM     36  C   UNL A   1      36.608  32.714  30.289  1.00  0.00    -0.014 A 
BRANCH  36  37
ATOM     37  C   UNL A   1      37.788  31.996  30.825  1.00  0.00     0.031 A 
ATOM     38  C   UNL A   1      38.293  32.322  32.204  1.00  0.00     0.074 A 
ATOM     39  C   UNL A   1      38.424  31.089  30.062  1.00  0.00     0.049 A 
ATOM     40  N   UNL A   1      39.313  31.822  32.852  1.00  0.00    -0.248 NA
ATOM     41  C   UNL A   1      37.575  33.376  32.940  1.00  0.00     0.031 C 
ATOM     42  C   UNL A   1      38.059  30.728  28.691  1.00  0.00     0.029 A 
ATOM     43  N   UNL A   1      39.510  30.300  30.338  1.00  0.00    -0.354 N 
ATOM     44  C   UNL A   1      39.370  32.517  34.054  1.00  0.00     0.074 A 
ATOM     45  C   UNL A   1      38.332  33.521  34.015  1.00  0.00     0.031 C 
ATOM     46  C   UNL A   1      38.877  29.752  28.264  1.00  0.00     0.029 A 
ATOM     47  C   UNL A   1      39.838  29.444  29.317  1.00  0.00     0.049 A 
ATOM     48  H   UNL A   1      40.008  30.345  31.187  1.00  0.00     0.167 HD
ATOM     49  C   UNL A   1      40.193  32.317  35.111  1.00  0.00     0.037 A 
ATOM     50  C   UNL A   1      40.798  28.502  29.253  1.00  0.00     0.037 A 
ATOM     51  C   UNL A   1      41.202  31.294  35.157  1.00  0.00     0.049 A 
ATOM     52  C   UNL A   1      41.688  28.282  30.443  1.00  0.00     0.074 A 
ATOM     53  C   UNL A   1      42.052  30.962  36.196  1.00  0.00     0.029 A 
ATOM     54  N   UNL A   1      41.496  30.434  34.109  1.00  0.00    -0.354 N 
ATOM     55  N   UNL A   1      41.690  28.897  31.601  1.00  0.00    -0.248 NA
ATOM     56  C   UNL A   1      42.703  27.228  30.319  1.00  0.00     0.031 C 
ATOM     57  C   UNL A   1      42.885  29.925  35.762  1.00  0.00     0.029 A 
ATOM     58  C   UNL A   1      42.523  29.579  34.470  1.00  0.00     0.049 A 
ATOM     59  H   UNL A   1      41.040  30.432  33.236  1.00  0.00     0.167 HD
ATOM     60  C   UNL A   1      42.676  28.279  32.359  1.00  0.00     0.074 A 
ATOM     61  C   UNL A   1      43.248  27.239  31.527  1.00  0.00     0.031 C 
ATOM     62  C   UNL A   1      43.068  28.542  33.630  1.00  0.00     0.037 A 
BRANCH  49  63
ATOM     63  C   UNL A   1      40.021  33.231  36.291  1.00  0.00     0.057 A 
ATOM     64  C   UNL A   1      39.068  32.984  37.289  1.00  0.00     0.134 A 
ATOM     65  C   UNL A   1      40.800  34.388  36.419  1.00  0.00     0.134 A 
ATOM     66  F   UNL A   1      38.277  31.902  37.221  1.00  0.00    -0.206 F 
ATOM     67  C   UNL A   1      38.862  33.876  38.343  1.00  0.00     0.040 A 
ATOM     68  C   UNL A   1      40.626  35.271  37.486  1.00  0.00     0.040 A 
ATOM     69  F   UNL A   1      41.735  34.685  35.504  1.00  0.00    -0.206 F 
ATOM     70  C   UNL A   1      39.645  35.024  38.445  1.00  0.00     0.006 A 
ENDBRANCH  49  63
BRANCH  50  71
ATOM     71  C   UNL A   1      40.906  27.645  28.047  1.00  0.00     0.057 A 
ATOM     72  C   UNL A   1      40.215  26.430  27.971  1.00  0.00     0.134 A 
ATOM     73  C   UNL A   1      41.680  28.019  26.943  1.00  0.00     0.134 A 
ATOM     74  F   UNL A   1      39.468  26.013  29.004  1.00  0.00    -0.206 F 
ATOM     75  C   UNL A   1      40.296  25.612  26.845  1.00  0.00     0.040 A 
ATOM     76  C   UNL A   1      41.755  27.220  25.801  1.00  0.00     0.040 A 
ATOM     77  F   UNL A   1      42.357  29.176  26.951  1.00  0.00    -0.206 F 
ATOM     78  C   UNL A   1      41.065  26.009  25.752  1.00  0.00     0.006 A 
ENDBRANCH  50  71
BRANCH  62  79
ATOM     79  C   UNL A   1      44.130  27.658  34.213  1.00  0.00     0.057 A 
ATOM     80  C   UNL A   1      45.488  27.996  34.169  1.00  0.00     0.134 A 
ATOM     81  C   UNL A   1      43.781  26.460  34.852  1.00  0.00     0.134 A 
ATOM     82  F   UNL A   1      45.888  29.123  33.561  1.00  0.00    -0.206 F 
ATOM     83  C   UNL A   1      46.464  27.161  34.713  1.00  0.00     0.040 A 
ATOM     84  C   UNL A   1      44.745  25.631  35.423  1.00  0.00     0.040 A 
ATOM     85  F   UNL A   1      42.496  26.082  34.937  1.00  0.00    -0.206 F 
ATOM     86  C   UNL A   1      46.093  25.976  35.347  1.00  0.00     0.006 A 
ENDBRANCH  62  79
ENDBRANCH  36  37
ENDBRANCH  28  31
ENDBRANCH  26  27
ENDBRANCH  25  26
ENDBRANCH   1  25
TORSDOF 13
ENDMDL
MODEL 2
REMARK VINA RESULT:     -11.9      4.204      9.279
REMARK SMILES C[C@@H]1[C@H](C)CCC[C@H]1NC(=O)C[N@H+]1CCC[C@@H]1C(=O)NCCCNC(=O)c1ccc(-c2c3nc(c(-c4c(F)cccc4F)c4ccc([nH]4)c(-c4c(F)cccc4F)c4nc(c(-c5c(F)cccc5F)c5ccc2[nH]5)C=C4)C=C3)cc1
REMARK SMILES IDX 21 1 20 2 18 3 19 4 17 6 13 7 14 8 15 10 16 11 12 12 10 13
REMARK SMILES IDX 9 14 11 16 8 17 1 18 2 19 3 20 4 21 5 22 7 23 6 24 22 25
REMARK SMILES IDX 23 26 24 27 25 28 26 30 27 31 28 32 80 33 29 34 79 35 30 36
REMARK SMILES IDX 31 37 32 38 73 39 33 40 78 41 72 42 74 43 34 44 77 45 71 46
REMARK SMILES IDX 70 47 35 49 61 50 44 51 60 52 45 53 48 54 59 55 75 56 46 57
REMARK SMILES IDX 47 58 58 60 76 61 49 62 36 63 37 64 42 65 38 66 39 67 41 68
REMARK SMILES IDX 43 69 40 70 62 71 63 72 68 73 64 74 65 75 67 76 69 77 66 78
REMARK SMILES IDX 50 79 51 80 56 81 52 82 53 83 55 84 57 85 54 86
REMARK H PARENT 20 5 13 9 9 15 24 29 74 48 48 59
REMARK Flexibility Score: inf
ROOT
ATOM      1  C   UNL A   1      36.506  20.650  24.644  1.00  0.00     0.118 C 
ENDROOT
BRANCH   1   2
ATOM      2  N   UNL A   1      35.373  20.387  25.506  1.00  0.00    -0.351 N 
ATOM      3  C   UNL A   1      34.107  20.884  25.446  1.00  0.00     0.278 C 
ATOM      4  O   UNL A   1      33.296  20.487  26.290  1.00  0.00    -0.268 OA
ATOM      5  H   UNL A   1      35.544  19.759  26.245  1.00  0.00     0.163 HD
BRANCH   3   6
ATOM      6  C   UNL A   1      33.700  21.965  24.438  1.00  0.00     0.274 C 
ATOM      7  N   UNL A   1      32.776  22.992  24.967  1.00  0.00    -0.317 N 
ATOM      8  C   UNL A   1      32.151  23.585  23.798  1.00  0.00     0.263 C 
ATOM      9  H   UNL A   1      32.068  22.570  25.567  1.00  0.00     0.349 HD
ATOM     10  C   UNL A   1      31.757  22.331  23.033  1.00  0.00     0.068 C 
ATOM     11  C   UNL A   1      32.942  21.389  23.236  1.00  0.00     0.081 C 
BRANCH   7  12
ATOM     12  C   UNL A   1      33.351  23.919  25.941  1.00  0.00     0.364 C 
BRANCH  12  13
ATOM     13  C   UNL A   1      32.205  24.680  26.632  1.00  0.00     0.275 C 
ATOM     14  N   UNL A   1      32.120  26.043  26.535  1.00  0.00    -0.348 N 
ATOM     15  H   UNL A   1      31.301  26.439  26.913  1.00  0.00     0.163 HD
ATOM     16  O   UNL A   1      31.321  24.091  27.259  1.00  0.00    -0.268 OA
BRANCH  14  17
ATOM     17  C   UNL A   1      33.061  27.003  25.956  1.00  0.00     0.085 C 
ATOM     18  C   UNL A   1      33.725  28.179  23.809  1.00  0.00     0.010 C 
ATOM     19  C   UNL A   1      32.560  27.556  24.595  1.00  0.00     0.011 C 
ATOM     20  C   UNL A   1      31.369  28.534  24.781  1.00  0.00    -0.009 C 
ATOM     21  C   UNL A   1      30.882  29.141  23.461  1.00  0.00     0.008 C 
ATOM     22  C   UNL A   1      31.693  29.649  25.786  1.00  0.00     0.004 C 
ATOM     23  C   UNL A   1      33.337  28.125  26.966  1.00  0.00     0.025 C 
ATOM     24  C   UNL A   1      32.162  29.087  27.124  1.00  0.00     0.002 C 
ENDBRANCH  14  17
ENDBRANCH  12  13
ENDBRANCH   7  12
ENDBRANCH   3   6
ENDBRANCH   1   2
BRANCH   1  25
ATOM     25  C   UNL A   1      37.636  19.663  24.850  1.00  0.00     0.042 C 
BRANCH  25  26
ATOM     26  C   UNL A   1      38.731  20.207  25.743  1.00  0.00     0.118 C 
BRANCH  26  27
ATOM     27  N   UNL A   1      39.912  19.352  25.756  1.00  0.00    -0.352 N 
ATOM     28  C   UNL A   1      41.218  19.668  26.018  1.00  0.00     0.251 C 
ATOM     29  H   UNL A   1      39.746  18.405  25.544  1.00  0.00     0.163 HD
ATOM     30  O   UNL A   1      42.106  18.851  25.777  1.00  0.00    -0.269 OA
BRANCH  28  31
ATOM     31  C   UNL A   1      41.565  20.990  26.579  1.00  0.00     0.039 A 
ATOM     32  C   UNL A   1      41.493  21.177  27.962  1.00  0.00     0.014 A 
ATOM     33  C   UNL A   1      41.929  22.051  25.747  1.00  0.00     0.014 A 
ATOM     34  C   UNL A   1      41.813  22.421  28.506  1.00  0.00     0.010 A 
ATOM     35  C   UNL A   1      42.357  23.251  26.295  1.00  0.00     0.010 A 
ATOM     36  C   UNL A   1      42.260  23.463  27.677  1.00  0.00    -0.014 A 
BRANCH  36  37
ATOM     37  C   UNL A   1      42.554  24.808  28.223  1.00  0.00     0.031 A 
ATOM     38  C   UNL A   1      43.969  25.170  28.583  1.00  0.00     0.074 A 
ATOM     39  C   UNL A   1      41.552  25.679  28.434  1.00  0.00     0.049 A 
ATOM     40  N   UNL A   1      44.437  26.284  29.085  1.00  0.00    -0.248 NA
ATOM     41  C   UNL A   1      44.991  24.129  28.382  1.00  0.00     0.031 C 
ATOM     42  C   UNL A   1      40.135  25.422  28.174  1.00  0.00     0.029 A 
ATOM     43  N   UNL A   1      41.577  26.964  28.909  1.00  0.00    -0.354 N 
ATOM     44  C   UNL A   1      45.795  26.065  29.282  1.00  0.00     0.074 A 
ATOM     45  C   UNL A   1      46.063  24.694  28.915  1.00  0.00     0.031 C 
ATOM     46  C   UNL A   1      39.432  26.532  28.446  1.00  0.00     0.029 A 
ATOM     47  C   UNL A   1      40.343  27.565  28.927  1.00  0.00     0.049 A 
ATOM     48  H   UNL A   1      42.401  27.413  29.210  1.00  0.00     0.167 HD
ATOM     49  C   UNL A   1      46.743  26.937  29.700  1.00  0.00     0.037 A 
ATOM     50  C   UNL A   1      39.996  28.818  29.276  1.00  0.00     0.037 A 
ATOM     51  C   UNL A   1      46.476  28.311  30.031  1.00  0.00     0.049 A 
ATOM     52  C   UNL A   1      41.064  29.777  29.719  1.00  0.00     0.074 A 
ATOM     53  C   UNL A   1      47.366  29.300  30.408  1.00  0.00     0.029 A 
ATOM     54  N   UNL A   1      45.215  28.889  30.023  1.00  0.00    -0.354 N 
ATOM     55  N   UNL A   1      42.356  29.582  29.835  1.00  0.00    -0.248 NA
ATOM     56  C   UNL A   1      40.627  31.134  30.068  1.00  0.00     0.031 C 
ATOM     57  C   UNL A   1      46.638  30.466  30.664  1.00  0.00     0.029 A 
ATOM     58  C   UNL A   1      45.300  30.218  30.401  1.00  0.00     0.049 A 
ATOM     59  H   UNL A   1      44.381  28.422  29.783  1.00  0.00     0.167 HD
ATOM     60  C   UNL A   1      42.891  30.800  30.231  1.00  0.00     0.074 A 
ATOM     61  C   UNL A   1      41.782  31.728  30.331  1.00  0.00     0.031 C 
ATOM     62  C   UNL A   1      44.183  31.126  30.482  1.00  0.00     0.037 A 
BRANCH  49  63
ATOM     63  C   UNL A   1      48.147  26.414  29.816  1.00  0.00     0.057 A 
ATOM     64  C   UNL A   1      49.044  26.449  28.739  1.00  0.00     0.134 A 
ATOM     65  C   UNL A   1      48.601  25.845  31.012  1.00  0.00     0.134 A 
ATOM     66  F   UNL A   1      48.669  26.965  27.558  1.00  0.00    -0.206 F 
ATOM     67  C   UNL A   1      50.321  25.893  28.831  1.00  0.00     0.040 A 
ATOM     68  C   UNL A   1      49.888  25.316  31.126  1.00  0.00     0.040 A 
ATOM     69  F   UNL A   1      47.799  25.783  32.086  1.00  0.00    -0.206 F 
ATOM     70  C   UNL A   1      50.748  25.326  30.030  1.00  0.00     0.006 A 
ENDBRANCH  49  63
BRANCH  50  71
ATOM     71  C   UNL A   1      38.585  29.255  29.139  1.00  0.00     0.057 A 
ATOM     72  C   UNL A   1      38.086  29.676  27.902  1.00  0.00     0.134 A 
ATOM     73  C   UNL A   1      37.702  29.246  30.224  1.00  0.00     0.134 A 
ATOM     74  F   UNL A   1      38.890  29.718  26.829  1.00  0.00    -0.206 F 
ATOM     75  C   UNL A   1      36.761  30.084  27.748  1.00  0.00     0.040 A 
ATOM     76  C   UNL A   1      36.368  29.632  30.081  1.00  0.00     0.040 A 
ATOM     77  F   UNL A   1      38.117  28.843  31.434  1.00  0.00    -0.206 F 
ATOM     78  C   UNL A   1      35.895  30.058  28.840  1.00  0.00     0.006 A 
ENDBRANCH  50  71
BRANCH  62  79
ATOM     79  C   UNL A   1      44.471  32.555  30.836  1.00  0.00     0.057 A 
ATOM     80  C   UNL A   1      44.500  33.001  32.163  1.00  0.00     0.134 A 
ATOM     81  C   UNL A   1      44.747  33.491  29.832  1.00  0.00     0.134 A 
ATOM     82  F   UNL A   1      44.232  32.157  33.171  1.00  0.00    -0.206 F 
ATOM     83  C   UNL A   1      44.765  34.334  32.478  1.00  0.00     0.040 A 
ATOM     84  C   UNL A   1      45.040  34.821  30.135  1.00  0.00     0.040 A 
ATOM     85  F   UNL A   1      44.743  33.128  28.541  1.00  0.00    -0.206 F 
ATOM     86  C   UNL A   1      45.041  35.248  31.461  1.00  0.00     0.006 A 
ENDBRANCH  62  79
ENDBRANCH  36  37
ENDBRANCH  28  31
ENDBRANCH  26  27
ENDBRANCH  25  26
ENDBRANCH   1  25
TORSDOF 13
ENDMDL
MODEL 3
REMARK VINA RESULT:     -11.9      4.494      9.379
REMARK SMILES C[C@@H]1[C@H](C)CCC[C@H]1NC(=O)C[N@H+]1CCC[C@@H]1C(=O)NCCCNC(=O)c1ccc(-c2c3nc(c(-c4c(F)cccc4F)c4ccc([nH]4)c(-c4c(F)cccc4F)c4nc(c(-c5c(F)cccc5F)c5ccc2[nH]5)C=C4)C=C3)cc1
REMARK SMILES IDX 21 1 20 2 18 3 19 4 17 6 13 7 14 8 15 10 16 11 12 12 10 13
REMARK SMILES IDX 9 14 11 16 8 17 1 18 2 19 3 20 4 21 5 22 7 23 6 24 22 25
REMARK SMILES IDX 23 26 24 27 25 28 26 30 27 31 28 32 80 33 29 34 79 35 30 36
REMARK SMILES IDX 31 37 32 38 73 39 33 40 78 41 72 42 74 43 34 44 77 45 71 46
REMARK SMILES IDX 70 47 35 49 61 50 44 51 60 52 45 53 48 54 59 55 75 56 46 57
REMARK SMILES IDX 47 58 58 60 76 61 49 62 36 63 37 64 42 65 38 66 39 67 41 68
REMARK SMILES IDX 43 69 40 70 62 71 63 72 68 73 64 74 65 75 67 76 69 77 66 78
REMARK SMILES IDX 50 79 51 80 56 81 52 82 53 83 55 84 57 85 54 86
REMARK H PARENT 20 5 13 9 9 15 24 29 74 48 48 59
REMARK Flexibility Score: inf
ROOT
ATOM      1  C   UNL A   1      36.461  20.244  24.988  1.00  0.00     0.118 C 
ENDROOT
BRANCH   1   2
ATOM      2  N   UNL A   1      36.591  21.609  25.448  1.00  0.00    -0.351 N 
ATOM      3  C   UNL A   1      35.650  22.434  25.986  1.00  0.00     0.278 C 
ATOM      4  O   UNL A   1      36.011  23.566  26.330  1.00  0.00    -0.268 OA
ATOM      5  H   UNL A   1      37.490  21.999  25.357  1.00  0.00     0.163 HD
BRANCH   3   6
ATOM      6  C   UNL A   1      34.174  22.035  26.086  1.00  0.00     0.274 C 
ATOM      7  N   UNL A   1      33.257  22.827  25.238  1.00  0.00    -0.317 N 
ATOM      8  C   UNL A   1      31.940  22.649  25.825  1.00  0.00     0.263 C 
ATOM      9  H   UNL A   1      33.514  23.814  25.246  1.00  0.00     0.349 HD
ATOM     10  C   UNL A   1      32.258  22.907  27.290  1.00  0.00     0.068 C 
ATOM     11  C   UNL A   1      33.610  22.229  27.498  1.00  0.00     0.081 C 
BRANCH   7  12
ATOM     12  C   UNL A   1      33.366  22.594  23.799  1.00  0.00     0.364 C 
BRANCH  12  13
ATOM     13  C   UNL A   1      34.355  23.615  23.208  1.00  0.00     0.275 C 
ATOM     14  N   UNL A   1      34.050  24.951  23.197  1.00  0.00    -0.348 N 
ATOM     15  H   UNL A   1      34.779  25.543  22.903  1.00  0.00     0.163 HD
ATOM     16  O   UNL A   1      35.452  23.272  22.761  1.00  0.00    -0.268 OA
BRANCH  14  17
ATOM     17  C   UNL A   1      32.805  25.631  23.558  1.00  0.00     0.085 C 
ATOM     18  C   UNL A   1      31.452  26.530  25.505  1.00  0.00     0.010 C 
ATOM     19  C   UNL A   1      32.869  26.237  24.985  1.00  0.00     0.011 C 
ATOM     20  C   UNL A   1      33.797  27.481  25.035  1.00  0.00    -0.009 C 
ATOM     21  C   UNL A   1      33.842  28.137  26.419  1.00  0.00     0.008 C 
ATOM     22  C   UNL A   1      33.420  28.521  23.970  1.00  0.00     0.004 C 
ATOM     23  C   UNL A   1      32.474  26.690  22.497  1.00  0.00     0.025 C 
ATOM     24  C   UNL A   1      33.385  27.913  22.572  1.00  0.00     0.002 C 
ENDBRANCH  14  17
ENDBRANCH  12  13
ENDBRANCH   7  12
ENDBRANCH   3   6
ENDBRANCH   1   2
BRANCH   1  25
ATOM     25  C   UNL A   1      37.798  19.551  24.830  1.00  0.00     0.042 C 
BRANCH  25  26
ATOM     26  C   UNL A   1      38.848  20.084  25.781  1.00  0.00     0.118 C 
BRANCH  26  27
ATOM     27  N   UNL A   1      40.022  19.221  25.850  1.00  0.00    -0.352 N 
ATOM     28  C   UNL A   1      41.326  19.539  26.123  1.00  0.00     0.251 C 
ATOM     29  H   UNL A   1      39.852  18.268  25.672  1.00  0.00     0.163 HD
ATOM     30  O   UNL A   1      42.211  18.706  25.931  1.00  0.00    -0.269 OA
BRANCH  28  31
ATOM     31  C   UNL A   1      41.672  20.879  26.638  1.00  0.00     0.039 A 
ATOM     32  C   UNL A   1      41.629  21.107  28.016  1.00  0.00     0.014 A 
ATOM     33  C   UNL A   1      42.007  21.920  25.767  1.00  0.00     0.014 A 
ATOM     34  C   UNL A   1      41.950  22.369  28.516  1.00  0.00     0.010 A 
ATOM     35  C   UNL A   1      42.435  23.139  26.271  1.00  0.00     0.010 A 
ATOM     36  C   UNL A   1      42.368  23.390  27.647  1.00  0.00    -0.014 A 
BRANCH  36  37
ATOM     37  C   UNL A   1      42.661  24.753  28.147  1.00  0.00     0.031 A 
ATOM     38  C   UNL A   1      44.083  25.147  28.439  1.00  0.00     0.074 A 
ATOM     39  C   UNL A   1      41.654  25.613  28.378  1.00  0.00     0.049 A 
ATOM     40  N   UNL A   1      44.551  26.280  28.895  1.00  0.00    -0.248 NA
ATOM     41  C   UNL A   1      45.113  24.117  28.223  1.00  0.00     0.031 C 
ATOM     42  C   UNL A   1      40.232  25.326  28.183  1.00  0.00     0.029 A 
ATOM     43  N   UNL A   1      41.676  26.910  28.820  1.00  0.00    -0.354 N 
ATOM     44  C   UNL A   1      45.921  26.088  29.040  1.00  0.00     0.074 A 
ATOM     45  C   UNL A   1      46.196  24.712  28.697  1.00  0.00     0.031 C 
ATOM     46  C   UNL A   1      39.521  26.432  28.457  1.00  0.00     0.029 A 
ATOM     47  C   UNL A   1      40.434  27.491  28.874  1.00  0.00     0.049 A 
ATOM     48  H   UNL A   1      42.503  27.379  29.075  1.00  0.00     0.167 HD
ATOM     49  C   UNL A   1      46.870  26.986  29.397  1.00  0.00     0.037 A 
ATOM     50  C   UNL A   1      40.080  28.747  29.206  1.00  0.00     0.037 A 
ATOM     51  C   UNL A   1      46.593  28.363  29.705  1.00  0.00     0.049 A 
ATOM     52  C   UNL A   1      41.149  29.733  29.580  1.00  0.00     0.074 A 
ATOM     53  C   UNL A   1      47.481  29.375  30.020  1.00  0.00     0.029 A 
ATOM     54  N   UNL A   1      45.323  28.920  29.734  1.00  0.00    -0.354 N 
ATOM     55  N   UNL A   1      42.448  29.562  29.648  1.00  0.00    -0.248 NA
ATOM     56  C   UNL A   1      40.703  31.093  29.913  1.00  0.00     0.031 C 
ATOM     57  C   UNL A   1      46.744  30.536  30.277  1.00  0.00     0.029 A 
ATOM     58  C   UNL A   1      45.401  30.260  30.075  1.00  0.00     0.049 A 
ATOM     59  H   UNL A   1      44.488  28.434  29.540  1.00  0.00     0.167 HD
ATOM     60  C   UNL A   1      42.977  30.799  29.991  1.00  0.00     0.074 A 
ATOM     61  C   UNL A   1      41.857  31.711  30.114  1.00  0.00     0.031 C 
ATOM     62  C   UNL A   1      44.273  31.151  30.180  1.00  0.00     0.037 A 
BRANCH  49  63
ATOM     63  C   UNL A   1      48.286  26.488  29.468  1.00  0.00     0.057 A 
ATOM     64  C   UNL A   1      49.149  26.545  28.364  1.00  0.00     0.134 A 
ATOM     65  C   UNL A   1      48.787  25.922  30.647  1.00  0.00     0.134 A 
ATOM     66  F   UNL A   1      48.729  27.060  27.198  1.00  0.00    -0.206 F 
ATOM     67  C   UNL A   1      50.439  26.013  28.415  1.00  0.00     0.040 A 
ATOM     68  C   UNL A   1      50.086  25.417  30.719  1.00  0.00     0.040 A 
ATOM     69  F   UNL A   1      48.019  25.840  31.744  1.00  0.00    -0.206 F 
ATOM     70  C   UNL A   1      50.911  25.448  29.598  1.00  0.00     0.006 A 
ENDBRANCH  49  63
BRANCH  50  71
ATOM     71  C   UNL A   1      38.658  29.157  29.117  1.00  0.00     0.057 A 
ATOM     72  C   UNL A   1      38.123  29.623  27.909  1.00  0.00     0.134 A 
ATOM     73  C   UNL A   1      37.797  29.080  30.217  1.00  0.00     0.134 A 
ATOM     74  F   UNL A   1      38.904  29.731  26.824  1.00  0.00    -0.206 F 
ATOM     75  C   UNL A   1      36.788  30.007  27.800  1.00  0.00     0.040 A 
ATOM     76  C   UNL A   1      36.452  29.442  30.117  1.00  0.00     0.040 A 
ATOM     77  F   UNL A   1      38.246  28.632  31.398  1.00  0.00    -0.206 F 
ATOM     78  C   UNL A   1      35.945  29.912  28.906  1.00  0.00     0.006 A 
ENDBRANCH  50  71
BRANCH  62  79
ATOM     79  C   UNL A   1      44.550  32.593  30.487  1.00  0.00     0.057 A 
ATOM     80  C   UNL A   1      44.747  33.545  29.478  1.00  0.00     0.134 A 
ATOM     81  C   UNL A   1      44.594  33.038  31.815  1.00  0.00     0.134 A 
ATOM     82  F   UNL A   1      44.730  33.181  28.187  1.00  0.00    -0.206 F 
ATOM     83  C   UNL A   1      45.008  34.882  29.780  1.00  0.00     0.040 A 
ATOM     84  C   UNL A   1      44.827  34.377  32.128  1.00  0.00     0.040 A 
ATOM     85  F   UNL A   1      44.405  32.180  32.828  1.00  0.00    -0.206 F 
ATOM     86  C   UNL A   1      45.044  35.302  31.108  1.00  0.00     0.006 A 
ENDBRANCH  62  79
ENDBRANCH  36  37
ENDBRANCH  28  31
ENDBRANCH  26  27
ENDBRANCH  25  26
ENDBRANCH   1  25
TORSDOF 13
ENDMDL
