MODEL 1
REMARK VINA RESULT:     -11.2      0.000      0.000
REMARK SMILES CCCc1nc(C[N@H+]2CCCC[C@@H]2C(=O)NCCCNC(=O)c2ccc(-c3c4nc(c(-c5c(F)cccc5F)c5ccc([nH]5)c(-c5c(F)cccc5F)c5nc(c(-c6c(F)cccc6F)c6ccc3[nH]6)C=C5)C=C4)cc2)cs1
REMARK SMILES IDX 17 1 16 2 14 3 15 4 13 6 8 7 9 8 10 10 12 11 11 12 7 13 6 14
REMARK SMILES IDX 4 15 5 16 78 17 77 18 3 19 2 20 1 21 18 22 19 23 20 24 21 25
REMARK SMILES IDX 22 27 23 28 24 29 76 30 25 31 75 32 26 33 27 34 28 35 69 36
REMARK SMILES IDX 29 37 74 38 68 39 70 40 30 41 73 42 67 43 66 44 31 46 57 47
REMARK SMILES IDX 40 48 56 49 41 50 44 51 55 52 71 53 42 54 43 55 54 57 72 58
REMARK SMILES IDX 45 59 32 60 33 61 38 62 34 63 35 64 37 65 39 66 36 67 58 68
REMARK SMILES IDX 59 69 64 70 60 71 61 72 63 73 65 74 62 75 46 76 47 77 52 78
REMARK SMILES IDX 48 79 49 80 51 81 53 82 50 83
REMARK H PARENT 16 5 8 9 20 26 70 45 44 56
REMARK Flexibility Score: inf
ROOT
ATOM      1  C   UNL A   1      35.888  20.954  24.980  1.00  0.00     0.118 C 
ENDROOT
BRANCH   1   2
ATOM      2  N   UNL A   1      35.279  21.080  26.295  1.00  0.00    -0.351 N 
ATOM      3  C   UNL A   1      34.400  22.010  26.771  1.00  0.00     0.278 C 
ATOM      4  O   UNL A   1      34.037  21.898  27.947  1.00  0.00    -0.268 OA
ATOM      5  H   UNL A   1      35.540  20.386  26.941  1.00  0.00     0.163 HD
BRANCH   3   6
ATOM      6  C   UNL A   1      33.852  23.146  25.882  1.00  0.00     0.274 C 
ATOM      7  N   UNL A   1      33.150  22.605  24.694  1.00  0.00    -0.320 N 
ATOM      8  C   UNL A   1      32.690  23.657  23.781  1.00  0.00     0.263 C 
ATOM      9  H   UNL A   1      33.864  22.070  24.201  1.00  0.00     0.349 HD
ATOM     10  C   UNL A   1      33.847  24.560  23.347  1.00  0.00     0.062 C 
ATOM     11  C   UNL A   1      34.986  24.120  25.524  1.00  0.00     0.076 C 
ATOM     12  C   UNL A   1      34.521  25.198  24.555  1.00  0.00     0.012 C 
BRANCH   7  13
ATOM     13  C   UNL A   1      32.082  21.632  25.004  1.00  0.00     0.321 C 
BRANCH  13  14
ATOM     14  C   UNL A   1      32.317  20.242  24.483  1.00  0.00     0.106 A 
ATOM     15  C   UNL A   1      32.721  18.076  24.795  1.00  0.00     0.093 A 
ATOM     16  N   UNL A   1      32.597  19.238  25.400  1.00  0.00    -0.240 NA
ATOM     17  S   UNL A   1      32.544  18.124  23.086  1.00  0.00    -0.127 S 
ATOM     18  C   UNL A   1      32.229  19.804  23.174  1.00  0.00     0.096 A 
BRANCH  15  19
ATOM     19  C   UNL A   1      32.924  16.766  25.493  1.00  0.00     0.067 C 
BRANCH  19  20
ATOM     20  C   UNL A   1      33.912  15.830  24.791  1.00  0.00     0.004 C 
ATOM     21  C   UNL A   1      35.323  15.867  25.365  1.00  0.00     0.004 C 
ENDBRANCH  19  20
ENDBRANCH  15  19
ENDBRANCH  13  14
ENDBRANCH   7  13
ENDBRANCH   3   6
ENDBRANCH   1   2
BRANCH   1  22
ATOM     22  C   UNL A   1      37.048  19.964  24.991  1.00  0.00     0.042 C 
BRANCH  22  23
ATOM     23  C   UNL A   1      38.389  20.588  25.356  1.00  0.00     0.118 C 
BRANCH  23  24
ATOM     24  N   UNL A   1      39.448  19.599  25.496  1.00  0.00    -0.352 N 
ATOM     25  C   UNL A   1      40.734  19.749  25.950  1.00  0.00     0.251 C 
ATOM     26  H   UNL A   1      39.206  18.685  25.222  1.00  0.00     0.163 HD
ATOM     27  O   UNL A   1      41.531  18.821  25.831  1.00  0.00    -0.269 OA
BRANCH  25  28
ATOM     28  C   UNL A   1      41.176  21.023  26.559  1.00  0.00     0.039 A 
ATOM     29  C   UNL A   1      41.757  21.990  25.734  1.00  0.00     0.014 A 
ATOM     30  C   UNL A   1      41.050  21.260  27.931  1.00  0.00     0.014 A 
ATOM     31  C   UNL A   1      42.159  23.213  26.274  1.00  0.00     0.010 A 
ATOM     32  C   UNL A   1      41.383  22.508  28.455  1.00  0.00     0.010 A 
ATOM     33  C   UNL A   1      41.947  23.493  27.635  1.00  0.00    -0.014 A 
BRANCH  33  34
ATOM     34  C   UNL A   1      42.314  24.815  28.201  1.00  0.00     0.031 A 
ATOM     35  C   UNL A   1      43.732  25.106  28.604  1.00  0.00     0.074 A 
ATOM     36  C   UNL A   1      41.356  25.743  28.391  1.00  0.00     0.049 A 
ATOM     37  N   UNL A   1      44.237  26.199  29.120  1.00  0.00    -0.248 NA
ATOM     38  C   UNL A   1      44.709  24.019  28.428  1.00  0.00     0.031 C 
ATOM     39  C   UNL A   1      39.933  25.561  28.098  1.00  0.00     0.029 A 
ATOM     40  N   UNL A   1      41.436  27.023  28.876  1.00  0.00    -0.354 N 
ATOM     41  C   UNL A   1      45.581  25.927  29.342  1.00  0.00     0.074 A 
ATOM     42  C   UNL A   1      45.804  24.552  28.951  1.00  0.00     0.031 C 
ATOM     43  C   UNL A   1      39.278  26.699  28.380  1.00  0.00     0.029 A 
ATOM     44  C   UNL A   1      40.229  27.679  28.896  1.00  0.00     0.049 A 
ATOM     45  H   UNL A   1      42.277  27.432  29.182  1.00  0.00     0.167 HD
ATOM     46  C   UNL A   1      46.548  26.755  29.804  1.00  0.00     0.037 A 
ATOM     47  C   UNL A   1      39.925  28.933  29.280  1.00  0.00     0.037 A 
ATOM     48  C   UNL A   1      46.333  28.132  30.166  1.00  0.00     0.049 A 
ATOM     49  C   UNL A   1      41.020  29.840  29.764  1.00  0.00     0.074 A 
ATOM     50  C   UNL A   1      47.260  29.071  30.584  1.00  0.00     0.029 A 
ATOM     51  N   UNL A   1      45.100  28.767  30.152  1.00  0.00    -0.354 N 
ATOM     52  N   UNL A   1      42.299  29.593  29.899  1.00  0.00    -0.248 NA
ATOM     53  C   UNL A   1      40.627  31.206  30.140  1.00  0.00     0.031 C 
ATOM     54  C   UNL A   1      46.583  30.266  30.855  1.00  0.00     0.029 A 
ATOM     55  C   UNL A   1      45.240  30.081  30.569  1.00  0.00     0.049 A 
ATOM     56  H   UNL A   1      44.251  28.347  29.885  1.00  0.00     0.167 HD
ATOM     57  C   UNL A   1      42.868  30.773  30.356  1.00  0.00     0.074 A 
ATOM     58  C   UNL A   1      41.797  31.743  30.456  1.00  0.00     0.031 C 
ATOM     59  C   UNL A   1      44.162  31.031  30.668  1.00  0.00     0.037 A 
BRANCH  46  60
ATOM     60  C   UNL A   1      47.932  26.192  29.936  1.00  0.00     0.057 A 
ATOM     61  C   UNL A   1      48.805  26.120  28.842  1.00  0.00     0.134 A 
ATOM     62  C   UNL A   1      48.407  25.740  31.173  1.00  0.00     0.134 A 
ATOM     63  F   UNL A   1      48.406  26.524  27.627  1.00  0.00    -0.206 F 
ATOM     64  C   UNL A   1      50.091  25.595  28.968  1.00  0.00     0.040 A 
ATOM     65  C   UNL A   1      49.702  25.235  31.316  1.00  0.00     0.040 A 
ATOM     66  F   UNL A   1      47.625  25.785  32.262  1.00  0.00    -0.206 F 
ATOM     67  C   UNL A   1      50.545  25.155  30.211  1.00  0.00     0.006 A 
ENDBRANCH  46  60
BRANCH  47  68
ATOM     68  C   UNL A   1      38.526  29.418  29.182  1.00  0.00     0.057 A 
ATOM     69  C   UNL A   1      37.698  29.454  30.309  1.00  0.00     0.134 A 
ATOM     70  C   UNL A   1      37.987  29.854  27.967  1.00  0.00     0.134 A 
ATOM     71  F   UNL A   1      38.156  29.031  31.496  1.00  0.00    -0.206 F 
ATOM     72  C   UNL A   1      36.376  29.891  30.230  1.00  0.00     0.040 A 
ATOM     73  C   UNL A   1      36.672  30.315  27.877  1.00  0.00     0.040 A 
ATOM     74  F   UNL A   1      38.734  29.851  26.854  1.00  0.00    -0.206 F 
ATOM     75  C   UNL A   1      35.861  30.328  29.010  1.00  0.00     0.006 A 
ENDBRANCH  47  68
BRANCH  59  76
ATOM     76  C   UNL A   1      44.484  32.421  31.129  1.00  0.00     0.057 A 
ATOM     77  C   UNL A   1      44.407  32.785  32.479  1.00  0.00     0.134 A 
ATOM     78  C   UNL A   1      44.889  33.401  30.215  1.00  0.00     0.134 A 
ATOM     79  F   UNL A   1      44.010  31.894  33.402  1.00  0.00    -0.206 F 
ATOM     80  C   UNL A   1      44.695  34.083  32.901  1.00  0.00     0.040 A 
ATOM     81  C   UNL A   1      45.203  34.697  30.628  1.00  0.00     0.040 A 
ATOM     82  F   UNL A   1      44.990  33.116  28.908  1.00  0.00    -0.206 F 
ATOM     83  C   UNL A   1      45.099  35.042  31.974  1.00  0.00     0.006 A 
ENDBRANCH  59  76
ENDBRANCH  33  34
ENDBRANCH  25  28
ENDBRANCH  23  24
ENDBRANCH  22  23
ENDBRANCH   1  22
TORSDOF 14
ENDMDL
MODEL 2
REMARK VINA RESULT:     -11.2      0.491      6.287
REMARK SMILES CCCc1nc(C[N@H+]2CCCC[C@@H]2C(=O)NCCCNC(=O)c2ccc(-c3c4nc(c(-c5c(F)cccc5F)c5ccc([nH]5)c(-c5c(F)cccc5F)c5nc(c(-c6c(F)cccc6F)c6ccc3[nH]6)C=C5)C=C4)cc2)cs1
REMARK SMILES IDX 17 1 16 2 14 3 15 4 13 6 8 7 9 8 10 10 12 11 11 12 7 13 6 14
REMARK SMILES IDX 4 15 5 16 78 17 77 18 3 19 2 20 1 21 18 22 19 23 20 24 21 25
REMARK SMILES IDX 22 27 23 28 24 29 76 30 25 31 75 32 26 33 27 34 28 35 69 36
REMARK SMILES IDX 29 37 74 38 68 39 70 40 30 41 73 42 67 43 66 44 31 46 57 47
REMARK SMILES IDX 40 48 56 49 41 50 44 51 55 52 71 53 42 54 43 55 54 57 72 58
REMARK SMILES IDX 45 59 32 60 33 61 38 62 34 63 35 64 37 65 39 66 36 67 58 68
REMARK SMILES IDX 59 69 64 70 60 71 61 72 63 73 65 74 62 75 46 76 47 77 52 78
REMARK SMILES IDX 48 79 49 80 51 81 53 82 50 83
REMARK H PARENT 16 5 8 9 20 26 70 45 44 56
REMARK Flexibility Score: inf
ROOT
ATOM      1  C   UNL A   1      36.281  20.956  24.744  1.00  0.00     0.118 C 
ENDROOT
BRANCH   1   2
ATOM      2  N   UNL A   1      35.685  21.057  26.067  1.00  0.00    -0.351 N 
ATOM      3  C   UNL A   1      34.706  21.889  26.529  1.00  0.00     0.278 C 
ATOM      4  O   UNL A   1      34.382  21.779  27.716  1.00  0.00    -0.268 OA
ATOM      5  H   UNL A   1      36.043  20.427  26.732  1.00  0.00     0.163 HD
BRANCH   3   6
ATOM      6  C   UNL A   1      34.004  22.913  25.611  1.00  0.00     0.274 C 
ATOM      7  N   UNL A   1      33.208  22.234  24.562  1.00  0.00    -0.320 N 
ATOM      8  C   UNL A   1      32.596  23.175  23.618  1.00  0.00     0.263 C 
ATOM      9  H   UNL A   1      33.892  21.687  24.041  1.00  0.00     0.349 HD
ATOM     10  C   UNL A   1      33.649  24.083  22.979  1.00  0.00     0.062 C 
ATOM     11  C   UNL A   1      35.039  23.897  25.043  1.00  0.00     0.076 C 
ATOM     12  C   UNL A   1      34.415  24.859  24.042  1.00  0.00     0.012 C 
BRANCH   7  13
ATOM     13  C   UNL A   1      32.233  21.247  25.074  1.00  0.00     0.321 C 
BRANCH  13  14
ATOM     14  C   UNL A   1      32.423  19.845  24.569  1.00  0.00     0.106 A 
ATOM     15  C   UNL A   1      32.596  17.651  24.901  1.00  0.00     0.093 A 
ATOM     16  N   UNL A   1      32.486  18.817  25.501  1.00  0.00    -0.240 NA
ATOM     17  S   UNL A   1      32.665  17.721  23.184  1.00  0.00    -0.127 S 
ATOM     18  C   UNL A   1      32.482  19.421  23.255  1.00  0.00     0.096 A 
BRANCH  15  19
ATOM     19  C   UNL A   1      32.589  16.326  25.600  1.00  0.00     0.067 C 
BRANCH  19  20
ATOM     20  C   UNL A   1      33.701  15.375  25.148  1.00  0.00     0.004 C 
ATOM     21  C   UNL A   1      35.106  15.953  25.273  1.00  0.00     0.004 C 
ENDBRANCH  19  20
ENDBRANCH  15  19
ENDBRANCH  13  14
ENDBRANCH   7  13
ENDBRANCH   3   6
ENDBRANCH   1   2
BRANCH   1  22
ATOM     22  C   UNL A   1      37.479  20.012  24.739  1.00  0.00     0.042 C 
BRANCH  22  23
ATOM     23  C   UNL A   1      38.570  20.393  25.731  1.00  0.00     0.118 C 
BRANCH  23  24
ATOM     24  N   UNL A   1      39.666  19.436  25.755  1.00  0.00    -0.352 N 
ATOM     25  C   UNL A   1      40.989  19.624  26.066  1.00  0.00     0.251 C 
ATOM     26  H   UNL A   1      39.422  18.515  25.509  1.00  0.00     0.163 HD
ATOM     27  O   UNL A   1      41.795  18.719  25.861  1.00  0.00    -0.269 OA
BRANCH  25  28
ATOM     28  C   UNL A   1      41.458  20.912  26.623  1.00  0.00     0.039 A 
ATOM     29  C   UNL A   1      41.956  21.877  25.744  1.00  0.00     0.014 A 
ATOM     30  C   UNL A   1      41.437  21.165  27.998  1.00  0.00     0.014 A 
ATOM     31  C   UNL A   1      42.381  23.112  26.236  1.00  0.00     0.010 A 
ATOM     32  C   UNL A   1      41.791  22.424  28.480  1.00  0.00     0.010 A 
ATOM     33  C   UNL A   1      42.273  23.407  27.606  1.00  0.00    -0.014 A 
BRANCH  33  34
ATOM     34  C   UNL A   1      42.663  24.742  28.126  1.00  0.00     0.031 A 
ATOM     35  C   UNL A   1      41.628  25.810  28.338  1.00  0.00     0.074 A 
ATOM     36  C   UNL A   1      43.961  25.004  28.370  1.00  0.00     0.049 A 
ATOM     37  N   UNL A   1      41.782  27.034  28.778  1.00  0.00    -0.248 NA
ATOM     38  C   UNL A   1      40.240  25.470  27.985  1.00  0.00     0.031 C 
ATOM     39  C   UNL A   1      45.068  24.072  28.148  1.00  0.00     0.029 A 
ATOM     40  N   UNL A   1      44.568  26.132  28.858  1.00  0.00    -0.354 N 
ATOM     41  C   UNL A   1      40.519  27.611  28.744  1.00  0.00     0.074 A 
ATOM     42  C   UNL A   1      39.618  26.621  28.193  1.00  0.00     0.031 C 
ATOM     43  C   UNL A   1      46.216  24.655  28.527  1.00  0.00     0.029 A 
ATOM     44  C   UNL A   1      45.930  26.008  28.995  1.00  0.00     0.049 A 
ATOM     45  H   UNL A   1      44.076  26.953  29.088  1.00  0.00     0.167 HD
ATOM     46  C   UNL A   1      40.138  28.843  29.157  1.00  0.00     0.037 A 
ATOM     47  C   UNL A   1      46.843  26.884  29.455  1.00  0.00     0.037 A 
ATOM     48  C   UNL A   1      41.029  29.817  29.732  1.00  0.00     0.049 A 
ATOM     49  C   UNL A   1      46.392  28.234  29.932  1.00  0.00     0.074 A 
ATOM     50  C   UNL A   1      40.729  31.069  30.240  1.00  0.00     0.029 A 
ATOM     51  N   UNL A   1      42.398  29.646  29.874  1.00  0.00    -0.354 N 
ATOM     52  N   UNL A   1      45.183  28.740  29.961  1.00  0.00    -0.248 NA
ATOM     53  C   UNL A   1      47.434  29.133  30.449  1.00  0.00     0.031 C 
ATOM     54  C   UNL A   1      41.921  31.670  30.660  1.00  0.00     0.029 A 
ATOM     55  C   UNL A   1      42.958  30.777  30.447  1.00  0.00     0.049 A 
ATOM     56  H   UNL A   1      42.897  28.842  29.607  1.00  0.00     0.167 HD
ATOM     57  C   UNL A   1      45.314  30.005  30.516  1.00  0.00     0.074 A 
ATOM     58  C   UNL A   1      46.717  30.183  30.827  1.00  0.00     0.031 C 
ATOM     59  C   UNL A   1      44.358  30.938  30.745  1.00  0.00     0.037 A 
BRANCH  46  60
ATOM     60  C   UNL A   1      38.689  29.202  29.009  1.00  0.00     0.057 A 
ATOM     61  C   UNL A   1      38.157  29.626  27.783  1.00  0.00     0.134 A 
ATOM     62  C   UNL A   1      37.811  29.099  30.094  1.00  0.00     0.134 A 
ATOM     63  F   UNL A   1      38.948  29.757  26.708  1.00  0.00    -0.206 F 
ATOM     64  C   UNL A   1      36.809  29.959  27.649  1.00  0.00     0.040 A 
ATOM     65  C   UNL A   1      36.454  29.408  29.966  1.00  0.00     0.040 A 
ATOM     66  F   UNL A   1      38.254  28.696  31.294  1.00  0.00    -0.206 F 
ATOM     67  C   UNL A   1      35.951  29.845  28.742  1.00  0.00     0.006 A 
ENDBRANCH  46  60
BRANCH  47  68
ATOM     68  C   UNL A   1      48.273  26.493  29.524  1.00  0.00     0.057 A 
ATOM     69  C   UNL A   1      49.151  26.796  28.479  1.00  0.00     0.134 A 
ATOM     70  C   UNL A   1      48.791  25.812  30.631  1.00  0.00     0.134 A 
ATOM     71  F   UNL A   1      48.705  27.432  27.385  1.00  0.00    -0.206 F 
ATOM     72  C   UNL A   1      50.494  26.421  28.523  1.00  0.00     0.040 A 
ATOM     73  C   UNL A   1      50.138  25.450  30.698  1.00  0.00     0.040 A 
ATOM     74  F   UNL A   1      48.000  25.502  31.668  1.00  0.00    -0.206 F 
ATOM     75  C   UNL A   1      50.992  25.750  29.638  1.00  0.00     0.006 A 
ENDBRANCH  47  68
BRANCH  59  76
ATOM     76  C   UNL A   1      44.802  32.223  31.377  1.00  0.00     0.057 A 
ATOM     77  C   UNL A   1      44.837  32.387  32.768  1.00  0.00     0.134 A 
ATOM     78  C   UNL A   1      45.212  33.304  30.587  1.00  0.00     0.134 A 
ATOM     79  F   UNL A   1      44.442  31.393  33.579  1.00  0.00    -0.206 F 
ATOM     80  C   UNL A   1      45.238  33.589  33.351  1.00  0.00     0.040 A 
ATOM     81  C   UNL A   1      45.639  34.504  31.158  1.00  0.00     0.040 A 
ATOM     82  F   UNL A   1      45.209  33.210  29.249  1.00  0.00    -0.206 F 
ATOM     83  C   UNL A   1      45.645  34.651  32.545  1.00  0.00     0.006 A 
ENDBRANCH  59  76
ENDBRANCH  33  34
ENDBRANCH  25  28
ENDBRANCH  23  24
ENDBRANCH  22  23
ENDBRANCH   1  22
TORSDOF 14
ENDMDL
MODEL 3
REMARK VINA RESULT:     -11.1      4.798      9.596
REMARK SMILES CCCc1nc(C[N@H+]2CCCC[C@@H]2C(=O)NCCCNC(=O)c2ccc(-c3c4nc(c(-c5c(F)cccc5F)c5ccc([nH]5)c(-c5c(F)cccc5F)c5nc(c(-c6c(F)cccc6F)c6ccc3[nH]6)C=C5)C=C4)cc2)cs1
REMARK SMILES IDX 17 1 16 2 14 3 15 4 13 6 8 7 9 8 10 10 12 11 11 12 7 13 6 14
REMARK SMILES IDX 4 15 5 16 78 17 77 18 3 19 2 20 1 21 18 22 19 23 20 24 21 25
REMARK SMILES IDX 22 27 23 28 24 29 76 30 25 31 75 32 26 33 27 34 28 35 69 36
REMARK SMILES IDX 29 37 74 38 68 39 70 40 30 41 73 42 67 43 66 44 31 46 57 47
REMARK SMILES IDX 40 48 56 49 41 50 44 51 55 52 71 53 42 54 43 55 54 57 72 58
REMARK SMILES IDX 45 59 32 60 33 61 38 62 34 63 35 64 37 65 39 66 36 67 58 68
REMARK SMILES IDX 59 69 64 70 60 71 61 72 63 73 65 74 62 75 46 76 47 77 52 78
REMARK SMILES IDX 48 79 49 80 51 81 53 82 50 83
REMARK H PARENT 16 5 8 9 20 26 70 45 44 56
REMARK Flexibility Score: inf
ROOT
ATOM      1  C   UNL A   1      31.668  29.724  25.387  1.00  0.00     0.118 C 
ENDROOT
BRANCH   1   2
ATOM      2  N   UNL A   1      32.617  29.713  24.285  1.00  0.00    -0.351 N 
ATOM      3  C   UNL A   1      33.266  28.668  23.694  1.00  0.00     0.278 C 
ATOM      4  O   UNL A   1      34.041  28.931  22.769  1.00  0.00    -0.268 OA
ATOM      5  H   UNL A   1      32.821  30.598  23.905  1.00  0.00     0.163 HD
BRANCH   3   6
ATOM      6  C   UNL A   1      33.033  27.207  24.136  1.00  0.00     0.274 C 
ATOM      7  N   UNL A   1      31.604  26.835  24.021  1.00  0.00    -0.320 N 
ATOM      8  C   UNL A   1      31.330  25.480  24.514  1.00  0.00     0.263 C 
ATOM      9  H   UNL A   1      31.123  27.484  24.643  1.00  0.00     0.349 HD
ATOM     10  C   UNL A   1      31.807  25.309  25.957  1.00  0.00     0.062 C 
ATOM     11  C   UNL A   1      33.602  26.994  25.548  1.00  0.00     0.076 C 
ATOM     12  C   UNL A   1      33.298  25.599  26.076  1.00  0.00     0.012 C 
BRANCH   7  13
ATOM     13  C   UNL A   1      31.015  27.070  22.686  1.00  0.00     0.321 C 
BRANCH  13  14
ATOM     14  C   UNL A   1      29.892  28.068  22.652  1.00  0.00     0.106 A 
ATOM     15  C   UNL A   1      29.002  29.992  21.975  1.00  0.00     0.093 A 
ATOM     16  N   UNL A   1      30.091  29.253  21.957  1.00  0.00    -0.240 NA
ATOM     17  S   UNL A   1      27.685  29.323  22.855  1.00  0.00    -0.127 S 
ATOM     18  C   UNL A   1      28.624  27.932  23.187  1.00  0.00     0.096 A 
BRANCH  15  19
ATOM     19  C   UNL A   1      28.835  31.287  21.240  1.00  0.00     0.067 C 
BRANCH  19  20
ATOM     20  C   UNL A   1      28.095  32.366  22.035  1.00  0.00     0.004 C 
ATOM     21  C   UNL A   1      28.958  33.084  23.066  1.00  0.00     0.004 C 
ENDBRANCH  19  20
ENDBRANCH  15  19
ENDBRANCH  13  14
ENDBRANCH   7  13
ENDBRANCH   3   6
ENDBRANCH   1   2
BRANCH   1  22
ATOM     22  C   UNL A   1      31.382  31.143  25.868  1.00  0.00     0.042 C 
BRANCH  22  23
ATOM     23  C   UNL A   1      32.317  31.623  26.970  1.00  0.00     0.118 C 
BRANCH  23  24
ATOM     24  N   UNL A   1      32.153  33.037  27.269  1.00  0.00    -0.352 N 
ATOM     25  C   UNL A   1      32.922  33.864  28.049  1.00  0.00     0.251 C 
ATOM     26  H   UNL A   1      31.372  33.465  26.851  1.00  0.00     0.163 HD
ATOM     27  O   UNL A   1      32.518  34.995  28.315  1.00  0.00    -0.269 OA
BRANCH  25  28
ATOM     28  C   UNL A   1      34.218  33.401  28.590  1.00  0.00     0.039 A 
ATOM     29  C   UNL A   1      34.217  32.639  29.762  1.00  0.00     0.014 A 
ATOM     30  C   UNL A   1      35.428  33.733  27.975  1.00  0.00     0.014 A 
ATOM     31  C   UNL A   1      35.422  32.164  30.283  1.00  0.00     0.010 A 
ATOM     32  C   UNL A   1      36.623  33.197  28.453  1.00  0.00     0.010 A 
ATOM     33  C   UNL A   1      36.633  32.414  29.615  1.00  0.00    -0.014 A 
BRANCH  33  34
ATOM     34  C   UNL A   1      37.910  31.858  30.129  1.00  0.00     0.031 A 
ATOM     35  C   UNL A   1      38.610  32.503  31.291  1.00  0.00     0.074 A 
ATOM     36  C   UNL A   1      38.460  30.791  29.519  1.00  0.00     0.049 A 
ATOM     37  N   UNL A   1      39.734  32.162  31.872  1.00  0.00    -0.248 NA
ATOM     38  C   UNL A   1      37.981  33.705  31.862  1.00  0.00     0.031 C 
ATOM     39  C   UNL A   1      37.909  30.111  28.345  1.00  0.00     0.029 A 
ATOM     40  N   UNL A   1      39.604  30.091  29.802  1.00  0.00    -0.354 N 
ATOM     41  C   UNL A   1      39.951  33.110  32.863  1.00  0.00     0.074 A 
ATOM     42  C   UNL A   1      38.871  34.069  32.774  1.00  0.00     0.031 C 
ATOM     43  C   UNL A   1      38.701  29.074  28.027  1.00  0.00     0.029 A 
ATOM     44  C   UNL A   1      39.825  29.031  28.958  1.00  0.00     0.049 A 
ATOM     45  H   UNL A   1      40.212  30.327  30.540  1.00  0.00     0.167 HD
ATOM     46  C   UNL A   1      40.945  33.164  33.781  1.00  0.00     0.037 A 
ATOM     47  C   UNL A   1      40.816  28.120  28.941  1.00  0.00     0.037 A 
ATOM     48  C   UNL A   1      42.004  32.194  33.888  1.00  0.00     0.049 A 
ATOM     49  C   UNL A   1      41.893  28.187  29.986  1.00  0.00     0.074 A 
ATOM     50  C   UNL A   1      43.022  32.126  34.824  1.00  0.00     0.029 A 
ATOM     51  N   UNL A   1      42.181  31.122  33.027  1.00  0.00    -0.354 N 
ATOM     52  N   UNL A   1      42.046  29.047  30.962  1.00  0.00    -0.248 NA
ATOM     53  C   UNL A   1      42.930  27.147  29.930  1.00  0.00     0.031 C 
ATOM     54  C   UNL A   1      43.834  31.030  34.510  1.00  0.00     0.029 A 
ATOM     55  C   UNL A   1      43.300  30.396  33.401  1.00  0.00     0.049 A 
ATOM     56  H   UNL A   1      41.598  30.909  32.264  1.00  0.00     0.167 HD
ATOM     57  C   UNL A   1      43.182  28.643  31.649  1.00  0.00     0.074 A 
ATOM     58  C   UNL A   1      43.669  27.449  30.989  1.00  0.00     0.031 C 
ATOM     59  C   UNL A   1      43.772  29.212  32.729  1.00  0.00     0.037 A 
BRANCH  46  60
ATOM     60  C   UNL A   1      40.927  34.309  34.749  1.00  0.00     0.057 A 
ATOM     61  C   UNL A   1      40.268  34.220  35.983  1.00  0.00     0.134 A 
ATOM     62  C   UNL A   1      41.596  35.505  34.459  1.00  0.00     0.134 A 
ATOM     63  F   UNL A   1      39.598  33.107  36.316  1.00  0.00    -0.206 F 
ATOM     64  C   UNL A   1      40.253  35.288  36.881  1.00  0.00     0.040 A 
ATOM     65  C   UNL A   1      41.607  36.572  35.360  1.00  0.00     0.040 A 
ATOM     66  F   UNL A   1      42.250  35.656  33.297  1.00  0.00    -0.206 F 
ATOM     67  C   UNL A   1      40.929  36.467  36.573  1.00  0.00     0.006 A 
ENDBRANCH  46  60
BRANCH  47  68
ATOM     68  C   UNL A   1      40.813  27.043  27.921  1.00  0.00     0.057 A 
ATOM     69  C   UNL A   1      41.558  27.166  26.744  1.00  0.00     0.134 A 
ATOM     70  C   UNL A   1      40.072  25.870  28.099  1.00  0.00     0.134 A 
ATOM     71  F   UNL A   1      42.274  28.277  26.511  1.00  0.00    -0.206 F 
ATOM     72  C   UNL A   1      41.552  26.169  25.768  1.00  0.00     0.040 A 
ATOM     73  C   UNL A   1      40.074  24.854  27.142  1.00  0.00     0.040 A 
ATOM     74  F   UNL A   1      39.345  25.690  29.212  1.00  0.00    -0.206 F 
ATOM     75  C   UNL A   1      40.812  25.006  25.969  1.00  0.00     0.006 A 
ENDBRANCH  47  68
BRANCH  59  76
ATOM     76  C   UNL A   1      44.998  28.536  33.267  1.00  0.00     0.057 A 
ATOM     77  C   UNL A   1      44.915  27.518  34.226  1.00  0.00     0.134 A 
ATOM     78  C   UNL A   1      46.271  28.896  32.812  1.00  0.00     0.134 A 
ATOM     79  F   UNL A   1      43.723  27.138  34.713  1.00  0.00    -0.206 F 
ATOM     80  C   UNL A   1      46.059  26.900  34.733  1.00  0.00     0.040 A 
ATOM     81  C   UNL A   1      47.422  28.269  33.294  1.00  0.00     0.040 A 
ATOM     82  F   UNL A   1      46.419  29.858  31.889  1.00  0.00    -0.206 F 
ATOM     83  C   UNL A   1      47.317  27.273  34.264  1.00  0.00     0.006 A 
ENDBRANCH  59  76
ENDBRANCH  33  34
ENDBRANCH  25  28
ENDBRANCH  23  24
ENDBRANCH  22  23
ENDBRANCH   1  22
TORSDOF 14
ENDMDL
