MODEL 1
REMARK VINA RESULT:     -11.4      0.000      0.000
REMARK SMILES C[N@@H+](Cc1ccc2nsnc2c1)Cc1ccccc1C(=O)NCCCNC(=O)c1ccc(-c2c3nc(c(-c4c(F)cccc4F)c4ccc([nH]4)c(-c4c(F)cccc4F)c4nc(c(-c5c(F)cccc5F)c5ccc2[nH]5)C=C4)C=C3)cc1
REMARK SMILES IDX 23 1 22 2 20 3 21 4 19 6 14 7 15 8 16 9 18 10 17 11 13 12
REMARK SMILES IDX 2 13 1 14 3 16 4 17 5 18 12 19 6 20 11 21 7 22 10 23 8 24
REMARK SMILES IDX 9 25 24 26 25 27 26 28 27 29 28 31 29 32 30 33 82 34 31 35
REMARK SMILES IDX 81 36 32 37 33 38 34 39 75 40 35 41 80 42 74 43 76 44 36 45
REMARK SMILES IDX 79 46 73 47 72 48 37 50 63 51 46 52 62 53 47 54 50 55 61 56
REMARK SMILES IDX 77 57 48 58 49 59 60 61 78 62 51 63 38 64 39 65 44 66 40 67
REMARK SMILES IDX 41 68 43 69 45 70 42 71 64 72 65 73 70 74 66 75 67 76 69 77
REMARK SMILES IDX 71 78 68 79 52 80 53 81 58 82 54 83 55 84 57 85 59 86 56 87
REMARK H PARENT 22 5 2 15 26 30 76 49 50 60
REMARK Flexibility Score: inf
ROOT
ATOM      1  C   UNL A   1      33.102  28.647  24.674  1.00  0.00     0.118 C 
ENDROOT
BRANCH   1   2
ATOM      2  N   UNL A   1      33.294  27.803  23.463  1.00  0.00    -0.352 N 
ATOM      3  C   UNL A   1      33.146  26.632  22.752  1.00  0.00     0.251 C 
ATOM      4  O   UNL A   1      33.632  26.875  21.621  1.00  0.00    -0.269 OA
ATOM      5  H   UNL A   1      33.786  28.390  22.845  1.00  0.00     0.163 HD
BRANCH   3   6
ATOM      6  C   UNL A   1      32.571  25.189  22.858  1.00  0.00     0.048 A 
ATOM      7  C   UNL A   1      31.682  24.434  23.678  1.00  0.00     0.019 A 
ATOM      8  C   UNL A   1      31.662  22.991  23.585  1.00  0.00     0.010 A 
ATOM      9  C   UNL A   1      32.392  22.267  22.667  1.00  0.00     0.001 A 
ATOM     10  C   UNL A   1      33.256  24.371  21.895  1.00  0.00     0.014 A 
ATOM     11  C   UNL A   1      33.176  22.970  21.792  1.00  0.00     0.001 A 
BRANCH   7  12
ATOM     12  C   UNL A   1      30.626  24.788  24.696  1.00  0.00     0.299 C 
BRANCH  12  13
ATOM     13  N   UNL A   1      30.953  24.717  26.078  1.00  0.00    -0.330 N 
ATOM     14  C   UNL A   1      30.129  23.718  26.698  1.00  0.00     0.333 C 
ATOM     15  H   UNL A   1      30.708  25.540  26.628  1.00  0.00     0.348 HD
BRANCH  13  16
ATOM     16  C   UNL A   1      32.294  25.132  26.514  1.00  0.00     0.299 C 
BRANCH  16  17
ATOM     17  C   UNL A   1      33.447  24.098  26.458  1.00  0.00     0.009 A 
ATOM     18  C   UNL A   1      33.380  22.832  27.116  1.00  0.00     0.012 A 
ATOM     19  C   UNL A   1      34.576  24.404  25.652  1.00  0.00     0.041 A 
ATOM     20  C   UNL A   1      34.289  21.763  26.913  1.00  0.00     0.032 A 
ATOM     21  C   UNL A   1      35.489  23.356  25.364  1.00  0.00     0.105 A 
ATOM     22  C   UNL A   1      35.331  22.004  25.994  1.00  0.00     0.104 A 
ATOM     23  N   UNL A   1      36.530  23.430  24.520  1.00  0.00    -0.173 NA
ATOM     24  N   UNL A   1      36.254  21.117  25.590  1.00  0.00    -0.173 NA
ATOM     25  S   UNL A   1      37.208  21.913  24.485  1.00  0.00     0.069 S 
ENDBRANCH  16  17
ENDBRANCH  13  16
ENDBRANCH  12  13
ENDBRANCH   7  12
ENDBRANCH   3   6
ENDBRANCH   1   2
BRANCH   1  26
ATOM     26  C   UNL A   1      34.067  28.352  25.830  1.00  0.00     0.042 C 
BRANCH  26  27
ATOM     27  C   UNL A   1      33.574  28.585  27.250  1.00  0.00     0.118 C 
BRANCH  27  28
ATOM     28  N   UNL A   1      33.621  29.988  27.656  1.00  0.00    -0.352 N 
ATOM     29  C   UNL A   1      34.612  30.706  28.281  1.00  0.00     0.251 C 
ATOM     30  H   UNL A   1      32.808  30.503  27.448  1.00  0.00     0.163 HD
ATOM     31  O   UNL A   1      34.348  31.850  28.696  1.00  0.00    -0.269 OA
BRANCH  29  32
ATOM     32  C   UNL A   1      35.982  30.174  28.481  1.00  0.00     0.039 A 
ATOM     33  C   UNL A   1      36.336  29.599  29.710  1.00  0.00     0.014 A 
ATOM     34  C   UNL A   1      36.955  30.296  27.489  1.00  0.00     0.014 A 
ATOM     35  C   UNL A   1      37.637  29.120  29.920  1.00  0.00     0.010 A 
ATOM     36  C   UNL A   1      38.205  29.709  27.651  1.00  0.00     0.010 A 
ATOM     37  C   UNL A   1      38.580  29.156  28.882  1.00  0.00    -0.014 A 
BRANCH  37  38
ATOM     38  C   UNL A   1      39.995  28.734  29.067  1.00  0.00     0.031 A 
ATOM     39  C   UNL A   1      40.987  29.723  29.631  1.00  0.00     0.074 A 
ATOM     40  C   UNL A   1      40.411  27.521  28.653  1.00  0.00     0.049 A 
ATOM     41  N   UNL A   1      42.290  29.641  29.717  1.00  0.00    -0.248 NA
ATOM     42  C   UNL A   1      40.441  31.004  30.111  1.00  0.00     0.031 C 
ATOM     43  C   UNL A   1      39.564  26.496  28.042  1.00  0.00     0.029 A 
ATOM     44  N   UNL A   1      41.661  26.955  28.667  1.00  0.00    -0.354 N 
ATOM     45  C   UNL A   1      42.714  30.872  30.207  1.00  0.00     0.074 A 
ATOM     46  C   UNL A   1      41.541  31.704  30.338  1.00  0.00     0.031 C 
ATOM     47  C   UNL A   1      40.314  25.418  27.760  1.00  0.00     0.029 A 
ATOM     48  C   UNL A   1      41.699  25.688  28.135  1.00  0.00     0.049 A 
ATOM     49  H   UNL A   1      42.456  27.413  29.024  1.00  0.00     0.167 HD
ATOM     50  C   UNL A   1      43.964  31.266  30.551  1.00  0.00     0.037 A 
ATOM     51  C   UNL A   1      42.735  24.846  27.968  1.00  0.00     0.037 A 
ATOM     52  C   UNL A   1      45.114  30.405  30.492  1.00  0.00     0.049 A 
ATOM     53  C   UNL A   1      44.106  25.279  28.413  1.00  0.00     0.074 A 
ATOM     54  C   UNL A   1      46.410  30.666  30.898  1.00  0.00     0.029 A 
ATOM     55  N   UNL A   1      45.095  29.105  30.009  1.00  0.00    -0.354 N 
ATOM     56  N   UNL A   1      44.484  26.426  28.927  1.00  0.00    -0.248 NA
ATOM     57  C   UNL A   1      45.192  24.301  28.265  1.00  0.00     0.031 C 
ATOM     58  C   UNL A   1      47.184  29.530  30.633  1.00  0.00     0.029 A 
ATOM     59  C   UNL A   1      46.360  28.551  30.100  1.00  0.00     0.049 A 
ATOM     60  H   UNL A   1      44.301  28.644  29.655  1.00  0.00     0.167 HD
ATOM     61  C   UNL A   1      45.841  26.299  29.186  1.00  0.00     0.074 A 
ATOM     62  C   UNL A   1      46.218  24.958  28.787  1.00  0.00     0.031 C 
ATOM     63  C   UNL A   1      46.702  27.208  29.705  1.00  0.00     0.037 A 
BRANCH  50  64
ATOM     64  C   UNL A   1      44.140  32.677  31.037  1.00  0.00     0.057 A 
ATOM     65  C   UNL A   1      44.034  33.015  32.394  1.00  0.00     0.134 A 
ATOM     66  C   UNL A   1      44.430  33.713  30.140  1.00  0.00     0.134 A 
ATOM     67  F   UNL A   1      43.744  32.075  33.307  1.00  0.00    -0.206 F 
ATOM     68  C   UNL A   1      44.168  34.332  32.835  1.00  0.00     0.040 A 
ATOM     69  C   UNL A   1      44.600  35.030  30.573  1.00  0.00     0.040 A 
ATOM     70  F   UNL A   1      44.555  33.464  28.828  1.00  0.00    -0.206 F 
ATOM     71  C   UNL A   1      44.458  35.344  31.923  1.00  0.00     0.006 A 
ENDBRANCH  50  64
BRANCH  51  72
ATOM     72  C   UNL A   1      42.511  23.495  27.392  1.00  0.00     0.057 A 
ATOM     73  C   UNL A   1      42.613  23.275  26.013  1.00  0.00     0.134 A 
ATOM     74  C   UNL A   1      42.205  22.391  28.198  1.00  0.00     0.134 A 
ATOM     75  F   UNL A   1      42.887  24.295  25.187  1.00  0.00    -0.206 F 
ATOM     76  C   UNL A   1      42.404  22.014  25.453  1.00  0.00     0.040 A 
ATOM     77  C   UNL A   1      42.016  21.119  27.654  1.00  0.00     0.040 A 
ATOM     78  F   UNL A   1      42.102  22.532  29.528  1.00  0.00    -0.206 F 
ATOM     79  C   UNL A   1      42.110  20.929  26.276  1.00  0.00     0.006 A 
ENDBRANCH  51  72
BRANCH  63  80
ATOM     80  C   UNL A   1      48.122  26.772  29.900  1.00  0.00     0.057 A 
ATOM     81  C   UNL A   1      48.531  26.079  31.046  1.00  0.00     0.134 A 
ATOM     82  C   UNL A   1      49.081  27.006  28.906  1.00  0.00     0.134 A 
ATOM     83  F   UNL A   1      47.661  25.833  32.037  1.00  0.00    -0.206 F 
ATOM     84  C   UNL A   1      49.849  25.652  31.205  1.00  0.00     0.040 A 
ATOM     85  C   UNL A   1      50.396  26.562  29.044  1.00  0.00     0.040 A 
ATOM     86  F   UNL A   1      48.750  27.656  27.779  1.00  0.00    -0.206 F 
ATOM     87  C   UNL A   1      50.784  25.888  30.199  1.00  0.00     0.006 A 
ENDBRANCH  63  80
ENDBRANCH  37  38
ENDBRANCH  29  32
ENDBRANCH  27  28
ENDBRANCH  26  27
ENDBRANCH   1  26
TORSDOF 14
ENDMDL
MODEL 2
REMARK VINA RESULT:     -11.4      2.276      3.753
REMARK SMILES C[N@@H+](Cc1ccc2nsnc2c1)Cc1ccccc1C(=O)NCCCNC(=O)c1ccc(-c2c3nc(c(-c4c(F)cccc4F)c4ccc([nH]4)c(-c4c(F)cccc4F)c4nc(c(-c5c(F)cccc5F)c5ccc2[nH]5)C=C4)C=C3)cc1
REMARK SMILES IDX 23 1 22 2 20 3 21 4 19 6 14 7 15 8 16 9 18 10 17 11 13 12
REMARK SMILES IDX 2 13 1 14 3 16 4 17 5 18 12 19 6 20 11 21 7 22 10 23 8 24
REMARK SMILES IDX 9 25 24 26 25 27 26 28 27 29 28 31 29 32 30 33 82 34 31 35
REMARK SMILES IDX 81 36 32 37 33 38 34 39 75 40 35 41 80 42 74 43 76 44 36 45
REMARK SMILES IDX 79 46 73 47 72 48 37 50 63 51 46 52 62 53 47 54 50 55 61 56
REMARK SMILES IDX 77 57 48 58 49 59 60 61 78 62 51 63 38 64 39 65 44 66 40 67
REMARK SMILES IDX 41 68 43 69 45 70 42 71 64 72 65 73 70 74 66 75 67 76 69 77
REMARK SMILES IDX 71 78 68 79 52 80 53 81 58 82 54 83 55 84 57 85 59 86 56 87
REMARK H PARENT 22 5 2 15 26 30 76 49 50 60
REMARK Flexibility Score: inf
ROOT
ATOM      1  C   UNL A   1      31.366  27.550  26.798  1.00  0.00     0.118 C 
ENDROOT
BRANCH   1   2
ATOM      2  N   UNL A   1      31.462  26.067  26.872  1.00  0.00    -0.352 N 
ATOM      3  C   UNL A   1      32.034  24.860  26.533  1.00  0.00     0.251 C 
ATOM      4  O   UNL A   1      31.419  24.006  27.217  1.00  0.00    -0.269 OA
ATOM      5  H   UNL A   1      30.733  25.816  27.483  1.00  0.00     0.163 HD
BRANCH   3   6
ATOM      6  C   UNL A   1      33.158  24.230  25.660  1.00  0.00     0.048 A 
ATOM      7  C   UNL A   1      33.415  23.898  24.297  1.00  0.00     0.019 A 
ATOM      8  C   UNL A   1      34.517  23.024  23.961  1.00  0.00     0.010 A 
ATOM      9  C   UNL A   1      35.429  22.546  24.877  1.00  0.00     0.001 A 
ATOM     10  C   UNL A   1      34.180  23.739  26.545  1.00  0.00     0.014 A 
ATOM     11  C   UNL A   1      35.274  22.934  26.181  1.00  0.00     0.001 A 
BRANCH   7  12
ATOM     12  C   UNL A   1      32.791  24.288  22.980  1.00  0.00     0.299 C 
BRANCH  12  13
ATOM     13  N   UNL A   1      31.577  25.027  22.987  1.00  0.00    -0.330 N 
ATOM     14  C   UNL A   1      30.495  24.135  23.299  1.00  0.00     0.333 C 
ATOM     15  H   UNL A   1      31.277  25.386  22.081  1.00  0.00     0.348 HD
BRANCH  13  16
ATOM     16  C   UNL A   1      31.621  26.469  23.264  1.00  0.00     0.299 C 
BRANCH  16  17
ATOM     17  C   UNL A   1      30.343  27.313  23.024  1.00  0.00     0.009 A 
ATOM     18  C   UNL A   1      29.068  26.947  23.557  1.00  0.00     0.012 A 
ATOM     19  C   UNL A   1      30.474  28.533  22.311  1.00  0.00     0.041 A 
ATOM     20  C   UNL A   1      27.925  27.785  23.571  1.00  0.00     0.032 A 
ATOM     21  C   UNL A   1      29.383  29.440  22.340  1.00  0.00     0.105 A 
ATOM     22  C   UNL A   1      28.089  29.064  22.999  1.00  0.00     0.104 A 
ATOM     23  N   UNL A   1      29.380  30.684  21.837  1.00  0.00    -0.173 NA
ATOM     24  N   UNL A   1      27.173  30.045  22.972  1.00  0.00    -0.173 NA
ATOM     25  S   UNL A   1      27.899  31.335  22.216  1.00  0.00     0.069 S 
ENDBRANCH  16  17
ENDBRANCH  13  16
ENDBRANCH  12  13
ENDBRANCH   7  12
ENDBRANCH   3   6
ENDBRANCH   1   2
BRANCH   1  26
ATOM     26  C   UNL A   1      32.595  28.251  26.205  1.00  0.00     0.042 C 
BRANCH  26  27
ATOM     27  C   UNL A   1      33.768  28.546  27.129  1.00  0.00     0.118 C 
BRANCH  27  28
ATOM     28  N   UNL A   1      33.794  29.926  27.610  1.00  0.00    -0.352 N 
ATOM     29  C   UNL A   1      34.767  30.619  28.287  1.00  0.00     0.251 C 
ATOM     30  H   UNL A   1      32.980  30.445  27.415  1.00  0.00     0.163 HD
ATOM     31  O   UNL A   1      34.486  31.737  28.758  1.00  0.00    -0.269 OA
BRANCH  29  32
ATOM     32  C   UNL A   1      36.139  30.089  28.482  1.00  0.00     0.039 A 
ATOM     33  C   UNL A   1      36.497  29.509  29.707  1.00  0.00     0.014 A 
ATOM     34  C   UNL A   1      37.110  30.219  27.489  1.00  0.00     0.014 A 
ATOM     35  C   UNL A   1      37.800  29.033  29.913  1.00  0.00     0.010 A 
ATOM     36  C   UNL A   1      38.362  29.634  27.645  1.00  0.00     0.010 A 
ATOM     37  C   UNL A   1      38.741  29.076  28.873  1.00  0.00    -0.014 A 
BRANCH  37  38
ATOM     38  C   UNL A   1      40.157  28.656  29.054  1.00  0.00     0.031 A 
ATOM     39  C   UNL A   1      41.147  29.644  29.624  1.00  0.00     0.074 A 
ATOM     40  C   UNL A   1      40.576  27.449  28.629  1.00  0.00     0.049 A 
ATOM     41  N   UNL A   1      42.450  29.565  29.709  1.00  0.00    -0.248 NA
ATOM     42  C   UNL A   1      40.597  30.919  30.115  1.00  0.00     0.031 C 
ATOM     43  C   UNL A   1      39.732  26.426  28.011  1.00  0.00     0.029 A 
ATOM     44  N   UNL A   1      41.828  26.885  28.637  1.00  0.00    -0.354 N 
ATOM     45  C   UNL A   1      42.871  30.793  30.208  1.00  0.00     0.074 A 
ATOM     46  C   UNL A   1      41.695  31.620  30.347  1.00  0.00     0.031 C 
ATOM     47  C   UNL A   1      40.484  25.352  27.719  1.00  0.00     0.029 A 
ATOM     48  C   UNL A   1      41.869  25.623  28.095  1.00  0.00     0.049 A 
ATOM     49  H   UNL A   1      42.622  27.343  28.998  1.00  0.00     0.167 HD
ATOM     50  C   UNL A   1      44.120  31.187  30.554  1.00  0.00     0.037 A 
ATOM     51  C   UNL A   1      42.908  24.785  27.920  1.00  0.00     0.037 A 
ATOM     52  C   UNL A   1      45.273  30.331  30.487  1.00  0.00     0.049 A 
ATOM     53  C   UNL A   1      44.278  25.219  28.367  1.00  0.00     0.074 A 
ATOM     54  C   UNL A   1      46.568  30.592  30.894  1.00  0.00     0.029 A 
ATOM     55  N   UNL A   1      45.257  29.035  29.994  1.00  0.00    -0.354 N 
ATOM     56  N   UNL A   1      44.652  26.363  28.890  1.00  0.00    -0.248 NA
ATOM     57  C   UNL A   1      45.366  24.246  28.210  1.00  0.00     0.031 C 
ATOM     58  C   UNL A   1      47.345  29.461  30.619  1.00  0.00     0.029 A 
ATOM     59  C   UNL A   1      46.524  28.483  30.079  1.00  0.00     0.049 A 
ATOM     60  H   UNL A   1      44.464  28.575  29.637  1.00  0.00     0.167 HD
ATOM     61  C   UNL A   1      46.010  26.238  29.147  1.00  0.00     0.074 A 
ATOM     62  C   UNL A   1      46.391  24.901  28.736  1.00  0.00     0.031 C 
ATOM     63  C   UNL A   1      46.869  27.145  29.673  1.00  0.00     0.037 A 
BRANCH  50  64
ATOM     64  C   UNL A   1      44.293  32.595  31.052  1.00  0.00     0.057 A 
ATOM     65  C   UNL A   1      44.187  32.921  32.412  1.00  0.00     0.134 A 
ATOM     66  C   UNL A   1      44.578  33.640  30.163  1.00  0.00     0.134 A 
ATOM     67  F   UNL A   1      43.902  31.973  33.317  1.00  0.00    -0.206 F 
ATOM     68  C   UNL A   1      44.318  34.235  32.864  1.00  0.00     0.040 A 
ATOM     69  C   UNL A   1      44.744  34.953  30.607  1.00  0.00     0.040 A 
ATOM     70  F   UNL A   1      44.701  33.402  28.849  1.00  0.00    -0.206 F 
ATOM     71  C   UNL A   1      44.604  35.256  31.959  1.00  0.00     0.006 A 
ENDBRANCH  50  64
BRANCH  51  72
ATOM     72  C   UNL A   1      42.687  23.439  27.333  1.00  0.00     0.057 A 
ATOM     73  C   UNL A   1      42.319  22.354  28.139  1.00  0.00     0.134 A 
ATOM     74  C   UNL A   1      42.822  23.202  25.960  1.00  0.00     0.134 A 
ATOM     75  F   UNL A   1      42.190  22.514  29.464  1.00  0.00    -0.206 F 
ATOM     76  C   UNL A   1      42.109  21.082  27.607  1.00  0.00     0.040 A 
ATOM     77  C   UNL A   1      42.592  21.939  25.410  1.00  0.00     0.040 A 
ATOM     78  F   UNL A   1      43.163  24.199  25.131  1.00  0.00    -0.206 F 
ATOM     79  C   UNL A   1      42.240  20.873  26.235  1.00  0.00     0.006 A 
ENDBRANCH  51  72
BRANCH  63  80
ATOM     80  C   UNL A   1      48.291  26.711  29.862  1.00  0.00     0.057 A 
ATOM     81  C   UNL A   1      48.702  26.007  31.000  1.00  0.00     0.134 A 
ATOM     82  C   UNL A   1      49.249  26.960  28.871  1.00  0.00     0.134 A 
ATOM     83  F   UNL A   1      47.832  25.747  31.989  1.00  0.00    -0.206 F 
ATOM     84  C   UNL A   1      50.022  25.583  31.155  1.00  0.00     0.040 A 
ATOM     85  C   UNL A   1      50.565  26.519  29.004  1.00  0.00     0.040 A 
ATOM     86  F   UNL A   1      48.915  27.621  27.752  1.00  0.00    -0.206 F 
ATOM     87  C   UNL A   1      50.956  25.833  30.151  1.00  0.00     0.006 A 
ENDBRANCH  63  80
ENDBRANCH  37  38
ENDBRANCH  29  32
ENDBRANCH  27  28
ENDBRANCH  26  27
ENDBRANCH   1  26
TORSDOF 14
ENDMDL
MODEL 3
REMARK VINA RESULT:     -11.2      2.896      7.451
REMARK SMILES C[N@@H+](Cc1ccc2nsnc2c1)Cc1ccccc1C(=O)NCCCNC(=O)c1ccc(-c2c3nc(c(-c4c(F)cccc4F)c4ccc([nH]4)c(-c4c(F)cccc4F)c4nc(c(-c5c(F)cccc5F)c5ccc2[nH]5)C=C4)C=C3)cc1
REMARK SMILES IDX 23 1 22 2 20 3 21 4 19 6 14 7 15 8 16 9 18 10 17 11 13 12
REMARK SMILES IDX 2 13 1 14 3 16 4 17 5 18 12 19 6 20 11 21 7 22 10 23 8 24
REMARK SMILES IDX 9 25 24 26 25 27 26 28 27 29 28 31 29 32 30 33 82 34 31 35
REMARK SMILES IDX 81 36 32 37 33 38 34 39 75 40 35 41 80 42 74 43 76 44 36 45
REMARK SMILES IDX 79 46 73 47 72 48 37 50 63 51 46 52 62 53 47 54 50 55 61 56
REMARK SMILES IDX 77 57 48 58 49 59 60 61 78 62 51 63 38 64 39 65 44 66 40 67
REMARK SMILES IDX 41 68 43 69 45 70 42 71 64 72 65 73 70 74 66 75 67 76 69 77
REMARK SMILES IDX 71 78 68 79 52 80 53 81 58 82 54 83 55 84 57 85 59 86 56 87
REMARK H PARENT 22 5 2 15 26 30 76 49 50 60
REMARK Flexibility Score: inf
ROOT
ATOM      1  C   UNL A   1      36.742  18.863  24.987  1.00  0.00     0.118 C 
ENDROOT
BRANCH   1   2
ATOM      2  N   UNL A   1      35.368  19.435  24.958  1.00  0.00    -0.352 N 
ATOM      3  C   UNL A   1      34.484  20.489  24.889  1.00  0.00     0.251 C 
ATOM      4  O   UNL A   1      33.347  19.958  24.860  1.00  0.00    -0.269 OA
ATOM      5  H   UNL A   1      34.785  18.645  25.024  1.00  0.00     0.163 HD
BRANCH   3   6
ATOM      6  C   UNL A   1      34.420  22.042  24.799  1.00  0.00     0.048 A 
ATOM      7  C   UNL A   1      34.033  23.059  23.877  1.00  0.00     0.019 A 
ATOM      8  C   UNL A   1      34.431  24.431  24.106  1.00  0.00     0.010 A 
ATOM      9  C   UNL A   1      35.098  24.863  25.232  1.00  0.00     0.001 A 
ATOM     10  C   UNL A   1      35.062  22.578  25.968  1.00  0.00     0.014 A 
ATOM     11  C   UNL A   1      35.389  23.928  26.188  1.00  0.00     0.001 A 
BRANCH   7  12
ATOM     12  C   UNL A   1      33.204  23.082  22.617  1.00  0.00     0.299 C 
BRANCH  12  13
ATOM     13  N   UNL A   1      31.892  22.537  22.648  1.00  0.00    -0.330 N 
ATOM     14  C   UNL A   1      31.899  21.271  21.970  1.00  0.00     0.333 C 
ATOM     15  H   UNL A   1      31.194  23.045  22.105  1.00  0.00     0.348 HD
BRANCH  13  16
ATOM     16  C   UNL A   1      30.979  22.940  23.728  1.00  0.00     0.299 C 
BRANCH  16  17
ATOM     17  C   UNL A   1      30.810  24.450  24.034  1.00  0.00     0.009 A 
ATOM     18  C   UNL A   1      31.078  25.010  25.322  1.00  0.00     0.012 A 
ATOM     19  C   UNL A   1      30.449  25.310  22.964  1.00  0.00     0.041 A 
ATOM     20  C   UNL A   1      31.167  26.397  25.600  1.00  0.00     0.032 A 
ATOM     21  C   UNL A   1      30.576  26.709  23.164  1.00  0.00     0.105 A 
ATOM     22  C   UNL A   1      30.960  27.262  24.505  1.00  0.00     0.104 A 
ATOM     23  N   UNL A   1      30.408  27.657  22.229  1.00  0.00    -0.173 NA
ATOM     24  N   UNL A   1      31.073  28.599  24.518  1.00  0.00    -0.173 NA
ATOM     25  S   UNL A   1      30.760  29.104  22.965  1.00  0.00     0.069 S 
ENDBRANCH  16  17
ENDBRANCH  13  16
ENDBRANCH  12  13
ENDBRANCH   7  12
ENDBRANCH   3   6
ENDBRANCH   1   2
BRANCH   1  26
ATOM     26  C   UNL A   1      37.867  19.860  24.680  1.00  0.00     0.042 C 
BRANCH  26  27
ATOM     27  C   UNL A   1      38.882  20.154  25.775  1.00  0.00     0.118 C 
BRANCH  27  28
ATOM     28  N   UNL A   1      39.973  19.183  25.829  1.00  0.00    -0.352 N 
ATOM     29  C   UNL A   1      41.320  19.361  26.034  1.00  0.00     0.251 C 
ATOM     30  H   UNL A   1      39.697  18.247  25.697  1.00  0.00     0.163 HD
ATOM     31  O   UNL A   1      42.084  18.396  25.849  1.00  0.00    -0.269 OA
BRANCH  29  32
ATOM     32  C   UNL A   1      41.900  20.657  26.465  1.00  0.00     0.039 A 
ATOM     33  C   UNL A   1      42.055  20.933  27.831  1.00  0.00     0.014 A 
ATOM     34  C   UNL A   1      42.232  21.643  25.536  1.00  0.00     0.014 A 
ATOM     35  C   UNL A   1      42.573  22.168  28.250  1.00  0.00     0.010 A 
ATOM     36  C   UNL A   1      42.863  22.813  25.944  1.00  0.00     0.010 A 
ATOM     37  C   UNL A   1      42.999  23.113  27.306  1.00  0.00    -0.014 A 
BRANCH  37  38
ATOM     38  C   UNL A   1      43.485  24.467  27.687  1.00  0.00     0.031 A 
ATOM     39  C   UNL A   1      42.483  25.514  28.110  1.00  0.00     0.074 A 
ATOM     40  C   UNL A   1      44.788  24.788  27.570  1.00  0.00     0.049 A 
ATOM     41  N   UNL A   1      42.650  26.795  28.316  1.00  0.00    -0.248 NA
ATOM     42  C   UNL A   1      41.088  25.066  28.267  1.00  0.00     0.031 C 
ATOM     43  C   UNL A   1      45.848  23.885  27.120  1.00  0.00     0.029 A 
ATOM     44  N   UNL A   1      45.439  25.974  27.801  1.00  0.00    -0.354 N 
ATOM     45  C   UNL A   1      41.382  27.306  28.570  1.00  0.00     0.074 A 
ATOM     46  C   UNL A   1      40.448  26.213  28.430  1.00  0.00     0.031 C 
ATOM     47  C   UNL A   1      47.019  24.542  27.130  1.00  0.00     0.029 A 
ATOM     48  C   UNL A   1      46.789  25.921  27.550  1.00  0.00     0.049 A 
ATOM     49  H   UNL A   1      44.981  26.786  28.118  1.00  0.00     0.167 HD
ATOM     50  C   UNL A   1      41.027  28.564  28.923  1.00  0.00     0.037 A 
ATOM     51  C   UNL A   1      47.729  26.880  27.646  1.00  0.00     0.037 A 
ATOM     52  C   UNL A   1      41.971  29.628  29.137  1.00  0.00     0.049 A 
ATOM     53  C   UNL A   1      47.324  28.257  28.098  1.00  0.00     0.074 A 
ATOM     54  C   UNL A   1      41.736  30.915  29.582  1.00  0.00     0.029 A 
ATOM     55  N   UNL A   1      43.338  29.512  28.936  1.00  0.00    -0.354 N 
ATOM     56  N   UNL A   1      46.128  28.711  28.391  1.00  0.00    -0.248 NA
ATOM     57  C   UNL A   1      48.396  29.249  28.245  1.00  0.00     0.031 C 
ATOM     58  C   UNL A   1      42.961  31.590  29.622  1.00  0.00     0.029 A 
ATOM     59  C   UNL A   1      43.961  30.710  29.242  1.00  0.00     0.049 A 
ATOM     60  H   UNL A   1      43.798  28.700  28.624  1.00  0.00     0.167 HD
ATOM     61  C   UNL A   1      46.307  30.032  28.779  1.00  0.00     0.074 A 
ATOM     62  C   UNL A   1      47.728  30.300  28.699  1.00  0.00     0.031 C 
ATOM     63  C   UNL A   1      45.381  30.943  29.164  1.00  0.00     0.037 A 
BRANCH  50  64
ATOM     64  C   UNL A   1      39.563  28.847  29.117  1.00  0.00     0.057 A 
ATOM     65  C   UNL A   1      38.747  29.294  28.069  1.00  0.00     0.134 A 
ATOM     66  C   UNL A   1      38.957  28.660  30.366  1.00  0.00     0.134 A 
ATOM     67  F   UNL A   1      39.264  29.508  26.849  1.00  0.00    -0.206 F 
ATOM     68  C   UNL A   1      37.395  29.584  28.263  1.00  0.00     0.040 A 
ATOM     69  C   UNL A   1      37.598  28.915  30.566  1.00  0.00     0.040 A 
ATOM     70  F   UNL A   1      39.673  28.226  31.414  1.00  0.00    -0.206 F 
ATOM     71  C   UNL A   1      36.815  29.388  29.515  1.00  0.00     0.006 A 
ENDBRANCH  50  64
BRANCH  51  72
ATOM     72  C   UNL A   1      49.149  26.561  27.348  1.00  0.00     0.057 A 
ATOM     73  C   UNL A   1      49.983  26.009  28.328  1.00  0.00     0.134 A 
ATOM     74  C   UNL A   1      49.705  26.785  26.083  1.00  0.00     0.134 A 
ATOM     75  F   UNL A   1      49.514  25.786  29.564  1.00  0.00    -0.206 F 
ATOM     76  C   UNL A   1      51.320  25.704  28.067  1.00  0.00     0.040 A 
ATOM     77  C   UNL A   1      51.035  26.464  25.801  1.00  0.00     0.040 A 
ATOM     78  F   UNL A   1      48.958  27.303  25.096  1.00  0.00    -0.206 F 
ATOM     79  C   UNL A   1      51.848  25.927  26.797  1.00  0.00     0.006 A 
ENDBRANCH  51  72
BRANCH  63  80
ATOM     80  C   UNL A   1      45.880  32.300  29.558  1.00  0.00     0.057 A 
ATOM     81  C   UNL A   1      45.992  33.343  28.630  1.00  0.00     0.134 A 
ATOM     82  C   UNL A   1      46.205  32.579  30.892  1.00  0.00     0.134 A 
ATOM     83  F   UNL A   1      45.705  33.135  27.336  1.00  0.00    -0.206 F 
ATOM     84  C   UNL A   1      46.431  34.611  29.013  1.00  0.00     0.040 A 
ATOM     85  C   UNL A   1      46.621  33.849  31.289  1.00  0.00     0.040 A 
ATOM     86  F   UNL A   1      46.107  31.625  31.830  1.00  0.00    -0.206 F 
ATOM     87  C   UNL A   1      46.740  34.868  30.347  1.00  0.00     0.006 A 
ENDBRANCH  63  80
ENDBRANCH  37  38
ENDBRANCH  29  32
ENDBRANCH  27  28
ENDBRANCH  26  27
ENDBRANCH   1  26
TORSDOF 14
ENDMDL
