MODEL 1
REMARK VINA RESULT:     -10.6      0.000      0.000
REMARK SMILES CCCCCCC(=O)N1CCCC[C@H]1C(=O)NCCCNC(=O)c1ccc(-c2c3nc(c(-c4c(F)cccc4F)c4ccc([nH]4)c(-c4c(F)cccc4F)c4nc(c(-c5c(F)cccc5F)c5ccc2[nH]5)C=C4)C=C3)cc1
REMARK SMILES IDX 15 1 16 2 17 3 14 5 9 6 10 7 11 8 13 9 12 10 7 11 8 12 6 13
REMARK SMILES IDX 5 14 4 15 3 16 2 17 1 18 18 19 19 20 20 21 21 22 22 23 23 25
REMARK SMILES IDX 24 26 25 27 77 28 26 29 76 30 27 31 28 32 29 33 70 34 30 35
REMARK SMILES IDX 75 36 69 37 71 38 31 39 74 40 68 41 67 42 32 44 58 45 41 46
REMARK SMILES IDX 57 47 42 48 45 49 56 50 72 51 43 52 44 53 55 55 73 56 46 57
REMARK SMILES IDX 33 58 34 59 39 60 35 61 36 62 38 63 40 64 37 65 59 66 60 67
REMARK SMILES IDX 65 68 61 69 62 70 64 71 66 72 63 73 47 74 48 75 53 76 49 77
REMARK SMILES IDX 50 78 52 79 54 80 51 81
REMARK H PARENT 17 4 21 24 71 43 45 54
REMARK Flexibility Score: inf
ROOT
ATOM      1  C   UNL A   1      33.176  28.810  25.933  1.00  0.00     0.242 C 
ATOM      2  O   UNL A   1      34.403  28.827  26.096  1.00  0.00    -0.273 OA
ATOM      3  N   UNL A   1      32.620  30.041  25.801  1.00  0.00    -0.354 N 
ATOM      4  H   UNL A   1      33.290  30.755  25.693  1.00  0.00     0.163 HD
ENDROOT
BRANCH   1   5
ATOM      5  C   UNL A   1      32.417  27.466  25.721  1.00  0.00     0.174 C 
ATOM      6  N   UNL A   1      31.950  27.394  24.320  1.00  0.00    -0.331 N 
ATOM      7  C   UNL A   1      32.948  27.050  23.314  1.00  0.00     0.120 C 
ATOM      8  C   UNL A   1      33.626  25.727  23.631  1.00  0.00     0.022 C 
ATOM      9  C   UNL A   1      33.095  26.128  26.052  1.00  0.00     0.035 C 
ATOM     10  C   UNL A   1      34.176  25.736  25.051  1.00  0.00     0.004 C 
BRANCH   6  11
ATOM     11  C   UNL A   1      30.623  27.437  23.945  1.00  0.00     0.223 C 
ATOM     12  O   UNL A   1      29.774  26.747  24.512  1.00  0.00    -0.275 OA
BRANCH  11  13
ATOM     13  C   UNL A   1      30.289  28.169  22.652  1.00  0.00     0.100 C 
BRANCH  13  14
ATOM     14  C   UNL A   1      29.795  29.611  22.748  1.00  0.00     0.010 C 
BRANCH  14  15
ATOM     15  C   UNL A   1      28.275  29.798  22.869  1.00  0.00     0.001 C 
BRANCH  15  16
ATOM     16  C   UNL A   1      27.798  31.135  23.450  1.00  0.00    -0.000 C 
BRANCH  16  17
ATOM     17  C   UNL A   1      28.411  32.373  22.798  1.00  0.00    -0.003 C 
ATOM     18  C   UNL A   1      28.033  32.526  21.331  1.00  0.00     0.004 C 
ENDBRANCH  16  17
ENDBRANCH  15  16
ENDBRANCH  14  15
ENDBRANCH  13  14
ENDBRANCH  11  13
ENDBRANCH   6  11
ENDBRANCH   1   5
BRANCH   3  19
ATOM     19  C   UNL A   1      31.257  30.537  25.785  1.00  0.00     0.117 C 
BRANCH  19  20
ATOM     20  C   UNL A   1      31.202  31.992  26.250  1.00  0.00     0.042 C 
BRANCH  20  21
ATOM     21  C   UNL A   1      32.439  32.423  27.037  1.00  0.00     0.118 C 
BRANCH  21  22
ATOM     22  N   UNL A   1      32.376  33.823  27.420  1.00  0.00    -0.352 N 
ATOM     23  C   UNL A   1      33.027  34.495  28.425  1.00  0.00     0.251 C 
ATOM     24  H   UNL A   1      31.771  34.376  26.875  1.00  0.00     0.163 HD
ATOM     25  O   UNL A   1      32.636  35.616  28.741  1.00  0.00    -0.269 OA
BRANCH  23  26
ATOM     26  C   UNL A   1      34.187  33.900  29.129  1.00  0.00     0.039 A 
ATOM     27  C   UNL A   1      35.474  34.272  28.724  1.00  0.00     0.014 A 
ATOM     28  C   UNL A   1      34.032  32.912  30.106  1.00  0.00     0.014 A 
ATOM     29  C   UNL A   1      36.594  33.665  29.300  1.00  0.00     0.010 A 
ATOM     30  C   UNL A   1      35.151  32.367  30.739  1.00  0.00     0.010 A 
ATOM     31  C   UNL A   1      36.443  32.709  30.316  1.00  0.00    -0.014 A 
BRANCH  31  32
ATOM     32  C   UNL A   1      37.624  31.992  30.870  1.00  0.00     0.031 A 
ATOM     33  C   UNL A   1      38.103  32.305  32.266  1.00  0.00     0.074 A 
ATOM     34  C   UNL A   1      38.267  31.068  30.131  1.00  0.00     0.049 A 
ATOM     35  N   UNL A   1      39.124  31.812  32.923  1.00  0.00    -0.248 NA
ATOM     36  C   UNL A   1      37.351  33.326  33.015  1.00  0.00     0.031 C 
ATOM     37  C   UNL A   1      37.931  30.699  28.755  1.00  0.00     0.029 A 
ATOM     38  N   UNL A   1      39.340  30.268  30.437  1.00  0.00    -0.354 N 
ATOM     39  C   UNL A   1      39.140  32.468  34.148  1.00  0.00     0.074 A 
ATOM     40  C   UNL A   1      38.070  33.440  34.122  1.00  0.00     0.031 C 
ATOM     41  C   UNL A   1      38.762  29.723  28.346  1.00  0.00     0.029 A 
ATOM     42  C   UNL A   1      39.702  29.418  29.420  1.00  0.00     0.049 A 
ATOM     43  H   UNL A   1      39.806  30.301  31.303  1.00  0.00     0.167 HD
ATOM     44  C   UNL A   1      39.947  32.261  35.216  1.00  0.00     0.037 A 
ATOM     45  C   UNL A   1      40.678  28.492  29.366  1.00  0.00     0.037 A 
ATOM     46  C   UNL A   1      40.988  31.269  35.263  1.00  0.00     0.049 A 
ATOM     47  C   UNL A   1      41.550  28.270  30.572  1.00  0.00     0.074 A 
ATOM     48  C   UNL A   1      41.844  30.963  36.307  1.00  0.00     0.029 A 
ATOM     49  N   UNL A   1      41.301  30.409  34.222  1.00  0.00    -0.354 N 
ATOM     50  N   UNL A   1      41.523  28.872  31.736  1.00  0.00    -0.248 NA
ATOM     51  C   UNL A   1      42.581  27.228  30.459  1.00  0.00     0.031 C 
ATOM     52  C   UNL A   1      42.688  29.929  35.890  1.00  0.00     0.029 A 
ATOM     53  C   UNL A   1      42.336  29.569  34.600  1.00  0.00     0.049 A 
ATOM     54  H   UNL A   1      40.853  30.396  33.346  1.00  0.00     0.167 HD
ATOM     55  C   UNL A   1      42.510  28.264  32.501  1.00  0.00     0.074 A 
ATOM     56  C   UNL A   1      43.103  27.231  31.677  1.00  0.00     0.031 C 
ATOM     57  C   UNL A   1      42.898  28.537  33.771  1.00  0.00     0.037 A 
BRANCH  44  58
ATOM     58  C   UNL A   1      39.715  33.106  36.433  1.00  0.00     0.057 A 
ATOM     59  C   UNL A   1      38.808  32.720  37.429  1.00  0.00     0.134 A 
ATOM     60  C   UNL A   1      40.425  34.296  36.633  1.00  0.00     0.134 A 
ATOM     61  F   UNL A   1      38.084  31.599  37.291  1.00  0.00    -0.206 F 
ATOM     62  C   UNL A   1      38.600  33.498  38.570  1.00  0.00     0.040 A 
ATOM     63  C   UNL A   1      40.245  35.069  37.782  1.00  0.00     0.040 A 
ATOM     64  F   UNL A   1      41.313  34.721  35.721  1.00  0.00    -0.206 F 
ATOM     65  C   UNL A   1      39.326  34.673  38.752  1.00  0.00     0.006 A 
ENDBRANCH  44  58
BRANCH  45  66
ATOM     66  C   UNL A   1      40.876  27.677  28.140  1.00  0.00     0.057 A 
ATOM     67  C   UNL A   1      41.676  28.138  27.088  1.00  0.00     0.134 A 
ATOM     68  C   UNL A   1      40.236  26.444  27.971  1.00  0.00     0.134 A 
ATOM     69  F   UNL A   1      42.299  29.322  27.182  1.00  0.00    -0.206 F 
ATOM     70  C   UNL A   1      41.806  27.420  25.898  1.00  0.00     0.040 A 
ATOM     71  C   UNL A   1      40.378  25.703  26.796  1.00  0.00     0.040 A 
ATOM     72  F   UNL A   1      39.461  25.943  28.944  1.00  0.00    -0.206 F 
ATOM     73  C   UNL A   1      41.156  26.197  25.751  1.00  0.00     0.006 A 
ENDBRANCH  45  66
BRANCH  57  74
ATOM     74  C   UNL A   1      43.982  27.681  34.352  1.00  0.00     0.057 A 
ATOM     75  C   UNL A   1      45.329  28.063  34.304  1.00  0.00     0.134 A 
ATOM     76  C   UNL A   1      43.674  26.470  34.983  1.00  0.00     0.134 A 
ATOM     77  F   UNL A   1      45.690  29.207  33.702  1.00  0.00    -0.206 F 
ATOM     78  C   UNL A   1      46.334  27.256  34.839  1.00  0.00     0.040 A 
ATOM     79  C   UNL A   1      44.667  25.666  35.543  1.00  0.00     0.040 A 
ATOM     80  F   UNL A   1      42.401  26.052  35.070  1.00  0.00    -0.206 F 
ATOM     81  C   UNL A   1      46.003  26.055  35.464  1.00  0.00     0.006 A 
ENDBRANCH  57  74
ENDBRANCH  31  32
ENDBRANCH  23  26
ENDBRANCH  21  22
ENDBRANCH  20  21
ENDBRANCH  19  20
ENDBRANCH   3  19
TORSDOF 16
ENDMDL
MODEL 2
REMARK VINA RESULT:     -10.4      4.982      9.581
REMARK SMILES CCCCCCC(=O)N1CCCC[C@H]1C(=O)NCCCNC(=O)c1ccc(-c2c3nc(c(-c4c(F)cccc4F)c4ccc([nH]4)c(-c4c(F)cccc4F)c4nc(c(-c5c(F)cccc5F)c5ccc2[nH]5)C=C4)C=C3)cc1
REMARK SMILES IDX 15 1 16 2 17 3 14 5 9 6 10 7 11 8 13 9 12 10 7 11 8 12 6 13
REMARK SMILES IDX 5 14 4 15 3 16 2 17 1 18 18 19 19 20 20 21 21 22 22 23 23 25
REMARK SMILES IDX 24 26 25 27 77 28 26 29 76 30 27 31 28 32 29 33 70 34 30 35
REMARK SMILES IDX 75 36 69 37 71 38 31 39 74 40 68 41 67 42 32 44 58 45 41 46
REMARK SMILES IDX 57 47 42 48 45 49 56 50 72 51 43 52 44 53 55 55 73 56 46 57
REMARK SMILES IDX 33 58 34 59 39 60 35 61 36 62 38 63 40 64 37 65 59 66 60 67
REMARK SMILES IDX 65 68 61 69 62 70 64 71 66 72 63 73 47 74 48 75 53 76 49 77
REMARK SMILES IDX 50 78 52 79 54 80 51 81
REMARK H PARENT 17 4 21 24 71 43 45 54
REMARK Flexibility Score: inf
ROOT
ATOM      1  C   UNL A   1      34.173  20.611  25.482  1.00  0.00     0.242 C 
ATOM      2  O   UNL A   1      33.312  19.769  25.770  1.00  0.00    -0.273 OA
ATOM      3  N   UNL A   1      35.312  20.081  24.970  1.00  0.00    -0.354 N 
ATOM      4  H   UNL A   1      35.226  19.124  24.752  1.00  0.00     0.163 HD
ENDROOT
BRANCH   1   5
ATOM      5  C   UNL A   1      33.854  22.134  25.550  1.00  0.00     0.174 C 
ATOM      6  N   UNL A   1      33.666  22.647  24.177  1.00  0.00    -0.331 N 
ATOM      7  C   UNL A   1      32.387  22.355  23.539  1.00  0.00     0.120 C 
ATOM      8  C   UNL A   1      31.220  22.859  24.372  1.00  0.00     0.022 C 
ATOM      9  C   UNL A   1      32.684  22.648  26.402  1.00  0.00     0.035 C 
ATOM     10  C   UNL A   1      31.318  22.336  25.799  1.00  0.00     0.004 C 
BRANCH   6  11
ATOM     11  C   UNL A   1      34.526  23.530  23.556  1.00  0.00     0.223 C 
ATOM     12  O   UNL A   1      35.416  23.134  22.802  1.00  0.00    -0.275 OA
BRANCH  11  13
ATOM     13  C   UNL A   1      34.497  24.978  24.029  1.00  0.00     0.100 C 
BRANCH  13  14
ATOM     14  C   UNL A   1      33.420  25.899  23.461  1.00  0.00     0.010 C 
BRANCH  14  15
ATOM     15  C   UNL A   1      32.752  26.855  24.461  1.00  0.00     0.001 C 
BRANCH  15  16
ATOM     16  C   UNL A   1      32.422  26.275  25.842  1.00  0.00    -0.000 C 
BRANCH  16  17
ATOM     17  C   UNL A   1      30.939  26.286  26.205  1.00  0.00    -0.003 C 
ATOM     18  C   UNL A   1      30.025  26.292  24.987  1.00  0.00     0.004 C 
ENDBRANCH  16  17
ENDBRANCH  15  16
ENDBRANCH  14  15
ENDBRANCH  13  14
ENDBRANCH  11  13
ENDBRANCH   6  11
ENDBRANCH   1   5
BRANCH   3  19
ATOM     19  C   UNL A   1      36.629  20.612  24.673  1.00  0.00     0.117 C 
BRANCH  19  20
ATOM     20  C   UNL A   1      37.716  19.590  25.003  1.00  0.00     0.042 C 
BRANCH  20  21
ATOM     21  C   UNL A   1      38.873  20.178  25.810  1.00  0.00     0.118 C 
BRANCH  21  22
ATOM     22  N   UNL A   1      40.014  19.280  25.851  1.00  0.00    -0.352 N 
ATOM     23  C   UNL A   1      41.345  19.551  26.052  1.00  0.00     0.251 C 
ATOM     24  H   UNL A   1      39.800  18.330  25.713  1.00  0.00     0.163 HD
ATOM     25  O   UNL A   1      42.174  18.683  25.792  1.00  0.00    -0.269 OA
BRANCH  23  26
ATOM     26  C   UNL A   1      41.798  20.861  26.579  1.00  0.00     0.039 A 
ATOM     27  C   UNL A   1      41.721  21.087  27.958  1.00  0.00     0.014 A 
ATOM     28  C   UNL A   1      42.198  21.899  25.733  1.00  0.00     0.014 A 
ATOM     29  C   UNL A   1      42.051  22.339  28.483  1.00  0.00     0.010 A 
ATOM     30  C   UNL A   1      42.608  23.122  26.266  1.00  0.00     0.010 A 
ATOM     31  C   UNL A   1      42.502  23.369  27.642  1.00  0.00    -0.014 A 
BRANCH  31  32
ATOM     32  C   UNL A   1      42.768  24.730  28.179  1.00  0.00     0.031 A 
ATOM     33  C   UNL A   1      44.182  25.143  28.509  1.00  0.00     0.074 A 
ATOM     34  C   UNL A   1      41.754  25.595  28.374  1.00  0.00     0.049 A 
ATOM     35  N   UNL A   1      44.622  26.271  29.010  1.00  0.00    -0.248 NA
ATOM     36  C   UNL A   1      45.238  24.145  28.271  1.00  0.00     0.031 C 
ATOM     37  C   UNL A   1      40.339  25.311  28.132  1.00  0.00     0.029 A 
ATOM     38  N   UNL A   1      41.761  26.893  28.819  1.00  0.00    -0.354 N 
ATOM     39  C   UNL A   1      45.995  26.113  29.152  1.00  0.00     0.074 A 
ATOM     40  C   UNL A   1      46.310  24.760  28.751  1.00  0.00     0.031 C 
ATOM     41  C   UNL A   1      39.617  26.412  28.403  1.00  0.00     0.029 A 
ATOM     42  C   UNL A   1      40.513  27.469  28.861  1.00  0.00     0.049 A 
ATOM     43  H   UNL A   1      42.581  27.368  29.084  1.00  0.00     0.167 HD
ATOM     44  C   UNL A   1      46.921  27.018  29.549  1.00  0.00     0.037 A 
ATOM     45  C   UNL A   1      40.139  28.711  29.221  1.00  0.00     0.037 A 
ATOM     46  C   UNL A   1      46.620  28.377  29.913  1.00  0.00     0.049 A 
ATOM     47  C   UNL A   1      41.190  29.703  29.641  1.00  0.00     0.074 A 
ATOM     48  C   UNL A   1      47.489  29.381  30.304  1.00  0.00     0.029 A 
ATOM     49  N   UNL A   1      45.347  28.927  29.912  1.00  0.00    -0.354 N 
ATOM     50  N   UNL A   1      42.488  29.547  29.731  1.00  0.00    -0.248 NA
ATOM     51  C   UNL A   1      40.721  31.051  29.998  1.00  0.00     0.031 C 
ATOM     52  C   UNL A   1      46.739  30.534  30.558  1.00  0.00     0.029 A 
ATOM     53  C   UNL A   1      45.409  30.257  30.293  1.00  0.00     0.049 A 
ATOM     54  H   UNL A   1      44.523  28.444  29.674  1.00  0.00     0.167 HD
ATOM     55  C   UNL A   1      42.992  30.781  30.125  1.00  0.00     0.074 A 
ATOM     56  C   UNL A   1      41.863  31.679  30.236  1.00  0.00     0.031 C 
ATOM     57  C   UNL A   1      44.275  31.138  30.379  1.00  0.00     0.037 A 
BRANCH  44  58
ATOM     58  C   UNL A   1      48.353  26.574  29.581  1.00  0.00     0.057 A 
ATOM     59  C   UNL A   1      49.216  26.808  28.501  1.00  0.00     0.134 A 
ATOM     60  C   UNL A   1      48.889  25.942  30.709  1.00  0.00     0.134 A 
ATOM     61  F   UNL A   1      48.761  27.397  27.384  1.00  0.00    -0.206 F 
ATOM     62  C   UNL A   1      50.553  26.409  28.533  1.00  0.00     0.040 A 
ATOM     63  C   UNL A   1      50.231  25.560  30.763  1.00  0.00     0.040 A 
ATOM     64  F   UNL A   1      48.120  25.692  31.780  1.00  0.00    -0.206 F 
ATOM     65  C   UNL A   1      51.066  25.790  29.671  1.00  0.00     0.006 A 
ENDBRANCH  44  58
BRANCH  45  66
ATOM     66  C   UNL A   1      38.709  29.110  29.177  1.00  0.00     0.057 A 
ATOM     67  C   UNL A   1      38.140  29.625  28.005  1.00  0.00     0.134 A 
ATOM     68  C   UNL A   1      37.892  29.031  30.310  1.00  0.00     0.134 A 
ATOM     69  F   UNL A   1      38.878  29.745  26.892  1.00  0.00    -0.206 F 
ATOM     70  C   UNL A   1      36.820  30.079  27.971  1.00  0.00     0.040 A 
ATOM     71  C   UNL A   1      36.563  29.457  30.283  1.00  0.00     0.040 A 
ATOM     72  F   UNL A   1      38.376  28.541  31.461  1.00  0.00    -0.206 F 
ATOM     73  C   UNL A   1      36.027  29.994  29.114  1.00  0.00     0.006 A 
ENDBRANCH  45  66
BRANCH  57  74
ATOM     74  C   UNL A   1      44.522  32.567  30.759  1.00  0.00     0.057 A 
ATOM     75  C   UNL A   1      44.531  32.983  32.097  1.00  0.00     0.134 A 
ATOM     76  C   UNL A   1      44.772  33.533  29.778  1.00  0.00     0.134 A 
ATOM     77  F   UNL A   1      44.286  32.107  33.083  1.00  0.00    -0.206 F 
ATOM     78  C   UNL A   1      44.752  34.317  32.442  1.00  0.00     0.040 A 
ATOM     79  C   UNL A   1      45.018  34.865  30.112  1.00  0.00     0.040 A 
ATOM     80  F   UNL A   1      44.786  33.197  28.478  1.00  0.00    -0.206 F 
ATOM     81  C   UNL A   1      45.000  35.261  31.448  1.00  0.00     0.006 A 
ENDBRANCH  57  74
ENDBRANCH  31  32
ENDBRANCH  23  26
ENDBRANCH  21  22
ENDBRANCH  20  21
ENDBRANCH  19  20
ENDBRANCH   3  19
TORSDOF 16
ENDMDL
MODEL 3
REMARK VINA RESULT:     -10.4      5.711      9.923
REMARK SMILES CCCCCCC(=O)N1CCCC[C@H]1C(=O)NCCCNC(=O)c1ccc(-c2c3nc(c(-c4c(F)cccc4F)c4ccc([nH]4)c(-c4c(F)cccc4F)c4nc(c(-c5c(F)cccc5F)c5ccc2[nH]5)C=C4)C=C3)cc1
REMARK SMILES IDX 15 1 16 2 17 3 14 5 9 6 10 7 11 8 13 9 12 10 7 11 8 12 6 13
REMARK SMILES IDX 5 14 4 15 3 16 2 17 1 18 18 19 19 20 20 21 21 22 22 23 23 25
REMARK SMILES IDX 24 26 25 27 77 28 26 29 76 30 27 31 28 32 29 33 70 34 30 35
REMARK SMILES IDX 75 36 69 37 71 38 31 39 74 40 68 41 67 42 32 44 58 45 41 46
REMARK SMILES IDX 57 47 42 48 45 49 56 50 72 51 43 52 44 53 55 55 73 56 46 57
REMARK SMILES IDX 33 58 34 59 39 60 35 61 36 62 38 63 40 64 37 65 59 66 60 67
REMARK SMILES IDX 65 68 61 69 62 70 64 71 66 72 63 73 47 74 48 75 53 76 49 77
REMARK SMILES IDX 50 78 52 79 54 80 51 81
REMARK H PARENT 17 4 21 24 71 43 45 54
REMARK Flexibility Score: inf
ROOT
ATOM      1  C   UNL A   1      36.027  22.573  23.495  1.00  0.00     0.242 C 
ATOM      2  O   UNL A   1      36.626  23.368  22.758  1.00  0.00    -0.273 OA
ATOM      3  N   UNL A   1      36.846  21.767  24.216  1.00  0.00    -0.354 N 
ATOM      4  H   UNL A   1      37.792  22.040  24.169  1.00  0.00     0.163 HD
ENDROOT
BRANCH   1   5
ATOM      5  C   UNL A   1      34.482  22.660  23.675  1.00  0.00     0.174 C 
ATOM      6  N   UNL A   1      34.185  23.136  25.043  1.00  0.00    -0.331 N 
ATOM      7  C   UNL A   1      34.347  24.564  25.289  1.00  0.00     0.120 C 
ATOM      8  C   UNL A   1      33.507  25.393  24.331  1.00  0.00     0.022 C 
ATOM      9  C   UNL A   1      33.630  23.486  22.701  1.00  0.00     0.035 C 
ATOM     10  C   UNL A   1      33.789  24.992  22.889  1.00  0.00     0.004 C 
BRANCH   6  11
ATOM     11  C   UNL A   1      33.589  22.362  26.018  1.00  0.00     0.223 C 
ATOM     12  O   UNL A   1      33.876  22.499  27.208  1.00  0.00    -0.275 OA
BRANCH  11  13
ATOM     13  C   UNL A   1      32.760  21.172  25.552  1.00  0.00     0.100 C 
BRANCH  13  14
ATOM     14  C   UNL A   1      33.224  19.772  25.948  1.00  0.00     0.010 C 
BRANCH  14  15
ATOM     15  C   UNL A   1      32.671  18.613  25.107  1.00  0.00     0.001 C 
BRANCH  15  16
ATOM     16  C   UNL A   1      32.531  18.870  23.601  1.00  0.00    -0.000 C 
BRANCH  16  17
ATOM     17  C   UNL A   1      32.966  17.708  22.709  1.00  0.00    -0.003 C 
ATOM     18  C   UNL A   1      34.036  16.833  23.346  1.00  0.00     0.004 C 
ENDBRANCH  16  17
ENDBRANCH  15  16
ENDBRANCH  14  15
ENDBRANCH  13  14
ENDBRANCH  11  13
ENDBRANCH   6  11
ENDBRANCH   1   5
BRANCH   3  19
ATOM     19  C   UNL A   1      36.637  20.592  25.039  1.00  0.00     0.117 C 
BRANCH  19  20
ATOM     20  C   UNL A   1      37.854  19.669  24.991  1.00  0.00     0.042 C 
BRANCH  20  21
ATOM     21  C   UNL A   1      39.062  20.221  25.748  1.00  0.00     0.118 C 
BRANCH  21  22
ATOM     22  N   UNL A   1      40.073  19.201  25.971  1.00  0.00    -0.352 N 
ATOM     23  C   UNL A   1      41.431  19.323  26.131  1.00  0.00     0.251 C 
ATOM     24  H   UNL A   1      39.730  18.279  26.013  1.00  0.00     0.163 HD
ATOM     25  O   UNL A   1      42.131  18.317  26.048  1.00  0.00    -0.269 OA
BRANCH  23  26
ATOM     26  C   UNL A   1      42.064  20.635  26.404  1.00  0.00     0.039 A 
ATOM     27  C   UNL A   1      42.173  21.058  27.734  1.00  0.00     0.014 A 
ATOM     28  C   UNL A   1      42.456  21.495  25.374  1.00  0.00     0.014 A 
ATOM     29  C   UNL A   1      42.679  22.327  28.027  1.00  0.00     0.010 A 
ATOM     30  C   UNL A   1      43.039  22.728  25.671  1.00  0.00     0.010 A 
ATOM     31  C   UNL A   1      43.121  23.174  26.998  1.00  0.00    -0.014 A 
BRANCH  31  32
ATOM     32  C   UNL A   1      43.576  24.559  27.294  1.00  0.00     0.031 A 
ATOM     33  C   UNL A   1      42.577  25.595  27.749  1.00  0.00     0.074 A 
ATOM     34  C   UNL A   1      44.873  24.893  27.155  1.00  0.00     0.049 A 
ATOM     35  N   UNL A   1      42.765  26.860  28.032  1.00  0.00    -0.248 NA
ATOM     36  C   UNL A   1      41.177  25.157  27.877  1.00  0.00     0.031 C 
ATOM     37  C   UNL A   1      45.934  24.000  26.687  1.00  0.00     0.029 A 
ATOM     38  N   UNL A   1      45.521  26.079  27.398  1.00  0.00    -0.354 N 
ATOM     39  C   UNL A   1      41.512  27.365  28.359  1.00  0.00     0.074 A 
ATOM     40  C   UNL A   1      40.561  26.291  28.177  1.00  0.00     0.031 C 
ATOM     41  C   UNL A   1      47.105  24.660  26.706  1.00  0.00     0.029 A 
ATOM     42  C   UNL A   1      46.874  26.028  27.161  1.00  0.00     0.049 A 
ATOM     43  H   UNL A   1      45.060  26.890  27.711  1.00  0.00     0.167 HD
ATOM     44  C   UNL A   1      41.181  28.601  28.805  1.00  0.00     0.037 A 
ATOM     45  C   UNL A   1      47.819  26.976  27.304  1.00  0.00     0.037 A 
ATOM     46  C   UNL A   1      42.126  29.662  29.026  1.00  0.00     0.049 A 
ATOM     47  C   UNL A   1      47.427  28.335  27.817  1.00  0.00     0.074 A 
ATOM     48  C   UNL A   1      41.895  30.942  29.500  1.00  0.00     0.029 A 
ATOM     49  N   UNL A   1      43.490  29.558  28.802  1.00  0.00    -0.354 N 
ATOM     50  N   UNL A   1      46.243  28.781  28.161  1.00  0.00    -0.248 NA
ATOM     51  C   UNL A   1      48.508  29.319  27.976  1.00  0.00     0.031 C 
ATOM     52  C   UNL A   1      43.119  31.618  29.546  1.00  0.00     0.029 A 
ATOM     53  C   UNL A   1      44.114  30.749  29.132  1.00  0.00     0.049 A 
ATOM     54  H   UNL A   1      43.947  28.755  28.462  1.00  0.00     0.167 HD
ATOM     55  C   UNL A   1      46.442  30.084  28.601  1.00  0.00     0.074 A 
ATOM     56  C   UNL A   1      47.862  30.348  28.503  1.00  0.00     0.031 C 
ATOM     57  C   UNL A   1      45.530  30.985  29.044  1.00  0.00     0.037 A 
BRANCH  44  58
ATOM     58  C   UNL A   1      39.736  28.860  29.113  1.00  0.00     0.057 A 
ATOM     59  C   UNL A   1      39.224  28.703  30.408  1.00  0.00     0.134 A 
ATOM     60  C   UNL A   1      38.854  29.306  28.121  1.00  0.00     0.134 A 
ATOM     61  F   UNL A   1      40.013  28.265  31.401  1.00  0.00    -0.206 F 
ATOM     62  C   UNL A   1      37.883  28.958  30.700  1.00  0.00     0.040 A 
ATOM     63  C   UNL A   1      37.517  29.588  28.406  1.00  0.00     0.040 A 
ATOM     64  F   UNL A   1      39.280  29.482  26.860  1.00  0.00    -0.206 F 
ATOM     65  C   UNL A   1      37.027  29.410  29.698  1.00  0.00     0.006 A 
ENDBRANCH  44  58
BRANCH  45  66
ATOM     66  C   UNL A   1      49.239  26.677  26.987  1.00  0.00     0.057 A 
ATOM     67  C   UNL A   1      49.731  26.813  25.683  1.00  0.00     0.134 A 
ATOM     68  C   UNL A   1      50.123  26.207  27.964  1.00  0.00     0.134 A 
ATOM     69  F   UNL A   1      48.926  27.240  24.698  1.00  0.00    -0.206 F 
ATOM     70  C   UNL A   1      51.041  26.460  25.354  1.00  0.00     0.040 A 
ATOM     71  C   UNL A   1      51.444  25.874  27.655  1.00  0.00     0.040 A 
ATOM     72  F   UNL A   1      49.716  26.061  29.233  1.00  0.00    -0.206 F 
ATOM     73  C   UNL A   1      51.902  25.990  26.343  1.00  0.00     0.006 A 
ENDBRANCH  45  66
BRANCH  57  74
ATOM     74  C   UNL A   1      46.051  32.318  29.488  1.00  0.00     0.057 A 
ATOM     75  C   UNL A   1      46.158  33.401  28.605  1.00  0.00     0.134 A 
ATOM     76  C   UNL A   1      46.431  32.527  30.820  1.00  0.00     0.134 A 
ATOM     77  F   UNL A   1      45.820  33.260  27.315  1.00  0.00    -0.206 F 
ATOM     78  C   UNL A   1      46.652  34.636  29.026  1.00  0.00     0.040 A 
ATOM     79  C   UNL A   1      46.904  33.764  31.257  1.00  0.00     0.040 A 
ATOM     80  F   UNL A   1      46.344  31.533  31.717  1.00  0.00    -0.206 F 
ATOM     81  C   UNL A   1      47.023  34.821  30.356  1.00  0.00     0.006 A 
ENDBRANCH  57  74
ENDBRANCH  31  32
ENDBRANCH  23  26
ENDBRANCH  21  22
ENDBRANCH  20  21
ENDBRANCH  19  20
ENDBRANCH   3  19
TORSDOF 16
ENDMDL
