MODEL 1
REMARK VINA RESULT:      -9.8      0.000      0.000
REMARK SMILES COc1ccc2cc([C@@H](C)C(=O)NCCCNC(=O)c3ccc(-c4c5nc(c(-c6c(F)cccc6F)c6ccc([nH]6)c(-c6c(F)cccc6F)c6nc(c(-c7c(F)cccc7F)c7ccc4[nH]7)C=C6)C=C5)cc3)ccc2c1
REMARK SMILES IDX 15 1 14 2 13 3 11 4 12 5 9 7 10 8 8 9 3 10 4 11 77 12 5 13
REMARK SMILES IDX 76 14 6 15 75 16 7 17 74 18 2 19 1 20 16 21 17 22 18 23
REMARK SMILES IDX 19 25 20 26 21 27 73 28 22 29 72 30 23 31 24 32 25 33 66 34
REMARK SMILES IDX 26 35 71 36 65 37 67 38 27 39 70 40 64 41 63 42 28 44 54 45
REMARK SMILES IDX 37 46 53 47 38 48 41 49 52 50 68 51 39 52 40 53 51 55 69 56
REMARK SMILES IDX 42 57 29 58 30 59 35 60 31 61 32 62 34 63 36 64 33 65 55 66
REMARK SMILES IDX 56 67 61 68 57 69 58 70 60 71 62 72 59 73 43 74 44 75 49 76
REMARK SMILES IDX 45 77 46 78 48 79 50 80 47 81
REMARK H PARENT 13 6 17 24 67 43 41 54
REMARK Flexibility Score: inf
ROOT
ATOM      1  C   UNL A   1      44.078  18.746  25.326  1.00  0.00     0.042 C 
ENDROOT
BRANCH   1   2
ATOM      2  C   UNL A   1      44.510  20.209  25.399  1.00  0.00     0.117 C 
BRANCH   2   3
ATOM      3  N   UNL A   1      44.145  20.948  24.206  1.00  0.00    -0.356 N 
ATOM      4  C   UNL A   1      44.613  22.103  23.661  1.00  0.00     0.227 C 
ATOM      5  O   UNL A   1      44.010  22.511  22.658  1.00  0.00    -0.274 OA
ATOM      6  H   UNL A   1      43.417  20.532  23.689  1.00  0.00     0.163 HD
BRANCH   4   7
ATOM      7  C   UNL A   1      45.810  22.901  24.206  1.00  0.00     0.105 C 
ATOM      8  C   UNL A   1      46.834  22.074  24.980  1.00  0.00     0.023 C 
BRANCH   7   9
ATOM      9  C   UNL A   1      45.411  24.222  24.846  1.00  0.00    -0.035 A 
ATOM     10  C   UNL A   1      43.127  28.590  26.128  1.00  0.00     0.119 A 
ATOM     11  C   UNL A   1      42.149  27.789  25.544  1.00  0.00     0.047 A 
ATOM     12  C   UNL A   1      44.429  28.098  26.263  1.00  0.00     0.055 A 
ATOM     13  C   UNL A   1      42.461  26.489  25.138  1.00  0.00     0.012 A 
ATOM     14  C   UNL A   1      44.765  26.804  25.830  1.00  0.00    -0.015 A 
ATOM     15  C   UNL A   1      43.762  25.983  25.280  1.00  0.00    -0.018 A 
ATOM     16  C   UNL A   1      46.075  26.312  25.912  1.00  0.00     0.009 A 
ATOM     17  C   UNL A   1      44.089  24.687  24.848  1.00  0.00     0.013 A 
ATOM     18  C   UNL A   1      46.397  25.048  25.403  1.00  0.00     0.005 A 
BRANCH  10  19
ATOM     19  O   UNL A   1      42.943  29.868  26.583  1.00  0.00    -0.497 OA
ATOM     20  C   UNL A   1      44.115  30.579  26.961  1.00  0.00     0.278 C 
ENDBRANCH  10  19
ENDBRANCH   7   9
ENDBRANCH   4   7
ENDBRANCH   2   3
ENDBRANCH   1   2
BRANCH   1  21
ATOM     21  C   UNL A   1      43.067  18.341  26.390  1.00  0.00     0.118 C 
BRANCH  21  22
ATOM     22  N   UNL A   1      41.694  18.498  25.931  1.00  0.00    -0.352 N 
ATOM     23  C   UNL A   1      40.798  19.524  26.114  1.00  0.00     0.251 C 
ATOM     24  H   UNL A   1      41.350  17.743  25.402  1.00  0.00     0.163 HD
ATOM     25  O   UNL A   1      39.619  19.342  25.818  1.00  0.00    -0.269 OA
BRANCH  23  26
ATOM     26  C   UNL A   1      41.215  20.836  26.666  1.00  0.00     0.039 A 
ATOM     27  C   UNL A   1      41.411  20.948  28.048  1.00  0.00     0.014 A 
ATOM     28  C   UNL A   1      41.341  21.971  25.861  1.00  0.00     0.014 A 
ATOM     29  C   UNL A   1      41.778  22.176  28.609  1.00  0.00     0.010 A 
ATOM     30  C   UNL A   1      41.782  23.176  26.410  1.00  0.00     0.010 A 
ATOM     31  C   UNL A   1      41.992  23.295  27.792  1.00  0.00    -0.014 A 
BRANCH  31  32
ATOM     32  C   UNL A   1      42.401  24.605  28.362  1.00  0.00     0.031 A 
ATOM     33  C   UNL A   1      41.392  25.712  28.511  1.00  0.00     0.074 A 
ATOM     34  C   UNL A   1      43.688  24.821  28.697  1.00  0.00     0.049 A 
ATOM     35  N   UNL A   1      41.570  26.951  28.894  1.00  0.00    -0.248 NA
ATOM     36  C   UNL A   1      39.999  25.389  28.162  1.00  0.00     0.031 C 
ATOM     37  C   UNL A   1      44.772  23.844  28.578  1.00  0.00     0.029 A 
ATOM     38  N   UNL A   1      44.306  25.940  29.199  1.00  0.00    -0.354 N 
ATOM     39  C   UNL A   1      40.323  27.557  28.814  1.00  0.00     0.074 A 
ATOM     40  C   UNL A   1      39.403  26.563  28.305  1.00  0.00     0.031 C 
ATOM     41  C   UNL A   1      45.914  24.399  29.015  1.00  0.00     0.029 A 
ATOM     42  C   UNL A   1      45.654  25.779  29.407  1.00  0.00     0.049 A 
ATOM     43  H   UNL A   1      43.827  26.778  29.392  1.00  0.00     0.167 HD
ATOM     44  C   UNL A   1      39.967  28.819  29.156  1.00  0.00     0.037 A 
ATOM     45  C   UNL A   1      46.577  26.651  29.856  1.00  0.00     0.037 A 
ATOM     46  C   UNL A   1      40.872  29.801  29.692  1.00  0.00     0.049 A 
ATOM     47  C   UNL A   1      46.158  28.049  30.220  1.00  0.00     0.074 A 
ATOM     48  C   UNL A   1      40.600  31.096  30.098  1.00  0.00     0.029 A 
ATOM     49  N   UNL A   1      42.226  29.590  29.907  1.00  0.00    -0.354 N 
ATOM     50  N   UNL A   1      44.968  28.595  30.171  1.00  0.00    -0.248 NA
ATOM     51  C   UNL A   1      47.213  28.951  30.704  1.00  0.00     0.031 C 
ATOM     52  C   UNL A   1      41.796  31.678  30.534  1.00  0.00     0.029 A 
ATOM     53  C   UNL A   1      42.803  30.733  30.433  1.00  0.00     0.049 A 
ATOM     54  H   UNL A   1      42.705  28.752  29.712  1.00  0.00     0.167 HD
ATOM     55  C   UNL A   1      45.124  29.890  30.647  1.00  0.00     0.074 A 
ATOM     56  C   UNL A   1      46.522  30.045  30.989  1.00  0.00     0.031 C 
ATOM     57  C   UNL A   1      44.192  30.863  30.788  1.00  0.00     0.037 A 
BRANCH  44  58
ATOM     58  C   UNL A   1      38.529  29.206  28.972  1.00  0.00     0.057 A 
ATOM     59  C   UNL A   1      37.622  29.188  30.040  1.00  0.00     0.134 A 
ATOM     60  C   UNL A   1      38.054  29.636  27.728  1.00  0.00     0.134 A 
ATOM     61  F   UNL A   1      38.011  28.774  31.256  1.00  0.00    -0.206 F 
ATOM     62  C   UNL A   1      36.288  29.563  29.871  1.00  0.00     0.040 A 
ATOM     63  C   UNL A   1      36.728  30.038  27.552  1.00  0.00     0.040 A 
ATOM     64  F   UNL A   1      38.872  29.683  26.665  1.00  0.00    -0.206 F 
ATOM     65  C   UNL A   1      35.841  29.996  28.625  1.00  0.00     0.006 A 
ENDBRANCH  44  58
BRANCH  45  66
ATOM     66  C   UNL A   1      47.991  26.226  30.013  1.00  0.00     0.057 A 
ATOM     67  C   UNL A   1      48.444  25.673  31.217  1.00  0.00     0.134 A 
ATOM     68  C   UNL A   1      48.924  26.383  28.983  1.00  0.00     0.134 A 
ATOM     69  F   UNL A   1      47.600  25.516  32.247  1.00  0.00    -0.206 F 
ATOM     70  C   UNL A   1      49.780  25.312  31.399  1.00  0.00     0.040 A 
ATOM     71  C   UNL A   1      50.259  26.007  29.144  1.00  0.00     0.040 A 
ATOM     72  F   UNL A   1      48.552  26.898  27.803  1.00  0.00    -0.206 F 
ATOM     73  C   UNL A   1      50.692  25.477  30.359  1.00  0.00     0.006 A 
ENDBRANCH  45  66
BRANCH  57  74
ATOM     74  C   UNL A   1      44.644  32.163  31.382  1.00  0.00     0.057 A 
ATOM     75  C   UNL A   1      45.136  33.207  30.589  1.00  0.00     0.134 A 
ATOM     76  C   UNL A   1      44.552  32.383  32.762  1.00  0.00     0.134 A 
ATOM     77  F   UNL A   1      45.261  33.052  29.263  1.00  0.00    -0.206 F 
ATOM     78  C   UNL A   1      45.539  34.419  31.151  1.00  0.00     0.040 A 
ATOM     79  C   UNL A   1      44.932  33.599  33.333  1.00  0.00     0.040 A 
ATOM     80  F   UNL A   1      44.083  31.425  33.576  1.00  0.00    -0.206 F 
ATOM     81  C   UNL A   1      45.431  34.620  32.526  1.00  0.00     0.006 A 
ENDBRANCH  57  74
ENDBRANCH  31  32
ENDBRANCH  23  26
ENDBRANCH  21  22
ENDBRANCH   1  21
TORSDOF 12
ENDMDL
MODEL 2
REMARK VINA RESULT:      -9.1      3.971     10.468
REMARK SMILES COc1ccc2cc([C@@H](C)C(=O)NCCCNC(=O)c3ccc(-c4c5nc(c(-c6c(F)cccc6F)c6ccc([nH]6)c(-c6c(F)cccc6F)c6nc(c(-c7c(F)cccc7F)c7ccc4[nH]7)C=C6)C=C5)cc3)ccc2c1
REMARK SMILES IDX 15 1 14 2 13 3 11 4 12 5 9 7 10 8 8 9 3 10 4 11 77 12 5 13
REMARK SMILES IDX 76 14 6 15 75 16 7 17 74 18 2 19 1 20 16 21 17 22 18 23
REMARK SMILES IDX 19 25 20 26 21 27 73 28 22 29 72 30 23 31 24 32 25 33 66 34
REMARK SMILES IDX 26 35 71 36 65 37 67 38 27 39 70 40 64 41 63 42 28 44 54 45
REMARK SMILES IDX 37 46 53 47 38 48 41 49 52 50 68 51 39 52 40 53 51 55 69 56
REMARK SMILES IDX 42 57 29 58 30 59 35 60 31 61 32 62 34 63 36 64 33 65 55 66
REMARK SMILES IDX 56 67 61 68 57 69 58 70 60 71 62 72 59 73 43 74 44 75 49 76
REMARK SMILES IDX 45 77 46 78 48 79 50 80 47 81
REMARK H PARENT 13 6 17 24 67 43 41 54
REMARK Flexibility Score: inf
ROOT
ATOM      1  C   UNL A   1      34.346  34.126  28.004  1.00  0.00     0.042 C 
ENDROOT
BRANCH   1   2
ATOM      2  C   UNL A   1      33.056  34.554  28.701  1.00  0.00     0.117 C 
BRANCH   2   3
ATOM      3  N   UNL A   1      33.161  35.877  29.283  1.00  0.00    -0.356 N 
ATOM      4  C   UNL A   1      32.949  36.347  30.543  1.00  0.00     0.227 C 
ATOM      5  O   UNL A   1      33.048  37.574  30.685  1.00  0.00    -0.274 OA
ATOM      6  H   UNL A   1      33.441  36.572  28.643  1.00  0.00     0.163 HD
BRANCH   4   7
ATOM      7  C   UNL A   1      32.604  35.465  31.755  1.00  0.00     0.105 C 
ATOM      8  C   UNL A   1      31.589  36.072  32.723  1.00  0.00     0.023 C 
BRANCH   7   9
ATOM      9  C   UNL A   1      33.825  34.824  32.398  1.00  0.00    -0.035 A 
ATOM     10  C   UNL A   1      37.425  31.611  34.028  1.00  0.00     0.119 A 
ATOM     11  C   UNL A   1      36.874  31.041  32.884  1.00  0.00     0.047 A 
ATOM     12  C   UNL A   1      36.953  32.850  34.473  1.00  0.00     0.055 A 
ATOM     13  C   UNL A   1      35.889  31.724  32.167  1.00  0.00     0.012 A 
ATOM     14  C   UNL A   1      35.941  33.535  33.780  1.00  0.00    -0.015 A 
ATOM     15  C   UNL A   1      35.418  32.973  32.600  1.00  0.00    -0.018 A 
ATOM     16  C   UNL A   1      35.422  34.753  34.239  1.00  0.00     0.009 A 
ATOM     17  C   UNL A   1      34.408  33.652  31.898  1.00  0.00     0.013 A 
ATOM     18  C   UNL A   1      34.361  35.375  33.570  1.00  0.00     0.005 A 
BRANCH  10  19
ATOM     19  O   UNL A   1      38.406  31.054  34.804  1.00  0.00    -0.497 OA
ATOM     20  C   UNL A   1      38.343  31.332  36.197  1.00  0.00     0.278 C 
ENDBRANCH  10  19
ENDBRANCH   7   9
ENDBRANCH   4   7
ENDBRANCH   2   3
ENDBRANCH   1   2
BRANCH   1  21
ATOM     21  C   UNL A   1      34.999  32.889  28.605  1.00  0.00     0.118 C 
BRANCH  21  22
ATOM     22  N   UNL A   1      34.248  31.675  28.315  1.00  0.00    -0.352 N 
ATOM     23  C   UNL A   1      34.673  30.389  28.087  1.00  0.00     0.251 C 
ATOM     24  H   UNL A   1      33.272  31.798  28.275  1.00  0.00     0.163 HD
ATOM     25  O   UNL A   1      33.872  29.569  27.645  1.00  0.00    -0.269 OA
BRANCH  23  26
ATOM     26  C   UNL A   1      36.072  29.971  28.349  1.00  0.00     0.039 A 
ATOM     27  C   UNL A   1      37.019  30.124  27.329  1.00  0.00     0.014 A 
ATOM     28  C   UNL A   1      36.450  29.364  29.549  1.00  0.00     0.014 A 
ATOM     29  C   UNL A   1      38.342  29.716  27.529  1.00  0.00     0.010 A 
ATOM     30  C   UNL A   1      37.785  29.028  29.777  1.00  0.00     0.010 A 
ATOM     31  C   UNL A   1      38.743  29.189  28.764  1.00  0.00    -0.014 A 
BRANCH  31  32
ATOM     32  C   UNL A   1      40.147  28.766  29.008  1.00  0.00     0.031 A 
ATOM     33  C   UNL A   1      41.114  29.708  29.676  1.00  0.00     0.074 A 
ATOM     34  C   UNL A   1      40.571  27.560  28.584  1.00  0.00     0.049 A 
ATOM     35  N   UNL A   1      42.398  29.565  29.890  1.00  0.00    -0.248 NA
ATOM     36  C   UNL A   1      40.569  30.991  30.146  1.00  0.00     0.031 C 
ATOM     37  C   UNL A   1      39.745  26.563  27.900  1.00  0.00     0.029 A 
ATOM     38  N   UNL A   1      41.808  26.969  28.660  1.00  0.00    -0.354 N 
ATOM     39  C   UNL A   1      42.814  30.741  30.500  1.00  0.00     0.074 A 
ATOM     40  C   UNL A   1      41.658  31.606  30.583  1.00  0.00     0.031 C 
ATOM     41  C   UNL A   1      40.493  25.478  27.639  1.00  0.00     0.029 A 
ATOM     42  C   UNL A   1      41.856  25.716  28.099  1.00  0.00     0.049 A 
ATOM     43  H   UNL A   1      42.587  27.403  29.076  1.00  0.00     0.167 HD
ATOM     44  C   UNL A   1      44.043  31.065  30.971  1.00  0.00     0.037 A 
ATOM     45  C   UNL A   1      42.886  24.860  27.965  1.00  0.00     0.037 A 
ATOM     46  C   UNL A   1      45.188  30.196  30.918  1.00  0.00     0.049 A 
ATOM     47  C   UNL A   1      44.243  25.248  28.487  1.00  0.00     0.074 A 
ATOM     48  C   UNL A   1      46.467  30.422  31.397  1.00  0.00     0.029 A 
ATOM     49  N   UNL A   1      45.188  28.926  30.361  1.00  0.00    -0.354 N 
ATOM     50  N   UNL A   1      44.611  26.350  29.093  1.00  0.00    -0.248 NA
ATOM     51  C   UNL A   1      45.325  24.268  28.310  1.00  0.00     0.031 C 
ATOM     52  C   UNL A   1      47.249  29.299  31.105  1.00  0.00     0.029 A 
ATOM     53  C   UNL A   1      46.447  28.360  30.478  1.00  0.00     0.049 A 
ATOM     54  H   UNL A   1      44.409  28.493  29.942  1.00  0.00     0.167 HD
ATOM     55  C   UNL A   1      45.956  26.185  29.397  1.00  0.00     0.074 A 
ATOM     56  C   UNL A   1      46.336  24.873  28.918  1.00  0.00     0.031 C 
ATOM     57  C   UNL A   1      46.801  27.044  30.016  1.00  0.00     0.037 A 
BRANCH  44  58
ATOM     58  C   UNL A   1      44.208  32.418  31.599  1.00  0.00     0.057 A 
ATOM     59  C   UNL A   1      44.481  33.556  30.828  1.00  0.00     0.134 A 
ATOM     60  C   UNL A   1      44.056  32.593  32.979  1.00  0.00     0.134 A 
ATOM     61  F   UNL A   1      44.651  33.453  29.501  1.00  0.00    -0.206 F 
ATOM     62  C   UNL A   1      44.619  34.816  31.411  1.00  0.00     0.040 A 
ATOM     63  C   UNL A   1      44.168  33.853  33.571  1.00  0.00     0.040 A 
ATOM     64  F   UNL A   1      43.788  31.547  33.774  1.00  0.00    -0.206 F 
ATOM     65  C   UNL A   1      44.455  34.968  32.786  1.00  0.00     0.006 A 
ENDBRANCH  44  58
BRANCH  45  66
ATOM     66  C   UNL A   1      42.679  23.535  27.328  1.00  0.00     0.057 A 
ATOM     67  C   UNL A   1      42.326  22.418  28.094  1.00  0.00     0.134 A 
ATOM     68  C   UNL A   1      42.849  23.346  25.952  1.00  0.00     0.134 A 
ATOM     69  F   UNL A   1      42.167  22.534  29.420  1.00  0.00    -0.206 F 
ATOM     70  C   UNL A   1      42.173  21.155  27.520  1.00  0.00     0.040 A 
ATOM     71  C   UNL A   1      42.678  22.093  25.360  1.00  0.00     0.040 A 
ATOM     72  F   UNL A   1      43.177  24.378  25.161  1.00  0.00    -0.206 F 
ATOM     73  C   UNL A   1      42.347  20.991  26.147  1.00  0.00     0.006 A 
ENDBRANCH  45  66
BRANCH  57  74
ATOM     74  C   UNL A   1      48.203  26.571  30.257  1.00  0.00     0.057 A 
ATOM     75  C   UNL A   1      49.241  26.848  29.359  1.00  0.00     0.134 A 
ATOM     76  C   UNL A   1      48.523  25.861  31.421  1.00  0.00     0.134 A 
ATOM     77  F   UNL A   1      48.995  27.512  28.220  1.00  0.00    -0.206 F 
ATOM     78  C   UNL A   1      50.546  26.417  29.601  1.00  0.00     0.040 A 
ATOM     79  C   UNL A   1      49.828  25.444  31.684  1.00  0.00     0.040 A 
ATOM     80  F   UNL A   1      47.575  25.570  32.325  1.00  0.00    -0.206 F 
ATOM     81  C   UNL A   1      50.844  25.718  30.770  1.00  0.00     0.006 A 
ENDBRANCH  57  74
ENDBRANCH  31  32
ENDBRANCH  23  26
ENDBRANCH  21  22
ENDBRANCH   1  21
TORSDOF 12
ENDMDL
MODEL 3
REMARK VINA RESULT:      -9.0      5.304      8.441
REMARK SMILES COc1ccc2cc([C@@H](C)C(=O)NCCCNC(=O)c3ccc(-c4c5nc(c(-c6c(F)cccc6F)c6ccc([nH]6)c(-c6c(F)cccc6F)c6nc(c(-c7c(F)cccc7F)c7ccc4[nH]7)C=C6)C=C5)cc3)ccc2c1
REMARK SMILES IDX 15 1 14 2 13 3 11 4 12 5 9 7 10 8 8 9 3 10 4 11 77 12 5 13
REMARK SMILES IDX 76 14 6 15 75 16 7 17 74 18 2 19 1 20 16 21 17 22 18 23
REMARK SMILES IDX 19 25 20 26 21 27 73 28 22 29 72 30 23 31 24 32 25 33 66 34
REMARK SMILES IDX 26 35 71 36 65 37 67 38 27 39 70 40 64 41 63 42 28 44 54 45
REMARK SMILES IDX 37 46 53 47 38 48 41 49 52 50 68 51 39 52 40 53 51 55 69 56
REMARK SMILES IDX 42 57 29 58 30 59 35 60 31 61 32 62 34 63 36 64 33 65 55 66
REMARK SMILES IDX 56 67 61 68 57 69 58 70 60 71 62 72 59 73 43 74 44 75 49 76
REMARK SMILES IDX 45 77 46 78 48 79 50 80 47 81
REMARK H PARENT 13 6 17 24 67 43 41 54
REMARK Flexibility Score: inf
ROOT
ATOM      1  C   UNL A   1      38.899  22.365  26.236  1.00  0.00     0.042 C 
ENDROOT
BRANCH   1   2
ATOM      2  C   UNL A   1      37.699  23.224  25.846  1.00  0.00     0.117 C 
BRANCH   2   3
ATOM      3  N   UNL A   1      37.428  23.174  24.423  1.00  0.00    -0.356 N 
ATOM      4  C   UNL A   1      36.275  23.056  23.709  1.00  0.00     0.227 C 
ATOM      5  O   UNL A   1      36.408  22.958  22.481  1.00  0.00    -0.274 OA
ATOM      6  H   UNL A   1      38.236  23.237  23.863  1.00  0.00     0.163 HD
BRANCH   4   7
ATOM      7  C   UNL A   1      34.867  23.040  24.327  1.00  0.00     0.105 C 
ATOM      8  C   UNL A   1      34.665  24.008  25.491  1.00  0.00     0.023 C 
BRANCH   7   9
ATOM      9  C   UNL A   1      34.317  21.637  24.534  1.00  0.00    -0.035 A 
ATOM     10  C   UNL A   1      33.584  16.599  24.678  1.00  0.00     0.119 A 
ATOM     11  C   UNL A   1      34.961  16.797  24.652  1.00  0.00     0.047 A 
ATOM     12  C   UNL A   1      32.729  17.706  24.678  1.00  0.00     0.055 A 
ATOM     13  C   UNL A   1      35.481  18.094  24.670  1.00  0.00     0.012 A 
ATOM     14  C   UNL A   1      33.237  19.016  24.664  1.00  0.00    -0.015 A 
ATOM     15  C   UNL A   1      34.632  19.211  24.682  1.00  0.00    -0.018 A 
ATOM     16  C   UNL A   1      32.397  20.137  24.614  1.00  0.00     0.009 A 
ATOM     17  C   UNL A   1      35.148  20.517  24.673  1.00  0.00     0.013 A 
ATOM     18  C   UNL A   1      32.931  21.427  24.524  1.00  0.00     0.005 A 
BRANCH  10  19
ATOM     19  O   UNL A   1      32.954  15.383  24.683  1.00  0.00    -0.497 OA
ATOM     20  C   UNL A   1      32.175  15.080  25.833  1.00  0.00     0.278 C 
ENDBRANCH  10  19
ENDBRANCH   7   9
ENDBRANCH   4   7
ENDBRANCH   2   3
ENDBRANCH   1   2
BRANCH   1  21
ATOM     21  C   UNL A   1      39.999  23.125  26.965  1.00  0.00     0.118 C 
BRANCH  21  22
ATOM     22  N   UNL A   1      40.890  23.818  26.045  1.00  0.00    -0.352 N 
ATOM     23  C   UNL A   1      41.323  25.121  26.024  1.00  0.00     0.251 C 
ATOM     24  H   UNL A   1      41.241  23.258  25.314  1.00  0.00     0.163 HD
ATOM     25  O   UNL A   1      41.901  25.539  25.023  1.00  0.00    -0.269 OA
BRANCH  23  26
ATOM     26  C   UNL A   1      41.100  26.036  27.170  1.00  0.00     0.039 A 
ATOM     27  C   UNL A   1      41.946  27.142  27.317  1.00  0.00     0.014 A 
ATOM     28  C   UNL A   1      40.129  25.782  28.141  1.00  0.00     0.014 A 
ATOM     29  C   UNL A   1      41.786  28.012  28.400  1.00  0.00     0.010 A 
ATOM     30  C   UNL A   1      39.918  26.691  29.179  1.00  0.00     0.010 A 
ATOM     31  C   UNL A   1      40.753  27.810  29.327  1.00  0.00    -0.014 A 
BRANCH  31  32
ATOM     32  C   UNL A   1      40.549  28.730  30.476  1.00  0.00     0.031 A 
ATOM     33  C   UNL A   1      39.485  29.794  30.412  1.00  0.00     0.074 A 
ATOM     34  C   UNL A   1      41.352  28.649  31.555  1.00  0.00     0.049 A 
ATOM     35  N   UNL A   1      39.216  30.751  31.264  1.00  0.00    -0.248 NA
ATOM     36  C   UNL A   1      38.623  29.796  29.219  1.00  0.00     0.031 C 
ATOM     37  C   UNL A   1      42.437  27.683  31.734  1.00  0.00     0.029 A 
ATOM     38  N   UNL A   1      41.383  29.398  32.705  1.00  0.00    -0.354 N 
ATOM     39  C   UNL A   1      38.171  31.475  30.704  1.00  0.00     0.074 A 
ATOM     40  C   UNL A   1      37.883  30.876  29.419  1.00  0.00     0.031 C 
ATOM     41  C   UNL A   1      43.013  27.886  32.931  1.00  0.00     0.029 A 
ATOM     42  C   UNL A   1      42.366  29.017  33.586  1.00  0.00     0.049 A 
ATOM     43  H   UNL A   1      40.760  30.140  32.881  1.00  0.00     0.167 HD
ATOM     44  C   UNL A   1      37.495  32.529  31.222  1.00  0.00     0.037 A 
ATOM     45  C   UNL A   1      42.710  29.528  34.783  1.00  0.00     0.037 A 
ATOM     46  C   UNL A   1      37.758  33.108  32.512  1.00  0.00     0.049 A 
ATOM     47  C   UNL A   1      41.950  30.705  35.330  1.00  0.00     0.074 A 
ATOM     48  C   UNL A   1      37.107  34.158  33.137  1.00  0.00     0.029 A 
ATOM     49  N   UNL A   1      38.749  32.678  33.382  1.00  0.00    -0.354 N 
ATOM     50  N   UNL A   1      40.942  31.356  34.803  1.00  0.00    -0.248 NA
ATOM     51  C   UNL A   1      42.375  31.215  36.642  1.00  0.00     0.031 C 
ATOM     52  C   UNL A   1      37.721  34.380  34.374  1.00  0.00     0.029 A 
ATOM     53  C   UNL A   1      38.731  33.445  34.534  1.00  0.00     0.049 A 
ATOM     54  H   UNL A   1      39.374  31.938  33.204  1.00  0.00     0.167 HD
ATOM     55  C   UNL A   1      40.592  32.329  35.730  1.00  0.00     0.074 A 
ATOM     56  C   UNL A   1      41.489  32.177  36.857  1.00  0.00     0.031 C 
ATOM     57  C   UNL A   1      39.615  33.265  35.655  1.00  0.00     0.037 A 
BRANCH  44  58
ATOM     58  C   UNL A   1      36.392  33.118  30.392  1.00  0.00     0.057 A 
ATOM     59  C   UNL A   1      35.045  32.831  30.653  1.00  0.00     0.134 A 
ATOM     60  C   UNL A   1      36.674  34.007  29.349  1.00  0.00     0.134 A 
ATOM     61  F   UNL A   1      34.709  31.976  31.631  1.00  0.00    -0.206 F 
ATOM     62  C   UNL A   1      34.019  33.391  29.890  1.00  0.00     0.040 A 
ATOM     63  C   UNL A   1      35.655  34.593  28.594  1.00  0.00     0.040 A 
ATOM     64  F   UNL A   1      37.942  34.329  29.051  1.00  0.00    -0.206 F 
ATOM     65  C   UNL A   1      34.324  34.281  28.862  1.00  0.00     0.006 A 
ENDBRANCH  44  58
BRANCH  45  66
ATOM     66  C   UNL A   1      43.815  28.919  35.565  1.00  0.00     0.057 A 
ATOM     67  C   UNL A   1      43.560  27.911  36.502  1.00  0.00     0.134 A 
ATOM     68  C   UNL A   1      45.141  29.341  35.415  1.00  0.00     0.134 A 
ATOM     69  F   UNL A   1      42.307  27.479  36.703  1.00  0.00    -0.206 F 
ATOM     70  C   UNL A   1      44.579  27.360  37.280  1.00  0.00     0.040 A 
ATOM     71  C   UNL A   1      46.174  28.784  36.171  1.00  0.00     0.040 A 
ATOM     72  F   UNL A   1      45.453  30.295  34.528  1.00  0.00    -0.206 F 
ATOM     73  C   UNL A   1      45.892  27.796  37.114  1.00  0.00     0.006 A 
ENDBRANCH  45  66
BRANCH  57  74
ATOM     74  C   UNL A   1      39.434  34.162  36.842  1.00  0.00     0.057 A 
ATOM     75  C   UNL A   1      38.716  33.756  37.973  1.00  0.00     0.134 A 
ATOM     76  C   UNL A   1      40.018  35.435  36.866  1.00  0.00     0.134 A 
ATOM     77  F   UNL A   1      38.122  32.554  38.005  1.00  0.00    -0.206 F 
ATOM     78  C   UNL A   1      38.567  34.593  39.080  1.00  0.00     0.040 A 
ATOM     79  C   UNL A   1      39.894  36.273  37.975  1.00  0.00     0.040 A 
ATOM     80  F   UNL A   1      40.725  35.881  35.816  1.00  0.00    -0.206 F 
ATOM     81  C   UNL A   1      39.162  35.853  39.085  1.00  0.00     0.006 A 
ENDBRANCH  57  74
ENDBRANCH  31  32
ENDBRANCH  23  26
ENDBRANCH  21  22
ENDBRANCH   1  21
TORSDOF 12
ENDMDL
