MODEL 1
REMARK VINA RESULT:     -12.8      0.000      0.000
REMARK SMILES O=C(Cn1c2ccccc2c(=O)c2ccccc21)N[C@@H](Cc1ccccc1)C(=O)NCCCNC(=O)c1ccc(-c2c3nc(c(-c4c(F)cccc4F)c4ccc([nH]4)c(-c4c(F)cccc4F)c4nc(c(-c5c(F)cccc5F)c5ccc2[nH]5)C=C4)C=C3)cc1
REMARK SMILES IDX 31 1 30 2 28 3 29 4 20 6 19 7 1 8 2 9 3 11 4 12 5 13 18 14
REMARK SMILES IDX 6 15 10 16 13 17 17 18 7 19 9 20 11 21 14 22 16 23 8 24
REMARK SMILES IDX 12 25 15 26 21 27 22 28 23 29 27 30 24 31 26 32 25 33 32 34
REMARK SMILES IDX 33 35 34 36 35 37 36 39 37 40 38 41 90 42 39 43 89 44 40 45
REMARK SMILES IDX 41 46 42 47 83 48 43 49 88 50 82 51 84 52 44 53 87 54 81 55
REMARK SMILES IDX 80 56 45 58 71 59 54 60 70 61 55 62 58 63 69 64 85 65 56 66
REMARK SMILES IDX 57 67 68 69 86 70 59 71 46 72 47 73 52 74 48 75 49 76 51 77
REMARK SMILES IDX 53 78 50 79 72 80 73 81 78 82 74 83 75 84 77 85 79 86 76 87
REMARK SMILES IDX 60 88 61 89 66 90 62 91 63 92 65 93 67 94 64 95
REMARK H PARENT 30 5 19 10 34 38 84 57 58 68
REMARK Flexibility Score: inf
ROOT
ATOM      1  C   UNL A   1      32.978  28.649  25.570  1.00  0.00     0.117 C 
ENDROOT
BRANCH   1   2
ATOM      2  N   UNL A   1      31.672  28.232  26.039  1.00  0.00    -0.354 N 
ATOM      3  C   UNL A   1      31.131  26.976  26.034  1.00  0.00     0.242 C 
ATOM      4  O   UNL A   1      30.326  26.706  26.930  1.00  0.00    -0.273 OA
ATOM      5  H   UNL A   1      31.101  28.944  26.408  1.00  0.00     0.163 HD
BRANCH   3   6
ATOM      6  C   UNL A   1      31.551  25.913  24.997  1.00  0.00     0.175 C 
BRANCH   6   7
ATOM      7  N   UNL A   1      31.900  24.655  25.670  1.00  0.00    -0.342 N 
ATOM      8  O   UNL A   1      33.694  24.171  24.334  1.00  0.00    -0.273 OA
ATOM      9  C   UNL A   1      33.069  23.991  25.378  1.00  0.00     0.240 C 
ATOM     10  H   UNL A   1      31.287  24.281  26.342  1.00  0.00     0.164 HD
BRANCH   9  11
ATOM     11  C   UNL A   1      33.532  22.964  26.419  1.00  0.00     0.222 C 
BRANCH  11  12
ATOM     12  N   UNL A   1      34.515  21.939  25.949  1.00  0.00    -0.331 N 
ATOM     13  C   UNL A   1      35.897  22.253  25.846  1.00  0.00     0.053 A 
ATOM     14  C   UNL A   1      33.986  20.762  25.336  1.00  0.00     0.053 A 
ATOM     15  C   UNL A   1      36.452  23.513  26.122  1.00  0.00     0.027 A 
ATOM     16  C   UNL A   1      36.816  21.261  25.442  1.00  0.00     0.046 A 
ATOM     17  C   UNL A   1      34.864  19.763  24.860  1.00  0.00     0.046 A 
ATOM     18  C   UNL A   1      32.615  20.520  25.130  1.00  0.00     0.027 A 
ATOM     19  C   UNL A   1      37.838  23.737  26.101  1.00  0.00     0.002 A 
ATOM     20  C   UNL A   1      38.202  21.481  25.401  1.00  0.00     0.014 A 
ATOM     21  C   UNL A   1      36.315  19.938  25.029  1.00  0.00     0.197 A 
ATOM     22  C   UNL A   1      34.408  18.607  24.207  1.00  0.00     0.014 A 
ATOM     23  C   UNL A   1      32.153  19.362  24.485  1.00  0.00     0.002 A 
ATOM     24  C   UNL A   1      38.716  22.720  25.751  1.00  0.00     0.001 A 
ATOM     25  O   UNL A   1      37.092  19.010  24.826  1.00  0.00    -0.288 OA
ATOM     26  C   UNL A   1      33.048  18.413  24.015  1.00  0.00     0.001 A 
ENDBRANCH  11  12
ENDBRANCH   9  11
ENDBRANCH   6   7
BRANCH   6  27
ATOM     27  C   UNL A   1      30.636  25.811  23.757  1.00  0.00     0.070 C 
BRANCH  27  28
ATOM     28  C   UNL A   1      29.979  27.072  23.251  1.00  0.00    -0.045 A 
ATOM     29  C   UNL A   1      30.729  28.046  22.571  1.00  0.00     0.004 A 
ATOM     30  C   UNL A   1      28.621  27.314  23.496  1.00  0.00     0.004 A 
ATOM     31  C   UNL A   1      30.149  29.268  22.219  1.00  0.00     0.000 A 
ATOM     32  C   UNL A   1      28.042  28.534  23.137  1.00  0.00     0.000 A 
ATOM     33  C   UNL A   1      28.811  29.517  22.516  1.00  0.00     0.000 A 
ENDBRANCH  27  28
ENDBRANCH   6  27
ENDBRANCH   3   6
ENDBRANCH   1   2
BRANCH   1  34
ATOM     34  C   UNL A   1      33.579  29.801  26.340  1.00  0.00     0.042 C 
BRANCH  34  35
ATOM     35  C   UNL A   1      34.432  29.318  27.500  1.00  0.00     0.118 C 
BRANCH  35  36
ATOM     36  N   UNL A   1      34.758  30.390  28.445  1.00  0.00    -0.352 N 
ATOM     37  C   UNL A   1      35.904  30.645  29.166  1.00  0.00     0.251 C 
ATOM     38  H   UNL A   1      34.034  31.040  28.590  1.00  0.00     0.163 HD
ATOM     39  O   UNL A   1      35.890  31.479  30.066  1.00  0.00    -0.269 OA
BRANCH  37  40
ATOM     40  C   UNL A   1      37.137  29.882  28.884  1.00  0.00     0.039 A 
ATOM     41  C   UNL A   1      37.775  29.195  29.909  1.00  0.00     0.014 A 
ATOM     42  C   UNL A   1      37.692  29.894  27.602  1.00  0.00     0.014 A 
ATOM     43  C   UNL A   1      39.084  28.785  29.739  1.00  0.00     0.010 A 
ATOM     44  C   UNL A   1      38.955  29.328  27.391  1.00  0.00     0.010 A 
ATOM     45  C   UNL A   1      39.696  28.840  28.477  1.00  0.00    -0.014 A 
BRANCH  45  46
ATOM     46  C   UNL A   1      41.113  28.402  28.356  1.00  0.00     0.031 A 
ATOM     47  C   UNL A   1      41.458  26.985  27.977  1.00  0.00     0.074 A 
ATOM     48  C   UNL A   1      42.092  29.322  28.475  1.00  0.00     0.049 A 
ATOM     49  N   UNL A   1      42.638  26.440  27.812  1.00  0.00    -0.248 NA
ATOM     50  C   UNL A   1      40.339  26.053  27.767  1.00  0.00     0.031 C 
ATOM     51  C   UNL A   1      41.886  30.732  28.820  1.00  0.00     0.029 A 
ATOM     52  N   UNL A   1      43.442  29.229  28.264  1.00  0.00    -0.354 N 
ATOM     53  C   UNL A   1      42.405  25.103  27.515  1.00  0.00     0.074 A 
ATOM     54  C   UNL A   1      40.972  24.908  27.546  1.00  0.00     0.031 C 
ATOM     55  C   UNL A   1      43.046  31.390  28.698  1.00  0.00     0.029 A 
ATOM     56  C   UNL A   1      44.094  30.434  28.362  1.00  0.00     0.049 A 
ATOM     57  H   UNL A   1      43.901  28.382  28.062  1.00  0.00     0.167 HD
ATOM     58  C   UNL A   1      43.303  24.129  27.227  1.00  0.00     0.037 A 
ATOM     59  C   UNL A   1      45.395  30.741  28.212  1.00  0.00     0.037 A 
ATOM     60  C   UNL A   1      44.726  24.337  27.147  1.00  0.00     0.049 A 
ATOM     61  C   UNL A   1      46.367  29.645  27.901  1.00  0.00     0.074 A 
ATOM     62  C   UNL A   1      45.720  23.414  26.875  1.00  0.00     0.029 A 
ATOM     63  N   UNL A   1      45.353  25.563  27.314  1.00  0.00    -0.354 N 
ATOM     64  N   UNL A   1      46.134  28.373  27.687  1.00  0.00    -0.248 NA
ATOM     65  C   UNL A   1      47.784  30.021  27.833  1.00  0.00     0.031 C 
ATOM     66  C   UNL A   1      46.952  24.077  26.898  1.00  0.00     0.029 A 
ATOM     67  C   UNL A   1      46.721  25.420  27.153  1.00  0.00     0.049 A 
ATOM     68  H   UNL A   1      44.893  26.410  27.518  1.00  0.00     0.167 HD
ATOM     69  C   UNL A   1      47.374  27.794  27.466  1.00  0.00     0.074 A 
ATOM     70  C   UNL A   1      48.353  28.860  27.537  1.00  0.00     0.031 C 
ATOM     71  C   UNL A   1      47.678  26.493  27.238  1.00  0.00     0.037 A 
BRANCH  58  72
ATOM     72  C   UNL A   1      42.769  22.749  26.975  1.00  0.00     0.057 A 
ATOM     73  C   UNL A   1      42.676  22.239  25.676  1.00  0.00     0.134 A 
ATOM     74  C   UNL A   1      42.317  21.936  28.021  1.00  0.00     0.134 A 
ATOM     75  F   UNL A   1      43.080  22.969  24.626  1.00  0.00    -0.206 F 
ATOM     76  C   UNL A   1      42.156  20.967  25.427  1.00  0.00     0.040 A 
ATOM     77  C   UNL A   1      41.818  20.653  27.789  1.00  0.00     0.040 A 
ATOM     78  F   UNL A   1      42.382  22.369  29.288  1.00  0.00    -0.206 F 
ATOM     79  C   UNL A   1      41.732  20.167  26.486  1.00  0.00     0.006 A 
ENDBRANCH  58  72
BRANCH  59  80
ATOM     80  C   UNL A   1      45.844  32.144  28.383  1.00  0.00     0.057 A 
ATOM     81  C   UNL A   1      46.233  32.634  29.637  1.00  0.00     0.134 A 
ATOM     82  C   UNL A   1      45.867  33.037  27.306  1.00  0.00     0.134 A 
ATOM     83  F   UNL A   1      46.225  31.830  30.710  1.00  0.00    -0.206 F 
ATOM     84  C   UNL A   1      46.604  33.966  29.819  1.00  0.00     0.040 A 
ATOM     85  C   UNL A   1      46.264  34.365  27.468  1.00  0.00     0.040 A 
ATOM     86  F   UNL A   1      45.524  32.622  26.078  1.00  0.00    -0.206 F 
ATOM     87  C   UNL A   1      46.625  34.834  28.730  1.00  0.00     0.006 A 
ENDBRANCH  59  80
BRANCH  71  88
ATOM     88  C   UNL A   1      49.127  26.166  27.050  1.00  0.00     0.057 A 
ATOM     89  C   UNL A   1      49.707  26.193  25.777  1.00  0.00     0.134 A 
ATOM     90  C   UNL A   1      49.945  25.819  28.133  1.00  0.00     0.134 A 
ATOM     91  F   UNL A   1      48.973  26.513  24.700  1.00  0.00    -0.206 F 
ATOM     92  C   UNL A   1      51.055  25.888  25.586  1.00  0.00     0.040 A 
ATOM     93  C   UNL A   1      51.300  25.533  27.958  1.00  0.00     0.040 A 
ATOM     94  F   UNL A   1      49.449  25.791  29.378  1.00  0.00    -0.206 F 
ATOM     95  C   UNL A   1      51.856  25.564  26.680  1.00  0.00     0.006 A 
ENDBRANCH  71  88
ENDBRANCH  45  46
ENDBRANCH  37  40
ENDBRANCH  35  36
ENDBRANCH  34  35
ENDBRANCH   1  34
TORSDOF 15
ENDMDL
MODEL 2
REMARK VINA RESULT:     -12.5      2.473      8.527
REMARK SMILES O=C(Cn1c2ccccc2c(=O)c2ccccc21)N[C@@H](Cc1ccccc1)C(=O)NCCCNC(=O)c1ccc(-c2c3nc(c(-c4c(F)cccc4F)c4ccc([nH]4)c(-c4c(F)cccc4F)c4nc(c(-c5c(F)cccc5F)c5ccc2[nH]5)C=C4)C=C3)cc1
REMARK SMILES IDX 31 1 30 2 28 3 29 4 20 6 19 7 1 8 2 9 3 11 4 12 5 13 18 14
REMARK SMILES IDX 6 15 10 16 13 17 17 18 7 19 9 20 11 21 14 22 16 23 8 24
REMARK SMILES IDX 12 25 15 26 21 27 22 28 23 29 27 30 24 31 26 32 25 33 32 34
REMARK SMILES IDX 33 35 34 36 35 37 36 39 37 40 38 41 90 42 39 43 89 44 40 45
REMARK SMILES IDX 41 46 42 47 83 48 43 49 88 50 82 51 84 52 44 53 87 54 81 55
REMARK SMILES IDX 80 56 45 58 71 59 54 60 70 61 55 62 58 63 69 64 85 65 56 66
REMARK SMILES IDX 57 67 68 69 86 70 59 71 46 72 47 73 52 74 48 75 49 76 51 77
REMARK SMILES IDX 53 78 50 79 72 80 73 81 78 82 74 83 75 84 77 85 79 86 76 87
REMARK SMILES IDX 60 88 61 89 66 90 62 91 63 92 65 93 67 94 64 95
REMARK H PARENT 30 5 19 10 34 38 84 57 58 68
REMARK Flexibility Score: inf
ROOT
ATOM      1  C   UNL A   1      36.673  21.684  25.071  1.00  0.00     0.117 C 
ENDROOT
BRANCH   1   2
ATOM      2  N   UNL A   1      35.959  21.729  26.330  1.00  0.00    -0.354 N 
ATOM      3  C   UNL A   1      34.617  21.583  26.549  1.00  0.00     0.242 C 
ATOM      4  O   UNL A   1      34.272  21.092  27.628  1.00  0.00    -0.273 OA
ATOM      5  H   UNL A   1      36.511  21.884  27.132  1.00  0.00     0.163 HD
BRANCH   3   6
ATOM      6  C   UNL A   1      33.572  21.950  25.474  1.00  0.00     0.175 C 
BRANCH   6   7
ATOM      7  N   UNL A   1      33.665  23.378  25.140  1.00  0.00    -0.342 N 
ATOM      8  O   UNL A   1      32.477  24.115  26.953  1.00  0.00    -0.273 OA
ATOM      9  C   UNL A   1      33.254  24.345  26.028  1.00  0.00     0.240 C 
ATOM     10  H   UNL A   1      34.028  23.646  24.266  1.00  0.00     0.164 HD
BRANCH   9  11
ATOM     11  C   UNL A   1      33.790  25.760  25.770  1.00  0.00     0.222 C 
BRANCH  11  12
ATOM     12  N   UNL A   1      32.893  26.681  25.006  1.00  0.00    -0.331 N 
ATOM     13  C   UNL A   1      32.623  26.454  23.630  1.00  0.00     0.053 A 
ATOM     14  C   UNL A   1      32.571  27.932  25.617  1.00  0.00     0.053 A 
ATOM     15  C   UNL A   1      33.178  25.413  22.869  1.00  0.00     0.027 A 
ATOM     16  C   UNL A   1      31.740  27.309  22.936  1.00  0.00     0.046 A 
ATOM     17  C   UNL A   1      31.739  28.850  24.940  1.00  0.00     0.046 A 
ATOM     18  C   UNL A   1      33.058  28.354  26.868  1.00  0.00     0.027 A 
ATOM     19  C   UNL A   1      32.795  25.178  21.538  1.00  0.00     0.002 A 
ATOM     20  C   UNL A   1      31.365  27.092  21.600  1.00  0.00     0.014 A 
ATOM     21  C   UNL A   1      31.191  28.491  23.623  1.00  0.00     0.197 A 
ATOM     22  C   UNL A   1      31.425  30.113  25.466  1.00  0.00     0.014 A 
ATOM     23  C   UNL A   1      32.741  29.613  27.403  1.00  0.00     0.002 A 
ATOM     24  C   UNL A   1      31.881  26.009  20.905  1.00  0.00     0.001 A 
ATOM     25  O   UNL A   1      30.303  29.161  23.103  1.00  0.00    -0.288 OA
ATOM     26  C   UNL A   1      31.935  30.494  26.699  1.00  0.00     0.001 A 
ENDBRANCH  11  12
ENDBRANCH   9  11
ENDBRANCH   6   7
BRANCH   6  27
ATOM     27  C   UNL A   1      33.474  20.962  24.292  1.00  0.00     0.070 C 
BRANCH  27  28
ATOM     28  C   UNL A   1      33.509  19.483  24.596  1.00  0.00    -0.045 A 
ATOM     29  C   UNL A   1      32.455  18.871  25.293  1.00  0.00     0.004 A 
ATOM     30  C   UNL A   1      34.618  18.709  24.229  1.00  0.00     0.004 A 
ATOM     31  C   UNL A   1      32.548  17.533  25.685  1.00  0.00     0.000 A 
ATOM     32  C   UNL A   1      34.705  17.369  24.617  1.00  0.00     0.000 A 
ATOM     33  C   UNL A   1      33.680  16.788  25.362  1.00  0.00     0.000 A 
ENDBRANCH  27  28
ENDBRANCH   6  27
ENDBRANCH   3   6
ENDBRANCH   1   2
BRANCH   1  34
ATOM     34  C   UNL A   1      37.702  20.582  24.976  1.00  0.00     0.042 C 
BRANCH  34  35
ATOM     35  C   UNL A   1      38.923  20.877  25.829  1.00  0.00     0.118 C 
BRANCH  35  36
ATOM     36  N   UNL A   1      39.907  19.791  25.801  1.00  0.00    -0.352 N 
ATOM     37  C   UNL A   1      41.267  19.794  26.019  1.00  0.00     0.251 C 
ATOM     38  H   UNL A   1      39.532  18.907  25.589  1.00  0.00     0.163 HD
ATOM     39  O   UNL A   1      41.937  18.806  25.734  1.00  0.00    -0.269 OA
BRANCH  37  40
ATOM     40  C   UNL A   1      41.924  21.003  26.556  1.00  0.00     0.039 A 
ATOM     41  C   UNL A   1      42.143  21.122  27.923  1.00  0.00     0.014 A 
ATOM     42  C   UNL A   1      42.277  22.050  25.700  1.00  0.00     0.014 A 
ATOM     43  C   UNL A   1      42.423  22.365  28.460  1.00  0.00     0.010 A 
ATOM     44  C   UNL A   1      42.723  23.263  26.239  1.00  0.00     0.010 A 
ATOM     45  C   UNL A   1      42.722  23.456  27.628  1.00  0.00    -0.014 A 
BRANCH  45  46
ATOM     46  C   UNL A   1      42.999  24.775  28.260  1.00  0.00     0.031 A 
ATOM     47  C   UNL A   1      44.411  25.221  28.538  1.00  0.00     0.074 A 
ATOM     48  C   UNL A   1      41.973  25.622  28.476  1.00  0.00     0.049 A 
ATOM     49  N   UNL A   1      44.831  26.343  29.067  1.00  0.00    -0.248 NA
ATOM     50  C   UNL A   1      45.494  24.287  28.190  1.00  0.00     0.031 C 
ATOM     51  C   UNL A   1      40.561  25.315  28.231  1.00  0.00     0.029 A 
ATOM     52  N   UNL A   1      41.958  26.927  28.893  1.00  0.00    -0.354 N 
ATOM     53  C   UNL A   1      46.214  26.236  29.146  1.00  0.00     0.074 A 
ATOM     54  C   UNL A   1      46.565  24.929  28.635  1.00  0.00     0.031 C 
ATOM     55  C   UNL A   1      39.831  26.426  28.402  1.00  0.00     0.029 A 
ATOM     56  C   UNL A   1      40.707  27.496  28.862  1.00  0.00     0.049 A 
ATOM     57  H   UNL A   1      42.763  27.410  29.186  1.00  0.00     0.167 HD
ATOM     58  C   UNL A   1      47.112  27.149  29.591  1.00  0.00     0.037 A 
ATOM     59  C   UNL A   1      40.302  28.737  29.182  1.00  0.00     0.037 A 
ATOM     60  C   UNL A   1      46.765  28.468  30.053  1.00  0.00     0.049 A 
ATOM     61  C   UNL A   1      41.313  29.725  29.677  1.00  0.00     0.074 A 
ATOM     62  C   UNL A   1      47.598  29.462  30.535  1.00  0.00     0.029 A 
ATOM     63  N   UNL A   1      45.477  28.984  30.064  1.00  0.00    -0.354 N 
ATOM     64  N   UNL A   1      42.610  29.583  29.807  1.00  0.00    -0.248 NA
ATOM     65  C   UNL A   1      40.804  31.037  30.093  1.00  0.00     0.031 C 
ATOM     66  C   UNL A   1      46.811  30.575  30.858  1.00  0.00     0.029 A 
ATOM     67  C   UNL A   1      45.493  30.283  30.547  1.00  0.00     0.049 A 
ATOM     68  H   UNL A   1      44.671  28.500  29.773  1.00  0.00     0.167 HD
ATOM     69  C   UNL A   1      43.072  30.783  30.325  1.00  0.00     0.074 A 
ATOM     70  C   UNL A   1      41.921  31.654  30.453  1.00  0.00     0.031 C 
ATOM     71  C   UNL A   1      44.334  31.128  30.676  1.00  0.00     0.037 A 
BRANCH  58  72
ATOM     72  C   UNL A   1      48.559  26.751  29.596  1.00  0.00     0.057 A 
ATOM     73  C   UNL A   1      49.108  26.048  30.675  1.00  0.00     0.134 A 
ATOM     74  C   UNL A   1      49.418  27.092  28.544  1.00  0.00     0.134 A 
ATOM     75  F   UNL A   1      48.345  25.700  31.721  1.00  0.00    -0.206 F 
ATOM     76  C   UNL A   1      50.460  25.696  30.704  1.00  0.00     0.040 A 
ATOM     77  C   UNL A   1      50.764  26.724  28.550  1.00  0.00     0.040 A 
ATOM     78  F   UNL A   1      48.950  27.764  27.483  1.00  0.00    -0.206 F 
ATOM     79  C   UNL A   1      51.290  26.027  29.635  1.00  0.00     0.006 A 
ENDBRANCH  58  72
BRANCH  59  80
ATOM     80  C   UNL A   1      38.867  29.095  29.065  1.00  0.00     0.057 A 
ATOM     81  C   UNL A   1      38.008  29.019  30.169  1.00  0.00     0.134 A 
ATOM     82  C   UNL A   1      38.315  29.493  27.843  1.00  0.00     0.134 A 
ATOM     83  F   UNL A   1      38.476  28.636  31.366  1.00  0.00    -0.206 F 
ATOM     84  C   UNL A   1      36.647  29.301  30.057  1.00  0.00     0.040 A 
ATOM     85  C   UNL A   1      36.960  29.805  27.723  1.00  0.00     0.040 A 
ATOM     86  F   UNL A   1      39.091  29.603  26.755  1.00  0.00    -0.206 F 
ATOM     87  C   UNL A   1      36.121  29.701  28.831  1.00  0.00     0.006 A 
ENDBRANCH  59  80
BRANCH  71  88
ATOM     88  C   UNL A   1      44.522  32.507  31.229  1.00  0.00     0.057 A 
ATOM     89  C   UNL A   1      44.786  33.588  30.380  1.00  0.00     0.134 A 
ATOM     90  C   UNL A   1      44.447  32.761  32.604  1.00  0.00     0.134 A 
ATOM     91  F   UNL A   1      44.875  33.408  29.053  1.00  0.00    -0.206 F 
ATOM     92  C   UNL A   1      44.966  34.878  30.881  1.00  0.00     0.040 A 
ATOM     93  C   UNL A   1      44.603  34.050  33.115  1.00  0.00     0.040 A 
ATOM     94  F   UNL A   1      44.181  31.767  33.465  1.00  0.00    -0.206 F 
ATOM     95  C   UNL A   1      44.867  35.112  32.251  1.00  0.00     0.006 A 
ENDBRANCH  71  88
ENDBRANCH  45  46
ENDBRANCH  37  40
ENDBRANCH  35  36
ENDBRANCH  34  35
ENDBRANCH   1  34
TORSDOF 15
ENDMDL
MODEL 3
REMARK VINA RESULT:     -12.5      2.171      8.266
REMARK SMILES O=C(Cn1c2ccccc2c(=O)c2ccccc21)N[C@@H](Cc1ccccc1)C(=O)NCCCNC(=O)c1ccc(-c2c3nc(c(-c4c(F)cccc4F)c4ccc([nH]4)c(-c4c(F)cccc4F)c4nc(c(-c5c(F)cccc5F)c5ccc2[nH]5)C=C4)C=C3)cc1
REMARK SMILES IDX 31 1 30 2 28 3 29 4 20 6 19 7 1 8 2 9 3 11 4 12 5 13 18 14
REMARK SMILES IDX 6 15 10 16 13 17 17 18 7 19 9 20 11 21 14 22 16 23 8 24
REMARK SMILES IDX 12 25 15 26 21 27 22 28 23 29 27 30 24 31 26 32 25 33 32 34
REMARK SMILES IDX 33 35 34 36 35 37 36 39 37 40 38 41 90 42 39 43 89 44 40 45
REMARK SMILES IDX 41 46 42 47 83 48 43 49 88 50 82 51 84 52 44 53 87 54 81 55
REMARK SMILES IDX 80 56 45 58 71 59 54 60 70 61 55 62 58 63 69 64 85 65 56 66
REMARK SMILES IDX 57 67 68 69 86 70 59 71 46 72 47 73 52 74 48 75 49 76 51 77
REMARK SMILES IDX 53 78 50 79 72 80 73 81 78 82 74 83 75 84 77 85 79 86 76 87
REMARK SMILES IDX 60 88 61 89 66 90 62 91 63 92 65 93 67 94 64 95
REMARK H PARENT 30 5 19 10 34 38 84 57 58 68
REMARK Flexibility Score: inf
ROOT
ATOM      1  C   UNL A   1      35.066  22.538  24.961  1.00  0.00     0.117 C 
ENDROOT
BRANCH   1   2
ATOM      2  N   UNL A   1      34.954  22.734  26.392  1.00  0.00    -0.354 N 
ATOM      3  C   UNL A   1      33.817  22.856  27.143  1.00  0.00     0.242 C 
ATOM      4  O   UNL A   1      33.868  22.453  28.310  1.00  0.00    -0.273 OA
ATOM      5  H   UNL A   1      35.804  22.787  26.887  1.00  0.00     0.163 HD
BRANCH   3   6
ATOM      6  C   UNL A   1      32.504  23.409  26.551  1.00  0.00     0.175 C 
BRANCH   6   7
ATOM      7  N   UNL A   1      32.787  24.523  25.637  1.00  0.00    -0.342 N 
ATOM      8  O   UNL A   1      31.322  25.991  26.604  1.00  0.00    -0.273 OA
ATOM      9  C   UNL A   1      32.289  25.783  25.874  1.00  0.00     0.240 C 
ATOM     10  H   UNL A   1      33.343  24.365  24.841  1.00  0.00     0.164 HD
BRANCH   9  11
ATOM     11  C   UNL A   1      32.987  26.929  25.129  1.00  0.00     0.222 C 
BRANCH  11  12
ATOM     12  N   UNL A   1      32.500  28.310  25.428  1.00  0.00    -0.331 N 
ATOM     13  C   UNL A   1      31.470  28.901  24.647  1.00  0.00     0.053 A 
ATOM     14  C   UNL A   1      33.295  29.105  26.310  1.00  0.00     0.053 A 
ATOM     15  C   UNL A   1      30.861  28.293  23.538  1.00  0.00     0.027 A 
ATOM     16  C   UNL A   1      30.993  30.190  24.970  1.00  0.00     0.046 A 
ATOM     17  C   UNL A   1      32.894  30.422  26.621  1.00  0.00     0.046 A 
ATOM     18  C   UNL A   1      34.505  28.680  26.890  1.00  0.00     0.027 A 
ATOM     19  C   UNL A   1      29.778  28.884  22.866  1.00  0.00     0.002 A 
ATOM     20  C   UNL A   1      29.922  30.795  24.293  1.00  0.00     0.014 A 
ATOM     21  C   UNL A   1      31.643  30.950  26.052  1.00  0.00     0.197 A 
ATOM     22  C   UNL A   1      33.656  31.269  27.443  1.00  0.00     0.014 A 
ATOM     23  C   UNL A   1      35.267  29.519  27.719  1.00  0.00     0.002 A 
ATOM     24  C   UNL A   1      29.301  30.130  23.248  1.00  0.00     0.001 A 
ATOM     25  O   UNL A   1      31.155  31.998  26.461  1.00  0.00    -0.288 OA
ATOM     26  C   UNL A   1      34.848  30.814  27.986  1.00  0.00     0.001 A 
ENDBRANCH  11  12
ENDBRANCH   9  11
ENDBRANCH   6   7
BRANCH   6  27
ATOM     27  C   UNL A   1      31.506  22.338  26.059  1.00  0.00     0.070 C 
BRANCH  27  28
ATOM     28  C   UNL A   1      31.879  21.520  24.846  1.00  0.00    -0.045 A 
ATOM     29  C   UNL A   1      31.760  22.060  23.555  1.00  0.00     0.004 A 
ATOM     30  C   UNL A   1      32.304  20.192  24.987  1.00  0.00     0.004 A 
ATOM     31  C   UNL A   1      31.982  21.261  22.430  1.00  0.00     0.000 A 
ATOM     32  C   UNL A   1      32.531  19.398  23.861  1.00  0.00     0.000 A 
ATOM     33  C   UNL A   1      32.351  19.927  22.584  1.00  0.00     0.000 A 
ENDBRANCH  27  28
ENDBRANCH   6  27
ENDBRANCH   3   6
ENDBRANCH   1   2
BRANCH   1  34
ATOM     34  C   UNL A   1      35.899  21.343  24.560  1.00  0.00     0.042 C 
BRANCH  34  35
ATOM     35  C   UNL A   1      37.384  21.662  24.575  1.00  0.00     0.118 C 
BRANCH  35  36
ATOM     36  N   UNL A   1      38.185  20.588  25.171  1.00  0.00    -0.352 N 
ATOM     37  C   UNL A   1      39.296  20.631  25.984  1.00  0.00     0.251 C 
ATOM     38  H   UNL A   1      37.877  19.680  24.952  1.00  0.00     0.163 HD
ATOM     39  O   UNL A   1      39.942  19.609  26.195  1.00  0.00    -0.269 OA
BRANCH  37  40
ATOM     40  C   UNL A   1      39.734  21.916  26.565  1.00  0.00     0.039 A 
ATOM     41  C   UNL A   1      39.064  23.088  26.238  1.00  0.00     0.014 A 
ATOM     42  C   UNL A   1      40.853  21.964  27.401  1.00  0.00     0.014 A 
ATOM     43  C   UNL A   1      39.667  24.307  26.485  1.00  0.00     0.010 A 
ATOM     44  C   UNL A   1      41.371  23.205  27.792  1.00  0.00     0.010 A 
ATOM     45  C   UNL A   1      40.828  24.388  27.270  1.00  0.00    -0.014 A 
BRANCH  45  46
ATOM     46  C   UNL A   1      41.444  25.725  27.490  1.00  0.00     0.031 A 
ATOM     47  C   UNL A   1      40.783  26.747  28.379  1.00  0.00     0.074 A 
ATOM     48  C   UNL A   1      42.665  25.971  26.976  1.00  0.00     0.049 A 
ATOM     49  N   UNL A   1      41.191  27.952  28.691  1.00  0.00    -0.248 NA
ATOM     50  C   UNL A   1      39.496  26.379  28.988  1.00  0.00     0.031 C 
ATOM     51  C   UNL A   1      43.418  25.055  26.115  1.00  0.00     0.029 A 
ATOM     52  N   UNL A   1      43.513  27.034  27.145  1.00  0.00    -0.354 N 
ATOM     53  C   UNL A   1      40.199  28.494  29.500  1.00  0.00     0.074 A 
ATOM     54  C   UNL A   1      39.156  27.498  29.611  1.00  0.00     0.031 C 
ATOM     55  C   UNL A   1      44.649  25.546  25.917  1.00  0.00     0.029 A 
ATOM     56  C   UNL A   1      44.740  26.854  26.554  1.00  0.00     0.049 A 
ATOM     57  H   UNL A   1      43.269  27.847  27.643  1.00  0.00     0.167 HD
ATOM     58  C   UNL A   1      40.168  29.706  30.107  1.00  0.00     0.037 A 
ATOM     59  C   UNL A   1      45.819  27.655  26.513  1.00  0.00     0.037 A 
ATOM     60  C   UNL A   1      41.230  30.676  30.035  1.00  0.00     0.049 A 
ATOM     61  C   UNL A   1      45.755  28.992  27.186  1.00  0.00     0.074 A 
ATOM     62  C   UNL A   1      41.289  31.936  30.603  1.00  0.00     0.029 A 
ATOM     63  N   UNL A   1      42.432  30.479  29.372  1.00  0.00    -0.354 N 
ATOM     64  N   UNL A   1      44.782  29.514  27.891  1.00  0.00    -0.248 NA
ATOM     65  C   UNL A   1      46.929  29.860  27.037  1.00  0.00     0.031 C 
ATOM     66  C   UNL A   1      42.520  32.511  30.266  1.00  0.00     0.029 A 
ATOM     67  C   UNL A   1      43.239  31.596  29.515  1.00  0.00     0.049 A 
ATOM     68  H   UNL A   1      42.676  29.666  28.873  1.00  0.00     0.167 HD
ATOM     69  C   UNL A   1      45.221  30.774  28.267  1.00  0.00     0.074 A 
ATOM     70  C   UNL A   1      46.562  30.924  27.739  1.00  0.00     0.031 C 
ATOM     71  C   UNL A   1      44.567  31.728  28.973  1.00  0.00     0.037 A 
BRANCH  58  72
ATOM     72  C   UNL A   1      38.943  30.049  30.903  1.00  0.00     0.057 A 
ATOM     73  C   UNL A   1      38.817  29.651  32.239  1.00  0.00     0.134 A 
ATOM     74  C   UNL A   1      37.871  30.749  30.335  1.00  0.00     0.134 A 
ATOM     75  F   UNL A   1      39.801  28.966  32.841  1.00  0.00    -0.206 F 
ATOM     76  C   UNL A   1      37.670  29.939  32.982  1.00  0.00     0.040 A 
ATOM     77  C   UNL A   1      36.730  31.066  31.074  1.00  0.00     0.040 A 
ATOM     78  F   UNL A   1      37.932  31.158  29.061  1.00  0.00    -0.206 F 
ATOM     79  C   UNL A   1      36.625  30.656  32.402  1.00  0.00     0.006 A 
ENDBRANCH  58  72
BRANCH  59  80
ATOM     80  C   UNL A   1      47.034  27.215  25.784  1.00  0.00     0.057 A 
ATOM     81  C   UNL A   1      48.050  26.501  26.433  1.00  0.00     0.134 A 
ATOM     82  C   UNL A   1      47.223  27.524  24.433  1.00  0.00     0.134 A 
ATOM     83  F   UNL A   1      47.932  26.182  27.730  1.00  0.00    -0.206 F 
ATOM     84  C   UNL A   1      49.221  26.131  25.771  1.00  0.00     0.040 A 
ATOM     85  C   UNL A   1      48.377  27.135  23.751  1.00  0.00     0.040 A 
ATOM     86  F   UNL A   1      46.277  28.189  23.754  1.00  0.00    -0.206 F 
ATOM     87  C   UNL A   1      49.384  26.444  24.424  1.00  0.00     0.006 A 
ENDBRANCH  59  80
BRANCH  71  88
ATOM     88  C   UNL A   1      45.304  33.010  29.209  1.00  0.00     0.057 A 
ATOM     89  C   UNL A   1      46.128  33.165  30.329  1.00  0.00     0.134 A 
ATOM     90  C   UNL A   1      45.190  34.092  28.328  1.00  0.00     0.134 A 
ATOM     91  F   UNL A   1      46.274  32.165  31.213  1.00  0.00    -0.206 F 
ATOM     92  C   UNL A   1      46.819  34.354  30.564  1.00  0.00     0.040 A 
ATOM     93  C   UNL A   1      45.892  35.279  28.540  1.00  0.00     0.040 A 
ATOM     94  F   UNL A   1      44.426  33.997  27.229  1.00  0.00    -0.206 F 
ATOM     95  C   UNL A   1      46.707  35.413  29.663  1.00  0.00     0.006 A 
ENDBRANCH  71  88
ENDBRANCH  45  46
ENDBRANCH  37  40
ENDBRANCH  35  36
ENDBRANCH  34  35
ENDBRANCH   1  34
TORSDOF 15
ENDMDL
