MODEL 1
REMARK VINA RESULT:     -12.2      0.000      0.000
REMARK SMILES C[NH+]1CCC(NC(=O)N[C@H]2C=C[C@H](C(=O)NCCCNC(=O)c3ccc(-c4c5nc(c(-c6c(F)cccc6F)c6ccc([nH]6)c(-c6c(F)cccc6F)c6nc(c(-c7c(F)cccc7F)c7ccc4[nH]7)C=C6)C=C5)cc3)C2)CC1
REMARK SMILES IDX 18 1 17 2 16 3 14 4 15 5 13 7 10 8 11 9 77 10 12 11 9 12
REMARK SMILES IDX 6 13 7 14 8 16 5 18 1 19 2 20 3 21 79 22 4 24 78 25 19 26
REMARK SMILES IDX 20 27 21 28 22 30 23 31 24 32 76 33 25 34 75 35 26 36 27 37
REMARK SMILES IDX 28 38 69 39 29 40 74 41 68 42 70 43 30 44 73 45 67 46 66 47
REMARK SMILES IDX 31 49 57 50 40 51 56 52 41 53 44 54 55 55 71 56 42 57 43 58
REMARK SMILES IDX 54 60 72 61 45 62 32 63 33 64 38 65 34 66 35 67 37 68 39 69
REMARK SMILES IDX 36 70 58 71 59 72 64 73 60 74 61 75 63 76 65 77 62 78 46 79
REMARK SMILES IDX 47 80 52 81 48 82 49 83 51 84 53 85 50 86
REMARK H PARENT 16 6 6 15 9 17 2 23 20 29 70 48 44 59
REMARK Flexibility Score: inf
ROOT
ATOM      1  C   UNL A   1      31.075  31.846  26.464  1.00  0.00     0.042 C 
ENDROOT
BRANCH   1   2
ATOM      2  C   UNL A   1      31.074  30.802  25.346  1.00  0.00     0.117 C 
BRANCH   2   3
ATOM      3  N   UNL A   1      32.331  30.076  25.241  1.00  0.00    -0.356 N 
ATOM      4  C   UNL A   1      32.557  28.725  25.342  1.00  0.00     0.227 C 
ATOM      5  O   UNL A   1      33.679  28.293  25.087  1.00  0.00    -0.274 OA
ATOM      6  H   UNL A   1      33.128  30.630  25.074  1.00  0.00     0.163 HD
BRANCH   4   7
ATOM      7  C   UNL A   1      31.395  27.825  25.755  1.00  0.00     0.103 C 
ATOM      8  C   UNL A   1      31.247  25.371  25.844  1.00  0.00     0.107 C 
ATOM      9  C   UNL A   1      30.540  25.915  24.654  1.00  0.00    -0.006 C 
ATOM     10  C   UNL A   1      31.808  26.589  26.582  1.00  0.00     0.047 C 
ATOM     11  C   UNL A   1      30.675  27.244  24.567  1.00  0.00    -0.016 C 
BRANCH   8  12
ATOM     12  N   UNL A   1      30.451  24.419  26.605  1.00  0.00    -0.332 N 
ATOM     13  N   UNL A   1      31.406  22.255  26.888  1.00  0.00    -0.335 N 
ATOM     14  C   UNL A   1      30.437  23.159  27.033  1.00  0.00     0.315 C 
ATOM     15  H   UNL A   1      31.146  21.361  27.208  1.00  0.00     0.165 HD
ATOM     16  O   UNL A   1      29.416  22.788  27.623  1.00  0.00    -0.249 OA
ATOM     17  H   UNL A   1      29.630  24.868  26.912  1.00  0.00     0.165 HD
BRANCH  13  18
ATOM     18  C   UNL A   1      32.751  22.298  26.365  1.00  0.00     0.095 C 
ATOM     19  C   UNL A   1      36.895  21.913  25.538  1.00  0.00     0.332 C 
ATOM     20  N   UNL A   1      35.607  21.750  26.221  1.00  0.00    -0.337 N 
ATOM     21  C   UNL A   1      34.656  21.023  25.373  1.00  0.00     0.264 C 
ATOM     22  C   UNL A   1      35.105  23.060  26.663  1.00  0.00     0.264 C 
ATOM     23  H   UNL A   1      35.733  21.181  27.058  1.00  0.00     0.347 HD
ATOM     24  C   UNL A   1      33.265  20.910  25.998  1.00  0.00     0.086 C 
ATOM     25  C   UNL A   1      33.731  22.962  27.326  1.00  0.00     0.086 C 
ENDBRANCH  13  18
ENDBRANCH   8  12
ENDBRANCH   4   7
ENDBRANCH   2   3
ENDBRANCH   1   2
BRANCH   1  26
ATOM     26  C   UNL A   1      32.421  32.536  26.662  1.00  0.00     0.118 C 
BRANCH  26  27
ATOM     27  N   UNL A   1      32.299  33.820  27.343  1.00  0.00    -0.352 N 
ATOM     28  C   UNL A   1      33.052  34.379  28.347  1.00  0.00     0.251 C 
ATOM     29  H   UNL A   1      31.553  34.381  27.029  1.00  0.00     0.163 HD
ATOM     30  O   UNL A   1      32.691  35.452  28.827  1.00  0.00    -0.269 OA
BRANCH  28  31
ATOM     31  C   UNL A   1      34.252  33.700  28.890  1.00  0.00     0.039 A 
ATOM     32  C   UNL A   1      35.507  34.273  28.650  1.00  0.00     0.014 A 
ATOM     33  C   UNL A   1      34.169  32.505  29.606  1.00  0.00     0.014 A 
ATOM     34  C   UNL A   1      36.661  33.690  29.185  1.00  0.00     0.010 A 
ATOM     35  C   UNL A   1      35.306  31.971  30.208  1.00  0.00     0.010 A 
ATOM     36  C   UNL A   1      36.563  32.557  30.004  1.00  0.00    -0.014 A 
BRANCH  36  37
ATOM     37  C   UNL A   1      37.757  31.962  30.659  1.00  0.00     0.031 A 
ATOM     38  C   UNL A   1      38.537  30.877  29.969  1.00  0.00     0.074 A 
ATOM     39  C   UNL A   1      38.084  32.333  31.912  1.00  0.00     0.049 A 
ATOM     40  N   UNL A   1      39.531  30.155  30.420  1.00  0.00    -0.248 NA
ATOM     41  C   UNL A   1      38.121  30.536  28.600  1.00  0.00     0.031 C 
ATOM     42  C   UNL A   1      37.381  33.339  32.709  1.00  0.00     0.029 A 
ATOM     43  N   UNL A   1      39.088  31.897  32.740  1.00  0.00    -0.354 N 
ATOM     44  C   UNL A   1      39.838  29.258  29.405  1.00  0.00     0.074 A 
ATOM     45  C   UNL A   1      38.893  29.493  28.335  1.00  0.00     0.031 C 
ATOM     46  C   UNL A   1      37.990  33.460  33.899  1.00  0.00     0.029 A 
ATOM     47  C   UNL A   1      39.099  32.516  33.965  1.00  0.00     0.049 A 
ATOM     48  H   UNL A   1      39.738  31.204  32.480  1.00  0.00     0.167 HD
ATOM     49  C   UNL A   1      40.831  28.338  29.357  1.00  0.00     0.037 A 
ATOM     50  C   UNL A   1      39.910  32.339  35.025  1.00  0.00     0.037 A 
ATOM     51  C   UNL A   1      41.792  28.130  30.409  1.00  0.00     0.049 A 
ATOM     52  C   UNL A   1      41.012  31.320  34.947  1.00  0.00     0.074 A 
ATOM     53  C   UNL A   1      42.876  27.270  30.432  1.00  0.00     0.029 A 
ATOM     54  N   UNL A   1      41.786  28.798  31.625  1.00  0.00    -0.354 N 
ATOM     55  N   UNL A   1      41.326  30.517  33.959  1.00  0.00    -0.248 NA
ATOM     56  C   UNL A   1      41.873  31.184  36.129  1.00  0.00     0.031 C 
ATOM     57  C   UNL A   1      43.504  27.392  31.676  1.00  0.00     0.029 A 
ATOM     58  C   UNL A   1      42.836  28.357  32.412  1.00  0.00     0.049 A 
ATOM     59  H   UNL A   1      41.130  29.483  31.890  1.00  0.00     0.167 HD
ATOM     60  C   UNL A   1      42.434  29.802  34.389  1.00  0.00     0.074 A 
ATOM     61  C   UNL A   1      42.745  30.272  35.724  1.00  0.00     0.031 C 
ATOM     62  C   UNL A   1      43.134  28.841  33.736  1.00  0.00     0.037 A 
BRANCH  49  63
ATOM     63  C   UNL A   1      40.922  27.489  28.122  1.00  0.00     0.057 A 
ATOM     64  C   UNL A   1      41.667  27.888  27.004  1.00  0.00     0.134 A 
ATOM     65  C   UNL A   1      40.260  26.256  28.049  1.00  0.00     0.134 A 
ATOM     66  F   UNL A   1      42.314  29.063  27.003  1.00  0.00    -0.206 F 
ATOM     67  C   UNL A   1      41.721  27.111  25.846  1.00  0.00     0.040 A 
ATOM     68  C   UNL A   1      40.330  25.457  26.906  1.00  0.00     0.040 A 
ATOM     69  F   UNL A   1      39.534  25.810  29.084  1.00  0.00    -0.206 F 
ATOM     70  C   UNL A   1      41.053  25.889  25.797  1.00  0.00     0.006 A 
ENDBRANCH  49  63
BRANCH  50  71
ATOM     71  C   UNL A   1      39.734  33.177  36.237  1.00  0.00     0.057 A 
ATOM     72  C   UNL A   1      40.426  34.386  36.376  1.00  0.00     0.134 A 
ATOM     73  C   UNL A   1      38.869  32.803  37.271  1.00  0.00     0.134 A 
ATOM     74  F   UNL A   1      41.282  34.787  35.425  1.00  0.00    -0.206 F 
ATOM     75  C   UNL A   1      40.272  35.189  37.507  1.00  0.00     0.040 A 
ATOM     76  C   UNL A   1      38.690  33.608  38.398  1.00  0.00     0.040 A 
ATOM     77  F   UNL A   1      38.172  31.660  37.192  1.00  0.00    -0.206 F 
ATOM     78  C   UNL A   1      39.397  34.803  38.520  1.00  0.00     0.006 A 
ENDBRANCH  50  71
BRANCH  62  79
ATOM     79  C   UNL A   1      44.323  28.262  34.443  1.00  0.00     0.057 A 
ATOM     80  C   UNL A   1      45.593  28.847  34.352  1.00  0.00     0.134 A 
ATOM     81  C   UNL A   1      44.188  27.129  35.255  1.00  0.00     0.134 A 
ATOM     82  F   UNL A   1      45.791  29.926  33.580  1.00  0.00    -0.206 F 
ATOM     83  C   UNL A   1      46.690  28.312  35.029  1.00  0.00     0.040 A 
ATOM     84  C   UNL A   1      45.272  26.600  35.955  1.00  0.00     0.040 A 
ATOM     85  F   UNL A   1      42.996  26.526  35.389  1.00  0.00    -0.206 F 
ATOM     86  C   UNL A   1      46.529  27.189  35.840  1.00  0.00     0.006 A 
ENDBRANCH  62  79
ENDBRANCH  36  37
ENDBRANCH  28  31
ENDBRANCH  26  27
ENDBRANCH   1  26
TORSDOF 12
ENDMDL
MODEL 2
REMARK VINA RESULT:     -12.2      4.809     10.060
REMARK SMILES C[NH+]1CCC(NC(=O)N[C@H]2C=C[C@H](C(=O)NCCCNC(=O)c3ccc(-c4c5nc(c(-c6c(F)cccc6F)c6ccc([nH]6)c(-c6c(F)cccc6F)c6nc(c(-c7c(F)cccc7F)c7ccc4[nH]7)C=C6)C=C5)cc3)C2)CC1
REMARK SMILES IDX 18 1 17 2 16 3 14 4 15 5 13 7 10 8 11 9 77 10 12 11 9 12
REMARK SMILES IDX 6 13 7 14 8 16 5 18 1 19 2 20 3 21 79 22 4 24 78 25 19 26
REMARK SMILES IDX 20 27 21 28 22 30 23 31 24 32 76 33 25 34 75 35 26 36 27 37
REMARK SMILES IDX 28 38 69 39 29 40 74 41 68 42 70 43 30 44 73 45 67 46 66 47
REMARK SMILES IDX 31 49 57 50 40 51 56 52 41 53 44 54 55 55 71 56 42 57 43 58
REMARK SMILES IDX 54 60 72 61 45 62 32 63 33 64 38 65 34 66 35 67 37 68 39 69
REMARK SMILES IDX 36 70 58 71 59 72 64 73 60 74 61 75 63 76 65 77 62 78 46 79
REMARK SMILES IDX 47 80 52 81 48 82 49 83 51 84 53 85 50 86
REMARK H PARENT 16 6 6 15 9 17 2 23 20 29 70 48 44 59
REMARK Flexibility Score: inf
ROOT
ATOM      1  C   UNL A   1      37.789  19.986  24.611  1.00  0.00     0.042 C 
ENDROOT
BRANCH   1   2
ATOM      2  C   UNL A   1      36.319  20.005  25.032  1.00  0.00     0.117 C 
BRANCH   2   3
ATOM      3  N   UNL A   1      35.969  21.170  25.832  1.00  0.00    -0.356 N 
ATOM      4  C   UNL A   1      35.169  22.235  25.498  1.00  0.00     0.227 C 
ATOM      5  O   UNL A   1      34.885  23.057  26.367  1.00  0.00    -0.274 OA
ATOM      6  H   UNL A   1      36.358  21.197  26.735  1.00  0.00     0.163 HD
BRANCH   4   7
ATOM      7  C   UNL A   1      34.659  22.337  24.061  1.00  0.00     0.103 C 
ATOM      8  C   UNL A   1      33.366  24.117  22.962  1.00  0.00     0.107 C 
ATOM      9  C   UNL A   1      32.508  22.950  23.295  1.00  0.00    -0.006 C 
ATOM     10  C   UNL A   1      34.772  23.747  23.444  1.00  0.00     0.047 C 
ATOM     11  C   UNL A   1      33.194  22.006  23.952  1.00  0.00    -0.016 C 
BRANCH   8  12
ATOM     12  N   UNL A   1      33.214  24.575  21.589  1.00  0.00    -0.332 N 
ATOM     13  N   UNL A   1      32.396  26.796  21.316  1.00  0.00    -0.335 N 
ATOM     14  C   UNL A   1      32.808  25.613  20.861  1.00  0.00     0.315 C 
ATOM     15  H   UNL A   1      32.061  27.385  20.603  1.00  0.00     0.165 HD
ATOM     16  O   UNL A   1      32.809  25.460  19.635  1.00  0.00    -0.249 OA
ATOM     17  H   UNL A   1      33.521  23.863  20.983  1.00  0.00     0.165 HD
BRANCH  13  18
ATOM     18  C   UNL A   1      32.331  27.403  22.625  1.00  0.00     0.095 C 
ATOM     19  C   UNL A   1      32.294  29.946  26.021  1.00  0.00     0.332 C 
ATOM     20  N   UNL A   1      32.391  29.522  24.620  1.00  0.00    -0.337 N 
ATOM     21  C   UNL A   1      31.119  28.959  24.156  1.00  0.00     0.264 C 
ATOM     22  C   UNL A   1      33.527  28.602  24.453  1.00  0.00     0.264 C 
ATOM     23  H   UNL A   1      32.575  30.334  24.029  1.00  0.00     0.347 HD
ATOM     24  C   UNL A   1      31.193  28.412  22.731  1.00  0.00     0.086 C 
ATOM     25  C   UNL A   1      33.641  28.075  23.022  1.00  0.00     0.086 C 
ENDBRANCH  13  18
ENDBRANCH   8  12
ENDBRANCH   4   7
ENDBRANCH   2   3
ENDBRANCH   1   2
BRANCH   1  26
ATOM     26  C   UNL A   1      38.765  20.180  25.768  1.00  0.00     0.118 C 
BRANCH  26  27
ATOM     27  N   UNL A   1      39.823  19.176  25.784  1.00  0.00    -0.352 N 
ATOM     28  C   UNL A   1      41.166  19.291  26.054  1.00  0.00     0.251 C 
ATOM     29  H   UNL A   1      39.526  18.263  25.566  1.00  0.00     0.163 HD
ATOM     30  O   UNL A   1      41.882  18.302  25.912  1.00  0.00    -0.269 OA
BRANCH  28  31
ATOM     31  C   UNL A   1      41.768  20.581  26.467  1.00  0.00     0.039 A 
ATOM     32  C   UNL A   1      42.124  21.499  25.471  1.00  0.00     0.014 A 
ATOM     33  C   UNL A   1      42.010  20.892  27.805  1.00  0.00     0.014 A 
ATOM     34  C   UNL A   1      42.652  22.746  25.820  1.00  0.00     0.010 A 
ATOM     35  C   UNL A   1      42.456  22.165  28.156  1.00  0.00     0.010 A 
ATOM     36  C   UNL A   1      42.782  23.105  27.169  1.00  0.00    -0.014 A 
BRANCH  36  37
ATOM     37  C   UNL A   1      43.257  24.452  27.576  1.00  0.00     0.031 A 
ATOM     38  C   UNL A   1      42.274  25.502  28.011  1.00  0.00     0.074 A 
ATOM     39  C   UNL A   1      44.565  24.758  27.467  1.00  0.00     0.049 A 
ATOM     40  N   UNL A   1      42.478  26.764  28.291  1.00  0.00    -0.248 NA
ATOM     41  C   UNL A   1      40.866  25.085  28.113  1.00  0.00     0.031 C 
ATOM     42  C   UNL A   1      45.615  23.845  27.012  1.00  0.00     0.029 A 
ATOM     43  N   UNL A   1      45.232  25.931  27.720  1.00  0.00    -0.354 N 
ATOM     44  C   UNL A   1      41.226  27.297  28.572  1.00  0.00     0.074 A 
ATOM     45  C   UNL A   1      40.263  26.234  28.379  1.00  0.00     0.031 C 
ATOM     46  C   UNL A   1      46.795  24.482  27.044  1.00  0.00     0.029 A 
ATOM     47  C   UNL A   1      46.582  25.857  27.481  1.00  0.00     0.049 A 
ATOM     48  H   UNL A   1      44.785  26.747  28.042  1.00  0.00     0.167 HD
ATOM     49  C   UNL A   1      40.908  28.550  28.975  1.00  0.00     0.037 A 
ATOM     50  C   UNL A   1      47.541  26.795  27.596  1.00  0.00     0.037 A 
ATOM     51  C   UNL A   1      41.871  29.596  29.199  1.00  0.00     0.049 A 
ATOM     52  C   UNL A   1      47.167  28.177  28.055  1.00  0.00     0.074 A 
ATOM     53  C   UNL A   1      41.659  30.880  29.671  1.00  0.00     0.029 A 
ATOM     54  N   UNL A   1      43.233  29.474  28.971  1.00  0.00    -0.354 N 
ATOM     55  N   UNL A   1      45.986  28.651  28.371  1.00  0.00    -0.248 NA
ATOM     56  C   UNL A   1      48.259  29.152  28.177  1.00  0.00     0.031 C 
ATOM     57  C   UNL A   1      42.889  31.546  29.694  1.00  0.00     0.029 A 
ATOM     58  C   UNL A   1      43.873  30.664  29.276  1.00  0.00     0.049 A 
ATOM     59  H   UNL A   1      43.681  28.662  28.640  1.00  0.00     0.167 HD
ATOM     60  C   UNL A   1      46.196  29.969  28.753  1.00  0.00     0.074 A 
ATOM     61  C   UNL A   1      47.619  30.216  28.639  1.00  0.00     0.031 C 
ATOM     62  C   UNL A   1      45.291  30.891  29.163  1.00  0.00     0.037 A 
BRANCH  49  63
ATOM     63  C   UNL A   1      39.453  28.852  29.198  1.00  0.00     0.057 A 
ATOM     64  C   UNL A   1      38.634  29.342  28.172  1.00  0.00     0.134 A 
ATOM     65  C   UNL A   1      38.863  28.647  30.452  1.00  0.00     0.134 A 
ATOM     66  F   UNL A   1      39.139  29.574  26.951  1.00  0.00    -0.206 F 
ATOM     67  C   UNL A   1      37.292  29.654  28.394  1.00  0.00     0.040 A 
ATOM     68  C   UNL A   1      37.514  28.927  30.678  1.00  0.00     0.040 A 
ATOM     69  F   UNL A   1      39.587  28.173  31.477  1.00  0.00    -0.206 F 
ATOM     70  C   UNL A   1      36.727  29.442  29.650  1.00  0.00     0.006 A 
ENDBRANCH  49  63
BRANCH  50  71
ATOM     71  C   UNL A   1      48.954  26.447  27.310  1.00  0.00     0.057 A 
ATOM     72  C   UNL A   1      49.783  25.940  28.318  1.00  0.00     0.134 A 
ATOM     73  C   UNL A   1      49.505  26.593  26.032  1.00  0.00     0.134 A 
ATOM     74  F   UNL A   1      49.315  25.793  29.566  1.00  0.00    -0.206 F 
ATOM     75  C   UNL A   1      51.114  25.603  28.069  1.00  0.00     0.040 A 
ATOM     76  C   UNL A   1      50.829  26.240  25.764  1.00  0.00     0.040 A 
ATOM     77  F   UNL A   1      48.759  27.066  25.023  1.00  0.00    -0.206 F 
ATOM     78  C   UNL A   1      51.639  25.748  26.786  1.00  0.00     0.006 A 
ENDBRANCH  50  71
BRANCH  62  79
ATOM     79  C   UNL A   1      45.818  32.241  29.552  1.00  0.00     0.057 A 
ATOM     80  C   UNL A   1      45.885  33.299  28.637  1.00  0.00     0.134 A 
ATOM     81  C   UNL A   1      46.227  32.494  30.867  1.00  0.00     0.134 A 
ATOM     82  F   UNL A   1      45.521  33.117  27.358  1.00  0.00    -0.206 F 
ATOM     83  C   UNL A   1      46.359  34.557  29.013  1.00  0.00     0.040 A 
ATOM     84  C   UNL A   1      46.680  33.753  31.260  1.00  0.00     0.040 A 
ATOM     85  F   UNL A   1      46.181  31.524  31.793  1.00  0.00    -0.206 F 
ATOM     86  C   UNL A   1      46.751  34.788  30.330  1.00  0.00     0.006 A 
ENDBRANCH  62  79
ENDBRANCH  36  37
ENDBRANCH  28  31
ENDBRANCH  26  27
ENDBRANCH   1  26
TORSDOF 12
ENDMDL
MODEL 3
REMARK VINA RESULT:     -12.1      4.174      8.966
REMARK SMILES C[NH+]1CCC(NC(=O)N[C@H]2C=C[C@H](C(=O)NCCCNC(=O)c3ccc(-c4c5nc(c(-c6c(F)cccc6F)c6ccc([nH]6)c(-c6c(F)cccc6F)c6nc(c(-c7c(F)cccc7F)c7ccc4[nH]7)C=C6)C=C5)cc3)C2)CC1
REMARK SMILES IDX 18 1 17 2 16 3 14 4 15 5 13 7 10 8 11 9 77 10 12 11 9 12
REMARK SMILES IDX 6 13 7 14 8 16 5 18 1 19 2 20 3 21 79 22 4 24 78 25 19 26
REMARK SMILES IDX 20 27 21 28 22 30 23 31 24 32 76 33 25 34 75 35 26 36 27 37
REMARK SMILES IDX 28 38 69 39 29 40 74 41 68 42 70 43 30 44 73 45 67 46 66 47
REMARK SMILES IDX 31 49 57 50 40 51 56 52 41 53 44 54 55 55 71 56 42 57 43 58
REMARK SMILES IDX 54 60 72 61 45 62 32 63 33 64 38 65 34 66 35 67 37 68 39 69
REMARK SMILES IDX 36 70 58 71 59 72 64 73 60 74 61 75 63 76 65 77 62 78 46 79
REMARK SMILES IDX 47 80 52 81 48 82 49 83 51 84 53 85 50 86
REMARK H PARENT 16 6 6 15 9 17 2 23 20 29 70 48 44 59
REMARK Flexibility Score: inf
ROOT
ATOM      1  C   UNL A   1      37.738  19.876  24.639  1.00  0.00     0.042 C 
ENDROOT
BRANCH   1   2
ATOM      2  C   UNL A   1      36.264  19.965  25.035  1.00  0.00     0.117 C 
BRANCH   2   3
ATOM      3  N   UNL A   1      35.960  21.134  25.847  1.00  0.00    -0.356 N 
ATOM      4  C   UNL A   1      35.160  22.209  25.545  1.00  0.00     0.227 C 
ATOM      5  O   UNL A   1      34.921  23.035  26.425  1.00  0.00    -0.274 OA
ATOM      6  H   UNL A   1      36.386  21.157  26.734  1.00  0.00     0.163 HD
BRANCH   4   7
ATOM      7  C   UNL A   1      34.593  22.316  24.131  1.00  0.00     0.103 C 
ATOM      8  C   UNL A   1      33.427  24.181  23.029  1.00  0.00     0.107 C 
ATOM      9  C   UNL A   1      32.477  23.115  23.441  1.00  0.00    -0.006 C 
ATOM     10  C   UNL A   1      34.812  23.688  23.459  1.00  0.00     0.047 C 
ATOM     11  C   UNL A   1      33.099  22.129  24.100  1.00  0.00    -0.016 C 
BRANCH   8  12
ATOM     12  N   UNL A   1      33.253  24.608  21.648  1.00  0.00    -0.332 N 
ATOM     13  N   UNL A   1      32.384  26.805  21.340  1.00  0.00    -0.335 N 
ATOM     14  C   UNL A   1      32.818  25.622  20.904  1.00  0.00     0.315 C 
ATOM     15  H   UNL A   1      32.030  27.373  20.619  1.00  0.00     0.165 HD
ATOM     16  O   UNL A   1      32.813  25.446  19.681  1.00  0.00    -0.249 OA
ATOM     17  H   UNL A   1      33.571  23.892  21.053  1.00  0.00     0.165 HD
BRANCH  13  18
ATOM     18  C   UNL A   1      32.317  27.435  22.637  1.00  0.00     0.095 C 
ATOM     19  C   UNL A   1      32.320  30.032  25.992  1.00  0.00     0.332 C 
ATOM     20  N   UNL A   1      32.431  29.582  24.601  1.00  0.00    -0.337 N 
ATOM     21  C   UNL A   1      31.144  29.073  24.114  1.00  0.00     0.264 C 
ATOM     22  C   UNL A   1      33.524  28.606  24.477  1.00  0.00     0.264 C 
ATOM     23  H   UNL A   1      32.667  30.374  24.003  1.00  0.00     0.347 HD
ATOM     24  C   UNL A   1      31.226  28.499  22.700  1.00  0.00     0.086 C 
ATOM     25  C   UNL A   1      33.647  28.050  23.058  1.00  0.00     0.086 C 
ENDBRANCH  13  18
ENDBRANCH   8  12
ENDBRANCH   4   7
ENDBRANCH   2   3
ENDBRANCH   1   2
BRANCH   1  26
ATOM     26  C   UNL A   1      38.703  20.153  25.788  1.00  0.00     0.118 C 
BRANCH  26  27
ATOM     27  N   UNL A   1      39.877  19.288  25.756  1.00  0.00    -0.352 N 
ATOM     28  C   UNL A   1      41.189  19.543  26.078  1.00  0.00     0.251 C 
ATOM     29  H   UNL A   1      39.700  18.367  25.456  1.00  0.00     0.163 HD
ATOM     30  O   UNL A   1      42.026  18.664  25.879  1.00  0.00    -0.269 OA
BRANCH  28  31
ATOM     31  C   UNL A   1      41.618  20.856  26.613  1.00  0.00     0.039 A 
ATOM     32  C   UNL A   1      42.128  21.806  25.718  1.00  0.00     0.014 A 
ATOM     33  C   UNL A   1      41.550  21.162  27.973  1.00  0.00     0.014 A 
ATOM     34  C   UNL A   1      42.500  23.075  26.175  1.00  0.00     0.010 A 
ATOM     35  C   UNL A   1      41.839  22.451  28.414  1.00  0.00     0.010 A 
ATOM     36  C   UNL A   1      42.318  23.421  27.521  1.00  0.00    -0.014 A 
BRANCH  36  37
ATOM     37  C   UNL A   1      42.620  24.786  28.024  1.00  0.00     0.031 A 
ATOM     38  C   UNL A   1      44.020  25.147  28.437  1.00  0.00     0.074 A 
ATOM     39  C   UNL A   1      41.618  25.670  28.194  1.00  0.00     0.049 A 
ATOM     40  N   UNL A   1      44.460  26.241  29.006  1.00  0.00    -0.248 NA
ATOM     41  C   UNL A   1      45.058  24.129  28.210  1.00  0.00     0.031 C 
ATOM     42  C   UNL A   1      40.210  25.428  27.879  1.00  0.00     0.029 A 
ATOM     43  N   UNL A   1      41.631  26.950  28.689  1.00  0.00    -0.354 N 
ATOM     44  C   UNL A   1      45.815  26.031  29.230  1.00  0.00     0.074 A 
ATOM     45  C   UNL A   1      46.114  24.687  28.783  1.00  0.00     0.031 C 
ATOM     46  C   UNL A   1      39.500  26.530  28.162  1.00  0.00     0.029 A 
ATOM     47  C   UNL A   1      40.392  27.542  28.716  1.00  0.00     0.049 A 
ATOM     48  H   UNL A   1      42.451  27.401  28.997  1.00  0.00     0.167 HD
ATOM     49  C   UNL A   1      46.733  26.885  29.742  1.00  0.00     0.037 A 
ATOM     50  C   UNL A   1      40.017  28.762  29.144  1.00  0.00     0.037 A 
ATOM     51  C   UNL A   1      46.441  28.233  30.154  1.00  0.00     0.049 A 
ATOM     52  C   UNL A   1      41.054  29.698  29.698  1.00  0.00     0.074 A 
ATOM     53  C   UNL A   1      47.312  29.202  30.623  1.00  0.00     0.029 A 
ATOM     54  N   UNL A   1      45.178  28.805  30.140  1.00  0.00    -0.354 N 
ATOM     55  N   UNL A   1      42.342  29.507  29.853  1.00  0.00    -0.248 NA
ATOM     56  C   UNL A   1      40.586  31.021  30.134  1.00  0.00     0.031 C 
ATOM     57  C   UNL A   1      46.568  30.348  30.927  1.00  0.00     0.029 A 
ATOM     58  C   UNL A   1      45.242  30.107  30.608  1.00  0.00     0.049 A 
ATOM     59  H   UNL A   1      44.356  28.352  29.842  1.00  0.00     0.167 HD
ATOM     60  C   UNL A   1      42.841  30.691  30.378  1.00  0.00     0.074 A 
ATOM     61  C   UNL A   1      41.719  31.598  30.506  1.00  0.00     0.031 C 
ATOM     62  C   UNL A   1      44.116  30.998  30.723  1.00  0.00     0.037 A 
BRANCH  49  63
ATOM     63  C   UNL A   1      48.140  26.380  29.880  1.00  0.00     0.057 A 
ATOM     64  C   UNL A   1      49.073  26.495  28.840  1.00  0.00     0.134 A 
ATOM     65  C   UNL A   1      48.570  25.773  31.067  1.00  0.00     0.134 A 
ATOM     66  F   UNL A   1      48.723  27.054  27.672  1.00  0.00    -0.206 F 
ATOM     67  C   UNL A   1      50.370  25.993  28.962  1.00  0.00     0.040 A 
ATOM     68  C   UNL A   1      49.874  25.292  31.211  1.00  0.00     0.040 A 
ATOM     69  F   UNL A   1      47.732  25.635  32.105  1.00  0.00    -0.206 F 
ATOM     70  C   UNL A   1      50.774  25.393  30.153  1.00  0.00     0.006 A 
ENDBRANCH  49  63
BRANCH  50  71
ATOM     71  C   UNL A   1      38.599  29.182  29.026  1.00  0.00     0.057 A 
ATOM     72  C   UNL A   1      37.744  29.128  30.132  1.00  0.00     0.134 A 
ATOM     73  C   UNL A   1      38.070  29.659  27.822  1.00  0.00     0.134 A 
ATOM     74  F   UNL A   1      38.191  28.664  31.309  1.00  0.00    -0.206 F 
ATOM     75  C   UNL A   1      36.408  29.522  30.043  1.00  0.00     0.040 A 
ATOM     76  C   UNL A   1      36.741  30.076  27.724  1.00  0.00     0.040 A 
ATOM     77  F   UNL A   1      38.842  29.742  26.728  1.00  0.00    -0.206 F 
ATOM     78  C   UNL A   1      35.905  30.003  28.836  1.00  0.00     0.006 A 
ENDBRANCH  50  71
BRANCH  62  79
ATOM     79  C   UNL A   1      44.369  32.385  31.237  1.00  0.00     0.057 A 
ATOM     80  C   UNL A   1      44.338  32.682  32.605  1.00  0.00     0.134 A 
ATOM     81  C   UNL A   1      44.687  33.425  30.354  1.00  0.00     0.134 A 
ATOM     82  F   UNL A   1      44.027  31.732  33.500  1.00  0.00    -0.206 F 
ATOM     83  C   UNL A   1      44.594  33.971  33.075  1.00  0.00     0.040 A 
ATOM     84  C   UNL A   1      44.967  34.711  30.814  1.00  0.00     0.040 A 
ATOM     85  F   UNL A   1      44.739  33.204  29.031  1.00  0.00    -0.206 F 
ATOM     86  C   UNL A   1      44.917  34.988  32.179  1.00  0.00     0.006 A 
ENDBRANCH  62  79
ENDBRANCH  36  37
ENDBRANCH  28  31
ENDBRANCH  26  27
ENDBRANCH   1  26
TORSDOF 12
ENDMDL
