MODEL 1
REMARK VINA RESULT:      -9.6      0.000      0.000
REMARK SMILES CC(C)COc1cccc(N2C[C@@H](C(=O)NCCCNC(=O)c3ccc(-c4c5nc(c(-c6c(F)cccc6F)c6ccc([nH]6)c(-c6c(F)cccc6F)c6nc(c(-c7c(F)cccc7F)c7ccc4[nH]7)C=C6)C=C5)cc3)CC2=O)c1
REMARK SMILES IDX 17 1 16 2 14 3 15 4 13 6 11 7 12 8 78 9 77 10 79 11 10 12
REMARK SMILES IDX 6 13 7 14 80 15 8 16 9 17 5 18 4 19 2 20 1 21 3 22 18 23
REMARK SMILES IDX 19 24 20 25 21 26 22 28 23 29 24 30 76 31 25 32 75 33 26 34
REMARK SMILES IDX 27 35 28 36 69 37 29 38 74 39 68 40 70 41 30 42 73 43 67 44
REMARK SMILES IDX 66 45 31 47 57 48 40 49 56 50 41 51 44 52 55 53 71 54 42 55
REMARK SMILES IDX 43 56 54 58 72 59 45 60 32 61 33 62 38 63 34 64 35 65 37 66
REMARK SMILES IDX 39 67 36 68 58 69 59 70 64 71 60 72 61 73 63 74 65 75 62 76
REMARK SMILES IDX 46 77 47 78 52 79 48 80 49 81 51 82 53 83 50 84
REMARK H PARENT 16 5 20 27 70 46 44 57
REMARK Flexibility Score: inf
ROOT
ATOM      1  C   UNL A   1      45.626  21.280  25.222  1.00  0.00     0.117 C 
ENDROOT
BRANCH   1   2
ATOM      2  N   UNL A   1      46.283  22.108  24.224  1.00  0.00    -0.356 N 
ATOM      3  C   UNL A   1      46.683  23.405  24.226  1.00  0.00     0.225 C 
ATOM      4  O   UNL A   1      47.266  23.806  23.214  1.00  0.00    -0.275 OA
ATOM      5  H   UNL A   1      46.473  21.636  23.381  1.00  0.00     0.163 HD
BRANCH   3   6
ATOM      6  C   UNL A   1      46.467  24.355  25.385  1.00  0.00     0.107 C 
ATOM      7  N   UNL A   1      45.223  26.293  25.883  1.00  0.00    -0.311 N 
ATOM      8  C   UNL A   1      45.062  24.922  25.456  1.00  0.00     0.139 C 
ATOM      9  C   UNL A   1      46.556  26.702  25.844  1.00  0.00     0.227 C 
ATOM     10  C   UNL A   1      47.411  25.541  25.421  1.00  0.00     0.116 C 
ATOM     11  O   UNL A   1      47.027  27.806  26.088  1.00  0.00    -0.274 OA
BRANCH   7  12
ATOM     12  C   UNL A   1      44.104  27.152  26.043  1.00  0.00     0.047 A 
ATOM     13  C   UNL A   1      43.262  29.296  26.775  1.00  0.00     0.121 A 
ATOM     14  C   UNL A   1      42.087  29.120  26.056  1.00  0.00     0.046 A 
ATOM     15  C   UNL A   1      44.199  28.271  26.870  1.00  0.00     0.072 A 
ATOM     16  C   UNL A   1      41.913  27.945  25.329  1.00  0.00     0.006 A 
ATOM     17  C   UNL A   1      42.938  26.989  25.282  1.00  0.00     0.026 A 
BRANCH  13  18
ATOM     18  O   UNL A   1      43.536  30.494  27.377  1.00  0.00    -0.493 OA
BRANCH  18  19
ATOM     19  C   UNL A   1      44.961  30.735  27.461  1.00  0.00     0.232 C 
BRANCH  19  20
ATOM     20  C   UNL A   1      45.458  31.792  26.445  1.00  0.00     0.020 C 
ATOM     21  C   UNL A   1      44.392  32.855  26.140  1.00  0.00     0.011 C 
ATOM     22  C   UNL A   1      46.701  32.522  26.957  1.00  0.00     0.011 C 
ENDBRANCH  19  20
ENDBRANCH  18  19
ENDBRANCH  13  18
ENDBRANCH   7  12
ENDBRANCH   3   6
ENDBRANCH   1   2
BRANCH   1  23
ATOM     23  C   UNL A   1      44.674  20.256  24.607  1.00  0.00     0.042 C 
BRANCH  23  24
ATOM     24  C   UNL A   1      44.135  19.210  25.579  1.00  0.00     0.118 C 
BRANCH  24  25
ATOM     25  N   UNL A   1      42.706  18.970  25.428  1.00  0.00    -0.352 N 
ATOM     26  C   UNL A   1      41.627  19.684  25.891  1.00  0.00     0.251 C 
ATOM     27  H   UNL A   1      42.477  18.166  24.907  1.00  0.00     0.163 HD
ATOM     28  O   UNL A   1      40.500  19.207  25.787  1.00  0.00    -0.269 OA
BRANCH  26  29
ATOM     29  C   UNL A   1      41.806  21.006  26.533  1.00  0.00     0.039 A 
ATOM     30  C   UNL A   1      41.826  21.079  27.930  1.00  0.00     0.014 A 
ATOM     31  C   UNL A   1      41.927  22.173  25.777  1.00  0.00     0.014 A 
ATOM     32  C   UNL A   1      42.044  22.306  28.561  1.00  0.00     0.010 A 
ATOM     33  C   UNL A   1      42.230  23.380  26.403  1.00  0.00     0.010 A 
ATOM     34  C   UNL A   1      42.292  23.461  27.802  1.00  0.00    -0.014 A 
BRANCH  34  35
ATOM     35  C   UNL A   1      42.623  24.758  28.450  1.00  0.00     0.031 A 
ATOM     36  C   UNL A   1      41.577  25.831  28.583  1.00  0.00     0.074 A 
ATOM     37  C   UNL A   1      43.885  24.998  28.859  1.00  0.00     0.049 A 
ATOM     38  N   UNL A   1      41.694  27.049  29.050  1.00  0.00    -0.248 NA
ATOM     39  C   UNL A   1      40.226  25.498  28.107  1.00  0.00     0.031 C 
ATOM     40  C   UNL A   1      45.002  24.056  28.755  1.00  0.00     0.029 A 
ATOM     41  N   UNL A   1      44.443  26.110  29.436  1.00  0.00    -0.354 N 
ATOM     42  C   UNL A   1      40.439  27.628  28.914  1.00  0.00     0.074 A 
ATOM     43  C   UNL A   1      39.593  26.650  28.263  1.00  0.00     0.031 C 
ATOM     44  C   UNL A   1      46.101  24.618  29.281  1.00  0.00     0.029 A 
ATOM     45  C   UNL A   1      45.781  25.974  29.715  1.00  0.00     0.049 A 
ATOM     46  H   UNL A   1      43.932  26.929  29.632  1.00  0.00     0.167 HD
ATOM     47  C   UNL A   1      40.019  28.851  29.318  1.00  0.00     0.037 A 
ATOM     48  C   UNL A   1      46.655  26.847  30.254  1.00  0.00     0.037 A 
ATOM     49  C   UNL A   1      40.861  29.822  29.969  1.00  0.00     0.049 A 
ATOM     50  C   UNL A   1      46.178  28.218  30.648  1.00  0.00     0.074 A 
ATOM     51  C   UNL A   1      40.522  31.074  30.452  1.00  0.00     0.029 A 
ATOM     52  N   UNL A   1      42.214  29.650  30.223  1.00  0.00    -0.354 N 
ATOM     53  N   UNL A   1      44.975  28.730  30.567  1.00  0.00    -0.248 NA
ATOM     54  C   UNL A   1      47.185  29.130  31.209  1.00  0.00     0.031 C 
ATOM     55  C   UNL A   1      41.680  31.680  30.947  1.00  0.00     0.029 A 
ATOM     56  C   UNL A   1      42.730  30.783  30.831  1.00  0.00     0.049 A 
ATOM     57  H   UNL A   1      42.731  28.841  30.004  1.00  0.00     0.167 HD
ATOM     58  C   UNL A   1      45.070  30.010  31.100  1.00  0.00     0.074 A 
ATOM     59  C   UNL A   1      46.448  30.191  31.508  1.00  0.00     0.031 C 
ATOM     60  C   UNL A   1      44.102  30.949  31.240  1.00  0.00     0.037 A 
BRANCH  47  61
ATOM     61  C   UNL A   1      38.582  29.207  29.057  1.00  0.00     0.057 A 
ATOM     62  C   UNL A   1      37.611  29.154  30.068  1.00  0.00     0.134 A 
ATOM     63  C   UNL A   1      38.160  29.615  27.785  1.00  0.00     0.134 A 
ATOM     64  F   UNL A   1      37.943  28.761  31.308  1.00  0.00    -0.206 F 
ATOM     65  C   UNL A   1      36.272  29.455  29.815  1.00  0.00     0.040 A 
ATOM     66  C   UNL A   1      36.830  29.951  27.527  1.00  0.00     0.040 A 
ATOM     67  F   UNL A   1      39.036  29.699  26.771  1.00  0.00    -0.206 F 
ATOM     68  C   UNL A   1      35.879  29.859  28.542  1.00  0.00     0.006 A 
ENDBRANCH  47  61
BRANCH  48  69
ATOM     69  C   UNL A   1      48.066  26.441  30.481  1.00  0.00     0.057 A 
ATOM     70  C   UNL A   1      49.050  26.698  29.519  1.00  0.00     0.134 A 
ATOM     71  C   UNL A   1      48.466  25.788  31.652  1.00  0.00     0.134 A 
ATOM     72  F   UNL A   1      48.726  27.305  28.368  1.00  0.00    -0.206 F 
ATOM     73  C   UNL A   1      50.376  26.304  29.703  1.00  0.00     0.040 A 
ATOM     74  C   UNL A   1      49.795  25.412  31.863  1.00  0.00     0.040 A 
ATOM     75  F   UNL A   1      47.573  25.519  32.617  1.00  0.00    -0.206 F 
ATOM     76  C   UNL A   1      50.752  25.663  30.883  1.00  0.00     0.006 A 
ENDBRANCH  48  69
BRANCH  60  77
ATOM     77  C   UNL A   1      44.487  32.241  31.903  1.00  0.00     0.057 A 
ATOM     78  C   UNL A   1      44.933  33.349  31.172  1.00  0.00     0.134 A 
ATOM     79  C   UNL A   1      44.369  32.389  33.292  1.00  0.00     0.134 A 
ATOM     80  F   UNL A   1      45.081  33.270  29.840  1.00  0.00    -0.206 F 
ATOM     81  C   UNL A   1      45.270  34.549  31.800  1.00  0.00     0.040 A 
ATOM     82  C   UNL A   1      44.674  33.593  33.927  1.00  0.00     0.040 A 
ATOM     83  F   UNL A   1      43.939  31.370  34.052  1.00  0.00    -0.206 F 
ATOM     84  C   UNL A   1      45.133  34.676  33.181  1.00  0.00     0.006 A 
ENDBRANCH  60  77
ENDBRANCH  34  35
ENDBRANCH  26  29
ENDBRANCH  24  25
ENDBRANCH  23  24
ENDBRANCH   1  23
TORSDOF 14
ENDMDL
MODEL 2
REMARK VINA RESULT:      -8.8      0.680      6.334
REMARK SMILES CC(C)COc1cccc(N2C[C@@H](C(=O)NCCCNC(=O)c3ccc(-c4c5nc(c(-c6c(F)cccc6F)c6ccc([nH]6)c(-c6c(F)cccc6F)c6nc(c(-c7c(F)cccc7F)c7ccc4[nH]7)C=C6)C=C5)cc3)CC2=O)c1
REMARK SMILES IDX 17 1 16 2 14 3 15 4 13 6 11 7 12 8 78 9 77 10 79 11 10 12
REMARK SMILES IDX 6 13 7 14 80 15 8 16 9 17 5 18 4 19 2 20 1 21 3 22 18 23
REMARK SMILES IDX 19 24 20 25 21 26 22 28 23 29 24 30 76 31 25 32 75 33 26 34
REMARK SMILES IDX 27 35 28 36 69 37 29 38 74 39 68 40 70 41 30 42 73 43 67 44
REMARK SMILES IDX 66 45 31 47 57 48 40 49 56 50 41 51 44 52 55 53 71 54 42 55
REMARK SMILES IDX 43 56 54 58 72 59 45 60 32 61 33 62 38 63 34 64 35 65 37 66
REMARK SMILES IDX 39 67 36 68 58 69 59 70 64 71 60 72 61 73 63 74 65 75 62 76
REMARK SMILES IDX 46 77 47 78 52 79 48 80 49 81 51 82 53 83 50 84
REMARK H PARENT 16 5 20 27 70 46 44 57
REMARK Flexibility Score: inf
ROOT
ATOM      1  C   UNL A   1      45.315  21.180  25.275  1.00  0.00     0.117 C 
ENDROOT
BRANCH   1   2
ATOM      2  N   UNL A   1      46.040  22.012  24.327  1.00  0.00    -0.356 N 
ATOM      3  C   UNL A   1      46.497  23.289  24.386  1.00  0.00     0.225 C 
ATOM      4  O   UNL A   1      47.128  23.697  23.407  1.00  0.00    -0.275 OA
ATOM      5  H   UNL A   1      46.237  21.560  23.474  1.00  0.00     0.163 HD
BRANCH   3   6
ATOM      6  C   UNL A   1      46.285  24.208  25.571  1.00  0.00     0.107 C 
ATOM      7  N   UNL A   1      45.140  26.202  26.088  1.00  0.00    -0.311 N 
ATOM      8  C   UNL A   1      44.916  24.860  25.601  1.00  0.00     0.139 C 
ATOM      9  C   UNL A   1      46.497  26.526  26.126  1.00  0.00     0.227 C 
ATOM     10  C   UNL A   1      47.298  25.329  25.696  1.00  0.00     0.116 C 
ATOM     11  O   UNL A   1      47.023  27.588  26.434  1.00  0.00    -0.274 OA
BRANCH   7  12
ATOM     12  C   UNL A   1      44.070  27.123  26.231  1.00  0.00     0.047 A 
ATOM     13  C   UNL A   1      43.301  29.240  27.108  1.00  0.00     0.121 A 
ATOM     14  C   UNL A   1      42.199  29.230  26.262  1.00  0.00     0.046 A 
ATOM     15  C   UNL A   1      44.152  28.142  27.182  1.00  0.00     0.072 A 
ATOM     16  C   UNL A   1      42.025  28.152  25.398  1.00  0.00     0.006 A 
ATOM     17  C   UNL A   1      42.983  27.130  25.347  1.00  0.00     0.026 A 
BRANCH  13  18
ATOM     18  O   UNL A   1      43.588  30.346  27.861  1.00  0.00    -0.493 OA
BRANCH  18  19
ATOM     19  C   UNL A   1      44.193  31.392  27.064  1.00  0.00     0.232 C 
BRANCH  19  20
ATOM     20  C   UNL A   1      45.463  31.993  27.714  1.00  0.00     0.020 C 
ATOM     21  C   UNL A   1      46.154  31.006  28.667  1.00  0.00     0.011 C 
ATOM     22  C   UNL A   1      46.491  32.409  26.660  1.00  0.00     0.011 C 
ENDBRANCH  19  20
ENDBRANCH  18  19
ENDBRANCH  13  18
ENDBRANCH   7  12
ENDBRANCH   3   6
ENDBRANCH   1   2
BRANCH   1  23
ATOM     23  C   UNL A   1      44.563  20.034  24.600  1.00  0.00     0.042 C 
BRANCH  23  24
ATOM     24  C   UNL A   1      43.921  19.033  25.557  1.00  0.00     0.118 C 
BRANCH  24  25
ATOM     25  N   UNL A   1      42.472  18.963  25.425  1.00  0.00    -0.352 N 
ATOM     26  C   UNL A   1      41.490  19.786  25.923  1.00  0.00     0.251 C 
ATOM     27  H   UNL A   1      42.144  18.205  24.890  1.00  0.00     0.163 HD
ATOM     28  O   UNL A   1      40.314  19.444  25.828  1.00  0.00    -0.269 OA
BRANCH  26  29
ATOM     29  C   UNL A   1      41.830  21.062  26.592  1.00  0.00     0.039 A 
ATOM     30  C   UNL A   1      41.991  22.211  25.810  1.00  0.00     0.014 A 
ATOM     31  C   UNL A   1      42.016  21.132  27.974  1.00  0.00     0.014 A 
ATOM     32  C   UNL A   1      42.262  23.437  26.421  1.00  0.00     0.010 A 
ATOM     33  C   UNL A   1      42.199  22.368  28.589  1.00  0.00     0.010 A 
ATOM     34  C   UNL A   1      42.325  23.536  27.821  1.00  0.00    -0.014 A 
BRANCH  34  35
ATOM     35  C   UNL A   1      42.514  24.846  28.498  1.00  0.00     0.031 A 
ATOM     36  C   UNL A   1      43.813  25.166  29.187  1.00  0.00     0.074 A 
ATOM     37  C   UNL A   1      41.493  25.723  28.553  1.00  0.00     0.049 A 
ATOM     38  N   UNL A   1      44.140  26.220  29.891  1.00  0.00    -0.248 NA
ATOM     39  C   UNL A   1      44.877  24.155  29.090  1.00  0.00     0.031 C 
ATOM     40  C   UNL A   1      40.170  25.522  27.958  1.00  0.00     0.029 A 
ATOM     41  N   UNL A   1      41.405  26.959  29.144  1.00  0.00    -0.354 N 
ATOM     42  C   UNL A   1      45.439  25.995  30.328  1.00  0.00     0.074 A 
ATOM     43  C   UNL A   1      45.816  24.677  29.863  1.00  0.00     0.031 C 
ATOM     44  C   UNL A   1      39.415  26.607  28.186  1.00  0.00     0.029 A 
ATOM     45  C   UNL A   1      40.180  27.561  28.983  1.00  0.00     0.049 A 
ATOM     46  H   UNL A   1      42.148  27.374  29.638  1.00  0.00     0.167 HD
ATOM     47  C   UNL A   1      46.255  26.820  31.028  1.00  0.00     0.037 A 
ATOM     48  C   UNL A   1      39.722  28.745  29.433  1.00  0.00     0.037 A 
ATOM     49  C   UNL A   1      45.880  28.132  31.486  1.00  0.00     0.049 A 
ATOM     50  C   UNL A   1      40.629  29.622  30.252  1.00  0.00     0.074 A 
ATOM     51  C   UNL A   1      46.646  29.061  32.169  1.00  0.00     0.029 A 
ATOM     52  N   UNL A   1      44.626  28.701  31.312  1.00  0.00    -0.354 N 
ATOM     53  N   UNL A   1      41.874  29.421  30.607  1.00  0.00    -0.248 NA
ATOM     54  C   UNL A   1      40.063  30.891  30.731  1.00  0.00     0.031 C 
ATOM     55  C   UNL A   1      45.840  30.167  32.456  1.00  0.00     0.029 A 
ATOM     56  C   UNL A   1      44.589  29.956  31.898  1.00  0.00     0.049 A 
ATOM     57  H   UNL A   1      43.873  28.275  30.841  1.00  0.00     0.167 HD
ATOM     58  C   UNL A   1      42.254  30.552  31.319  1.00  0.00     0.074 A 
ATOM     59  C   UNL A   1      41.108  31.438  31.338  1.00  0.00     0.031 C 
ATOM     60  C   UNL A   1      43.445  30.833  31.903  1.00  0.00     0.037 A 
BRANCH  47  61
ATOM     61  C   UNL A   1      47.636  26.315  31.345  1.00  0.00     0.057 A 
ATOM     62  C   UNL A   1      47.918  25.634  32.539  1.00  0.00     0.134 A 
ATOM     63  C   UNL A   1      48.695  26.502  30.448  1.00  0.00     0.134 A 
ATOM     64  F   UNL A   1      46.953  25.429  33.449  1.00  0.00    -0.206 F 
ATOM     65  C   UNL A   1      49.207  25.194  32.844  1.00  0.00     0.040 A 
ATOM     66  C   UNL A   1      49.982  26.038  30.727  1.00  0.00     0.040 A 
ATOM     67  F   UNL A   1      48.496  27.136  29.282  1.00  0.00    -0.206 F 
ATOM     68  C   UNL A   1      50.242  25.392  31.934  1.00  0.00     0.006 A 
ENDBRANCH  47  61
BRANCH  48  69
ATOM     69  C   UNL A   1      38.345  29.187  29.093  1.00  0.00     0.057 A 
ATOM     70  C   UNL A   1      37.318  29.127  30.042  1.00  0.00     0.134 A 
ATOM     71  C   UNL A   1      38.019  29.673  27.822  1.00  0.00     0.134 A 
ATOM     72  F   UNL A   1      37.564  28.654  31.273  1.00  0.00    -0.206 F 
ATOM     73  C   UNL A   1      36.013  29.516  29.736  1.00  0.00     0.040 A 
ATOM     74  C   UNL A   1      36.724  30.091  27.508  1.00  0.00     0.040 A 
ATOM     75  F   UNL A   1      38.959  29.763  26.869  1.00  0.00    -0.206 F 
ATOM     76  C   UNL A   1      35.715  30.005  28.465  1.00  0.00     0.006 A 
ENDBRANCH  48  69
BRANCH  60  77
ATOM     77  C   UNL A   1      43.587  32.170  32.572  1.00  0.00     0.057 A 
ATOM     78  C   UNL A   1      43.382  32.340  33.947  1.00  0.00     0.134 A 
ATOM     79  C   UNL A   1      43.974  33.296  31.833  1.00  0.00     0.134 A 
ATOM     80  F   UNL A   1      42.996  31.306  34.710  1.00  0.00    -0.206 F 
ATOM     81  C   UNL A   1      43.534  33.586  34.558  1.00  0.00     0.040 A 
ATOM     82  C   UNL A   1      44.159  34.539  32.438  1.00  0.00     0.040 A 
ATOM     83  F   UNL A   1      44.196  33.202  30.513  1.00  0.00    -0.206 F 
ATOM     84  C   UNL A   1      43.932  34.689  33.804  1.00  0.00     0.006 A 
ENDBRANCH  60  77
ENDBRANCH  34  35
ENDBRANCH  26  29
ENDBRANCH  24  25
ENDBRANCH  23  24
ENDBRANCH   1  23
TORSDOF 14
ENDMDL
MODEL 3
REMARK VINA RESULT:      -8.8      4.388     10.141
REMARK SMILES CC(C)COc1cccc(N2C[C@@H](C(=O)NCCCNC(=O)c3ccc(-c4c5nc(c(-c6c(F)cccc6F)c6ccc([nH]6)c(-c6c(F)cccc6F)c6nc(c(-c7c(F)cccc7F)c7ccc4[nH]7)C=C6)C=C5)cc3)CC2=O)c1
REMARK SMILES IDX 17 1 16 2 14 3 15 4 13 6 11 7 12 8 78 9 77 10 79 11 10 12
REMARK SMILES IDX 6 13 7 14 80 15 8 16 9 17 5 18 4 19 2 20 1 21 3 22 18 23
REMARK SMILES IDX 19 24 20 25 21 26 22 28 23 29 24 30 76 31 25 32 75 33 26 34
REMARK SMILES IDX 27 35 28 36 69 37 29 38 74 39 68 40 70 41 30 42 73 43 67 44
REMARK SMILES IDX 66 45 31 47 57 48 40 49 56 50 41 51 44 52 55 53 71 54 42 55
REMARK SMILES IDX 43 56 54 58 72 59 45 60 32 61 33 62 38 63 34 64 35 65 37 66
REMARK SMILES IDX 39 67 36 68 58 69 59 70 64 71 60 72 61 73 63 74 65 75 62 76
REMARK SMILES IDX 46 77 47 78 52 79 48 80 49 81 51 82 53 83 50 84
REMARK H PARENT 16 5 20 27 70 46 44 57
REMARK Flexibility Score: inf
ROOT
ATOM      1  C   UNL A   1      31.827  28.818  25.504  1.00  0.00     0.117 C 
ENDROOT
BRANCH   1   2
ATOM      2  N   UNL A   1      32.861  28.886  24.484  1.00  0.00    -0.356 N 
ATOM      3  C   UNL A   1      33.409  27.951  23.668  1.00  0.00     0.225 C 
ATOM      4  O   UNL A   1      34.256  28.348  22.862  1.00  0.00    -0.275 OA
ATOM      5  H   UNL A   1      33.238  29.788  24.363  1.00  0.00     0.163 HD
BRANCH   3   6
ATOM      6  C   UNL A   1      33.032  26.484  23.689  1.00  0.00     0.107 C 
ATOM      7  N   UNL A   1      34.084  24.384  23.880  1.00  0.00    -0.311 N 
ATOM      8  C   UNL A   1      33.922  25.638  24.579  1.00  0.00     0.139 C 
ATOM      9  C   UNL A   1      33.608  24.450  22.570  1.00  0.00     0.227 C 
ATOM     10  C   UNL A   1      33.017  25.811  22.331  1.00  0.00     0.116 C 
ATOM     11  O   UNL A   1      33.641  23.590  21.698  1.00  0.00    -0.274 OA
BRANCH   7  12
ATOM     12  C   UNL A   1      34.882  23.339  24.413  1.00  0.00     0.047 A 
ATOM     13  C   UNL A   1      35.174  20.965  24.761  1.00  0.00     0.121 A 
ATOM     14  C   UNL A   1      36.523  21.136  25.042  1.00  0.00     0.046 A 
ATOM     15  C   UNL A   1      34.340  22.064  24.577  1.00  0.00     0.072 A 
ATOM     16  C   UNL A   1      37.058  22.422  25.017  1.00  0.00     0.006 A 
ATOM     17  C   UNL A   1      36.252  23.511  24.655  1.00  0.00     0.026 A 
BRANCH  13  18
ATOM     18  O   UNL A   1      34.645  19.710  24.628  1.00  0.00    -0.493 OA
BRANCH  18  19
ATOM     19  C   UNL A   1      33.214  19.708  24.849  1.00  0.00     0.232 C 
BRANCH  19  20
ATOM     20  C   UNL A   1      32.539  18.376  24.437  1.00  0.00     0.020 C 
ATOM     21  C   UNL A   1      33.243  17.709  23.246  1.00  0.00     0.011 C 
ATOM     22  C   UNL A   1      32.535  17.370  25.590  1.00  0.00     0.011 C 
ENDBRANCH  19  20
ENDBRANCH  18  19
ENDBRANCH  13  18
ENDBRANCH   7  12
ENDBRANCH   3   6
ENDBRANCH   1   2
BRANCH   1  23
ATOM     23  C   UNL A   1      32.325  28.204  26.811  1.00  0.00     0.042 C 
BRANCH  23  24
ATOM     24  C   UNL A   1      33.713  28.662  27.252  1.00  0.00     0.118 C 
BRANCH  24  25
ATOM     25  N   UNL A   1      33.738  30.039  27.723  1.00  0.00    -0.352 N 
ATOM     26  C   UNL A   1      34.728  30.745  28.366  1.00  0.00     0.251 C 
ATOM     27  H   UNL A   1      32.913  30.548  27.552  1.00  0.00     0.163 HD
ATOM     28  O   UNL A   1      34.474  31.855  28.825  1.00  0.00    -0.269 OA
BRANCH  26  29
ATOM     29  C   UNL A   1      36.084  30.176  28.534  1.00  0.00     0.039 A 
ATOM     30  C   UNL A   1      36.955  30.175  27.439  1.00  0.00     0.014 A 
ATOM     31  C   UNL A   1      36.496  29.622  29.747  1.00  0.00     0.014 A 
ATOM     32  C   UNL A   1      38.257  29.691  27.584  1.00  0.00     0.010 A 
ATOM     33  C   UNL A   1      37.819  29.221  29.915  1.00  0.00     0.010 A 
ATOM     34  C   UNL A   1      38.716  29.250  28.836  1.00  0.00    -0.014 A 
BRANCH  34  35
ATOM     35  C   UNL A   1      40.125  28.822  29.039  1.00  0.00     0.031 A 
ATOM     36  C   UNL A   1      41.127  29.765  29.648  1.00  0.00     0.074 A 
ATOM     37  C   UNL A   1      40.522  27.607  28.613  1.00  0.00     0.049 A 
ATOM     38  N   UNL A   1      42.412  29.601  29.836  1.00  0.00    -0.248 NA
ATOM     39  C   UNL A   1      40.620  31.077  30.080  1.00  0.00     0.031 C 
ATOM     40  C   UNL A   1      39.661  26.610  27.974  1.00  0.00     0.029 A 
ATOM     41  N   UNL A   1      41.755  27.005  28.646  1.00  0.00    -0.354 N 
ATOM     42  C   UNL A   1      42.867  30.787  30.398  1.00  0.00     0.074 A 
ATOM     43  C   UNL A   1      41.733  31.685  30.459  1.00  0.00     0.031 C 
ATOM     44  C   UNL A   1      40.382  25.512  27.705  1.00  0.00     0.029 A 
ATOM     45  C   UNL A   1      41.767  25.741  28.107  1.00  0.00     0.049 A 
ATOM     46  H   UNL A   1      42.557  27.439  29.019  1.00  0.00     0.167 HD
ATOM     47  C   UNL A   1      44.108  31.094  30.847  1.00  0.00     0.037 A 
ATOM     48  C   UNL A   1      42.779  24.868  27.948  1.00  0.00     0.037 A 
ATOM     49  C   UNL A   1      45.234  30.199  30.788  1.00  0.00     0.049 A 
ATOM     50  C   UNL A   1      44.160  25.250  28.408  1.00  0.00     0.074 A 
ATOM     51  C   UNL A   1      46.523  30.400  31.250  1.00  0.00     0.029 A 
ATOM     52  N   UNL A   1      45.207  28.930  30.224  1.00  0.00    -0.354 N 
ATOM     53  N   UNL A   1      44.562  26.352  28.990  1.00  0.00    -0.248 NA
ATOM     54  C   UNL A   1      45.225  24.262  28.186  1.00  0.00     0.031 C 
ATOM     55  C   UNL A   1      47.288  29.278  30.918  1.00  0.00     0.029 A 
ATOM     56  C   UNL A   1      46.462  28.350  30.303  1.00  0.00     0.049 A 
ATOM     57  H   UNL A   1      44.412  28.506  29.827  1.00  0.00     0.167 HD
ATOM     58  C   UNL A   1      45.918  26.178  29.239  1.00  0.00     0.074 A 
ATOM     59  C   UNL A   1      46.266  24.860  28.750  1.00  0.00     0.031 C 
ATOM     60  C   UNL A   1      46.795  27.032  29.821  1.00  0.00     0.037 A 
BRANCH  47  61
ATOM     61  C   UNL A   1      44.308  32.463  31.435  1.00  0.00     0.057 A 
ATOM     62  C   UNL A   1      44.700  33.556  30.648  1.00  0.00     0.134 A 
ATOM     63  C   UNL A   1      44.100  32.698  32.800  1.00  0.00     0.134 A 
ATOM     64  F   UNL A   1      44.927  33.401  29.334  1.00  0.00    -0.206 F 
ATOM     65  C   UNL A   1      44.915  34.819  31.203  1.00  0.00     0.040 A 
ATOM     66  C   UNL A   1      44.279  33.964  33.361  1.00  0.00     0.040 A 
ATOM     67  F   UNL A   1      43.714  31.701  33.612  1.00  0.00    -0.206 F 
ATOM     68  C   UNL A   1      44.700  35.026  32.563  1.00  0.00     0.006 A 
ENDBRANCH  47  61
BRANCH  48  69
ATOM     69  C   UNL A   1      42.522  23.531  27.353  1.00  0.00     0.057 A 
ATOM     70  C   UNL A   1      42.201  22.435  28.162  1.00  0.00     0.134 A 
ATOM     71  C   UNL A   1      42.594  23.313  25.972  1.00  0.00     0.134 A 
ATOM     72  F   UNL A   1      42.135  22.577  29.494  1.00  0.00    -0.206 F 
ATOM     73  C   UNL A   1      41.979  21.167  27.624  1.00  0.00     0.040 A 
ATOM     74  C   UNL A   1      42.348  22.055  25.417  1.00  0.00     0.040 A 
ATOM     75  F   UNL A   1      42.890  24.323  25.140  1.00  0.00    -0.206 F 
ATOM     76  C   UNL A   1      42.047  20.976  26.245  1.00  0.00     0.006 A 
ENDBRANCH  48  69
BRANCH  60  77
ATOM     77  C   UNL A   1      48.206  26.552  30.005  1.00  0.00     0.057 A 
ATOM     78  C   UNL A   1      48.608  25.839  31.142  1.00  0.00     0.134 A 
ATOM     79  C   UNL A   1      49.168  26.773  29.009  1.00  0.00     0.134 A 
ATOM     80  F   UNL A   1      47.741  25.605  32.139  1.00  0.00    -0.206 F 
ATOM     81  C   UNL A   1      49.919  25.384  31.292  1.00  0.00     0.040 A 
ATOM     82  C   UNL A   1      50.473  26.297  29.134  1.00  0.00     0.040 A 
ATOM     83  F   UNL A   1      48.848  27.441  27.890  1.00  0.00    -0.206 F 
ATOM     84  C   UNL A   1      50.854  25.605  30.282  1.00  0.00     0.006 A 
ENDBRANCH  60  77
ENDBRANCH  34  35
ENDBRANCH  26  29
ENDBRANCH  24  25
ENDBRANCH  23  24
ENDBRANCH   1  23
TORSDOF 14
ENDMDL
