MODEL 1
REMARK VINA RESULT:     -12.8      0.000      0.000
REMARK SMILES O=C(NCCCNC(=O)[C@@H]1CC=CC[C@@H]1C(=O)Nc1sc2c(c1C(=O)N1CCCCC1)CCCC2)c1ccc(-c2c3nc(c(-c4c(F)cccc4F)c4ccc([nH]4)c(-c4c(F)cccc4F)c4nc(c(-c5c(F)cccc5F)c5ccc2[nH]5)C=C4)C=C3)cc1
REMARK SMILES IDX 5 1 4 2 3 3 1 4 2 5 36 7 37 8 89 9 38 10 88 11 39 12 40 13
REMARK SMILES IDX 41 14 82 15 42 16 87 17 81 18 83 19 43 20 86 21 80 22 79 23
REMARK SMILES IDX 44 25 70 26 53 27 69 28 54 29 57 30 68 31 84 32 55 33 56 34
REMARK SMILES IDX 67 36 85 37 58 38 45 39 46 40 51 41 47 42 48 43 50 44 52 45
REMARK SMILES IDX 49 46 71 47 72 48 77 49 73 50 74 51 76 52 78 53 75 54 59 55
REMARK SMILES IDX 60 56 65 57 61 58 62 59 64 60 66 61 63 62 6 63 7 64 8 65
REMARK SMILES IDX 9 67 10 68 11 69 15 70 12 71 14 72 13 73 16 74 17 75 18 76
REMARK SMILES IDX 19 78 20 79 23 80 21 81 22 82 35 83 32 84 34 85 33 86 24 87
REMARK SMILES IDX 25 88 26 89 27 90 31 91 28 92 30 93 29 94
REMARK H PARENT 3 6 83 24 57 35 7 66 18 77
REMARK Flexibility Score: inf
ROOT
ATOM      1  C   UNL A   1      33.254  29.194  26.457  1.00  0.00     0.042 C 
ENDROOT
BRANCH   1   2
ATOM      2  C   UNL A   1      34.435  29.041  27.402  1.00  0.00     0.118 C 
BRANCH   2   3
ATOM      3  N   UNL A   1      34.551  30.139  28.356  1.00  0.00    -0.352 N 
ATOM      4  O   UNL A   1      35.509  31.359  30.008  1.00  0.00    -0.269 OA
ATOM      5  C   UNL A   1      35.620  30.503  29.138  1.00  0.00     0.251 C 
ATOM      6  H   UNL A   1      33.746  30.699  28.454  1.00  0.00     0.163 HD
BRANCH   5   7
ATOM      7  C   UNL A   1      36.909  29.828  28.905  1.00  0.00     0.039 A 
ATOM      8  C   UNL A   1      37.521  29.174  29.973  1.00  0.00     0.014 A 
ATOM      9  C   UNL A   1      37.543  29.919  27.662  1.00  0.00     0.014 A 
ATOM     10  C   UNL A   1      38.846  28.796  29.863  1.00  0.00     0.010 A 
ATOM     11  C   UNL A   1      38.842  29.424  27.520  1.00  0.00     0.010 A 
ATOM     12  C   UNL A   1      39.519  28.900  28.632  1.00  0.00    -0.014 A 
BRANCH  12  13
ATOM     13  C   UNL A   1      40.909  28.391  28.568  1.00  0.00     0.031 A 
ATOM     14  C   UNL A   1      41.213  26.970  28.194  1.00  0.00     0.074 A 
ATOM     15  C   UNL A   1      41.904  29.285  28.732  1.00  0.00     0.049 A 
ATOM     16  N   UNL A   1      42.377  26.416  27.967  1.00  0.00    -0.248 NA
ATOM     17  C   UNL A   1      40.075  26.047  28.064  1.00  0.00     0.031 C 
ATOM     18  C   UNL A   1      41.714  30.690  29.109  1.00  0.00     0.029 A 
ATOM     19  N   UNL A   1      43.255  29.173  28.545  1.00  0.00    -0.354 N 
ATOM     20  C   UNL A   1      42.117  25.080  27.686  1.00  0.00     0.074 A 
ATOM     21  C   UNL A   1      40.685  24.900  27.791  1.00  0.00     0.031 C 
ATOM     22  C   UNL A   1      42.889  31.329  29.034  1.00  0.00     0.029 A 
ATOM     23  C   UNL A   1      43.923  30.367  28.676  1.00  0.00     0.049 A 
ATOM     24  H   UNL A   1      43.704  28.322  28.337  1.00  0.00     0.167 HD
ATOM     25  C   UNL A   1      42.995  24.100  27.367  1.00  0.00     0.037 A 
ATOM     26  C   UNL A   1      45.226  30.658  28.524  1.00  0.00     0.037 A 
ATOM     27  C   UNL A   1      44.418  24.295  27.251  1.00  0.00     0.049 A 
ATOM     28  C   UNL A   1      46.168  29.559  28.141  1.00  0.00     0.074 A 
ATOM     29  C   UNL A   1      45.397  23.366  26.943  1.00  0.00     0.029 A 
ATOM     30  N   UNL A   1      45.065  25.510  27.428  1.00  0.00    -0.354 N 
ATOM     31  N   UNL A   1      45.905  28.299  27.890  1.00  0.00    -0.248 NA
ATOM     32  C   UNL A   1      47.587  29.916  28.031  1.00  0.00     0.031 C 
ATOM     33  C   UNL A   1      46.638  24.013  26.960  1.00  0.00     0.029 A 
ATOM     34  C   UNL A   1      46.429  25.353  27.242  1.00  0.00     0.049 A 
ATOM     35  H   UNL A   1      44.620  26.359  27.652  1.00  0.00     0.167 HD
ATOM     36  C   UNL A   1      47.125  27.710  27.603  1.00  0.00     0.074 A 
ATOM     37  C   UNL A   1      48.123  28.759  27.668  1.00  0.00     0.031 C 
ATOM     38  C   UNL A   1      47.401  26.411  27.329  1.00  0.00     0.037 A 
BRANCH  25  39
ATOM     39  C   UNL A   1      42.449  22.722  27.135  1.00  0.00     0.057 A 
ATOM     40  C   UNL A   1      42.037  21.903  28.194  1.00  0.00     0.134 A 
ATOM     41  C   UNL A   1      42.283  22.228  25.835  1.00  0.00     0.134 A 
ATOM     42  F   UNL A   1      42.182  22.309  29.463  1.00  0.00    -0.206 F 
ATOM     43  C   UNL A   1      41.489  20.638  27.968  1.00  0.00     0.040 A 
ATOM     44  C   UNL A   1      41.720  20.973  25.595  1.00  0.00     0.040 A 
ATOM     45  F   UNL A   1      42.655  22.963  24.775  1.00  0.00    -0.206 F 
ATOM     46  C   UNL A   1      41.323  20.173  26.664  1.00  0.00     0.006 A 
ENDBRANCH  25  39
BRANCH  26  47
ATOM     47  C   UNL A   1      45.699  32.045  28.748  1.00  0.00     0.057 A 
ATOM     48  C   UNL A   1      46.098  32.485  30.014  1.00  0.00     0.134 A 
ATOM     49  C   UNL A   1      45.792  32.957  27.688  1.00  0.00     0.134 A 
ATOM     50  F   UNL A   1      46.020  31.662  31.070  1.00  0.00    -0.206 F 
ATOM     51  C   UNL A   1      46.563  33.784  30.222  1.00  0.00     0.040 A 
ATOM     52  C   UNL A   1      46.281  34.249  27.876  1.00  0.00     0.040 A 
ATOM     53  F   UNL A   1      45.436  32.590  26.447  1.00  0.00    -0.206 F 
ATOM     54  C   UNL A   1      46.663  34.668  29.147  1.00  0.00     0.006 A 
ENDBRANCH  26  47
BRANCH  38  55
ATOM     55  C   UNL A   1      48.841  26.073  27.092  1.00  0.00     0.057 A 
ATOM     56  C   UNL A   1      49.672  25.647  28.136  1.00  0.00     0.134 A 
ATOM     57  C   UNL A   1      49.401  26.177  25.814  1.00  0.00     0.134 A 
ATOM     58  F   UNL A   1      49.195  25.545  29.386  1.00  0.00    -0.206 F 
ATOM     59  C   UNL A   1      51.020  25.365  27.922  1.00  0.00     0.040 A 
ATOM     60  C   UNL A   1      50.743  25.876  25.583  1.00  0.00     0.040 A 
ATOM     61  F   UNL A   1      48.655  26.576  24.773  1.00  0.00    -0.206 F 
ATOM     62  C   UNL A   1      51.559  25.477  26.641  1.00  0.00     0.006 A 
ENDBRANCH  38  55
ENDBRANCH  12  13
ENDBRANCH   5   7
ENDBRANCH   2   3
ENDBRANCH   1   2
BRANCH   1  63
ATOM     63  C   UNL A   1      31.911  28.912  27.104  1.00  0.00     0.117 C 
BRANCH  63  64
ATOM     64  N   UNL A   1      31.696  27.492  27.339  1.00  0.00    -0.356 N 
ATOM     65  C   UNL A   1      31.471  26.485  26.441  1.00  0.00     0.224 C 
ATOM     66  H   UNL A   1      31.716  27.214  28.284  1.00  0.00     0.163 HD
ATOM     67  O   UNL A   1      31.382  25.334  26.860  1.00  0.00    -0.275 OA
BRANCH  65  68
ATOM     68  C   UNL A   1      31.354  26.848  24.981  1.00  0.00     0.095 C 
ATOM     69  C   UNL A   1      29.909  27.130  24.561  1.00  0.00     0.041 C 
ATOM     70  C   UNL A   1      32.080  25.843  24.062  1.00  0.00     0.095 C 
ATOM     71  C   UNL A   1      29.854  27.493  23.104  1.00  0.00    -0.030 C 
ATOM     72  C   UNL A   1      32.081  26.422  22.623  1.00  0.00     0.041 C 
ATOM     73  C   UNL A   1      30.841  27.197  22.244  1.00  0.00    -0.030 C 
BRANCH  70  74
ATOM     74  C   UNL A   1      31.463  24.429  24.014  1.00  0.00     0.229 C 
ATOM     75  O   UNL A   1      30.242  24.278  23.892  1.00  0.00    -0.274 OA
ATOM     76  N   UNL A   1      32.243  23.309  23.852  1.00  0.00    -0.317 N 
ATOM     77  H   UNL A   1      31.820  22.608  23.306  1.00  0.00     0.170 HD
BRANCH  76  78
ATOM     78  C   UNL A   1      33.509  22.975  24.309  1.00  0.00     0.108 A 
ATOM     79  S   UNL A   1      34.488  24.176  24.974  1.00  0.00    -0.122 S 
ATOM     80  C   UNL A   1      34.070  21.696  24.443  1.00  0.00     0.078 A 
ATOM     81  C   UNL A   1      35.800  23.135  25.130  1.00  0.00     0.011 A 
ATOM     82  C   UNL A   1      35.439  21.811  24.965  1.00  0.00    -0.019 A 
ATOM     83  C   UNL A   1      37.164  23.650  25.464  1.00  0.00     0.047 C 
ATOM     84  C   UNL A   1      36.460  20.737  25.226  1.00  0.00     0.037 C 
ATOM     85  C   UNL A   1      38.223  22.560  25.310  1.00  0.00     0.006 C 
ATOM     86  C   UNL A   1      37.738  21.249  25.911  1.00  0.00     0.005 C 
BRANCH  80  87
ATOM     87  C   UNL A   1      33.339  20.505  23.948  1.00  0.00     0.257 C 
ATOM     88  O   UNL A   1      32.493  20.604  23.057  1.00  0.00    -0.269 OA
ATOM     89  N   UNL A   1      33.727  19.251  24.405  1.00  0.00    -0.339 N 
ATOM     90  C   UNL A   1      33.968  18.204  23.421  1.00  0.00     0.120 C 
ATOM     91  C   UNL A   1      33.474  18.818  25.775  1.00  0.00     0.120 C 
ATOM     92  C   UNL A   1      32.935  17.082  23.490  1.00  0.00     0.022 C 
ATOM     93  C   UNL A   1      32.419  17.717  25.850  1.00  0.00     0.022 C 
ATOM     94  C   UNL A   1      32.784  16.566  24.918  1.00  0.00     0.004 C 
ENDBRANCH  80  87
ENDBRANCH  76  78
ENDBRANCH  70  74
ENDBRANCH  65  68
ENDBRANCH  63  64
ENDBRANCH   1  63
TORSDOF 13
ENDMDL
MODEL 2
REMARK VINA RESULT:     -12.6      2.280      8.193
REMARK SMILES O=C(NCCCNC(=O)[C@@H]1CC=CC[C@@H]1C(=O)Nc1sc2c(c1C(=O)N1CCCCC1)CCCC2)c1ccc(-c2c3nc(c(-c4c(F)cccc4F)c4ccc([nH]4)c(-c4c(F)cccc4F)c4nc(c(-c5c(F)cccc5F)c5ccc2[nH]5)C=C4)C=C3)cc1
REMARK SMILES IDX 5 1 4 2 3 3 1 4 2 5 36 7 37 8 89 9 38 10 88 11 39 12 40 13
REMARK SMILES IDX 41 14 82 15 42 16 87 17 81 18 83 19 43 20 86 21 80 22 79 23
REMARK SMILES IDX 44 25 70 26 53 27 69 28 54 29 57 30 68 31 84 32 55 33 56 34
REMARK SMILES IDX 67 36 85 37 58 38 45 39 46 40 51 41 47 42 48 43 50 44 52 45
REMARK SMILES IDX 49 46 71 47 72 48 77 49 73 50 74 51 76 52 78 53 75 54 59 55
REMARK SMILES IDX 60 56 65 57 61 58 62 59 64 60 66 61 63 62 6 63 7 64 8 65
REMARK SMILES IDX 9 67 10 68 11 69 15 70 12 71 14 72 13 73 16 74 17 75 18 76
REMARK SMILES IDX 19 78 20 79 23 80 21 81 22 82 35 83 32 84 34 85 33 86 24 87
REMARK SMILES IDX 25 88 26 89 27 90 31 91 28 92 30 93 29 94
REMARK H PARENT 3 6 83 24 57 35 7 66 18 77
REMARK Flexibility Score: inf
ROOT
ATOM      1  C   UNL A   1      37.939  20.133  25.027  1.00  0.00     0.042 C 
ENDROOT
BRANCH   1   2
ATOM      2  C   UNL A   1      39.213  20.426  25.803  1.00  0.00     0.118 C 
BRANCH   2   3
ATOM      3  N   UNL A   1      40.131  19.292  25.845  1.00  0.00    -0.352 N 
ATOM      4  O   UNL A   1      42.145  18.254  25.907  1.00  0.00    -0.269 OA
ATOM      5  C   UNL A   1      41.488  19.278  26.056  1.00  0.00     0.251 C 
ATOM      6  H   UNL A   1      39.717  18.409  25.701  1.00  0.00     0.163 HD
BRANCH   5   7
ATOM      7  C   UNL A   1      42.138  20.537  26.463  1.00  0.00     0.039 A 
ATOM      8  C   UNL A   1      42.193  20.849  27.820  1.00  0.00     0.014 A 
ATOM      9  C   UNL A   1      42.608  21.436  25.501  1.00  0.00     0.014 A 
ATOM     10  C   UNL A   1      42.521  22.136  28.203  1.00  0.00     0.010 A 
ATOM     11  C   UNL A   1      43.056  22.696  25.905  1.00  0.00     0.010 A 
ATOM     12  C   UNL A   1      42.973  23.071  27.254  1.00  0.00    -0.014 A 
BRANCH  12  13
ATOM     13  C   UNL A   1      43.393  24.402  27.752  1.00  0.00     0.031 A 
ATOM     14  C   UNL A   1      44.822  24.856  27.681  1.00  0.00     0.074 A 
ATOM     15  C   UNL A   1      42.423  25.247  28.155  1.00  0.00     0.049 A 
ATOM     16  N   UNL A   1      45.318  26.036  27.953  1.00  0.00    -0.248 NA
ATOM     17  C   UNL A   1      45.825  23.865  27.263  1.00  0.00     0.031 C 
ATOM     18  C   UNL A   1      41.003  24.898  28.270  1.00  0.00     0.029 A 
ATOM     19  N   UNL A   1      42.465  26.577  28.477  1.00  0.00    -0.354 N 
ATOM     20  C   UNL A   1      46.690  25.929  27.757  1.00  0.00     0.074 A 
ATOM     21  C   UNL A   1      46.951  24.561  27.363  1.00  0.00     0.031 C 
ATOM     22  C   UNL A   1      40.300  26.004  28.545  1.00  0.00     0.029 A 
ATOM     23  C   UNL A   1      41.222  27.121  28.697  1.00  0.00     0.049 A 
ATOM     24  H   UNL A   1      43.301  27.091  28.546  1.00  0.00     0.167 HD
ATOM     25  C   UNL A   1      47.636  26.887  27.891  1.00  0.00     0.037 A 
ATOM     26  C   UNL A   1      40.863  28.383  28.988  1.00  0.00     0.037 A 
ATOM     27  C   UNL A   1      47.361  28.250  28.268  1.00  0.00     0.049 A 
ATOM     28  C   UNL A   1      41.931  29.427  29.099  1.00  0.00     0.074 A 
ATOM     29  C   UNL A   1      48.250  29.297  28.443  1.00  0.00     0.029 A 
ATOM     30  N   UNL A   1      46.095  28.759  28.521  1.00  0.00    -0.354 N 
ATOM     31  N   UNL A   1      43.224  29.305  28.921  1.00  0.00    -0.248 NA
ATOM     32  C   UNL A   1      41.494  30.780  29.462  1.00  0.00     0.031 C 
ATOM     33  C   UNL A   1      47.525  30.431  28.826  1.00  0.00     0.029 A 
ATOM     34  C   UNL A   1      46.180  30.100  28.855  1.00  0.00     0.049 A 
ATOM     35  H   UNL A   1      45.258  28.242  28.470  1.00  0.00     0.167 HD
ATOM     36  C   UNL A   1      43.758  30.560  29.161  1.00  0.00     0.074 A 
ATOM     37  C   UNL A   1      42.644  31.440  29.455  1.00  0.00     0.031 C 
ATOM     38  C   UNL A   1      45.057  30.948  29.158  1.00  0.00     0.037 A 
BRANCH  25  39
ATOM     39  C   UNL A   1      49.065  26.497  27.642  1.00  0.00     0.057 A 
ATOM     40  C   UNL A   1      49.902  26.066  28.678  1.00  0.00     0.134 A 
ATOM     41  C   UNL A   1      49.592  26.502  26.345  1.00  0.00     0.134 A 
ATOM     42  F   UNL A   1      49.464  26.050  29.945  1.00  0.00    -0.206 F 
ATOM     43  C   UNL A   1      51.217  25.662  28.433  1.00  0.00     0.040 A 
ATOM     44  C   UNL A   1      50.898  26.084  26.085  1.00  0.00     0.040 A 
ATOM     45  F   UNL A   1      48.841  26.902  25.306  1.00  0.00    -0.206 F 
ATOM     46  C   UNL A   1      51.716  25.664  27.132  1.00  0.00     0.006 A 
ENDBRANCH  25  39
BRANCH  26  47
ATOM     47  C   UNL A   1      39.432  28.708  29.201  1.00  0.00     0.057 A 
ATOM     48  C   UNL A   1      38.822  28.534  30.447  1.00  0.00     0.134 A 
ATOM     49  C   UNL A   1      38.648  29.232  28.165  1.00  0.00     0.134 A 
ATOM     50  F   UNL A   1      39.518  28.024  31.475  1.00  0.00    -0.206 F 
ATOM     51  C   UNL A   1      37.481  28.859  30.655  1.00  0.00     0.040 A 
ATOM     52  C   UNL A   1      37.315  29.588  28.365  1.00  0.00     0.040 A 
ATOM     53  F   UNL A   1      39.180  29.434  26.950  1.00  0.00    -0.206 F 
ATOM     54  C   UNL A   1      36.726  29.395  29.612  1.00  0.00     0.006 A 
ENDBRANCH  26  47
BRANCH  38  55
ATOM     55  C   UNL A   1      45.322  32.384  29.493  1.00  0.00     0.057 A 
ATOM     56  C   UNL A   1      45.558  32.794  30.812  1.00  0.00     0.134 A 
ATOM     57  C   UNL A   1      45.337  33.363  28.494  1.00  0.00     0.134 A 
ATOM     58  F   UNL A   1      45.539  31.903  31.815  1.00  0.00    -0.206 F 
ATOM     59  C   UNL A   1      45.771  34.135  31.129  1.00  0.00     0.040 A 
ATOM     60  C   UNL A   1      45.571  34.704  28.795  1.00  0.00     0.040 A 
ATOM     61  F   UNL A   1      45.122  33.032  27.212  1.00  0.00    -0.206 F 
ATOM     62  C   UNL A   1      45.781  35.094  30.117  1.00  0.00     0.006 A 
ENDBRANCH  38  55
ENDBRANCH  12  13
ENDBRANCH   5   7
ENDBRANCH   2   3
ENDBRANCH   1   2
BRANCH   1  63
ATOM     63  C   UNL A   1      36.820  21.122  25.292  1.00  0.00     0.117 C 
BRANCH  63  64
ATOM     64  N   UNL A   1      36.604  22.029  24.174  1.00  0.00    -0.356 N 
ATOM     65  C   UNL A   1      35.452  22.634  23.755  1.00  0.00     0.224 C 
ATOM     66  H   UNL A   1      37.406  22.238  23.642  1.00  0.00     0.163 HD
ATOM     67  O   UNL A   1      35.512  23.424  22.816  1.00  0.00    -0.275 OA
BRANCH  65  68
ATOM     68  C   UNL A   1      34.170  22.303  24.478  1.00  0.00     0.095 C 
ATOM     69  C   UNL A   1      33.410  21.147  23.824  1.00  0.00     0.041 C 
ATOM     70  C   UNL A   1      33.298  23.549  24.736  1.00  0.00     0.095 C 
ATOM     71  C   UNL A   1      32.150  20.855  24.588  1.00  0.00    -0.030 C 
ATOM     72  C   UNL A   1      32.126  23.132  25.663  1.00  0.00     0.041 C 
ATOM     73  C   UNL A   1      31.592  21.738  25.432  1.00  0.00    -0.030 C 
BRANCH  70  74
ATOM     74  C   UNL A   1      32.703  24.210  23.474  1.00  0.00     0.229 C 
ATOM     75  O   UNL A   1      32.571  23.565  22.428  1.00  0.00    -0.274 OA
ATOM     76  N   UNL A   1      32.079  25.433  23.530  1.00  0.00    -0.317 N 
ATOM     77  H   UNL A   1      31.310  25.513  22.920  1.00  0.00     0.170 HD
BRANCH  76  78
ATOM     78  C   UNL A   1      32.321  26.577  24.276  1.00  0.00     0.108 A 
ATOM     79  S   UNL A   1      33.779  26.721  25.110  1.00  0.00    -0.122 S 
ATOM     80  C   UNL A   1      31.561  27.754  24.327  1.00  0.00     0.078 A 
ATOM     81  C   UNL A   1      33.313  28.162  25.842  1.00  0.00     0.011 A 
ATOM     82  C   UNL A   1      32.188  28.707  25.253  1.00  0.00    -0.019 A 
ATOM     83  C   UNL A   1      34.105  28.754  26.965  1.00  0.00     0.047 C 
ATOM     84  C   UNL A   1      31.726  30.072  25.683  1.00  0.00     0.037 C 
ATOM     85  C   UNL A   1      33.358  29.914  27.620  1.00  0.00     0.006 C 
ATOM     86  C   UNL A   1      32.739  30.821  26.566  1.00  0.00     0.005 C 
BRANCH  80  87
ATOM     87  C   UNL A   1      30.258  27.832  23.622  1.00  0.00     0.257 C 
ATOM     88  O   UNL A   1      29.607  26.814  23.378  1.00  0.00    -0.269 OA
ATOM     89  N   UNL A   1      29.715  29.085  23.369  1.00  0.00    -0.339 N 
ATOM     90  C   UNL A   1      28.328  29.324  23.747  1.00  0.00     0.120 C 
ATOM     91  C   UNL A   1      30.288  29.987  22.376  1.00  0.00     0.120 C 
ATOM     92  C   UNL A   1      27.412  29.510  22.540  1.00  0.00     0.022 C 
ATOM     93  C   UNL A   1      29.388  30.152  21.153  1.00  0.00     0.022 C 
ATOM     94  C   UNL A   1      27.979  30.552  21.581  1.00  0.00     0.004 C 
ENDBRANCH  80  87
ENDBRANCH  76  78
ENDBRANCH  70  74
ENDBRANCH  65  68
ENDBRANCH  63  64
ENDBRANCH   1  63
TORSDOF 13
ENDMDL
MODEL 3
REMARK VINA RESULT:     -12.4      4.043      7.215
REMARK SMILES O=C(NCCCNC(=O)[C@@H]1CC=CC[C@@H]1C(=O)Nc1sc2c(c1C(=O)N1CCCCC1)CCCC2)c1ccc(-c2c3nc(c(-c4c(F)cccc4F)c4ccc([nH]4)c(-c4c(F)cccc4F)c4nc(c(-c5c(F)cccc5F)c5ccc2[nH]5)C=C4)C=C3)cc1
REMARK SMILES IDX 5 1 4 2 3 3 1 4 2 5 36 7 37 8 89 9 38 10 88 11 39 12 40 13
REMARK SMILES IDX 41 14 82 15 42 16 87 17 81 18 83 19 43 20 86 21 80 22 79 23
REMARK SMILES IDX 44 25 70 26 53 27 69 28 54 29 57 30 68 31 84 32 55 33 56 34
REMARK SMILES IDX 67 36 85 37 58 38 45 39 46 40 51 41 47 42 48 43 50 44 52 45
REMARK SMILES IDX 49 46 71 47 72 48 77 49 73 50 74 51 76 52 78 53 75 54 59 55
REMARK SMILES IDX 60 56 65 57 61 58 62 59 64 60 66 61 63 62 6 63 7 64 8 65
REMARK SMILES IDX 9 67 10 68 11 69 15 70 12 71 14 72 13 73 16 74 17 75 18 76
REMARK SMILES IDX 19 78 20 79 23 80 21 81 22 82 35 83 32 84 34 85 33 86 24 87
REMARK SMILES IDX 25 88 26 89 27 90 31 91 28 92 30 93 29 94
REMARK H PARENT 3 6 83 24 57 35 7 66 18 77
REMARK Flexibility Score: inf
ROOT
ATOM      1  C   UNL A   1      32.924  29.709  25.255  1.00  0.00     0.042 C 
ENDROOT
BRANCH   1   2
ATOM      2  C   UNL A   1      32.388  30.063  26.632  1.00  0.00     0.118 C 
BRANCH   2   3
ATOM      3  N   UNL A   1      32.126  31.490  26.794  1.00  0.00    -0.352 N 
ATOM      4  O   UNL A   1      32.438  33.576  27.625  1.00  0.00    -0.269 OA
ATOM      5  C   UNL A   1      32.873  32.444  27.443  1.00  0.00     0.251 C 
ATOM      6  H   UNL A   1      31.294  31.816  26.380  1.00  0.00     0.163 HD
BRANCH   5   7
ATOM      7  C   UNL A   1      34.214  32.065  27.921  1.00  0.00     0.039 A 
ATOM      8  C   UNL A   1      34.416  30.762  28.373  1.00  0.00     0.014 A 
ATOM      9  C   UNL A   1      35.234  33.018  28.001  1.00  0.00     0.014 A 
ATOM     10  C   UNL A   1      35.559  30.468  29.092  1.00  0.00     0.010 A 
ATOM     11  C   UNL A   1      36.439  32.678  28.622  1.00  0.00     0.010 A 
ATOM     12  C   UNL A   1      36.592  31.415  29.212  1.00  0.00    -0.014 A 
BRANCH  12  13
ATOM     13  C   UNL A   1      37.825  30.997  29.920  1.00  0.00     0.031 A 
ATOM     14  C   UNL A   1      38.062  31.341  31.362  1.00  0.00     0.074 A 
ATOM     15  C   UNL A   1      38.674  30.185  29.260  1.00  0.00     0.049 A 
ATOM     16  N   UNL A   1      39.024  30.937  32.151  1.00  0.00    -0.248 NA
ATOM     17  C   UNL A   1      37.108  32.260  32.002  1.00  0.00     0.031 C 
ATOM     18  C   UNL A   1      38.539  29.799  27.852  1.00  0.00     0.029 A 
ATOM     19  N   UNL A   1      39.771  29.488  29.691  1.00  0.00    -0.354 N 
ATOM     20  C   UNL A   1      38.806  31.561  33.373  1.00  0.00     0.074 A 
ATOM     21  C   UNL A   1      37.630  32.390  33.216  1.00  0.00     0.031 C 
ATOM     22  C   UNL A   1      39.456  28.867  27.561  1.00  0.00     0.029 A 
ATOM     23  C   UNL A   1      40.286  28.644  28.737  1.00  0.00     0.049 A 
ATOM     24  H   UNL A   1      40.152  29.584  30.593  1.00  0.00     0.167 HD
ATOM     25  C   UNL A   1      39.521  31.447  34.516  1.00  0.00     0.037 A 
ATOM     26  C   UNL A   1      41.316  27.783  28.801  1.00  0.00     0.037 A 
ATOM     27  C   UNL A   1      40.682  30.606  34.664  1.00  0.00     0.049 A 
ATOM     28  C   UNL A   1      42.068  27.656  30.089  1.00  0.00     0.074 A 
ATOM     29  C   UNL A   1      41.485  30.427  35.777  1.00  0.00     0.029 A 
ATOM     30  N   UNL A   1      41.200  29.793  33.666  1.00  0.00    -0.354 N 
ATOM     31  N   UNL A   1      41.854  28.263  31.231  1.00  0.00    -0.248 NA
ATOM     32  C   UNL A   1      43.212  26.736  30.096  1.00  0.00     0.031 C 
ATOM     33  C   UNL A   1      42.503  29.526  35.445  1.00  0.00     0.029 A 
ATOM     34  C   UNL A   1      42.314  29.116  34.135  1.00  0.00     0.049 A 
ATOM     35  H   UNL A   1      40.830  29.710  32.757  1.00  0.00     0.167 HD
ATOM     36  C   UNL A   1      42.841  27.809  32.091  1.00  0.00     0.074 A 
ATOM     37  C   UNL A   1      43.628  26.842  31.350  1.00  0.00     0.031 C 
ATOM     38  C   UNL A   1      43.088  28.172  33.373  1.00  0.00     0.037 A 
BRANCH  25  39
ATOM     39  C   UNL A   1      39.082  32.261  35.699  1.00  0.00     0.057 A 
ATOM     40  C   UNL A   1      38.255  31.726  36.695  1.00  0.00     0.134 A 
ATOM     41  C   UNL A   1      39.533  33.575  35.870  1.00  0.00     0.134 A 
ATOM     42  F   UNL A   1      37.776  30.479  36.585  1.00  0.00    -0.206 F 
ATOM     43  C   UNL A   1      37.885  32.475  37.815  1.00  0.00     0.040 A 
ATOM     44  C   UNL A   1      39.185  34.327  36.994  1.00  0.00     0.040 A 
ATOM     45  F   UNL A   1      40.331  34.146  34.954  1.00  0.00    -0.206 F 
ATOM     46  C   UNL A   1      38.357  33.777  37.970  1.00  0.00     0.006 A 
ENDBRANCH  25  39
BRANCH  26  47
ATOM     47  C   UNL A   1      41.687  26.992  27.602  1.00  0.00     0.057 A 
ATOM     48  C   UNL A   1      42.551  27.503  26.629  1.00  0.00     0.134 A 
ATOM     49  C   UNL A   1      41.205  25.689  27.419  1.00  0.00     0.134 A 
ATOM     50  F   UNL A   1      43.034  28.750  26.743  1.00  0.00    -0.206 F 
ATOM     51  C   UNL A   1      42.917  26.752  25.511  1.00  0.00     0.040 A 
ATOM     52  C   UNL A   1      41.585  24.917  26.322  1.00  0.00     0.040 A 
ATOM     53  F   UNL A   1      40.383  25.138  28.325  1.00  0.00    -0.206 F 
ATOM     54  C   UNL A   1      42.439  25.451  25.360  1.00  0.00     0.006 A 
ENDBRANCH  26  47
BRANCH  38  55
ATOM     55  C   UNL A   1      44.262  27.519  34.034  1.00  0.00     0.057 A 
ATOM     56  C   UNL A   1      44.125  26.320  34.747  1.00  0.00     0.134 A 
ATOM     57  C   UNL A   1      45.536  28.093  33.963  1.00  0.00     0.134 A 
ATOM     58  F   UNL A   1      42.924  25.733  34.864  1.00  0.00    -0.206 F 
ATOM     59  C   UNL A   1      45.211  25.730  35.392  1.00  0.00     0.040 A 
ATOM     60  C   UNL A   1      46.635  27.500  34.585  1.00  0.00     0.040 A 
ATOM     61  F   UNL A   1      45.732  29.237  33.292  1.00  0.00    -0.206 F 
ATOM     62  C   UNL A   1      46.472  26.319  35.309  1.00  0.00     0.006 A 
ENDBRANCH  38  55
ENDBRANCH  12  13
ENDBRANCH   5   7
ENDBRANCH   2   3
ENDBRANCH   1   2
BRANCH   1  63
ATOM     63  C   UNL A   1      33.513  28.313  25.167  1.00  0.00     0.117 C 
BRANCH  63  64
ATOM     64  N   UNL A   1      33.131  27.478  26.297  1.00  0.00    -0.356 N 
ATOM     65  C   UNL A   1      32.241  26.442  26.351  1.00  0.00     0.224 C 
ATOM     66  H   UNL A   1      33.580  27.690  27.147  1.00  0.00     0.163 HD
ATOM     67  O   UNL A   1      32.121  25.825  27.407  1.00  0.00    -0.275 OA
BRANCH  65  68
ATOM     68  C   UNL A   1      31.460  26.108  25.103  1.00  0.00     0.095 C 
ATOM     69  C   UNL A   1      29.956  26.328  25.277  1.00  0.00     0.041 C 
ATOM     70  C   UNL A   1      31.821  24.720  24.534  1.00  0.00     0.095 C 
ATOM     71  C   UNL A   1      29.232  25.990  24.004  1.00  0.00    -0.030 C 
ATOM     72  C   UNL A   1      31.131  24.574  23.152  1.00  0.00     0.041 C 
ATOM     73  C   UNL A   1      29.773  25.224  23.043  1.00  0.00    -0.030 C 
BRANCH  70  74
ATOM     74  C   UNL A   1      31.405  23.520  25.411  1.00  0.00     0.229 C 
ATOM     75  O   UNL A   1      30.254  23.430  25.852  1.00  0.00    -0.274 OA
ATOM     76  N   UNL A   1      32.199  22.404  25.526  1.00  0.00    -0.317 N 
ATOM     77  H   UNL A   1      31.693  21.562  25.593  1.00  0.00     0.170 HD
BRANCH  76  78
ATOM     78  C   UNL A   1      33.575  22.232  25.567  1.00  0.00     0.108 A 
ATOM     79  S   UNL A   1      34.517  23.345  26.414  1.00  0.00    -0.122 S 
ATOM     80  C   UNL A   1      34.324  21.138  25.111  1.00  0.00     0.078 A 
ATOM     81  C   UNL A   1      35.956  22.630  25.916  1.00  0.00     0.011 A 
ATOM     82  C   UNL A   1      35.753  21.383  25.354  1.00  0.00    -0.019 A 
ATOM     83  C   UNL A   1      37.274  23.302  26.135  1.00  0.00     0.047 C 
ATOM     84  C   UNL A   1      36.945  20.539  24.997  1.00  0.00     0.037 C 
ATOM     85  C   UNL A   1      38.396  22.585  25.387  1.00  0.00     0.006 C 
ATOM     86  C   UNL A   1      38.276  21.077  25.552  1.00  0.00     0.005 C 
BRANCH  80  87
ATOM     87  C   UNL A   1      33.662  20.036  24.372  1.00  0.00     0.257 C 
ATOM     88  O   UNL A   1      32.962  20.265  23.384  1.00  0.00    -0.269 OA
ATOM     89  N   UNL A   1      33.961  18.726  24.727  1.00  0.00    -0.339 N 
ATOM     90  C   UNL A   1      34.335  17.795  23.670  1.00  0.00     0.120 C 
ATOM     91  C   UNL A   1      33.497  18.143  25.981  1.00  0.00     0.120 C 
ATOM     92  C   UNL A   1      33.290  16.706  23.448  1.00  0.00     0.022 C 
ATOM     93  C   UNL A   1      32.430  17.073  25.764  1.00  0.00     0.022 C 
ATOM     94  C   UNL A   1      32.918  16.029  24.764  1.00  0.00     0.004 C 
ENDBRANCH  80  87
ENDBRANCH  76  78
ENDBRANCH  70  74
ENDBRANCH  65  68
ENDBRANCH  63  64
ENDBRANCH   1  63
TORSDOF 13
ENDMDL
