MODEL 1
REMARK VINA RESULT:     -10.4      0.000      0.000
REMARK SMILES C#CC[N@H+](CC(=O)NCCCNC(=O)c1ccc(-c2c3nc(c(-c4c(F)cccc4F)c4ccc([nH]4)c(-c4c(F)cccc4F)c4nc(c(-c5c(F)cccc5F)c5ccc2[nH]5)C=C4)C=C3)cc1)[C@H](C)c1ccccc1[N+](=O)[O-]
REMARK SMILES IDX 9 1 8 2 6 3 7 4 5 6 4 7 3 9 2 10 1 11 69 12 70 13 71 14
REMARK SMILES IDX 72 15 76 16 73 17 75 18 74 19 77 20 78 21 79 22 10 23 11 24
REMARK SMILES IDX 12 25 13 26 14 28 15 29 16 30 68 31 17 32 67 33 18 34 19 35
REMARK SMILES IDX 20 36 61 37 21 38 66 39 60 40 62 41 22 42 65 43 59 44 58 45
REMARK SMILES IDX 23 47 49 48 32 49 48 50 33 51 36 52 47 53 63 54 34 55 35 56
REMARK SMILES IDX 46 58 64 59 37 60 24 61 25 62 30 63 26 64 27 65 29 66 31 67
REMARK SMILES IDX 28 68 50 69 51 70 56 71 52 72 53 73 55 74 57 75 54 76 38 77
REMARK SMILES IDX 39 78 44 79 40 80 41 81 43 82 45 83 42 84
REMARK H PARENT 8 5 4 8 12 27 62 46 36 57
REMARK Flexibility Score: inf
ROOT
ATOM      1  C   UNL A   1      31.077  30.610  25.972  1.00  0.00     0.118 C 
ENDROOT
BRANCH   1   2
ATOM      2  N   UNL A   1      30.932  30.324  24.547  1.00  0.00    -0.351 N 
ATOM      3  C   UNL A   1      31.017  29.164  23.816  1.00  0.00     0.275 C 
ATOM      4  O   UNL A   1      30.891  29.265  22.593  1.00  0.00    -0.269 OA
ATOM      5  H   UNL A   1      30.736  31.119  24.002  1.00  0.00     0.163 HD
BRANCH   3   6
ATOM      6  C   UNL A   1      31.201  27.788  24.490  1.00  0.00     0.364 C 
BRANCH   6   7
ATOM      7  N   UNL A   1      32.469  27.059  24.133  1.00  0.00    -0.311 N 
ATOM      8  H   UNL A   1      32.520  26.900  23.127  1.00  0.00     0.349 HD
BRANCH   7   9
ATOM      9  C   UNL A   1      33.619  27.895  24.477  1.00  0.00     0.354 C 
BRANCH   9  10
ATOM     10  C   UNL A   1      33.861  28.397  25.830  1.00  0.00    -0.047 C 
ATOM     11  C   UNL A   1      34.221  28.811  26.904  1.00  0.00     0.010 C 
ENDBRANCH   9  10
ENDBRANCH   7   9
BRANCH   7  12
ATOM     12  C   UNL A   1      32.488  25.681  24.724  1.00  0.00     0.220 C 
ATOM     13  C   UNL A   1      31.950  25.701  26.177  1.00  0.00     0.081 C 
BRANCH  12  14
ATOM     14  C   UNL A   1      33.866  24.999  24.537  1.00  0.00     0.087 A 
ATOM     15  C   UNL A   1      34.738  24.913  25.649  1.00  0.00     0.017 A 
ATOM     16  C   UNL A   1      34.302  24.333  23.373  1.00  0.00     0.278 A 
ATOM     17  C   UNL A   1      35.819  24.023  25.670  1.00  0.00     0.001 A 
ATOM     18  C   UNL A   1      35.378  23.428  23.387  1.00  0.00     0.086 A 
ATOM     19  C   UNL A   1      36.107  23.242  24.557  1.00  0.00     0.007 A 
BRANCH  16  20
ATOM     20  N   UNL A   1      33.727  24.615  22.067  1.00  0.00     0.063 N 
ATOM     21  O   UNL A   1      33.258  23.661  21.430  1.00  0.00    -0.258 OA
ATOM     22  O   UNL A   1      33.774  25.788  21.671  1.00  0.00    -0.258 OA
ENDBRANCH  16  20
ENDBRANCH  12  14
ENDBRANCH   7  12
ENDBRANCH   6   7
ENDBRANCH   3   6
ENDBRANCH   1   2
BRANCH   1  23
ATOM     23  C   UNL A   1      31.226  32.111  26.263  1.00  0.00     0.042 C 
BRANCH  23  24
ATOM     24  C   UNL A   1      32.469  32.475  27.054  1.00  0.00     0.118 C 
BRANCH  24  25
ATOM     25  N   UNL A   1      32.412  33.852  27.494  1.00  0.00    -0.352 N 
ATOM     26  C   UNL A   1      33.159  34.482  28.459  1.00  0.00     0.251 C 
ATOM     27  H   UNL A   1      31.745  34.417  27.038  1.00  0.00     0.163 HD
ATOM     28  O   UNL A   1      32.749  35.534  28.941  1.00  0.00    -0.269 OA
BRANCH  26  29
ATOM     29  C   UNL A   1      34.443  33.904  28.930  1.00  0.00     0.039 A 
ATOM     30  C   UNL A   1      34.422  33.008  30.002  1.00  0.00     0.014 A 
ATOM     31  C   UNL A   1      35.668  34.280  28.371  1.00  0.00     0.014 A 
ATOM     32  C   UNL A   1      35.617  32.472  30.490  1.00  0.00     0.010 A 
ATOM     33  C   UNL A   1      36.848  33.666  28.788  1.00  0.00     0.010 A 
ATOM     34  C   UNL A   1      36.841  32.777  29.871  1.00  0.00    -0.014 A 
BRANCH  34  35
ATOM     35  C   UNL A   1      38.117  32.199  30.367  1.00  0.00     0.031 A 
ATOM     36  C   UNL A   1      38.638  30.904  29.798  1.00  0.00     0.074 A 
ATOM     37  C   UNL A   1      38.792  32.817  31.357  1.00  0.00     0.049 A 
ATOM     38  N   UNL A   1      39.711  30.228  30.126  1.00  0.00    -0.248 NA
ATOM     39  C   UNL A   1      37.837  30.271  28.737  1.00  0.00     0.031 C 
ATOM     40  C   UNL A   1      38.370  34.052  32.023  1.00  0.00     0.029 A 
ATOM     41  N   UNL A   1      39.970  32.491  31.981  1.00  0.00    -0.354 N 
ATOM     42  C   UNL A   1      39.701  29.089  29.329  1.00  0.00     0.074 A 
ATOM     43  C   UNL A   1      38.490  29.135  28.541  1.00  0.00     0.031 C 
ATOM     44  C   UNL A   1      39.288  34.392  32.941  1.00  0.00     0.029 A 
ATOM     45  C   UNL A   1      40.337  33.377  32.965  1.00  0.00     0.049 A 
ATOM     46  H   UNL A   1      40.501  31.696  31.745  1.00  0.00     0.167 HD
ATOM     47  C   UNL A   1      40.627  28.104  29.246  1.00  0.00     0.037 A 
ATOM     48  C   UNL A   1      41.392  33.368  33.801  1.00  0.00     0.037 A 
ATOM     49  C   UNL A   1      41.842  28.074  30.017  1.00  0.00     0.049 A 
ATOM     50  C   UNL A   1      42.399  32.255  33.697  1.00  0.00     0.074 A 
ATOM     51  C   UNL A   1      42.877  27.157  29.955  1.00  0.00     0.029 A 
ATOM     52  N   UNL A   1      42.181  28.994  30.997  1.00  0.00    -0.354 N 
ATOM     53  N   UNL A   1      42.416  31.228  32.881  1.00  0.00    -0.248 NA
ATOM     54  C   UNL A   1      43.537  32.301  34.625  1.00  0.00     0.031 C 
ATOM     55  C   UNL A   1      43.808  27.483  30.945  1.00  0.00     0.029 A 
ATOM     56  C   UNL A   1      43.391  28.646  31.573  1.00  0.00     0.049 A 
ATOM     57  H   UNL A   1      41.642  29.779  31.246  1.00  0.00     0.167 HD
ATOM     58  C   UNL A   1      43.579  30.527  33.176  1.00  0.00     0.074 A 
ATOM     59  C   UNL A   1      44.248  31.255  34.234  1.00  0.00     0.031 C 
ATOM     60  C   UNL A   1      44.050  29.383  32.622  1.00  0.00     0.037 A 
BRANCH  47  61
ATOM     61  C   UNL A   1      40.363  26.970  28.295  1.00  0.00     0.057 A 
ATOM     62  C   UNL A   1      39.536  25.890  28.634  1.00  0.00     0.134 A 
ATOM     63  C   UNL A   1      40.903  26.985  27.003  1.00  0.00     0.134 A 
ATOM     64  F   UNL A   1      38.993  25.806  29.858  1.00  0.00    -0.206 F 
ATOM     65  C   UNL A   1      39.277  24.857  27.731  1.00  0.00     0.040 A 
ATOM     66  C   UNL A   1      40.625  25.975  26.081  1.00  0.00     0.040 A 
ATOM     67  F   UNL A   1      41.697  27.991  26.608  1.00  0.00    -0.206 F 
ATOM     68  C   UNL A   1      39.814  24.903  26.447  1.00  0.00     0.006 A 
ENDBRANCH  47  61
BRANCH  48  69
ATOM     69  C   UNL A   1      41.553  34.445  34.814  1.00  0.00     0.057 A 
ATOM     70  C   UNL A   1      41.037  34.313  36.108  1.00  0.00     0.134 A 
ATOM     71  C   UNL A   1      42.209  35.644  34.503  1.00  0.00     0.134 A 
ATOM     72  F   UNL A   1      40.385  33.197  36.463  1.00  0.00    -0.206 F 
ATOM     73  C   UNL A   1      41.140  35.341  37.047  1.00  0.00     0.040 A 
ATOM     74  C   UNL A   1      42.348  36.667  35.442  1.00  0.00     0.040 A 
ATOM     75  F   UNL A   1      42.737  35.832  33.284  1.00  0.00    -0.206 F 
ATOM     76  C   UNL A   1      41.802  36.522  36.715  1.00  0.00     0.006 A 
ENDBRANCH  48  69
BRANCH  60  77
ATOM     77  C   UNL A   1      45.372  28.869  33.117  1.00  0.00     0.057 A 
ATOM     78  C   UNL A   1      45.466  27.916  34.138  1.00  0.00     0.134 A 
ATOM     79  C   UNL A   1      46.568  29.306  32.532  1.00  0.00     0.134 A 
ATOM     80  F   UNL A   1      44.361  27.461  34.749  1.00  0.00    -0.206 F 
ATOM     81  C   UNL A   1      46.702  27.438  34.580  1.00  0.00     0.040 A 
ATOM     82  C   UNL A   1      47.806  28.812  32.940  1.00  0.00     0.040 A 
ATOM     83  F   UNL A   1      46.551  30.210  31.539  1.00  0.00    -0.206 F 
ATOM     84  C   UNL A   1      47.876  27.881  33.974  1.00  0.00     0.006 A 
ENDBRANCH  60  77
ENDBRANCH  34  35
ENDBRANCH  26  29
ENDBRANCH  24  25
ENDBRANCH  23  24
ENDBRANCH   1  23
TORSDOF 16
ENDMDL
MODEL 2
REMARK VINA RESULT:     -10.3      3.092      7.550
REMARK SMILES C#CC[N@H+](CC(=O)NCCCNC(=O)c1ccc(-c2c3nc(c(-c4c(F)cccc4F)c4ccc([nH]4)c(-c4c(F)cccc4F)c4nc(c(-c5c(F)cccc5F)c5ccc2[nH]5)C=C4)C=C3)cc1)[C@H](C)c1ccccc1[N+](=O)[O-]
REMARK SMILES IDX 9 1 8 2 6 3 7 4 5 6 4 7 3 9 2 10 1 11 69 12 70 13 71 14
REMARK SMILES IDX 72 15 76 16 73 17 75 18 74 19 77 20 78 21 79 22 10 23 11 24
REMARK SMILES IDX 12 25 13 26 14 28 15 29 16 30 68 31 17 32 67 33 18 34 19 35
REMARK SMILES IDX 20 36 61 37 21 38 66 39 60 40 62 41 22 42 65 43 59 44 58 45
REMARK SMILES IDX 23 47 49 48 32 49 48 50 33 51 36 52 47 53 63 54 34 55 35 56
REMARK SMILES IDX 46 58 64 59 37 60 24 61 25 62 30 63 26 64 27 65 29 66 31 67
REMARK SMILES IDX 28 68 50 69 51 70 56 71 52 72 53 73 55 74 57 75 54 76 38 77
REMARK SMILES IDX 39 78 44 79 40 80 41 81 43 82 45 83 42 84
REMARK H PARENT 8 5 4 8 12 27 62 46 36 57
REMARK Flexibility Score: inf
ROOT
ATOM      1  C   UNL A   1      31.487  27.484  26.180  1.00  0.00     0.118 C 
ENDROOT
BRANCH   1   2
ATOM      2  N   UNL A   1      31.415  26.188  26.849  1.00  0.00    -0.351 N 
ATOM      3  C   UNL A   1      31.260  24.906  26.382  1.00  0.00     0.275 C 
ATOM      4  O   UNL A   1      31.185  24.010  27.228  1.00  0.00    -0.269 OA
ATOM      5  H   UNL A   1      31.491  26.244  27.829  1.00  0.00     0.163 HD
BRANCH   3   6
ATOM      6  C   UNL A   1      31.239  24.584  24.873  1.00  0.00     0.364 C 
BRANCH   6   7
ATOM      7  N   UNL A   1      32.291  23.614  24.406  1.00  0.00    -0.311 N 
ATOM      8  H   UNL A   1      32.331  22.804  25.024  1.00  0.00     0.349 HD
BRANCH   7   9
ATOM      9  C   UNL A   1      31.929  23.107  23.083  1.00  0.00     0.354 C 
BRANCH   9  10
ATOM     10  C   UNL A   1      31.973  21.686  22.737  1.00  0.00    -0.047 C 
ATOM     11  C   UNL A   1      32.159  20.513  22.524  1.00  0.00     0.010 C 
ENDBRANCH   9  10
ENDBRANCH   7   9
BRANCH   7  12
ATOM     12  C   UNL A   1      33.662  24.214  24.500  1.00  0.00     0.220 C 
ATOM     13  C   UNL A   1      33.835  25.352  23.462  1.00  0.00     0.081 C 
BRANCH  12  14
ATOM     14  C   UNL A   1      34.764  23.125  24.480  1.00  0.00     0.087 A 
ATOM     15  C   UNL A   1      35.703  23.130  23.420  1.00  0.00     0.017 A 
ATOM     16  C   UNL A   1      35.005  22.180  25.498  1.00  0.00     0.278 A 
ATOM     17  C   UNL A   1      36.913  22.430  23.506  1.00  0.00     0.001 A 
ATOM     18  C   UNL A   1      36.222  21.483  25.599  1.00  0.00     0.086 A 
ATOM     19  C   UNL A   1      37.195  21.649  24.620  1.00  0.00     0.007 A 
BRANCH  16  20
ATOM     20  N   UNL A   1      33.973  21.797  26.449  1.00  0.00     0.063 N 
ATOM     21  O   UNL A   1      33.039  21.100  26.030  1.00  0.00    -0.258 OA
ATOM     22  O   UNL A   1      34.089  22.221  27.607  1.00  0.00    -0.258 OA
ENDBRANCH  16  20
ENDBRANCH  12  14
ENDBRANCH   7  12
ENDBRANCH   6   7
ENDBRANCH   3   6
ENDBRANCH   1   2
BRANCH   1  23
ATOM     23  C   UNL A   1      32.931  27.971  25.984  1.00  0.00     0.042 C 
BRANCH  23  24
ATOM     24  C   UNL A   1      33.648  28.337  27.269  1.00  0.00     0.118 C 
BRANCH  24  25
ATOM     25  N   UNL A   1      33.586  29.765  27.502  1.00  0.00    -0.352 N 
ATOM     26  C   UNL A   1      34.490  30.575  28.144  1.00  0.00     0.251 C 
ATOM     27  H   UNL A   1      32.785  30.218  27.150  1.00  0.00     0.163 HD
ATOM     28  O   UNL A   1      34.124  31.673  28.553  1.00  0.00    -0.269 OA
BRANCH  26  29
ATOM     29  C   UNL A   1      35.892  30.137  28.356  1.00  0.00     0.039 A 
ATOM     30  C   UNL A   1      36.262  29.658  29.615  1.00  0.00     0.014 A 
ATOM     31  C   UNL A   1      36.859  30.250  27.352  1.00  0.00     0.014 A 
ATOM     32  C   UNL A   1      37.583  29.269  29.856  1.00  0.00     0.010 A 
ATOM     33  C   UNL A   1      38.149  29.765  27.561  1.00  0.00     0.010 A 
ATOM     34  C   UNL A   1      38.534  29.296  28.823  1.00  0.00    -0.014 A 
BRANCH  34  35
ATOM     35  C   UNL A   1      39.938  28.867  29.061  1.00  0.00     0.031 A 
ATOM     36  C   UNL A   1      40.921  29.808  29.709  1.00  0.00     0.074 A 
ATOM     37  C   UNL A   1      40.341  27.645  28.660  1.00  0.00     0.049 A 
ATOM     38  N   UNL A   1      42.192  29.628  29.967  1.00  0.00    -0.248 NA
ATOM     39  C   UNL A   1      40.417  31.135  30.098  1.00  0.00     0.031 C 
ATOM     40  C   UNL A   1      39.499  26.658  27.980  1.00  0.00     0.029 A 
ATOM     41  N   UNL A   1      41.562  27.025  28.760  1.00  0.00    -0.354 N 
ATOM     42  C   UNL A   1      42.639  30.819  30.527  1.00  0.00     0.074 A 
ATOM     43  C   UNL A   1      41.520  31.734  30.523  1.00  0.00     0.031 C 
ATOM     44  C   UNL A   1      40.220  25.549  27.750  1.00  0.00     0.029 A 
ATOM     45  C   UNL A   1      41.585  25.762  28.218  1.00  0.00     0.049 A 
ATOM     46  H   UNL A   1      42.347  27.446  29.179  1.00  0.00     0.167 HD
ATOM     47  C   UNL A   1      43.865  31.117  31.020  1.00  0.00     0.037 A 
ATOM     48  C   UNL A   1      42.595  24.879  28.100  1.00  0.00     0.037 A 
ATOM     49  C   UNL A   1      44.970  30.194  31.043  1.00  0.00     0.049 A 
ATOM     50  C   UNL A   1      43.951  25.240  28.645  1.00  0.00     0.074 A 
ATOM     51  C   UNL A   1      46.231  30.377  31.584  1.00  0.00     0.029 A 
ATOM     52  N   UNL A   1      44.951  28.922  30.492  1.00  0.00    -0.354 N 
ATOM     53  N   UNL A   1      44.335  26.342  29.245  1.00  0.00    -0.248 NA
ATOM     54  C   UNL A   1      45.012  24.235  28.501  1.00  0.00     0.031 C 
ATOM     55  C   UNL A   1      46.996  29.242  31.298  1.00  0.00     0.029 A 
ATOM     56  C   UNL A   1      46.189  28.322  30.647  1.00  0.00     0.049 A 
ATOM     57  H   UNL A   1      44.173  28.507  30.056  1.00  0.00     0.167 HD
ATOM     58  C   UNL A   1      45.670  26.147  29.577  1.00  0.00     0.074 A 
ATOM     59  C   UNL A   1      46.023  24.818  29.127  1.00  0.00     0.031 C 
ATOM     60  C   UNL A   1      46.527  26.995  30.199  1.00  0.00     0.037 A 
BRANCH  47  61
ATOM     61  C   UNL A   1      44.085  32.499  31.569  1.00  0.00     0.057 A 
ATOM     62  C   UNL A   1      43.875  32.807  32.920  1.00  0.00     0.134 A 
ATOM     63  C   UNL A   1      44.563  33.524  30.743  1.00  0.00     0.134 A 
ATOM     64  F   UNL A   1      43.409  31.876  33.766  1.00  0.00    -0.206 F 
ATOM     65  C   UNL A   1      44.110  34.089  33.422  1.00  0.00     0.040 A 
ATOM     66  C   UNL A   1      44.832  34.801  31.240  1.00  0.00     0.040 A 
ATOM     67  F   UNL A   1      44.793  33.299  29.440  1.00  0.00    -0.206 F 
ATOM     68  C   UNL A   1      44.599  35.087  32.583  1.00  0.00     0.006 A 
ENDBRANCH  47  61
BRANCH  48  69
ATOM     69  C   UNL A   1      42.367  23.567  27.439  1.00  0.00     0.057 A 
ATOM     70  C   UNL A   1      42.020  22.429  28.177  1.00  0.00     0.134 A 
ATOM     71  C   UNL A   1      42.514  23.415  26.054  1.00  0.00     0.134 A 
ATOM     72  F   UNL A   1      41.881  22.505  29.507  1.00  0.00    -0.206 F 
ATOM     73  C   UNL A   1      41.856  21.184  27.568  1.00  0.00     0.040 A 
ATOM     74  C   UNL A   1      42.321  22.182  25.428  1.00  0.00     0.040 A 
ATOM     75  F   UNL A   1      42.834  24.467  25.286  1.00  0.00    -0.206 F 
ATOM     76  C   UNL A   1      42.003  21.059  26.187  1.00  0.00     0.006 A 
ENDBRANCH  48  69
BRANCH  60  77
ATOM     77  C   UNL A   1      47.918  26.495  30.469  1.00  0.00     0.057 A 
ATOM     78  C   UNL A   1      48.951  26.628  29.533  1.00  0.00     0.134 A 
ATOM     79  C   UNL A   1      48.235  25.910  31.702  1.00  0.00     0.134 A 
ATOM     80  F   UNL A   1      48.715  27.170  28.329  1.00  0.00    -0.206 F 
ATOM     81  C   UNL A   1      50.243  26.170  29.803  1.00  0.00     0.040 A 
ATOM     82  C   UNL A   1      49.529  25.479  31.996  1.00  0.00     0.040 A 
ATOM     83  F   UNL A   1      47.296  25.763  32.649  1.00  0.00    -0.206 F 
ATOM     84  C   UNL A   1      50.536  25.601  31.041  1.00  0.00     0.006 A 
ENDBRANCH  60  77
ENDBRANCH  34  35
ENDBRANCH  26  29
ENDBRANCH  24  25
ENDBRANCH  23  24
ENDBRANCH   1  23
TORSDOF 16
ENDMDL
MODEL 3
REMARK VINA RESULT:     -10.3      1.939      6.526
REMARK SMILES C#CC[N@H+](CC(=O)NCCCNC(=O)c1ccc(-c2c3nc(c(-c4c(F)cccc4F)c4ccc([nH]4)c(-c4c(F)cccc4F)c4nc(c(-c5c(F)cccc5F)c5ccc2[nH]5)C=C4)C=C3)cc1)[C@H](C)c1ccccc1[N+](=O)[O-]
REMARK SMILES IDX 9 1 8 2 6 3 7 4 5 6 4 7 3 9 2 10 1 11 69 12 70 13 71 14
REMARK SMILES IDX 72 15 76 16 73 17 75 18 74 19 77 20 78 21 79 22 10 23 11 24
REMARK SMILES IDX 12 25 13 26 14 28 15 29 16 30 68 31 17 32 67 33 18 34 19 35
REMARK SMILES IDX 20 36 61 37 21 38 66 39 60 40 62 41 22 42 65 43 59 44 58 45
REMARK SMILES IDX 23 47 49 48 32 49 48 50 33 51 36 52 47 53 63 54 34 55 35 56
REMARK SMILES IDX 46 58 64 59 37 60 24 61 25 62 30 63 26 64 27 65 29 66 31 67
REMARK SMILES IDX 28 68 50 69 51 70 56 71 52 72 53 73 55 74 57 75 54 76 38 77
REMARK SMILES IDX 39 78 44 79 40 80 41 81 43 82 45 83 42 84
REMARK H PARENT 8 5 4 8 12 27 62 46 36 57
REMARK Flexibility Score: inf
ROOT
ATOM      1  C   UNL A   1      31.404  30.321  25.075  1.00  0.00     0.118 C 
ENDROOT
BRANCH   1   2
ATOM      2  N   UNL A   1      30.560  30.022  23.921  1.00  0.00    -0.351 N 
ATOM      3  C   UNL A   1      30.736  29.220  22.821  1.00  0.00     0.275 C 
ATOM      4  O   UNL A   1      29.832  29.221  21.980  1.00  0.00    -0.269 OA
ATOM      5  H   UNL A   1      29.693  30.488  23.935  1.00  0.00     0.163 HD
BRANCH   3   6
ATOM      6  C   UNL A   1      31.973  28.312  22.663  1.00  0.00     0.364 C 
BRANCH   6   7
ATOM      7  N   UNL A   1      31.874  26.966  23.330  1.00  0.00    -0.311 N 
ATOM      8  H   UNL A   1      31.164  26.980  24.062  1.00  0.00     0.349 HD
BRANCH   7   9
ATOM      9  C   UNL A   1      31.437  25.972  22.351  1.00  0.00     0.354 C 
BRANCH   9  10
ATOM     10  C   UNL A   1      32.120  25.761  21.073  1.00  0.00    -0.047 C 
ATOM     11  C   UNL A   1      32.538  25.628  19.950  1.00  0.00     0.010 C 
ENDBRANCH   9  10
ENDBRANCH   7   9
BRANCH   7  12
ATOM     12  C   UNL A   1      33.141  26.626  24.056  1.00  0.00     0.220 C 
ATOM     13  C   UNL A   1      33.467  25.117  23.913  1.00  0.00     0.081 C 
BRANCH  12  14
ATOM     14  C   UNL A   1      33.130  27.166  25.508  1.00  0.00     0.087 A 
ATOM     15  C   UNL A   1      34.197  27.992  25.934  1.00  0.00     0.017 A 
ATOM     16  C   UNL A   1      32.078  27.011  26.434  1.00  0.00     0.278 A 
ATOM     17  C   UNL A   1      34.095  28.798  27.075  1.00  0.00     0.001 A 
ATOM     18  C   UNL A   1      31.961  27.823  27.576  1.00  0.00     0.086 A 
ATOM     19  C   UNL A   1      32.954  28.752  27.867  1.00  0.00     0.007 A 
BRANCH  16  20
ATOM     20  N   UNL A   1      31.103  25.938  26.316  1.00  0.00     0.063 N 
ATOM     21  O   UNL A   1      31.370  24.859  26.864  1.00  0.00    -0.258 OA
ATOM     22  O   UNL A   1      30.085  26.172  25.650  1.00  0.00    -0.258 OA
ENDBRANCH  16  20
ENDBRANCH  12  14
ENDBRANCH   7  12
ENDBRANCH   6   7
ENDBRANCH   3   6
ENDBRANCH   1   2
BRANCH   1  23
ATOM     23  C   UNL A   1      31.006  31.627  25.780  1.00  0.00     0.042 C 
BRANCH  23  24
ATOM     24  C   UNL A   1      31.846  31.962  26.998  1.00  0.00     0.118 C 
BRANCH  24  25
ATOM     25  N   UNL A   1      32.066  33.390  27.091  1.00  0.00    -0.352 N 
ATOM     26  C   UNL A   1      32.940  34.077  27.897  1.00  0.00     0.251 C 
ATOM     27  H   UNL A   1      31.514  33.945  26.494  1.00  0.00     0.163 HD
ATOM     28  O   UNL A   1      32.753  35.273  28.100  1.00  0.00    -0.269 OA
BRANCH  26  29
ATOM     29  C   UNL A   1      34.095  33.392  28.530  1.00  0.00     0.039 A 
ATOM     30  C   UNL A   1      35.343  34.022  28.507  1.00  0.00     0.014 A 
ATOM     31  C   UNL A   1      33.980  32.115  29.088  1.00  0.00     0.014 A 
ATOM     32  C   UNL A   1      36.457  33.389  29.065  1.00  0.00     0.010 A 
ATOM     33  C   UNL A   1      35.067  31.531  29.736  1.00  0.00     0.010 A 
ATOM     34  C   UNL A   1      36.325  32.147  29.707  1.00  0.00    -0.014 A 
BRANCH  34  35
ATOM     35  C   UNL A   1      37.498  31.472  30.321  1.00  0.00     0.031 A 
ATOM     36  C   UNL A   1      37.881  31.762  31.750  1.00  0.00     0.074 A 
ATOM     37  C   UNL A   1      38.243  30.624  29.585  1.00  0.00     0.049 A 
ATOM     38  N   UNL A   1      38.889  31.299  32.446  1.00  0.00    -0.248 NA
ATOM     39  C   UNL A   1      37.037  32.717  32.486  1.00  0.00     0.031 C 
ATOM     40  C   UNL A   1      38.005  30.294  28.177  1.00  0.00     0.029 A 
ATOM     41  N   UNL A   1      39.357  29.891  29.912  1.00  0.00    -0.354 N 
ATOM     42  C   UNL A   1      38.808  31.918  33.689  1.00  0.00     0.074 A 
ATOM     43  C   UNL A   1      37.688  32.830  33.635  1.00  0.00     0.031 C 
ATOM     44  C   UNL A   1      38.925  29.404  27.773  1.00  0.00     0.029 A 
ATOM     45  C   UNL A   1      39.847  29.139  28.872  1.00  0.00     0.049 A 
ATOM     46  H   UNL A   1      39.765  29.903  30.808  1.00  0.00     0.167 HD
ATOM     47  C   UNL A   1      39.584  31.729  34.783  1.00  0.00     0.037 A 
ATOM     48  C   UNL A   1      40.926  28.335  28.805  1.00  0.00     0.037 A 
ATOM     49  C   UNL A   1      40.685  30.802  34.839  1.00  0.00     0.049 A 
ATOM     50  C   UNL A   1      41.779  28.152  30.032  1.00  0.00     0.074 A 
ATOM     51  C   UNL A   1      41.488  30.487  35.921  1.00  0.00     0.029 A 
ATOM     52  N   UNL A   1      41.145  30.054  33.767  1.00  0.00    -0.354 N 
ATOM     53  N   UNL A   1      41.640  28.683  31.223  1.00  0.00    -0.248 NA
ATOM     54  C   UNL A   1      42.935  27.254  29.907  1.00  0.00     0.031 C 
ATOM     55  C   UNL A   1      42.476  29.599  35.486  1.00  0.00     0.029 A 
ATOM     56  C   UNL A   1      42.243  29.304  34.152  1.00  0.00     0.049 A 
ATOM     57  H   UNL A   1      40.749  30.054  32.866  1.00  0.00     0.167 HD
ATOM     58  C   UNL A   1      42.670  28.159  31.995  1.00  0.00     0.074 A 
ATOM     59  C   UNL A   1      43.413  27.257  31.142  1.00  0.00     0.031 C 
ATOM     60  C   UNL A   1      42.972  28.404  33.294  1.00  0.00     0.037 A 
BRANCH  47  61
ATOM     61  C   UNL A   1      39.280  32.543  36.010  1.00  0.00     0.057 A 
ATOM     62  C   UNL A   1      38.406  32.090  37.008  1.00  0.00     0.134 A 
ATOM     63  C   UNL A   1      39.911  33.775  36.220  1.00  0.00     0.134 A 
ATOM     64  F   UNL A   1      37.760  30.923  36.867  1.00  0.00    -0.206 F 
ATOM     65  C   UNL A   1      38.154  32.844  38.156  1.00  0.00     0.040 A 
ATOM     66  C   UNL A   1      39.692  34.523  37.378  1.00  0.00     0.040 A 
ATOM     67  F   UNL A   1      40.765  34.267  35.310  1.00  0.00    -0.206 F 
ATOM     68  C   UNL A   1      38.806  34.059  38.347  1.00  0.00     0.006 A 
ENDBRANCH  47  61
BRANCH  48  69
ATOM     69  C   UNL A   1      41.265  27.641  27.535  1.00  0.00     0.057 A 
ATOM     70  C   UNL A   1      40.772  26.363  27.248  1.00  0.00     0.134 A 
ATOM     71  C   UNL A   1      42.109  28.232  26.585  1.00  0.00     0.134 A 
ATOM     72  F   UNL A   1      39.973  25.736  28.122  1.00  0.00    -0.206 F 
ATOM     73  C   UNL A   1      41.128  25.685  26.080  1.00  0.00     0.040 A 
ATOM     74  C   UNL A   1      42.447  27.580  25.399  1.00  0.00     0.040 A 
ATOM     75  F   UNL A   1      42.607  29.461  26.792  1.00  0.00    -0.206 F 
ATOM     76  C   UNL A   1      41.966  26.297  25.149  1.00  0.00     0.006 A 
ENDBRANCH  48  69
BRANCH  60  77
ATOM     77  C   UNL A   1      44.131  27.654  33.886  1.00  0.00     0.057 A 
ATOM     78  C   UNL A   1      43.983  26.384  34.457  1.00  0.00     0.134 A 
ATOM     79  C   UNL A   1      45.423  28.196  33.847  1.00  0.00     0.134 A 
ATOM     80  F   UNL A   1      42.773  25.810  34.537  1.00  0.00    -0.206 F 
ATOM     81  C   UNL A   1      45.072  25.693  34.993  1.00  0.00     0.040 A 
ATOM     82  C   UNL A   1      46.524  27.502  34.348  1.00  0.00     0.040 A 
ATOM     83  F   UNL A   1      45.639  29.404  33.303  1.00  0.00    -0.206 F 
ATOM     84  C   UNL A   1      46.348  26.249  34.932  1.00  0.00     0.006 A 
ENDBRANCH  60  77
ENDBRANCH  34  35
ENDBRANCH  26  29
ENDBRANCH  24  25
ENDBRANCH  23  24
ENDBRANCH   1  23
TORSDOF 16
ENDMDL
