MODEL 1
REMARK VINA RESULT:     -12.5      0.000      0.000
REMARK SMILES O=C(CCOc1cc(-c2ccncc2)nc(-c2ccc(C(F)(F)F)cc2)n1)NCCCNC(=O)c1ccc(-c2c3nc(c(-c4c(F)cccc4F)c4ccc([nH]4)c(-c4c(F)cccc4F)c4nc(c(-c5c(F)cccc5F)c5ccc2[nH]5)C=C4)C=C3)cc1
REMARK SMILES IDX 1 1 2 2 28 3 3 5 4 6 5 7 6 8 7 9 27 10 8 11 16 12 15 13 9 14
REMARK SMILES IDX 10 15 14 16 11 17 13 18 12 19 17 20 18 21 26 22 19 23 25 24
REMARK SMILES IDX 20 25 21 26 22 27 23 28 24 29 29 30 30 31 31 32 32 33 33 34
REMARK SMILES IDX 34 36 35 37 36 38 88 39 37 40 87 41 38 42 39 43 40 44 81 45
REMARK SMILES IDX 41 46 86 47 80 48 82 49 42 50 85 51 79 52 78 53 43 55 69 56
REMARK SMILES IDX 52 57 68 58 53 59 56 60 67 61 83 62 54 63 55 64 66 66 84 67
REMARK SMILES IDX 57 68 44 69 45 70 50 71 46 72 47 73 49 74 51 75 48 76 70 77
REMARK SMILES IDX 71 78 76 79 72 80 73 81 75 82 77 83 74 84 58 85 59 86 64 87
REMARK SMILES IDX 60 88 61 89 63 90 65 91 62 92
REMARK H PARENT 28 4 32 35 82 54 56 65
REMARK Flexibility Score: inf
ROOT
ATOM      1  O   UNL A   1      31.230  24.794  26.887  1.00  0.00    -0.275 OA
ATOM      2  C   UNL A   1      31.533  25.065  25.728  1.00  0.00     0.223 C 
ATOM      3  N   UNL A   1      32.325  26.138  25.378  1.00  0.00    -0.356 N 
ATOM      4  H   UNL A   1      32.638  26.229  24.449  1.00  0.00     0.163 HD
ENDROOT
BRANCH   2   5
ATOM      5  C   UNL A   1      30.915  24.340  24.560  1.00  0.00     0.141 C 
BRANCH   5   6
ATOM      6  C   UNL A   1      31.974  24.180  23.471  1.00  0.00     0.241 C 
BRANCH   6   7
ATOM      7  O   UNL A   1      32.054  22.814  23.064  1.00  0.00    -0.477 OA
BRANCH   7   8
ATOM      8  C   UNL A   1      32.760  21.943  23.844  1.00  0.00     0.217 A 
ATOM      9  C   UNL A   1      32.450  20.608  24.012  1.00  0.00     0.097 A 
ATOM     10  N   UNL A   1      33.917  22.475  24.262  1.00  0.00    -0.193 NA
ATOM     11  C   UNL A   1      33.412  19.813  24.615  1.00  0.00     0.078 A 
ATOM     12  C   UNL A   1      34.763  21.657  24.898  1.00  0.00     0.163 A 
ATOM     13  N   UNL A   1      34.563  20.337  25.081  1.00  0.00    -0.228 NA
BRANCH  11  14
ATOM     14  C   UNL A   1      33.340  18.339  24.585  1.00  0.00     0.003 A 
ATOM     15  C   UNL A   1      32.858  17.614  25.685  1.00  0.00     0.030 A 
ATOM     16  C   UNL A   1      33.713  17.598  23.466  1.00  0.00     0.030 A 
ATOM     17  C   UNL A   1      32.858  16.228  25.669  1.00  0.00     0.111 A 
ATOM     18  C   UNL A   1      33.660  16.209  23.528  1.00  0.00     0.111 A 
ATOM     19  N   UNL A   1      33.268  15.507  24.613  1.00  0.00    -0.265 NA
ENDBRANCH  11  14
BRANCH  12  20
ATOM     20  C   UNL A   1      36.053  22.221  25.297  1.00  0.00     0.019 A 
ATOM     21  C   UNL A   1      36.161  23.563  25.680  1.00  0.00     0.012 A 
ATOM     22  C   UNL A   1      37.221  21.440  25.302  1.00  0.00     0.012 A 
ATOM     23  C   UNL A   1      37.383  24.091  26.112  1.00  0.00     0.014 A 
ATOM     24  C   UNL A   1      38.442  21.955  25.751  1.00  0.00     0.014 A 
ATOM     25  C   UNL A   1      38.529  23.283  26.185  1.00  0.00     0.056 A 
BRANCH  25  26
ATOM     26  C   UNL A   1      39.825  23.843  26.713  1.00  0.00     0.416 C 
ATOM     27  F   UNL A   1      39.766  24.130  28.042  1.00  0.00    -0.166 F 
ATOM     28  F   UNL A   1      40.870  22.982  26.564  1.00  0.00    -0.166 F 
ATOM     29  F   UNL A   1      40.209  24.998  26.099  1.00  0.00    -0.166 F 
ENDBRANCH  25  26
ENDBRANCH  12  20
ENDBRANCH   7   8
ENDBRANCH   6   7
ENDBRANCH   5   6
ENDBRANCH   2   5
BRANCH   3  30
ATOM     30  C   UNL A   1      32.702  27.133  26.359  1.00  0.00     0.117 C 
BRANCH  30  31
ATOM     31  C   UNL A   1      31.823  28.394  26.361  1.00  0.00     0.042 C 
BRANCH  31  32
ATOM     32  C   UNL A   1      32.437  29.641  25.704  1.00  0.00     0.118 C 
BRANCH  32  33
ATOM     33  N   UNL A   1      32.472  30.823  26.551  1.00  0.00    -0.352 N 
ATOM     34  C   UNL A   1      33.390  31.499  27.301  1.00  0.00     0.251 C 
ATOM     35  H   UNL A   1      31.589  31.255  26.594  1.00  0.00     0.163 HD
ATOM     36  O   UNL A   1      33.031  32.583  27.765  1.00  0.00    -0.269 OA
BRANCH  34  37
ATOM     37  C   UNL A   1      34.749  31.027  27.639  1.00  0.00     0.039 A 
ATOM     38  C   UNL A   1      35.672  32.009  28.053  1.00  0.00     0.014 A 
ATOM     39  C   UNL A   1      35.130  29.692  27.668  1.00  0.00     0.014 A 
ATOM     40  C   UNL A   1      36.900  31.650  28.600  1.00  0.00     0.010 A 
ATOM     41  C   UNL A   1      36.330  29.327  28.263  1.00  0.00     0.010 A 
ATOM     42  C   UNL A   1      37.193  30.298  28.783  1.00  0.00    -0.014 A 
BRANCH  42  43
ATOM     43  C   UNL A   1      38.313  29.849  29.634  1.00  0.00     0.031 A 
ATOM     44  C   UNL A   1      38.438  30.360  31.034  1.00  0.00     0.074 A 
ATOM     45  C   UNL A   1      39.294  29.124  29.060  1.00  0.00     0.049 A 
ATOM     46  N   UNL A   1      39.444  30.260  31.861  1.00  0.00    -0.248 NA
ATOM     47  C   UNL A   1      37.300  31.136  31.553  1.00  0.00     0.031 C 
ATOM     48  C   UNL A   1      39.298  28.648  27.672  1.00  0.00     0.029 A 
ATOM     49  N   UNL A   1      40.492  28.686  29.560  1.00  0.00    -0.354 N 
ATOM     50  C   UNL A   1      39.074  30.981  32.987  1.00  0.00     0.074 A 
ATOM     51  C   UNL A   1      37.776  31.560  32.715  1.00  0.00     0.031 C 
ATOM     52  C   UNL A   1      40.428  27.965  27.441  1.00  0.00     0.029 A 
ATOM     53  C   UNL A   1      41.250  27.998  28.643  1.00  0.00     0.049 A 
ATOM     54  H   UNL A   1      40.781  28.849  30.487  1.00  0.00     0.167 HD
ATOM     55  C   UNL A   1      39.755  31.127  34.147  1.00  0.00     0.037 A 
ATOM     56  C   UNL A   1      42.480  27.467  28.761  1.00  0.00     0.037 A 
ATOM     57  C   UNL A   1      41.034  30.516  34.400  1.00  0.00     0.049 A 
ATOM     58  C   UNL A   1      43.196  27.613  30.071  1.00  0.00     0.074 A 
ATOM     59  C   UNL A   1      41.787  30.537  35.558  1.00  0.00     0.029 A 
ATOM     60  N   UNL A   1      41.745  29.767  33.471  1.00  0.00    -0.354 N 
ATOM     61  N   UNL A   1      42.811  28.242  31.156  1.00  0.00    -0.248 NA
ATOM     62  C   UNL A   1      44.514  26.975  30.178  1.00  0.00     0.031 C 
ATOM     63  C   UNL A   1      42.971  29.830  35.319  1.00  0.00     0.029 A 
ATOM     64  C   UNL A   1      42.934  29.330  34.027  1.00  0.00     0.049 A 
ATOM     65  H   UNL A   1      41.447  29.576  32.552  1.00  0.00     0.167 HD
ATOM     66  C   UNL A   1      43.824  28.054  32.085  1.00  0.00     0.074 A 
ATOM     67  C   UNL A   1      44.833  27.237  31.437  1.00  0.00     0.031 C 
ATOM     68  C   UNL A   1      43.914  28.513  33.357  1.00  0.00     0.037 A 
BRANCH  55  69
ATOM     69  C   UNL A   1      39.124  31.968  35.218  1.00  0.00     0.057 A 
ATOM     70  C   UNL A   1      38.361  31.402  36.249  1.00  0.00     0.134 A 
ATOM     71  C   UNL A   1      39.284  33.360  35.225  1.00  0.00     0.134 A 
ATOM     72  F   UNL A   1      38.154  30.077  36.292  1.00  0.00    -0.206 F 
ATOM     73  C   UNL A   1      37.755  32.191  37.228  1.00  0.00     0.040 A 
ATOM     74  C   UNL A   1      38.708  34.156  36.218  1.00  0.00     0.040 A 
ATOM     75  F   UNL A   1      40.002  33.969  34.271  1.00  0.00    -0.206 F 
ATOM     76  C   UNL A   1      37.933  33.571  37.218  1.00  0.00     0.006 A 
ENDBRANCH  55  69
BRANCH  56  77
ATOM     77  C   UNL A   1      43.082  26.722  27.627  1.00  0.00     0.057 A 
ATOM     78  C   UNL A   1      43.689  27.402  26.566  1.00  0.00     0.134 A 
ATOM     79  C   UNL A   1      43.086  25.323  27.580  1.00  0.00     0.134 A 
ATOM     80  F   UNL A   1      43.709  28.743  26.548  1.00  0.00    -0.206 F 
ATOM     81  C   UNL A   1      44.259  26.723  25.488  1.00  0.00     0.040 A 
ATOM     82  C   UNL A   1      43.674  24.628  26.521  1.00  0.00     0.040 A 
ATOM     83  F   UNL A   1      42.534  24.609  28.573  1.00  0.00    -0.206 F 
ATOM     84  C   UNL A   1      44.257  25.329  25.467  1.00  0.00     0.006 A 
ENDBRANCH  56  77
BRANCH  68  85
ATOM     85  C   UNL A   1      45.129  28.109  34.135  1.00  0.00     0.057 A 
ATOM     86  C   UNL A   1      46.285  28.899  34.164  1.00  0.00     0.134 A 
ATOM     87  C   UNL A   1      45.125  26.933  34.896  1.00  0.00     0.134 A 
ATOM     88  F   UNL A   1      46.354  30.029  33.446  1.00  0.00    -0.206 F 
ATOM     89  C   UNL A   1      47.404  28.521  34.907  1.00  0.00     0.040 A 
ATOM     90  C   UNL A   1      46.227  26.558  35.663  1.00  0.00     0.040 A 
ATOM     91  F   UNL A   1      44.045  26.137  34.915  1.00  0.00    -0.206 F 
ATOM     92  C   UNL A   1      47.374  27.352  35.665  1.00  0.00     0.006 A 
ENDBRANCH  68  85
ENDBRANCH  42  43
ENDBRANCH  34  37
ENDBRANCH  32  33
ENDBRANCH  31  32
ENDBRANCH  30  31
ENDBRANCH   3  30
TORSDOF 16
ENDMDL
MODEL 2
REMARK VINA RESULT:     -12.4      0.561      6.037
REMARK SMILES O=C(CCOc1cc(-c2ccncc2)nc(-c2ccc(C(F)(F)F)cc2)n1)NCCCNC(=O)c1ccc(-c2c3nc(c(-c4c(F)cccc4F)c4ccc([nH]4)c(-c4c(F)cccc4F)c4nc(c(-c5c(F)cccc5F)c5ccc2[nH]5)C=C4)C=C3)cc1
REMARK SMILES IDX 1 1 2 2 28 3 3 5 4 6 5 7 6 8 7 9 27 10 8 11 16 12 15 13 9 14
REMARK SMILES IDX 10 15 14 16 11 17 13 18 12 19 17 20 18 21 26 22 19 23 25 24
REMARK SMILES IDX 20 25 21 26 22 27 23 28 24 29 29 30 30 31 31 32 32 33 33 34
REMARK SMILES IDX 34 36 35 37 36 38 88 39 37 40 87 41 38 42 39 43 40 44 81 45
REMARK SMILES IDX 41 46 86 47 80 48 82 49 42 50 85 51 79 52 78 53 43 55 69 56
REMARK SMILES IDX 52 57 68 58 53 59 56 60 67 61 83 62 54 63 55 64 66 66 84 67
REMARK SMILES IDX 57 68 44 69 45 70 50 71 46 72 47 73 49 74 51 75 48 76 70 77
REMARK SMILES IDX 71 78 76 79 72 80 73 81 75 82 77 83 74 84 58 85 59 86 64 87
REMARK SMILES IDX 60 88 61 89 63 90 65 91 62 92
REMARK H PARENT 28 4 32 35 82 54 56 65
REMARK Flexibility Score: inf
ROOT
ATOM      1  O   UNL A   1      30.388  25.307  25.597  1.00  0.00    -0.275 OA
ATOM      2  C   UNL A   1      30.698  25.437  24.415  1.00  0.00     0.223 C 
ATOM      3  N   UNL A   1      30.961  26.654  23.824  1.00  0.00    -0.356 N 
ATOM      4  H   UNL A   1      31.327  26.682  22.911  1.00  0.00     0.163 HD
ENDROOT
BRANCH   2   5
ATOM      5  C   UNL A   1      30.646  24.276  23.454  1.00  0.00     0.141 C 
BRANCH   5   6
ATOM      6  C   UNL A   1      32.060  24.001  22.948  1.00  0.00     0.241 C 
BRANCH   6   7
ATOM      7  O   UNL A   1      32.206  22.616  22.633  1.00  0.00    -0.477 OA
BRANCH   7   8
ATOM      8  C   UNL A   1      32.846  21.809  23.532  1.00  0.00     0.217 A 
ATOM      9  C   UNL A   1      32.525  20.487  23.769  1.00  0.00     0.097 A 
ATOM     10  N   UNL A   1      33.961  22.380  24.007  1.00  0.00    -0.193 NA
ATOM     11  C   UNL A   1      33.434  19.746  24.507  1.00  0.00     0.078 A 
ATOM     12  C   UNL A   1      34.752  21.617  24.770  1.00  0.00     0.163 A 
ATOM     13  N   UNL A   1      34.540  20.312  25.030  1.00  0.00    -0.228 NA
BRANCH  11  14
ATOM     14  C   UNL A   1      33.369  18.273  24.579  1.00  0.00     0.003 A 
ATOM     15  C   UNL A   1      32.536  17.628  25.505  1.00  0.00     0.030 A 
ATOM     16  C   UNL A   1      34.097  17.453  23.719  1.00  0.00     0.030 A 
ATOM     17  C   UNL A   1      32.535  16.246  25.606  1.00  0.00     0.111 A 
ATOM     18  C   UNL A   1      34.018  16.073  23.875  1.00  0.00     0.111 A 
ATOM     19  N   UNL A   1      33.276  15.451  24.817  1.00  0.00    -0.265 NA
ENDBRANCH  11  14
BRANCH  12  20
ATOM     20  C   UNL A   1      36.002  22.219  25.235  1.00  0.00     0.019 A 
ATOM     21  C   UNL A   1      36.036  23.545  25.681  1.00  0.00     0.012 A 
ATOM     22  C   UNL A   1      37.205  21.492  25.243  1.00  0.00     0.012 A 
ATOM     23  C   UNL A   1      37.220  24.106  26.175  1.00  0.00     0.014 A 
ATOM     24  C   UNL A   1      38.386  22.039  25.753  1.00  0.00     0.014 A 
ATOM     25  C   UNL A   1      38.399  23.348  26.248  1.00  0.00     0.056 A 
BRANCH  25  26
ATOM     26  C   UNL A   1      39.651  23.940  26.843  1.00  0.00     0.416 C 
ATOM     27  F   UNL A   1      39.431  24.517  28.056  1.00  0.00    -0.166 F 
ATOM     28  F   UNL A   1      40.628  23.012  27.042  1.00  0.00    -0.166 F 
ATOM     29  F   UNL A   1      40.217  24.908  26.067  1.00  0.00    -0.166 F 
ENDBRANCH  25  26
ENDBRANCH  12  20
ENDBRANCH   7   8
ENDBRANCH   6   7
ENDBRANCH   5   6
ENDBRANCH   2   5
BRANCH   3  30
ATOM     30  C   UNL A   1      30.705  27.892  24.530  1.00  0.00     0.117 C 
BRANCH  30  31
ATOM     31  C   UNL A   1      31.962  28.717  24.848  1.00  0.00     0.042 C 
BRANCH  31  32
ATOM     32  C   UNL A   1      32.338  28.819  26.335  1.00  0.00     0.118 C 
BRANCH  32  33
ATOM     33  N   UNL A   1      32.366  30.173  26.867  1.00  0.00    -0.352 N 
ATOM     34  C   UNL A   1      33.298  31.053  27.337  1.00  0.00     0.251 C 
ATOM     35  H   UNL A   1      31.463  30.562  26.895  1.00  0.00     0.163 HD
ATOM     36  O   UNL A   1      32.908  32.200  27.563  1.00  0.00    -0.269 OA
BRANCH  34  37
ATOM     37  C   UNL A   1      34.710  30.739  27.638  1.00  0.00     0.039 A 
ATOM     38  C   UNL A   1      35.603  31.829  27.676  1.00  0.00     0.014 A 
ATOM     39  C   UNL A   1      35.178  29.476  27.976  1.00  0.00     0.014 A 
ATOM     40  C   UNL A   1      36.899  31.676  28.162  1.00  0.00     0.010 A 
ATOM     41  C   UNL A   1      36.450  29.328  28.512  1.00  0.00     0.010 A 
ATOM     42  C   UNL A   1      37.294  30.435  28.662  1.00  0.00    -0.014 A 
BRANCH  42  43
ATOM     43  C   UNL A   1      38.516  30.272  29.475  1.00  0.00     0.031 A 
ATOM     44  C   UNL A   1      39.638  29.421  28.971  1.00  0.00     0.074 A 
ATOM     45  C   UNL A   1      38.508  30.754  30.733  1.00  0.00     0.049 A 
ATOM     46  N   UNL A   1      40.689  28.982  29.610  1.00  0.00    -0.248 NA
ATOM     47  C   UNL A   1      39.536  28.957  27.579  1.00  0.00     0.031 C 
ATOM     48  C   UNL A   1      37.420  31.527  31.342  1.00  0.00     0.029 A 
ATOM     49  N   UNL A   1      39.431  30.640  31.740  1.00  0.00    -0.354 N 
ATOM     50  C   UNL A   1      41.360  28.168  28.708  1.00  0.00     0.074 A 
ATOM     51  C   UNL A   1      40.568  28.130  27.498  1.00  0.00     0.031 C 
ATOM     52  C   UNL A   1      37.748  31.838  32.604  1.00  0.00     0.029 A 
ATOM     53  C   UNL A   1      39.043  31.245  32.911  1.00  0.00     0.049 A 
ATOM     54  H   UNL A   1      40.290  30.170  31.633  1.00  0.00     0.167 HD
ATOM     55  C   UNL A   1      42.540  27.528  28.878  1.00  0.00     0.037 A 
ATOM     56  C   UNL A   1      39.661  31.300  34.104  1.00  0.00     0.037 A 
ATOM     57  C   UNL A   1      43.320  27.606  30.085  1.00  0.00     0.049 A 
ATOM     58  C   UNL A   1      40.986  30.611  34.252  1.00  0.00     0.074 A 
ATOM     59  C   UNL A   1      44.560  27.058  30.349  1.00  0.00     0.029 A 
ATOM     60  N   UNL A   1      42.928  28.285  31.231  1.00  0.00    -0.354 N 
ATOM     61  N   UNL A   1      41.646  29.897  33.372  1.00  0.00    -0.248 NA
ATOM     62  C   UNL A   1      41.655  30.738  35.552  1.00  0.00     0.031 C 
ATOM     63  C   UNL A   1      44.905  27.375  31.668  1.00  0.00     0.029 A 
ATOM     64  C   UNL A   1      43.899  28.160  32.210  1.00  0.00     0.049 A 
ATOM     65  H   UNL A   1      42.085  28.782  31.333  1.00  0.00     0.167 HD
ATOM     66  C   UNL A   1      42.821  29.511  34.001  1.00  0.00     0.074 A 
ATOM     67  C   UNL A   1      42.787  30.085  35.332  1.00  0.00     0.031 C 
ATOM     68  C   UNL A   1      43.837  28.750  33.523  1.00  0.00     0.037 A 
BRANCH  55  69
ATOM     69  C   UNL A   1      43.050  26.704  27.732  1.00  0.00     0.057 A 
ATOM     70  C   UNL A   1      42.930  25.307  27.715  1.00  0.00     0.134 A 
ATOM     71  C   UNL A   1      43.661  27.311  26.627  1.00  0.00     0.134 A 
ATOM     72  F   UNL A   1      42.370  24.661  28.749  1.00  0.00    -0.206 F 
ATOM     73  C   UNL A   1      43.429  24.542  26.659  1.00  0.00     0.040 A 
ATOM     74  C   UNL A   1      44.136  26.557  25.550  1.00  0.00     0.040 A 
ATOM     75  F   UNL A   1      43.807  28.642  26.574  1.00  0.00    -0.206 F 
ATOM     76  C   UNL A   1      44.028  25.168  25.569  1.00  0.00     0.006 A 
ENDBRANCH  55  69
BRANCH  56  77
ATOM     77  C   UNL A   1      39.054  32.061  35.225  1.00  0.00     0.057 A 
ATOM     78  C   UNL A   1      38.327  31.406  36.224  1.00  0.00     0.134 A 
ATOM     79  C   UNL A   1      39.197  33.449  35.339  1.00  0.00     0.134 A 
ATOM     80  F   UNL A   1      38.147  30.078  36.165  1.00  0.00    -0.206 F 
ATOM     81  C   UNL A   1      37.745  32.102  37.285  1.00  0.00     0.040 A 
ATOM     82  C   UNL A   1      38.642  34.156  36.407  1.00  0.00     0.040 A 
ATOM     83  F   UNL A   1      39.895  34.137  34.422  1.00  0.00    -0.206 F 
ATOM     84  C   UNL A   1      37.907  33.483  37.381  1.00  0.00     0.006 A 
ENDBRANCH  56  77
BRANCH  68  85
ATOM     85  C   UNL A   1      45.004  28.532  34.438  1.00  0.00     0.057 A 
ATOM     86  C   UNL A   1      45.032  27.479  35.360  1.00  0.00     0.134 A 
ATOM     87  C   UNL A   1      46.127  29.365  34.365  1.00  0.00     0.134 A 
ATOM     88  F   UNL A   1      43.980  26.656  35.487  1.00  0.00    -0.206 F 
ATOM     89  C   UNL A   1      46.132  27.275  36.195  1.00  0.00     0.040 A 
ATOM     90  C   UNL A   1      47.243  29.155  35.174  1.00  0.00     0.040 A 
ATOM     91  F   UNL A   1      46.163  30.386  33.495  1.00  0.00    -0.206 F 
ATOM     92  C   UNL A   1      47.244  28.110  36.097  1.00  0.00     0.006 A 
ENDBRANCH  68  85
ENDBRANCH  42  43
ENDBRANCH  34  37
ENDBRANCH  32  33
ENDBRANCH  31  32
ENDBRANCH  30  31
ENDBRANCH   3  30
TORSDOF 16
ENDMDL
MODEL 3
REMARK VINA RESULT:     -12.3      3.548      6.832
REMARK SMILES O=C(CCOc1cc(-c2ccncc2)nc(-c2ccc(C(F)(F)F)cc2)n1)NCCCNC(=O)c1ccc(-c2c3nc(c(-c4c(F)cccc4F)c4ccc([nH]4)c(-c4c(F)cccc4F)c4nc(c(-c5c(F)cccc5F)c5ccc2[nH]5)C=C4)C=C3)cc1
REMARK SMILES IDX 1 1 2 2 28 3 3 5 4 6 5 7 6 8 7 9 27 10 8 11 16 12 15 13 9 14
REMARK SMILES IDX 10 15 14 16 11 17 13 18 12 19 17 20 18 21 26 22 19 23 25 24
REMARK SMILES IDX 20 25 21 26 22 27 23 28 24 29 29 30 30 31 31 32 32 33 33 34
REMARK SMILES IDX 34 36 35 37 36 38 88 39 37 40 87 41 38 42 39 43 40 44 81 45
REMARK SMILES IDX 41 46 86 47 80 48 82 49 42 50 85 51 79 52 78 53 43 55 69 56
REMARK SMILES IDX 52 57 68 58 53 59 56 60 67 61 83 62 54 63 55 64 66 66 84 67
REMARK SMILES IDX 57 68 44 69 45 70 50 71 46 72 47 73 49 74 51 75 48 76 70 77
REMARK SMILES IDX 71 78 76 79 72 80 73 81 75 82 77 83 74 84 58 85 59 86 64 87
REMARK SMILES IDX 60 88 61 89 63 90 65 91 62 92
REMARK H PARENT 28 4 32 35 82 54 56 65
REMARK Flexibility Score: inf
ROOT
ATOM      1  O   UNL A   1      36.259  31.798  27.637  1.00  0.00    -0.275 OA
ATOM      2  C   UNL A   1      35.386  31.051  28.075  1.00  0.00     0.223 C 
ATOM      3  N   UNL A   1      34.372  31.470  28.908  1.00  0.00    -0.356 N 
ATOM      4  H   UNL A   1      33.632  30.857  29.121  1.00  0.00     0.163 HD
ENDROOT
BRANCH   2   5
ATOM      5  C   UNL A   1      35.451  29.559  27.874  1.00  0.00     0.141 C 
BRANCH   5   6
ATOM      6  C   UNL A   1      34.060  29.058  27.491  1.00  0.00     0.241 C 
BRANCH   6   7
ATOM      7  O   UNL A   1      33.567  29.793  26.371  1.00  0.00    -0.477 OA
BRANCH   7   8
ATOM      8  C   UNL A   1      32.480  29.306  25.701  1.00  0.00     0.217 A 
ATOM      9  C   UNL A   1      31.469  30.083  25.170  1.00  0.00     0.097 A 
ATOM     10  N   UNL A   1      32.609  28.000  25.426  1.00  0.00    -0.193 NA
ATOM     11  C   UNL A   1      30.591  29.458  24.300  1.00  0.00     0.078 A 
ATOM     12  C   UNL A   1      31.679  27.456  24.633  1.00  0.00     0.163 A 
ATOM     13  N   UNL A   1      30.677  28.137  24.044  1.00  0.00    -0.228 NA
BRANCH  11  14
ATOM     14  C   UNL A   1      29.664  30.221  23.441  1.00  0.00     0.003 A 
ATOM     15  C   UNL A   1      29.321  29.765  22.159  1.00  0.00     0.030 A 
ATOM     16  C   UNL A   1      29.062  31.404  23.864  1.00  0.00     0.030 A 
ATOM     17  C   UNL A   1      28.503  30.525  21.338  1.00  0.00     0.111 A 
ATOM     18  C   UNL A   1      28.234  32.091  22.982  1.00  0.00     0.111 A 
ATOM     19  N   UNL A   1      27.962  31.694  21.720  1.00  0.00    -0.265 NA
ENDBRANCH  11  14
BRANCH  12  20
ATOM     20  C   UNL A   1      31.857  26.047  24.280  1.00  0.00     0.019 A 
ATOM     21  C   UNL A   1      33.117  25.548  23.932  1.00  0.00     0.012 A 
ATOM     22  C   UNL A   1      30.772  25.153  24.273  1.00  0.00     0.012 A 
ATOM     23  C   UNL A   1      33.298  24.190  23.645  1.00  0.00     0.014 A 
ATOM     24  C   UNL A   1      30.949  23.792  24.007  1.00  0.00     0.014 A 
ATOM     25  C   UNL A   1      32.222  23.292  23.714  1.00  0.00     0.056 A 
BRANCH  25  26
ATOM     26  C   UNL A   1      32.440  21.820  23.468  1.00  0.00     0.416 C 
ATOM     27  F   UNL A   1      31.797  21.037  24.377  1.00  0.00    -0.166 F 
ATOM     28  F   UNL A   1      31.989  21.419  22.246  1.00  0.00    -0.166 F 
ATOM     29  F   UNL A   1      33.750  21.448  23.517  1.00  0.00    -0.166 F 
ENDBRANCH  25  26
ENDBRANCH  12  20
ENDBRANCH   7   8
ENDBRANCH   6   7
ENDBRANCH   5   6
ENDBRANCH   2   5
BRANCH   3  30
ATOM     30  C   UNL A   1      34.380  32.802  29.476  1.00  0.00     0.117 C 
BRANCH  30  31
ATOM     31  C   UNL A   1      33.734  33.878  28.589  1.00  0.00     0.042 C 
BRANCH  31  32
ATOM     32  C   UNL A   1      33.804  35.318  29.122  1.00  0.00     0.118 C 
BRANCH  32  33
ATOM     33  N   UNL A   1      32.898  35.607  30.223  1.00  0.00    -0.352 N 
ATOM     34  C   UNL A   1      32.939  35.614  31.588  1.00  0.00     0.251 C 
ATOM     35  H   UNL A   1      32.009  35.870  29.892  1.00  0.00     0.163 HD
ATOM     36  O   UNL A   1      31.955  36.081  32.165  1.00  0.00    -0.269 OA
BRANCH  34  37
ATOM     37  C   UNL A   1      34.031  35.075  32.423  1.00  0.00     0.039 A 
ATOM     38  C   UNL A   1      33.762  33.876  33.115  1.00  0.00     0.014 A 
ATOM     39  C   UNL A   1      35.310  35.613  32.485  1.00  0.00     0.014 A 
ATOM     40  C   UNL A   1      34.782  33.171  33.748  1.00  0.00     0.010 A 
ATOM     41  C   UNL A   1      36.340  34.887  33.067  1.00  0.00     0.010 A 
ATOM     42  C   UNL A   1      36.093  33.638  33.649  1.00  0.00    -0.014 A 
BRANCH  42  43
ATOM     43  C   UNL A   1      37.252  32.798  34.009  1.00  0.00     0.031 A 
ATOM     44  C   UNL A   1      38.029  33.093  35.253  1.00  0.00     0.074 A 
ATOM     45  C   UNL A   1      37.685  31.895  33.107  1.00  0.00     0.049 A 
ATOM     46  N   UNL A   1      39.186  32.620  35.632  1.00  0.00    -0.248 NA
ATOM     47  C   UNL A   1      37.454  34.095  36.164  1.00  0.00     0.031 C 
ATOM     48  C   UNL A   1      37.037  31.596  31.825  1.00  0.00     0.029 A 
ATOM     49  N   UNL A   1      38.788  31.083  33.113  1.00  0.00    -0.354 N 
ATOM     50  C   UNL A   1      39.491  33.286  36.811  1.00  0.00     0.074 A 
ATOM     51  C   UNL A   1      38.426  34.234  37.054  1.00  0.00     0.031 C 
ATOM     52  C   UNL A   1      37.739  30.652  31.182  1.00  0.00     0.029 A 
ATOM     53  C   UNL A   1      38.911  30.317  31.979  1.00  0.00     0.049 A 
ATOM     54  H   UNL A   1      39.431  31.053  33.858  1.00  0.00     0.167 HD
ATOM     55  C   UNL A   1      40.559  33.102  37.622  1.00  0.00     0.037 A 
ATOM     56  C   UNL A   1      39.875  29.450  31.620  1.00  0.00     0.037 A 
ATOM     57  C   UNL A   1      41.591  32.130  37.369  1.00  0.00     0.049 A 
ATOM     58  C   UNL A   1      41.029  29.240  32.556  1.00  0.00     0.074 A 
ATOM     59  C   UNL A   1      42.683  31.807  38.151  1.00  0.00     0.029 A 
ATOM     60  N   UNL A   1      41.649  31.321  36.242  1.00  0.00    -0.354 N 
ATOM     61  N   UNL A   1      41.278  29.826  33.702  1.00  0.00    -0.248 NA
ATOM     62  C   UNL A   1      42.033  28.247  32.154  1.00  0.00     0.031 C 
ATOM     63  C   UNL A   1      43.423  30.826  37.481  1.00  0.00     0.029 A 
ATOM     64  C   UNL A   1      42.766  30.506  36.303  1.00  0.00     0.049 A 
ATOM     65  H   UNL A   1      40.993  31.326  35.509  1.00  0.00     0.167 HD
ATOM     66  C   UNL A   1      42.451  29.256  34.174  1.00  0.00     0.074 A 
ATOM     67  C   UNL A   1      42.854  28.266  33.194  1.00  0.00     0.031 C 
ATOM     68  C   UNL A   1      43.135  29.525  35.313  1.00  0.00     0.037 A 
BRANCH  55  69
ATOM     69  C   UNL A   1      40.651  33.961  38.849  1.00  0.00     0.057 A 
ATOM     70  C   UNL A   1      41.368  35.165  38.856  1.00  0.00     0.134 A 
ATOM     71  C   UNL A   1      40.010  33.587  40.037  1.00  0.00     0.134 A 
ATOM     72  F   UNL A   1      42.020  35.574  37.756  1.00  0.00    -0.206 F 
ATOM     73  C   UNL A   1      41.473  35.949  40.007  1.00  0.00     0.040 A 
ATOM     74  C   UNL A   1      40.081  34.379  41.185  1.00  0.00     0.040 A 
ATOM     75  F   UNL A   1      39.304  32.449  40.102  1.00  0.00    -0.206 F 
ATOM     76  C   UNL A   1      40.822  35.559  41.174  1.00  0.00     0.006 A 
ENDBRANCH  55  69
BRANCH  56  77
ATOM     77  C   UNL A   1      39.764  28.697  30.345  1.00  0.00     0.057 A 
ATOM     78  C   UNL A   1      39.096  27.469  30.294  1.00  0.00     0.134 A 
ATOM     79  C   UNL A   1      40.300  29.188  29.148  1.00  0.00     0.134 A 
ATOM     80  F   UNL A   1      38.571  26.942  31.410  1.00  0.00    -0.206 F 
ATOM     81  C   UNL A   1      38.983  26.743  29.107  1.00  0.00     0.040 A 
ATOM     82  C   UNL A   1      40.172  28.486  27.947  1.00  0.00     0.040 A 
ATOM     83  F   UNL A   1      40.939  30.367  29.123  1.00  0.00    -0.206 F 
ATOM     84  C   UNL A   1      39.519  27.256  27.926  1.00  0.00     0.006 A 
ENDBRANCH  56  77
BRANCH  68  85
ATOM     85  C   UNL A   1      44.366  28.710  35.570  1.00  0.00     0.057 A 
ATOM     86  C   UNL A   1      45.629  29.119  35.125  1.00  0.00     0.134 A 
ATOM     87  C   UNL A   1      44.287  27.520  36.305  1.00  0.00     0.134 A 
ATOM     88  F   UNL A   1      45.766  30.242  34.404  1.00  0.00    -0.206 F 
ATOM     89  C   UNL A   1      46.771  28.360  35.385  1.00  0.00     0.040 A 
ATOM     90  C   UNL A   1      45.425  26.767  36.594  1.00  0.00     0.040 A 
ATOM     91  F   UNL A   1      43.106  27.080  36.764  1.00  0.00    -0.206 F 
ATOM     92  C   UNL A   1      46.671  27.184  36.128  1.00  0.00     0.006 A 
ENDBRANCH  68  85
ENDBRANCH  42  43
ENDBRANCH  34  37
ENDBRANCH  32  33
ENDBRANCH  31  32
ENDBRANCH  30  31
ENDBRANCH   3  30
TORSDOF 16
ENDMDL
