MODEL 1
REMARK VINA RESULT:     -12.2      0.000      0.000
REMARK SMILES CC(C)c1ccc([C@]2(C(=O)NCCCNC(=O)c3ccc(-c4c5nc(c(-c6c(F)cccc6F)c6ccc([nH]6)c(-c6c(F)cccc6F)c6nc(c(-c7c(F)cccc7F)c7ccc4[nH]7)C=C6)C=C5)cc3)CCC[C@@H]2C)cc1
REMARK SMILES IDX 13 1 12 2 11 3 9 4 10 5 8 7 72 8 75 9 73 10 74 11 76 12 7 13
REMARK SMILES IDX 4 14 5 15 78 16 6 17 77 18 2 19 1 20 3 21 14 22 15 23 16 24
REMARK SMILES IDX 17 26 18 27 19 28 71 29 20 30 70 31 21 32 22 33 23 34 64 35
REMARK SMILES IDX 24 36 69 37 63 38 65 39 25 40 68 41 62 42 61 43 26 45 52 46
REMARK SMILES IDX 35 47 51 48 36 49 39 50 50 51 66 52 37 53 38 54 49 56 67 57
REMARK SMILES IDX 40 58 27 59 28 60 33 61 29 62 30 63 32 64 34 65 31 66 53 67
REMARK SMILES IDX 54 68 59 69 55 70 56 71 58 72 60 73 57 74 41 75 42 76 47 77
REMARK SMILES IDX 43 78 44 79 46 80 48 81 45 82
REMARK H PARENT 11 6 15 25 65 44 39 55
REMARK Flexibility Score: inf
ROOT
ATOM      1  C   UNL A   1      31.594  29.524  27.229  1.00  0.00     0.042 C 
ENDROOT
BRANCH   1   2
ATOM      2  C   UNL A   1      32.144  28.132  27.479  1.00  0.00     0.117 C 
BRANCH   2   3
ATOM      3  N   UNL A   1      31.213  27.087  27.168  1.00  0.00    -0.355 N 
ATOM      4  C   UNL A   1      31.129  26.211  26.140  1.00  0.00     0.230 C 
ATOM      5  O   UNL A   1      30.516  25.184  26.469  1.00  0.00    -0.274 OA
ATOM      6  H   UNL A   1      30.494  26.986  27.834  1.00  0.00     0.163 HD
BRANCH   4   7
ATOM      7  C   UNL A   1      31.655  26.426  24.645  1.00  0.00     0.077 C 
ATOM      8  C   UNL A   1      33.085  27.024  24.620  1.00  0.00     0.022 C 
ATOM      9  C   UNL A   1      31.830  25.121  23.770  1.00  0.00     0.006 C 
ATOM     10  C   UNL A   1      34.087  25.916  24.312  1.00  0.00     0.002 C 
ATOM     11  C   UNL A   1      33.306  24.690  23.880  1.00  0.00     0.005 C 
ATOM     12  C   UNL A   1      31.611  25.221  22.243  1.00  0.00     0.009 C 
BRANCH   7  13
ATOM     13  C   UNL A   1      30.637  27.454  24.056  1.00  0.00    -0.032 A 
ATOM     14  C   UNL A   1      28.769  29.348  23.035  1.00  0.00    -0.045 A 
ATOM     15  C   UNL A   1      28.378  28.041  23.337  1.00  0.00     0.004 A 
ATOM     16  C   UNL A   1      30.076  29.731  23.357  1.00  0.00     0.004 A 
ATOM     17  C   UNL A   1      29.283  27.130  23.886  1.00  0.00     0.005 A 
ATOM     18  C   UNL A   1      30.995  28.799  23.850  1.00  0.00     0.005 A 
BRANCH  14  19
ATOM     19  C   UNL A   1      27.756  30.300  22.426  1.00  0.00     0.013 C 
ATOM     20  C   UNL A   1      27.603  31.551  23.292  1.00  0.00     0.012 C 
ATOM     21  C   UNL A   1      28.062  30.679  20.974  1.00  0.00     0.012 C 
ENDBRANCH  14  19
ENDBRANCH   7  13
ENDBRANCH   4   7
ENDBRANCH   2   3
ENDBRANCH   1   2
BRANCH   1  22
ATOM     22  C   UNL A   1      32.556  30.386  26.428  1.00  0.00     0.118 C 
BRANCH  22  23
ATOM     23  N   UNL A   1      32.322  31.812  26.645  1.00  0.00    -0.352 N 
ATOM     24  C   UNL A   1      32.975  32.706  27.460  1.00  0.00     0.251 C 
ATOM     25  H   UNL A   1      31.577  32.193  26.126  1.00  0.00     0.163 HD
ATOM     26  O   UNL A   1      32.491  33.805  27.684  1.00  0.00    -0.269 OA
BRANCH  24  27
ATOM     27  C   UNL A   1      34.264  32.322  28.068  1.00  0.00     0.039 A 
ATOM     28  C   UNL A   1      35.333  33.221  28.046  1.00  0.00     0.014 A 
ATOM     29  C   UNL A   1      34.406  31.069  28.660  1.00  0.00     0.014 A 
ATOM     30  C   UNL A   1      36.527  32.885  28.686  1.00  0.00     0.010 A 
ATOM     31  C   UNL A   1      35.546  30.784  29.392  1.00  0.00     0.010 A 
ATOM     32  C   UNL A   1      36.627  31.678  29.394  1.00  0.00    -0.014 A 
BRANCH  32  33
ATOM     33  C   UNL A   1      37.859  31.271  30.110  1.00  0.00     0.031 A 
ATOM     34  C   UNL A   1      38.795  30.300  29.445  1.00  0.00     0.074 A 
ATOM     35  C   UNL A   1      38.066  31.662  31.380  1.00  0.00     0.049 A 
ATOM     36  N   UNL A   1      39.800  29.635  29.953  1.00  0.00    -0.248 NA
ATOM     37  C   UNL A   1      38.526  29.995  28.030  1.00  0.00     0.031 C 
ATOM     38  C   UNL A   1      37.206  32.568  32.142  1.00  0.00     0.029 A 
ATOM     39  N   UNL A   1      39.055  31.318  32.265  1.00  0.00    -0.354 N 
ATOM     40  C   UNL A   1      40.251  28.807  28.933  1.00  0.00     0.074 A 
ATOM     41  C   UNL A   1      39.372  29.004  27.803  1.00  0.00     0.031 C 
ATOM     42  C   UNL A   1      37.709  32.714  33.378  1.00  0.00     0.029 A 
ATOM     43  C   UNL A   1      38.896  31.875  33.511  1.00  0.00     0.049 A 
ATOM     44  H   UNL A   1      39.807  30.726  32.031  1.00  0.00     0.167 HD
ATOM     45  C   UNL A   1      41.319  27.976  28.930  1.00  0.00     0.037 A 
ATOM     46  C   UNL A   1      39.615  31.708  34.635  1.00  0.00     0.037 A 
ATOM     47  C   UNL A   1      42.208  27.818  30.049  1.00  0.00     0.049 A 
ATOM     48  C   UNL A   1      40.805  30.788  34.612  1.00  0.00     0.074 A 
ATOM     49  C   UNL A   1      43.355  27.052  30.139  1.00  0.00     0.029 A 
ATOM     50  N   UNL A   1      42.045  28.448  31.275  1.00  0.00    -0.354 N 
ATOM     51  N   UNL A   1      41.255  30.046  33.629  1.00  0.00    -0.248 NA
ATOM     52  C   UNL A   1      41.590  30.686  35.850  1.00  0.00     0.031 C 
ATOM     53  C   UNL A   1      43.864  27.184  31.435  1.00  0.00     0.029 A 
ATOM     54  C   UNL A   1      43.065  28.076  32.134  1.00  0.00     0.049 A 
ATOM     55  H   UNL A   1      41.315  29.066  31.501  1.00  0.00     0.167 HD
ATOM     56  C   UNL A   1      42.394  29.418  34.115  1.00  0.00     0.074 A 
ATOM     57  C   UNL A   1      42.566  29.867  35.482  1.00  0.00     0.031 C 
ATOM     58  C   UNL A   1      43.228  28.554  33.485  1.00  0.00     0.037 A 
BRANCH  45  59
ATOM     59  C   UNL A   1      41.569  27.181  27.681  1.00  0.00     0.057 A 
ATOM     60  C   UNL A   1      41.065  25.882  27.513  1.00  0.00     0.134 A 
ATOM     61  C   UNL A   1      42.334  27.713  26.636  1.00  0.00     0.134 A 
ATOM     62  F   UNL A   1      40.336  25.305  28.480  1.00  0.00    -0.206 F 
ATOM     63  C   UNL A   1      41.352  25.126  26.374  1.00  0.00     0.040 A 
ATOM     64  C   UNL A   1      42.597  26.980  25.477  1.00  0.00     0.040 A 
ATOM     65  F   UNL A   1      42.843  28.950  26.724  1.00  0.00    -0.206 F 
ATOM     66  C   UNL A   1      42.117  25.679  25.350  1.00  0.00     0.006 A 
ENDBRANCH  45  59
BRANCH  46  67
ATOM     67  C   UNL A   1      39.240  32.450  35.866  1.00  0.00     0.057 A 
ATOM     68  C   UNL A   1      39.728  33.739  36.106  1.00  0.00     0.134 A 
ATOM     69  C   UNL A   1      38.366  31.904  36.814  1.00  0.00     0.134 A 
ATOM     70  F   UNL A   1      40.580  34.308  35.241  1.00  0.00    -0.206 F 
ATOM     71  C   UNL A   1      39.372  34.455  37.249  1.00  0.00     0.040 A 
ATOM     72  C   UNL A   1      37.981  32.619  37.950  1.00  0.00     0.040 A 
ATOM     73  F   UNL A   1      37.852  30.679  36.636  1.00  0.00    -0.206 F 
ATOM     74  C   UNL A   1      38.490  33.897  38.172  1.00  0.00     0.006 A 
ENDBRANCH  46  67
BRANCH  58  75
ATOM     75  C   UNL A   1      44.434  28.079  34.238  1.00  0.00     0.057 A 
ATOM     76  C   UNL A   1      45.636  28.796  34.248  1.00  0.00     0.134 A 
ATOM     77  C   UNL A   1      44.359  26.925  35.030  1.00  0.00     0.134 A 
ATOM     78  F   UNL A   1      45.774  29.902  33.502  1.00  0.00    -0.206 F 
ATOM     79  C   UNL A   1      46.726  28.376  35.011  1.00  0.00     0.040 A 
ATOM     80  C   UNL A   1      45.434  26.510  35.818  1.00  0.00     0.040 A 
ATOM     81  F   UNL A   1      43.232  26.198  35.071  1.00  0.00    -0.206 F 
ATOM     82  C   UNL A   1      46.622  27.236  35.807  1.00  0.00     0.006 A 
ENDBRANCH  58  75
ENDBRANCH  32  33
ENDBRANCH  24  27
ENDBRANCH  22  23
ENDBRANCH   1  22
TORSDOF 12
ENDMDL
MODEL 2
REMARK VINA RESULT:     -12.2      3.812      7.935
REMARK SMILES CC(C)c1ccc([C@]2(C(=O)NCCCNC(=O)c3ccc(-c4c5nc(c(-c6c(F)cccc6F)c6ccc([nH]6)c(-c6c(F)cccc6F)c6nc(c(-c7c(F)cccc7F)c7ccc4[nH]7)C=C6)C=C5)cc3)CCC[C@@H]2C)cc1
REMARK SMILES IDX 13 1 12 2 11 3 9 4 10 5 8 7 72 8 75 9 73 10 74 11 76 12 7 13
REMARK SMILES IDX 4 14 5 15 78 16 6 17 77 18 2 19 1 20 3 21 14 22 15 23 16 24
REMARK SMILES IDX 17 26 18 27 19 28 71 29 20 30 70 31 21 32 22 33 23 34 64 35
REMARK SMILES IDX 24 36 69 37 63 38 65 39 25 40 68 41 62 42 61 43 26 45 52 46
REMARK SMILES IDX 35 47 51 48 36 49 39 50 50 51 66 52 37 53 38 54 49 56 67 57
REMARK SMILES IDX 40 58 27 59 28 60 33 61 29 62 30 63 32 64 34 65 31 66 53 67
REMARK SMILES IDX 54 68 59 69 55 70 56 71 58 72 60 73 57 74 41 75 42 76 47 77
REMARK SMILES IDX 43 78 44 79 46 80 48 81 45 82
REMARK H PARENT 11 6 15 25 65 44 39 55
REMARK Flexibility Score: inf
ROOT
ATOM      1  C   UNL A   1      34.383  28.504  25.754  1.00  0.00     0.042 C 
ENDROOT
BRANCH   1   2
ATOM      2  C   UNL A   1      33.330  28.386  24.668  1.00  0.00     0.117 C 
BRANCH   2   3
ATOM      3  N   UNL A   1      33.788  27.682  23.505  1.00  0.00    -0.355 N 
ATOM      4  C   UNL A   1      33.462  26.480  22.975  1.00  0.00     0.230 C 
ATOM      5  O   UNL A   1      33.685  26.448  21.755  1.00  0.00    -0.274 OA
ATOM      6  H   UNL A   1      34.474  28.168  22.992  1.00  0.00     0.163 HD
BRANCH   4   7
ATOM      7  C   UNL A   1      32.929  25.192  23.760  1.00  0.00     0.077 C 
ATOM      8  C   UNL A   1      32.189  25.582  25.065  1.00  0.00     0.022 C 
ATOM      9  C   UNL A   1      31.843  24.319  23.015  1.00  0.00     0.006 C 
ATOM     10  C   UNL A   1      30.684  25.484  24.837  1.00  0.00     0.002 C 
ATOM     11  C   UNL A   1      30.459  24.790  23.509  1.00  0.00     0.005 C 
ATOM     12  C   UNL A   1      31.807  22.797  23.284  1.00  0.00     0.009 C 
BRANCH   7  13
ATOM     13  C   UNL A   1      34.241  24.418  24.102  1.00  0.00    -0.032 A 
ATOM     14  C   UNL A   1      36.666  23.051  24.713  1.00  0.00    -0.045 A 
ATOM     15  C   UNL A   1      36.092  22.967  23.441  1.00  0.00     0.004 A 
ATOM     16  C   UNL A   1      36.077  23.917  25.641  1.00  0.00     0.004 A 
ATOM     17  C   UNL A   1      34.932  23.680  23.129  1.00  0.00     0.005 A 
ATOM     18  C   UNL A   1      34.882  24.581  25.344  1.00  0.00     0.005 A 
BRANCH  14  19
ATOM     19  C   UNL A   1      37.918  22.249  25.012  1.00  0.00     0.013 C 
ATOM     20  C   UNL A   1      38.578  22.737  26.302  1.00  0.00     0.012 C 
ATOM     21  C   UNL A   1      37.684  20.735  25.062  1.00  0.00     0.012 C 
ENDBRANCH  14  19
ENDBRANCH   7  13
ENDBRANCH   4   7
ENDBRANCH   2   3
ENDBRANCH   1   2
BRANCH   1  22
ATOM     22  C   UNL A   1      33.767  28.632  27.137  1.00  0.00     0.118 C 
BRANCH  22  23
ATOM     23  N   UNL A   1      33.751  30.017  27.603  1.00  0.00    -0.352 N 
ATOM     24  C   UNL A   1      34.684  30.723  28.324  1.00  0.00     0.251 C 
ATOM     25  H   UNL A   1      32.943  30.525  27.362  1.00  0.00     0.163 HD
ATOM     26  O   UNL A   1      34.394  31.802  28.819  1.00  0.00    -0.269 OA
BRANCH  24  27
ATOM     27  C   UNL A   1      36.037  30.162  28.502  1.00  0.00     0.039 A 
ATOM     28  C   UNL A   1      36.965  30.253  27.461  1.00  0.00     0.014 A 
ATOM     29  C   UNL A   1      36.381  29.546  29.704  1.00  0.00     0.014 A 
ATOM     30  C   UNL A   1      38.266  29.787  27.658  1.00  0.00     0.010 A 
ATOM     31  C   UNL A   1      37.699  29.192  29.938  1.00  0.00     0.010 A 
ATOM     32  C   UNL A   1      38.650  29.287  28.911  1.00  0.00    -0.014 A 
BRANCH  32  33
ATOM     33  C   UNL A   1      40.019  28.795  29.190  1.00  0.00     0.031 A 
ATOM     34  C   UNL A   1      41.021  29.740  29.792  1.00  0.00     0.074 A 
ATOM     35  C   UNL A   1      40.391  27.565  28.793  1.00  0.00     0.049 A 
ATOM     36  N   UNL A   1      42.316  29.610  29.917  1.00  0.00    -0.248 NA
ATOM     37  C   UNL A   1      40.498  31.033  30.266  1.00  0.00     0.031 C 
ATOM     38  C   UNL A   1      39.518  26.575  28.161  1.00  0.00     0.029 A 
ATOM     39  N   UNL A   1      41.617  26.950  28.835  1.00  0.00    -0.354 N 
ATOM     40  C   UNL A   1      42.762  30.816  30.442  1.00  0.00     0.074 A 
ATOM     41  C   UNL A   1      41.613  31.686  30.549  1.00  0.00     0.031 C 
ATOM     42  C   UNL A   1      40.234  25.473  27.882  1.00  0.00     0.029 A 
ATOM     43  C   UNL A   1      41.624  25.699  28.269  1.00  0.00     0.049 A 
ATOM     44  H   UNL A   1      42.416  27.367  29.233  1.00  0.00     0.167 HD
ATOM     45  C   UNL A   1      44.014  31.159  30.824  1.00  0.00     0.037 A 
ATOM     46  C   UNL A   1      42.642  24.844  28.065  1.00  0.00     0.037 A 
ATOM     47  C   UNL A   1      45.141  30.270  30.747  1.00  0.00     0.049 A 
ATOM     48  C   UNL A   1      44.025  25.236  28.505  1.00  0.00     0.074 A 
ATOM     49  C   UNL A   1      46.442  30.487  31.162  1.00  0.00     0.029 A 
ATOM     50  N   UNL A   1      45.094  28.986  30.221  1.00  0.00    -0.354 N 
ATOM     51  N   UNL A   1      44.431  26.360  29.047  1.00  0.00    -0.248 NA
ATOM     52  C   UNL A   1      45.090  24.242  28.313  1.00  0.00     0.031 C 
ATOM     53  C   UNL A   1      47.193  29.350  30.847  1.00  0.00     0.029 A 
ATOM     54  C   UNL A   1      46.347  28.404  30.287  1.00  0.00     0.049 A 
ATOM     55  H   UNL A   1      44.290  28.554  29.855  1.00  0.00     0.167 HD
ATOM     56  C   UNL A   1      45.788  26.196  29.294  1.00  0.00     0.074 A 
ATOM     57  C   UNL A   1      46.136  24.864  28.842  1.00  0.00     0.031 C 
ATOM     58  C   UNL A   1      46.665  27.067  29.851  1.00  0.00     0.037 A 
BRANCH  45  59
ATOM     59  C   UNL A   1      44.216  32.550  31.352  1.00  0.00     0.057 A 
ATOM     60  C   UNL A   1      44.554  33.623  30.513  1.00  0.00     0.134 A 
ATOM     61  C   UNL A   1      44.084  32.823  32.719  1.00  0.00     0.134 A 
ATOM     62  F   UNL A   1      44.710  33.430  29.194  1.00  0.00    -0.206 F 
ATOM     63  C   UNL A   1      44.798  34.901  31.019  1.00  0.00     0.040 A 
ATOM     64  C   UNL A   1      44.291  34.104  33.232  1.00  0.00     0.040 A 
ATOM     65  F   UNL A   1      43.757  31.848  33.581  1.00  0.00    -0.206 F 
ATOM     66  C   UNL A   1      44.662  35.144  32.383  1.00  0.00     0.006 A 
ENDBRANCH  45  59
BRANCH  46  67
ATOM     67  C   UNL A   1      42.380  23.524  27.436  1.00  0.00     0.057 A 
ATOM     68  C   UNL A   1      42.511  23.347  26.054  1.00  0.00     0.134 A 
ATOM     69  C   UNL A   1      42.020  22.406  28.199  1.00  0.00     0.134 A 
ATOM     70  F   UNL A   1      42.839  24.384  25.270  1.00  0.00    -0.206 F 
ATOM     71  C   UNL A   1      42.283  22.110  25.450  1.00  0.00     0.040 A 
ATOM     72  C   UNL A   1      41.814  21.157  27.611  1.00  0.00     0.040 A 
ATOM     73  F   UNL A   1      41.892  22.506  29.529  1.00  0.00    -0.206 F 
ATOM     74  C   UNL A   1      41.940  21.008  26.231  1.00  0.00     0.006 A 
ENDBRANCH  46  67
BRANCH  58  75
ATOM     75  C   UNL A   1      48.073  26.594  30.062  1.00  0.00     0.057 A 
ATOM     76  C   UNL A   1      49.093  26.862  29.142  1.00  0.00     0.134 A 
ATOM     77  C   UNL A   1      48.422  25.930  31.245  1.00  0.00     0.134 A 
ATOM     78  F   UNL A   1      48.822  27.484  27.986  1.00  0.00    -0.206 F 
ATOM     79  C   UNL A   1      50.412  26.476  29.388  1.00  0.00     0.040 A 
ATOM     80  C   UNL A   1      49.741  25.562  31.514  1.00  0.00     0.040 A 
ATOM     81  F   UNL A   1      47.491  25.652  32.171  1.00  0.00    -0.206 F 
ATOM     82  C   UNL A   1      50.739  25.834  30.583  1.00  0.00     0.006 A 
ENDBRANCH  58  75
ENDBRANCH  32  33
ENDBRANCH  24  27
ENDBRANCH  22  23
ENDBRANCH   1  22
TORSDOF 12
ENDMDL
MODEL 3
REMARK VINA RESULT:     -12.1      4.494      8.738
REMARK SMILES CC(C)c1ccc([C@]2(C(=O)NCCCNC(=O)c3ccc(-c4c5nc(c(-c6c(F)cccc6F)c6ccc([nH]6)c(-c6c(F)cccc6F)c6nc(c(-c7c(F)cccc7F)c7ccc4[nH]7)C=C6)C=C5)cc3)CCC[C@@H]2C)cc1
REMARK SMILES IDX 13 1 12 2 11 3 9 4 10 5 8 7 72 8 75 9 73 10 74 11 76 12 7 13
REMARK SMILES IDX 4 14 5 15 78 16 6 17 77 18 2 19 1 20 3 21 14 22 15 23 16 24
REMARK SMILES IDX 17 26 18 27 19 28 71 29 20 30 70 31 21 32 22 33 23 34 64 35
REMARK SMILES IDX 24 36 69 37 63 38 65 39 25 40 68 41 62 42 61 43 26 45 52 46
REMARK SMILES IDX 35 47 51 48 36 49 39 50 50 51 66 52 37 53 38 54 49 56 67 57
REMARK SMILES IDX 40 58 27 59 28 60 33 61 29 62 30 63 32 64 34 65 31 66 53 67
REMARK SMILES IDX 54 68 59 69 55 70 56 71 58 72 60 73 57 74 41 75 42 76 47 77
REMARK SMILES IDX 43 78 44 79 46 80 48 81 45 82
REMARK H PARENT 11 6 15 25 65 44 39 55
REMARK Flexibility Score: inf
ROOT
ATOM      1  C   UNL A   1      37.534  21.123  24.410  1.00  0.00     0.042 C 
ENDROOT
BRANCH   1   2
ATOM      2  C   UNL A   1      37.022  22.542  24.245  1.00  0.00     0.117 C 
BRANCH   2   3
ATOM      3  N   UNL A   1      35.972  22.660  23.275  1.00  0.00    -0.355 N 
ATOM      4  C   UNL A   1      34.661  22.976  23.379  1.00  0.00     0.230 C 
ATOM      5  O   UNL A   1      34.225  23.450  22.318  1.00  0.00    -0.274 OA
ATOM      6  H   UNL A   1      36.263  22.476  22.352  1.00  0.00     0.163 HD
BRANCH   4   7
ATOM      7  C   UNL A   1      33.706  22.731  24.638  1.00  0.00     0.077 C 
ATOM      8  C   UNL A   1      32.420  21.961  24.241  1.00  0.00     0.022 C 
ATOM      9  C   UNL A   1      34.289  21.822  25.792  1.00  0.00     0.006 C 
ATOM     10  C   UNL A   1      32.560  20.501  24.658  1.00  0.00     0.002 C 
ATOM     11  C   UNL A   1      33.785  20.386  25.542  1.00  0.00     0.005 C 
ATOM     12  C   UNL A   1      33.843  22.098  27.246  1.00  0.00     0.009 C 
BRANCH   7  13
ATOM     13  C   UNL A   1      33.341  24.179  25.093  1.00  0.00    -0.032 A 
ATOM     14  C   UNL A   1      32.686  26.808  25.979  1.00  0.00    -0.045 A 
ATOM     15  C   UNL A   1      31.704  25.818  25.871  1.00  0.00     0.004 A 
ATOM     16  C   UNL A   1      34.016  26.438  25.749  1.00  0.00     0.004 A 
ATOM     17  C   UNL A   1      32.037  24.517  25.487  1.00  0.00     0.005 A 
ATOM     18  C   UNL A   1      34.336  25.150  25.306  1.00  0.00     0.005 A 
BRANCH  14  19
ATOM     19  C   UNL A   1      32.278  28.211  26.385  1.00  0.00     0.013 C 
ATOM     20  C   UNL A   1      31.466  28.183  27.681  1.00  0.00     0.012 C 
ATOM     21  C   UNL A   1      33.453  29.186  26.503  1.00  0.00     0.012 C 
ENDBRANCH  14  19
ENDBRANCH   7  13
ENDBRANCH   4   7
ENDBRANCH   2   3
ENDBRANCH   1   2
BRANCH   1  22
ATOM     22  C   UNL A   1      38.167  20.896  25.772  1.00  0.00     0.118 C 
BRANCH  22  23
ATOM     23  N   UNL A   1      39.181  19.844  25.735  1.00  0.00    -0.352 N 
ATOM     24  C   UNL A   1      40.538  19.911  25.946  1.00  0.00     0.251 C 
ATOM     25  H   UNL A   1      38.838  18.946  25.525  1.00  0.00     0.163 HD
ATOM     26  O   UNL A   1      41.256  18.969  25.645  1.00  0.00    -0.269 OA
BRANCH  24  27
ATOM     27  C   UNL A   1      41.120  21.133  26.532  1.00  0.00     0.039 A 
ATOM     28  C   UNL A   1      41.647  22.119  25.693  1.00  0.00     0.014 A 
ATOM     29  C   UNL A   1      41.139  21.299  27.916  1.00  0.00     0.014 A 
ATOM     30  C   UNL A   1      42.129  23.306  26.247  1.00  0.00     0.010 A 
ATOM     31  C   UNL A   1      41.509  22.519  28.454  1.00  0.00     0.010 A 
ATOM     32  C   UNL A   1      42.029  23.527  27.628  1.00  0.00    -0.014 A 
BRANCH  32  33
ATOM     33  C   UNL A   1      42.505  24.772  28.275  1.00  0.00     0.031 A 
ATOM     34  C   UNL A   1      41.516  25.870  28.550  1.00  0.00     0.074 A 
ATOM     35  C   UNL A   1      43.819  24.963  28.492  1.00  0.00     0.049 A 
ATOM     36  N   UNL A   1      41.729  27.114  28.895  1.00  0.00    -0.248 NA
ATOM     37  C   UNL A   1      40.095  25.535  28.354  1.00  0.00     0.031 C 
ATOM     38  C   UNL A   1      44.876  23.987  28.227  1.00  0.00     0.029 A 
ATOM     39  N   UNL A   1      44.491  26.065  28.959  1.00  0.00    -0.354 N 
ATOM     40  C   UNL A   1      40.476  27.714  28.914  1.00  0.00     0.074 A 
ATOM     41  C   UNL A   1      39.520  26.719  28.484  1.00  0.00     0.031 C 
ATOM     42  C   UNL A   1      46.063  24.530  28.543  1.00  0.00     0.029 A 
ATOM     43  C   UNL A   1      45.855  25.906  28.984  1.00  0.00     0.049 A 
ATOM     44  H   UNL A   1      44.039  26.890  29.248  1.00  0.00     0.167 HD
ATOM     45  C   UNL A   1      40.150  28.974  29.283  1.00  0.00     0.037 A 
ATOM     46  C   UNL A   1      46.825  26.781  29.305  1.00  0.00     0.037 A 
ATOM     47  C   UNL A   1      41.107  29.941  29.747  1.00  0.00     0.049 A 
ATOM     48  C   UNL A   1      46.445  28.174  29.722  1.00  0.00     0.074 A 
ATOM     49  C   UNL A   1      40.884  31.226  30.204  1.00  0.00     0.029 A 
ATOM     50  N   UNL A   1      42.476  29.721  29.813  1.00  0.00    -0.354 N 
ATOM     51  N   UNL A   1      45.253  28.720  29.786  1.00  0.00    -0.248 NA
ATOM     52  C   UNL A   1      47.539  29.071  30.118  1.00  0.00     0.031 C 
ATOM     53  C   UNL A   1      42.122  31.800  30.508  1.00  0.00     0.029 A 
ATOM     54  C   UNL A   1      43.112  30.853  30.292  1.00  0.00     0.049 A 
ATOM     55  H   UNL A   1      42.927  28.885  29.558  1.00  0.00     0.167 HD
ATOM     56  C   UNL A   1      45.449  30.009  30.263  1.00  0.00     0.074 A 
ATOM     57  C   UNL A   1      46.875  30.164  30.472  1.00  0.00     0.031 C 
ATOM     58  C   UNL A   1      44.532  30.976  30.513  1.00  0.00     0.037 A 
BRANCH  45  59
ATOM     59  C   UNL A   1      38.702  29.365  29.193  1.00  0.00     0.057 A 
ATOM     60  C   UNL A   1      37.860  29.361  30.315  1.00  0.00     0.134 A 
ATOM     61  C   UNL A   1      38.137  29.737  27.967  1.00  0.00     0.134 A 
ATOM     62  F   UNL A   1      38.332  29.001  31.518  1.00  0.00    -0.206 F 
ATOM     63  C   UNL A   1      36.501  29.667  30.212  1.00  0.00     0.040 A 
ATOM     64  C   UNL A   1      36.788  30.080  27.859  1.00  0.00     0.040 A 
ATOM     65  F   UNL A   1      38.884  29.770  26.854  1.00  0.00    -0.206 F 
ATOM     66  C   UNL A   1      35.964  30.033  28.981  1.00  0.00     0.006 A 
ENDBRANCH  45  59
BRANCH  46  67
ATOM     67  C   UNL A   1      48.246  26.350  29.266  1.00  0.00     0.057 A 
ATOM     68  C   UNL A   1      48.843  25.738  30.374  1.00  0.00     0.134 A 
ATOM     69  C   UNL A   1      49.031  26.512  28.118  1.00  0.00     0.134 A 
ATOM     70  F   UNL A   1      48.145  25.568  31.507  1.00  0.00    -0.206 F 
ATOM     71  C   UNL A   1      50.171  25.313  30.348  1.00  0.00     0.040 A 
ATOM     72  C   UNL A   1      50.355  26.069  28.070  1.00  0.00     0.040 A 
ATOM     73  F   UNL A   1      48.515  27.079  27.019  1.00  0.00    -0.206 F 
ATOM     74  C   UNL A   1      50.930  25.472  29.190  1.00  0.00     0.006 A 
ENDBRANCH  46  67
BRANCH  58  75
ATOM     75  C   UNL A   1      45.025  32.266  31.095  1.00  0.00     0.057 A 
ATOM     76  C   UNL A   1      45.361  33.364  30.295  1.00  0.00     0.134 A 
ATOM     77  C   UNL A   1      45.086  32.433  32.485  1.00  0.00     0.134 A 
ATOM     78  F   UNL A   1      45.333  33.265  28.957  1.00  0.00    -0.206 F 
ATOM     79  C   UNL A   1      45.750  34.581  30.857  1.00  0.00     0.040 A 
ATOM     80  C   UNL A   1      45.449  33.652  33.059  1.00  0.00     0.040 A 
ATOM     81  F   UNL A   1      44.768  31.422  33.308  1.00  0.00    -0.206 F 
ATOM     82  C   UNL A   1      45.784  34.730  32.243  1.00  0.00     0.006 A 
ENDBRANCH  58  75
ENDBRANCH  32  33
ENDBRANCH  24  27
ENDBRANCH  22  23
ENDBRANCH   1  22
TORSDOF 12
ENDMDL
