MODEL 1
REMARK VINA RESULT:     -13.7      0.000      0.000
REMARK SMILES Cc1ccccc1C(=O)Nc1ccc(N2CCCCC2)cc1C(=O)NCCCNC(=O)c1ccc(-c2c3nc(c(-c4c(F)cccc4F)c4ccc([nH]4)c(-c4c(F)cccc4F)c4nc(c(-c5c(F)cccc5F)c5ccc2[nH]5)C=C4)C=C3)cc1
REMARK SMILES IDX 27 1 26 2 25 3 23 4 24 5 22 7 11 8 12 9 13 10 21 11 14 12
REMARK SMILES IDX 10 13 8 14 9 15 7 17 1 18 2 19 3 20 4 21 6 22 5 23 15 24
REMARK SMILES IDX 16 25 20 26 17 27 19 28 18 29 28 30 29 31 30 32 31 34 32 35
REMARK SMILES IDX 33 36 85 37 34 38 84 39 35 40 36 41 37 42 78 43 38 44 83 45
REMARK SMILES IDX 77 46 79 47 39 48 82 49 76 50 75 51 40 53 66 54 49 55 65 56
REMARK SMILES IDX 50 57 53 58 64 59 80 60 51 61 52 62 63 64 81 65 54 66 41 67
REMARK SMILES IDX 42 68 47 69 43 70 44 71 46 72 48 73 45 74 67 75 68 76 73 77
REMARK SMILES IDX 69 78 70 79 72 80 74 81 71 82 55 83 56 84 61 85 57 86 58 87
REMARK SMILES IDX 60 88 62 89 59 90
REMARK H PARENT 25 6 10 16 29 33 79 52 53 63
REMARK Flexibility Score: inf
ROOT
ATOM      1  C   UNL A   1      32.868  30.779  27.482  1.00  0.00     0.042 C 
ENDROOT
BRANCH   1   2
ATOM      2  C   UNL A   1      32.300  29.425  27.128  1.00  0.00     0.118 C 
BRANCH   2   3
ATOM      3  N   UNL A   1      33.211  28.582  26.362  1.00  0.00    -0.352 N 
ATOM      4  C   UNL A   1      32.959  27.729  25.303  1.00  0.00     0.253 C 
ATOM      5  O   UNL A   1      33.896  27.131  24.786  1.00  0.00    -0.269 OA
ATOM      6  H   UNL A   1      34.154  28.628  26.641  1.00  0.00     0.163 HD
BRANCH   4   7
ATOM      7  C   UNL A   1      31.574  27.545  24.800  1.00  0.00     0.065 A 
ATOM      8  C   UNL A   1      30.719  26.528  25.245  1.00  0.00     0.054 A 
ATOM      9  C   UNL A   1      29.444  26.427  24.668  1.00  0.00     0.029 A 
ATOM     10  C   UNL A   1      28.957  27.445  23.848  1.00  0.00     0.028 A 
ATOM     11  C   UNL A   1      31.122  28.421  23.794  1.00  0.00     0.042 A 
ATOM     12  C   UNL A   1      29.773  28.504  23.459  1.00  0.00     0.038 A 
BRANCH   8  13
ATOM     13  N   UNL A   1      30.951  25.581  26.251  1.00  0.00    -0.321 N 
ATOM     14  C   UNL A   1      31.637  24.395  26.309  1.00  0.00     0.255 C 
ATOM     15  O   UNL A   1      31.510  23.726  27.341  1.00  0.00    -0.269 OA
ATOM     16  H   UNL A   1      30.527  25.820  27.106  1.00  0.00     0.170 HD
BRANCH  14  17
ATOM     17  C   UNL A   1      32.637  23.925  25.307  1.00  0.00     0.043 A 
ATOM     18  C   UNL A   1      31.007  23.486  23.352  1.00  0.00     0.045 C 
ATOM     19  C   UNL A   1      32.372  23.564  23.970  1.00  0.00    -0.038 A 
ATOM     20  C   UNL A   1      33.462  23.284  23.115  1.00  0.00     0.004 A 
ATOM     21  C   UNL A   1      34.781  23.428  23.544  1.00  0.00     0.000 A 
ATOM     22  C   UNL A   1      33.978  24.076  25.716  1.00  0.00     0.014 A 
ATOM     23  C   UNL A   1      35.041  23.836  24.843  1.00  0.00     0.001 A 
ENDBRANCH  14  17
ENDBRANCH   8  13
BRANCH  12  24
ATOM     24  N   UNL A   1      29.212  29.639  22.875  1.00  0.00    -0.372 N 
ATOM     25  C   UNL A   1      29.156  30.804  23.779  1.00  0.00     0.116 C 
ATOM     26  C   UNL A   1      29.495  29.974  21.477  1.00  0.00     0.116 C 
ATOM     27  C   UNL A   1      28.074  31.771  23.309  1.00  0.00     0.021 C 
ATOM     28  C   UNL A   1      28.409  30.917  20.961  1.00  0.00     0.021 C 
ATOM     29  C   UNL A   1      28.265  32.156  21.845  1.00  0.00     0.004 C 
ENDBRANCH  12  24
ENDBRANCH   4   7
ENDBRANCH   2   3
ENDBRANCH   1   2
BRANCH   1  30
ATOM     30  C   UNL A   1      34.374  30.846  27.338  1.00  0.00     0.118 C 
BRANCH  30  31
ATOM     31  N   UNL A   1      35.012  31.580  28.436  1.00  0.00    -0.352 N 
ATOM     32  C   UNL A   1      36.194  31.302  29.110  1.00  0.00     0.251 C 
ATOM     33  H   UNL A   1      34.534  32.385  28.740  1.00  0.00     0.163 HD
ATOM     34  O   UNL A   1      36.680  32.103  29.887  1.00  0.00    -0.269 OA
BRANCH  32  35
ATOM     35  C   UNL A   1      36.910  30.058  28.757  1.00  0.00     0.039 A 
ATOM     36  C   UNL A   1      37.045  29.093  29.759  1.00  0.00     0.014 A 
ATOM     37  C   UNL A   1      37.728  30.054  27.632  1.00  0.00     0.014 A 
ATOM     38  C   UNL A   1      38.196  28.316  29.781  1.00  0.00     0.010 A 
ATOM     39  C   UNL A   1      38.926  29.373  27.725  1.00  0.00     0.010 A 
ATOM     40  C   UNL A   1      39.195  28.570  28.843  1.00  0.00    -0.014 A 
BRANCH  40  41
ATOM     41  C   UNL A   1      40.587  28.177  29.053  1.00  0.00     0.031 A 
ATOM     42  C   UNL A   1      41.109  26.926  28.464  1.00  0.00     0.074 A 
ATOM     43  C   UNL A   1      41.433  28.983  29.737  1.00  0.00     0.049 A 
ATOM     44  N   UNL A   1      42.138  26.290  28.912  1.00  0.00    -0.248 NA
ATOM     45  C   UNL A   1      40.468  26.254  27.342  1.00  0.00     0.031 C 
ATOM     46  C   UNL A   1      42.893  28.892  29.777  1.00  0.00     0.029 A 
ATOM     47  N   UNL A   1      41.120  29.932  30.723  1.00  0.00    -0.354 N 
ATOM     48  C   UNL A   1      42.463  25.312  28.001  1.00  0.00     0.074 A 
ATOM     49  C   UNL A   1      41.350  25.286  27.082  1.00  0.00     0.031 C 
ATOM     50  C   UNL A   1      43.336  29.493  30.891  1.00  0.00     0.029 A 
ATOM     51  C   UNL A   1      42.171  29.871  31.667  1.00  0.00     0.049 A 
ATOM     52  H   UNL A   1      40.330  30.519  30.752  1.00  0.00     0.167 HD
ATOM     53  C   UNL A   1      43.698  24.735  28.057  1.00  0.00     0.037 A 
ATOM     54  C   UNL A   1      41.969  29.553  32.976  1.00  0.00     0.037 A 
ATOM     55  C   UNL A   1      44.466  25.232  29.197  1.00  0.00     0.049 A 
ATOM     56  C   UNL A   1      42.793  28.389  33.468  1.00  0.00     0.074 A 
ATOM     57  C   UNL A   1      45.466  26.185  29.313  1.00  0.00     0.029 A 
ATOM     58  N   UNL A   1      44.058  24.932  30.491  1.00  0.00    -0.354 N 
ATOM     59  N   UNL A   1      43.335  27.501  32.684  1.00  0.00    -0.248 NA
ATOM     60  C   UNL A   1      43.046  28.112  34.879  1.00  0.00     0.031 C 
ATOM     61  C   UNL A   1      45.670  26.449  30.689  1.00  0.00     0.029 A 
ATOM     62  C   UNL A   1      44.794  25.656  31.408  1.00  0.00     0.049 A 
ATOM     63  H   UNL A   1      43.345  24.294  30.721  1.00  0.00     0.167 HD
ATOM     64  C   UNL A   1      43.976  26.546  33.436  1.00  0.00     0.074 A 
ATOM     65  C   UNL A   1      43.784  26.990  34.803  1.00  0.00     0.031 C 
ATOM     66  C   UNL A   1      44.590  25.478  32.841  1.00  0.00     0.037 A 
BRANCH  53  67
ATOM     67  C   UNL A   1      44.329  23.951  26.920  1.00  0.00     0.057 A 
ATOM     68  C   UNL A   1      43.939  22.622  26.657  1.00  0.00     0.134 A 
ATOM     69  C   UNL A   1      45.363  24.414  26.089  1.00  0.00     0.134 A 
ATOM     70  F   UNL A   1      42.878  22.063  27.251  1.00  0.00    -0.206 F 
ATOM     71  C   UNL A   1      44.617  21.786  25.758  1.00  0.00     0.040 A 
ATOM     72  C   UNL A   1      46.085  23.578  25.224  1.00  0.00     0.040 A 
ATOM     73  F   UNL A   1      45.681  25.711  26.017  1.00  0.00    -0.206 F 
ATOM     74  C   UNL A   1      45.725  22.249  25.070  1.00  0.00     0.006 A 
ENDBRANCH  53  67
BRANCH  54  75
ATOM     75  C   UNL A   1      40.623  29.915  33.479  1.00  0.00     0.057 A 
ATOM     76  C   UNL A   1      40.390  31.237  33.892  1.00  0.00     0.134 A 
ATOM     77  C   UNL A   1      39.506  29.123  33.204  1.00  0.00     0.134 A 
ATOM     78  F   UNL A   1      41.424  32.047  34.170  1.00  0.00    -0.206 F 
ATOM     79  C   UNL A   1      39.106  31.783  33.923  1.00  0.00     0.040 A 
ATOM     80  C   UNL A   1      38.212  29.657  33.239  1.00  0.00     0.040 A 
ATOM     81  F   UNL A   1      39.652  27.859  32.779  1.00  0.00    -0.206 F 
ATOM     82  C   UNL A   1      38.013  31.000  33.561  1.00  0.00     0.006 A 
ENDBRANCH  54  75
BRANCH  66  83
ATOM     83  C   UNL A   1      45.142  24.219  33.491  1.00  0.00     0.057 A 
ATOM     84  C   UNL A   1      46.420  24.085  34.053  1.00  0.00     0.134 A 
ATOM     85  C   UNL A   1      44.304  23.090  33.687  1.00  0.00     0.134 A 
ATOM     86  F   UNL A   1      47.303  25.089  34.057  1.00  0.00    -0.206 F 
ATOM     87  C   UNL A   1      46.846  22.914  34.704  1.00  0.00     0.040 A 
ATOM     88  C   UNL A   1      44.699  21.941  34.380  1.00  0.00     0.040 A 
ATOM     89  F   UNL A   1      43.041  23.052  33.235  1.00  0.00    -0.206 F 
ATOM     90  C   UNL A   1      45.983  21.842  34.883  1.00  0.00     0.006 A 
ENDBRANCH  66  83
ENDBRANCH  40  41
ENDBRANCH  32  35
ENDBRANCH  30  31
ENDBRANCH   1  30
TORSDOF 13
ENDMDL
MODEL 2
REMARK VINA RESULT:     -13.6      2.043      3.139
REMARK SMILES Cc1ccccc1C(=O)Nc1ccc(N2CCCCC2)cc1C(=O)NCCCNC(=O)c1ccc(-c2c3nc(c(-c4c(F)cccc4F)c4ccc([nH]4)c(-c4c(F)cccc4F)c4nc(c(-c5c(F)cccc5F)c5ccc2[nH]5)C=C4)C=C3)cc1
REMARK SMILES IDX 27 1 26 2 25 3 23 4 24 5 22 7 11 8 12 9 13 10 21 11 14 12
REMARK SMILES IDX 10 13 8 14 9 15 7 17 1 18 2 19 3 20 4 21 6 22 5 23 15 24
REMARK SMILES IDX 16 25 20 26 17 27 19 28 18 29 28 30 29 31 30 32 31 34 32 35
REMARK SMILES IDX 33 36 85 37 34 38 84 39 35 40 36 41 37 42 78 43 38 44 83 45
REMARK SMILES IDX 77 46 79 47 39 48 82 49 76 50 75 51 40 53 66 54 49 55 65 56
REMARK SMILES IDX 50 57 53 58 64 59 80 60 51 61 52 62 63 64 81 65 54 66 41 67
REMARK SMILES IDX 42 68 47 69 43 70 44 71 46 72 48 73 45 74 67 75 68 76 73 77
REMARK SMILES IDX 69 78 70 79 72 80 74 81 71 82 55 83 56 84 61 85 57 86 58 87
REMARK SMILES IDX 60 88 62 89 59 90
REMARK H PARENT 25 6 10 16 29 33 79 52 53 63
REMARK Flexibility Score: inf
ROOT
ATOM      1  C   UNL A   1      35.230  29.550  26.838  1.00  0.00     0.042 C 
ENDROOT
BRANCH   1   2
ATOM      2  C   UNL A   1      34.070  28.682  26.411  1.00  0.00     0.118 C 
BRANCH   2   3
ATOM      3  N   UNL A   1      33.064  28.486  27.449  1.00  0.00    -0.352 N 
ATOM      4  C   UNL A   1      31.763  28.025  27.353  1.00  0.00     0.253 C 
ATOM      5  O   UNL A   1      31.097  27.914  28.376  1.00  0.00    -0.269 OA
ATOM      6  H   UNL A   1      33.356  28.716  28.360  1.00  0.00     0.163 HD
BRANCH   4   7
ATOM      7  C   UNL A   1      31.188  27.667  26.033  1.00  0.00     0.065 A 
ATOM      8  C   UNL A   1      30.837  26.359  25.672  1.00  0.00     0.054 A 
ATOM      9  C   UNL A   1      30.338  26.133  24.381  1.00  0.00     0.029 A 
ATOM     10  C   UNL A   1      29.984  27.205  23.563  1.00  0.00     0.028 A 
ATOM     11  C   UNL A   1      31.027  28.698  25.087  1.00  0.00     0.042 A 
ATOM     12  C   UNL A   1      30.257  28.517  23.942  1.00  0.00     0.038 A 
BRANCH   8  13
ATOM     13  N   UNL A   1      30.880  25.203  26.463  1.00  0.00    -0.321 N 
ATOM     14  C   UNL A   1      31.590  24.031  26.406  1.00  0.00     0.255 C 
ATOM     15  O   UNL A   1      31.266  23.141  27.200  1.00  0.00    -0.269 OA
ATOM     16  H   UNL A   1      30.263  25.239  27.228  1.00  0.00     0.170 HD
BRANCH  14  17
ATOM     17  C   UNL A   1      32.811  23.799  25.581  1.00  0.00     0.043 A 
ATOM     18  C   UNL A   1      31.667  22.694  23.546  1.00  0.00     0.045 C 
ATOM     19  C   UNL A   1      32.850  23.249  24.283  1.00  0.00    -0.038 A 
ATOM     20  C   UNL A   1      34.080  23.239  23.588  1.00  0.00     0.004 A 
ATOM     21  C   UNL A   1      35.227  23.822  24.125  1.00  0.00     0.000 A 
ATOM     22  C   UNL A   1      33.980  24.395  26.101  1.00  0.00     0.014 A 
ATOM     23  C   UNL A   1      35.174  24.413  25.379  1.00  0.00     0.001 A 
ENDBRANCH  14  17
ENDBRANCH   8  13
BRANCH  12  24
ATOM     24  N   UNL A   1      29.665  29.578  23.259  1.00  0.00    -0.372 N 
ATOM     25  C   UNL A   1      29.623  30.832  24.036  1.00  0.00     0.116 C 
ATOM     26  C   UNL A   1      29.899  29.765  21.825  1.00  0.00     0.116 C 
ATOM     27  C   UNL A   1      28.516  31.735  23.501  1.00  0.00     0.021 C 
ATOM     28  C   UNL A   1      28.786  30.638  21.248  1.00  0.00     0.021 C 
ATOM     29  C   UNL A   1      28.656  31.963  21.999  1.00  0.00     0.004 C 
ENDBRANCH  12  24
ENDBRANCH   4   7
ENDBRANCH   2   3
ENDBRANCH   1   2
BRANCH   1  30
ATOM     30  C   UNL A   1      35.019  30.199  28.190  1.00  0.00     0.118 C 
BRANCH  30  31
ATOM     31  N   UNL A   1      34.083  31.326  28.135  1.00  0.00    -0.352 N 
ATOM     32  C   UNL A   1      34.218  32.608  28.650  1.00  0.00     0.251 C 
ATOM     33  H   UNL A   1      33.236  31.149  27.665  1.00  0.00     0.163 HD
ATOM     34  O   UNL A   1      33.421  33.487  28.375  1.00  0.00    -0.269 OA
BRANCH  32  35
ATOM     35  C   UNL A   1      35.429  32.906  29.443  1.00  0.00     0.039 A 
ATOM     36  C   UNL A   1      36.470  33.575  28.792  1.00  0.00     0.014 A 
ATOM     37  C   UNL A   1      35.647  32.200  30.621  1.00  0.00     0.014 A 
ATOM     38  C   UNL A   1      37.778  33.279  29.154  1.00  0.00     0.010 A 
ATOM     39  C   UNL A   1      36.944  31.811  30.894  1.00  0.00     0.010 A 
ATOM     40  C   UNL A   1      38.002  32.285  30.105  1.00  0.00    -0.014 A 
BRANCH  40  41
ATOM     41  C   UNL A   1      39.274  31.572  30.210  1.00  0.00     0.031 A 
ATOM     42  C   UNL A   1      39.473  30.290  29.502  1.00  0.00     0.074 A 
ATOM     43  C   UNL A   1      40.306  32.105  30.906  1.00  0.00     0.049 A 
ATOM     44  N   UNL A   1      40.344  29.402  29.846  1.00  0.00    -0.248 NA
ATOM     45  C   UNL A   1      38.656  29.878  28.369  1.00  0.00     0.031 C 
ATOM     46  C   UNL A   1      41.706  31.684  30.859  1.00  0.00     0.029 A 
ATOM     47  N   UNL A   1      40.253  33.013  31.975  1.00  0.00    -0.354 N 
ATOM     48  C   UNL A   1      40.404  28.457  28.848  1.00  0.00     0.074 A 
ATOM     49  C   UNL A   1      39.282  28.761  27.990  1.00  0.00     0.031 C 
ATOM     50  C   UNL A   1      42.314  32.072  31.989  1.00  0.00     0.029 A 
ATOM     51  C   UNL A   1      41.295  32.636  32.854  1.00  0.00     0.049 A 
ATOM     52  H   UNL A   1      39.621  33.758  32.090  1.00  0.00     0.167 HD
ATOM     53  C   UNL A   1      41.475  27.613  28.794  1.00  0.00     0.037 A 
ATOM     54  C   UNL A   1      41.073  32.262  34.145  1.00  0.00     0.037 A 
ATOM     55  C   UNL A   1      42.377  27.826  29.925  1.00  0.00     0.049 A 
ATOM     56  C   UNL A   1      41.625  30.905  34.503  1.00  0.00     0.074 A 
ATOM     57  C   UNL A   1      43.572  28.516  30.057  1.00  0.00     0.029 A 
ATOM     58  N   UNL A   1      41.958  27.517  31.212  1.00  0.00    -0.354 N 
ATOM     59  N   UNL A   1      41.921  29.988  33.627  1.00  0.00    -0.248 NA
ATOM     60  C   UNL A   1      41.858  30.460  35.873  1.00  0.00     0.031 C 
ATOM     61  C   UNL A   1      43.880  28.609  31.436  1.00  0.00     0.029 A 
ATOM     62  C   UNL A   1      42.871  27.976  32.140  1.00  0.00     0.049 A 
ATOM     63  H   UNL A   1      41.126  27.039  31.433  1.00  0.00     0.167 HD
ATOM     64  C   UNL A   1      42.352  28.852  34.270  1.00  0.00     0.074 A 
ATOM     65  C   UNL A   1      42.316  29.210  35.675  1.00  0.00     0.031 C 
ATOM     66  C   UNL A   1      42.684  27.728  33.564  1.00  0.00     0.037 A 
BRANCH  53  67
ATOM     67  C   UNL A   1      41.869  26.807  27.569  1.00  0.00     0.057 A 
ATOM     68  C   UNL A   1      41.836  25.397  27.593  1.00  0.00     0.134 A 
ATOM     69  C   UNL A   1      42.347  27.343  26.362  1.00  0.00     0.134 A 
ATOM     70  F   UNL A   1      41.278  24.717  28.602  1.00  0.00    -0.206 F 
ATOM     71  C   UNL A   1      42.371  24.599  26.572  1.00  0.00     0.040 A 
ATOM     72  C   UNL A   1      42.933  26.562  25.355  1.00  0.00     0.040 A 
ATOM     73  F   UNL A   1      42.207  28.638  26.062  1.00  0.00    -0.206 F 
ATOM     74  C   UNL A   1      42.965  25.181  25.467  1.00  0.00     0.006 A 
ENDBRANCH  53  67
BRANCH  54  75
ATOM     75  C   UNL A   1      39.864  32.874  34.744  1.00  0.00     0.057 A 
ATOM     76  C   UNL A   1      38.664  32.145  34.734  1.00  0.00     0.134 A 
ATOM     77  C   UNL A   1      39.955  33.947  35.634  1.00  0.00     0.134 A 
ATOM     78  F   UNL A   1      38.517  31.102  33.901  1.00  0.00    -0.206 F 
ATOM     79  C   UNL A   1      37.639  32.400  35.648  1.00  0.00     0.040 A 
ATOM     80  C   UNL A   1      38.931  34.217  36.550  1.00  0.00     0.040 A 
ATOM     81  F   UNL A   1      41.080  34.672  35.718  1.00  0.00    -0.206 F 
ATOM     82  C   UNL A   1      37.788  33.419  36.584  1.00  0.00     0.006 A 
ENDBRANCH  54  75
BRANCH  66  83
ATOM     83  C   UNL A   1      42.955  26.326  34.089  1.00  0.00     0.057 A 
ATOM     84  C   UNL A   1      44.165  25.629  33.963  1.00  0.00     0.134 A 
ATOM     85  C   UNL A   1      41.985  25.661  34.884  1.00  0.00     0.134 A 
ATOM     86  F   UNL A   1      45.225  26.154  33.339  1.00  0.00    -0.206 F 
ATOM     87  C   UNL A   1      44.375  24.361  34.533  1.00  0.00     0.040 A 
ATOM     88  C   UNL A   1      42.203  24.424  35.501  1.00  0.00     0.040 A 
ATOM     89  F   UNL A   1      40.778  26.191  35.129  1.00  0.00    -0.206 F 
ATOM     90  C   UNL A   1      43.401  23.760  35.315  1.00  0.00     0.006 A 
ENDBRANCH  66  83
ENDBRANCH  40  41
ENDBRANCH  32  35
ENDBRANCH  30  31
ENDBRANCH   1  30
TORSDOF 13
ENDMDL
MODEL 3
REMARK VINA RESULT:     -13.6      4.109      9.593
REMARK SMILES Cc1ccccc1C(=O)Nc1ccc(N2CCCCC2)cc1C(=O)NCCCNC(=O)c1ccc(-c2c3nc(c(-c4c(F)cccc4F)c4ccc([nH]4)c(-c4c(F)cccc4F)c4nc(c(-c5c(F)cccc5F)c5ccc2[nH]5)C=C4)C=C3)cc1
REMARK SMILES IDX 27 1 26 2 25 3 23 4 24 5 22 7 11 8 12 9 13 10 21 11 14 12
REMARK SMILES IDX 10 13 8 14 9 15 7 17 1 18 2 19 3 20 4 21 6 22 5 23 15 24
REMARK SMILES IDX 16 25 20 26 17 27 19 28 18 29 28 30 29 31 30 32 31 34 32 35
REMARK SMILES IDX 33 36 85 37 34 38 84 39 35 40 36 41 37 42 78 43 38 44 83 45
REMARK SMILES IDX 77 46 79 47 39 48 82 49 76 50 75 51 40 53 66 54 49 55 65 56
REMARK SMILES IDX 50 57 53 58 64 59 80 60 51 61 52 62 63 64 81 65 54 66 41 67
REMARK SMILES IDX 42 68 47 69 43 70 44 71 46 72 48 73 45 74 67 75 68 76 73 77
REMARK SMILES IDX 69 78 70 79 72 80 74 81 71 82 55 83 56 84 61 85 57 86 58 87
REMARK SMILES IDX 60 88 62 89 59 90
REMARK H PARENT 25 6 10 16 29 33 79 52 53 63
REMARK Flexibility Score: inf
ROOT
ATOM      1  C   UNL A   1      38.531  21.320  25.313  1.00  0.00     0.042 C 
ENDROOT
BRANCH   1   2
ATOM      2  C   UNL A   1      37.267  21.809  24.645  1.00  0.00     0.118 C 
BRANCH   2   3
ATOM      3  N   UNL A   1      36.503  22.758  25.446  1.00  0.00    -0.352 N 
ATOM      4  C   UNL A   1      35.137  22.960  25.526  1.00  0.00     0.253 C 
ATOM      5  O   UNL A   1      34.707  23.809  26.299  1.00  0.00    -0.269 OA
ATOM      6  H   UNL A   1      37.043  23.348  26.020  1.00  0.00     0.163 HD
BRANCH   4   7
ATOM      7  C   UNL A   1      34.208  22.156  24.693  1.00  0.00     0.065 A 
ATOM      8  C   UNL A   1      33.683  22.602  23.473  1.00  0.00     0.054 A 
ATOM      9  C   UNL A   1      32.782  21.772  22.790  1.00  0.00     0.029 A 
ATOM     10  C   UNL A   1      32.595  20.450  23.193  1.00  0.00     0.028 A 
ATOM     11  C   UNL A   1      33.811  20.897  25.183  1.00  0.00     0.042 A 
ATOM     12  C   UNL A   1      33.174  19.969  24.365  1.00  0.00     0.038 A 
BRANCH   8  13
ATOM     13  N   UNL A   1      33.969  23.792  22.791  1.00  0.00    -0.321 N 
ATOM     14  C   UNL A   1      33.492  25.076  22.865  1.00  0.00     0.255 C 
ATOM     15  O   UNL A   1      33.871  25.865  21.992  1.00  0.00    -0.269 OA
ATOM     16  H   UNL A   1      34.667  23.683  22.106  1.00  0.00     0.170 HD
BRANCH  14  17
ATOM     17  C   UNL A   1      32.687  25.635  23.989  1.00  0.00     0.043 A 
ATOM     18  C   UNL A   1      30.468  24.411  23.485  1.00  0.00     0.045 C 
ATOM     19  C   UNL A   1      31.351  25.307  24.303  1.00  0.00    -0.038 A 
ATOM     20  C   UNL A   1      30.790  25.821  25.493  1.00  0.00     0.004 A 
ATOM     21  C   UNL A   1      31.544  26.576  26.389  1.00  0.00     0.000 A 
ATOM     22  C   UNL A   1      33.435  26.391  24.915  1.00  0.00     0.014 A 
ATOM     23  C   UNL A   1      32.874  26.852  26.106  1.00  0.00     0.001 A 
ENDBRANCH  14  17
ENDBRANCH   8  13
BRANCH  12  24
ATOM     24  N   UNL A   1      33.208  18.598  24.615  1.00  0.00    -0.372 N 
ATOM     25  C   UNL A   1      34.462  17.949  24.186  1.00  0.00     0.116 C 
ATOM     26  C   UNL A   1      32.637  18.052  25.849  1.00  0.00     0.116 C 
ATOM     27  C   UNL A   1      34.223  16.459  23.963  1.00  0.00     0.021 C 
ATOM     28  C   UNL A   1      32.351  16.564  25.649  1.00  0.00     0.021 C 
ATOM     29  C   UNL A   1      33.595  15.803  25.189  1.00  0.00     0.004 C 
ENDBRANCH  12  24
ENDBRANCH   4   7
ENDBRANCH   2   3
ENDBRANCH   1   2
BRANCH   1  30
ATOM     30  C   UNL A   1      39.029  22.255  26.396  1.00  0.00     0.118 C 
BRANCH  30  31
ATOM     31  N   UNL A   1      40.457  22.559  26.265  1.00  0.00    -0.352 N 
ATOM     32  C   UNL A   1      41.127  23.754  26.490  1.00  0.00     0.251 C 
ATOM     33  H   UNL A   1      41.023  21.808  25.975  1.00  0.00     0.163 HD
ATOM     34  O   UNL A   1      42.343  23.804  26.501  1.00  0.00    -0.269 OA
BRANCH  32  35
ATOM     35  C   UNL A   1      40.317  24.940  26.840  1.00  0.00     0.039 A 
ATOM     36  C   UNL A   1      40.590  26.126  26.154  1.00  0.00     0.014 A 
ATOM     37  C   UNL A   1      39.629  24.944  28.049  1.00  0.00     0.014 A 
ATOM     38  C   UNL A   1      40.446  27.331  26.828  1.00  0.00     0.010 A 
ATOM     39  C   UNL A   1      39.607  26.129  28.759  1.00  0.00     0.010 A 
ATOM     40  C   UNL A   1      40.095  27.308  28.177  1.00  0.00    -0.014 A 
BRANCH  40  41
ATOM     41  C   UNL A   1      40.376  28.422  29.080  1.00  0.00     0.031 A 
ATOM     42  C   UNL A   1      39.336  29.433  29.366  1.00  0.00     0.074 A 
ATOM     43  C   UNL A   1      41.569  28.509  29.715  1.00  0.00     0.049 A 
ATOM     44  N   UNL A   1      39.586  30.630  29.780  1.00  0.00    -0.248 NA
ATOM     45  C   UNL A   1      37.917  29.190  29.151  1.00  0.00     0.031 C 
ATOM     46  C   UNL A   1      41.895  29.365  30.855  1.00  0.00     0.029 A 
ATOM     47  N   UNL A   1      42.806  27.986  29.310  1.00  0.00    -0.354 N 
ATOM     48  C   UNL A   1      38.395  31.209  30.150  1.00  0.00     0.074 A 
ATOM     49  C   UNL A   1      37.382  30.298  29.669  1.00  0.00     0.031 C 
ATOM     50  C   UNL A   1      43.223  29.556  30.889  1.00  0.00     0.029 A 
ATOM     51  C   UNL A   1      43.775  28.939  29.699  1.00  0.00     0.049 A 
ATOM     52  H   UNL A   1      42.967  27.131  28.848  1.00  0.00     0.167 HD
ATOM     53  C   UNL A   1      38.412  32.324  30.936  1.00  0.00     0.037 A 
ATOM     54  C   UNL A   1      44.597  29.562  28.808  1.00  0.00     0.037 A 
ATOM     55  C   UNL A   1      39.781  32.774  31.188  1.00  0.00     0.049 A 
ATOM     56  C   UNL A   1      44.541  31.068  28.857  1.00  0.00     0.074 A 
ATOM     57  C   UNL A   1      40.638  32.619  32.267  1.00  0.00     0.029 A 
ATOM     58  N   UNL A   1      40.551  33.268  30.143  1.00  0.00    -0.354 N 
ATOM     59  N   UNL A   1      43.552  31.741  29.374  1.00  0.00    -0.248 NA
ATOM     60  C   UNL A   1      45.574  31.938  28.303  1.00  0.00     0.031 C 
ATOM     61  C   UNL A   1      41.930  33.037  31.869  1.00  0.00     0.029 A 
ATOM     62  C   UNL A   1      41.858  33.446  30.550  1.00  0.00     0.049 A 
ATOM     63  H   UNL A   1      40.212  33.464  29.240  1.00  0.00     0.167 HD
ATOM     64  C   UNL A   1      43.776  33.088  29.220  1.00  0.00     0.074 A 
ATOM     65  C   UNL A   1      45.067  33.156  28.565  1.00  0.00     0.031 C 
ATOM     66  C   UNL A   1      42.855  34.007  29.646  1.00  0.00     0.037 A 
BRANCH  53  67
ATOM     67  C   UNL A   1      37.221  32.833  31.727  1.00  0.00     0.057 A 
ATOM     68  C   UNL A   1      36.333  33.774  31.167  1.00  0.00     0.134 A 
ATOM     69  C   UNL A   1      36.922  32.492  33.057  1.00  0.00     0.134 A 
ATOM     70  F   UNL A   1      36.376  34.107  29.871  1.00  0.00    -0.206 F 
ATOM     71  C   UNL A   1      35.337  34.426  31.908  1.00  0.00     0.040 A 
ATOM     72  C   UNL A   1      35.966  33.172  33.827  1.00  0.00     0.040 A 
ATOM     73  F   UNL A   1      37.487  31.440  33.658  1.00  0.00    -0.206 F 
ATOM     74  C   UNL A   1      35.180  34.160  33.257  1.00  0.00     0.006 A 
ENDBRANCH  53  67
BRANCH  54  75
ATOM     75  C   UNL A   1      44.879  28.760  27.594  1.00  0.00     0.057 A 
ATOM     76  C   UNL A   1      45.881  27.778  27.652  1.00  0.00     0.134 A 
ATOM     77  C   UNL A   1      43.960  28.677  26.546  1.00  0.00     0.134 A 
ATOM     78  F   UNL A   1      46.793  27.804  28.637  1.00  0.00    -0.206 F 
ATOM     79  C   UNL A   1      45.901  26.694  26.773  1.00  0.00     0.040 A 
ATOM     80  C   UNL A   1      43.974  27.599  25.653  1.00  0.00     0.040 A 
ATOM     81  F   UNL A   1      42.960  29.565  26.442  1.00  0.00    -0.206 F 
ATOM     82  C   UNL A   1      44.922  26.585  25.789  1.00  0.00     0.006 A 
ENDBRANCH  54  75
BRANCH  66  83
ATOM     83  C   UNL A   1      42.808  35.501  29.367  1.00  0.00     0.057 A 
ATOM     84  C   UNL A   1      43.592  36.474  30.003  1.00  0.00     0.134 A 
ATOM     85  C   UNL A   1      42.015  36.004  28.302  1.00  0.00     0.134 A 
ATOM     86  F   UNL A   1      44.478  36.161  30.955  1.00  0.00    -0.206 F 
ATOM     87  C   UNL A   1      43.553  37.834  29.649  1.00  0.00     0.040 A 
ATOM     88  C   UNL A   1      42.009  37.346  27.906  1.00  0.00     0.040 A 
ATOM     89  F   UNL A   1      41.220  35.211  27.568  1.00  0.00    -0.206 F 
ATOM     90  C   UNL A   1      42.772  38.273  28.590  1.00  0.00     0.006 A 
ENDBRANCH  66  83
ENDBRANCH  40  41
ENDBRANCH  32  35
ENDBRANCH  30  31
ENDBRANCH   1  30
TORSDOF 13
ENDMDL
