MODEL 1
REMARK VINA RESULT:     -11.6      0.000      0.000
REMARK SMILES C[C@H](c1ccc(Br)s1)[NH+]1CCC(CC(=O)NCCCNC(=O)c2ccc(-c3c4nc(c(-c5c(F)cccc5F)c5ccc([nH]5)c(-c5c(F)cccc5F)c5nc(c(-c6c(F)cccc6F)c6ccc3[nH]6)C=C5)C=C4)cc2)CC1
REMARK SMILES IDX 17 1 16 2 14 3 15 4 13 6 12 7 9 8 10 9 78 10 11 12 77 13
REMARK SMILES IDX 2 14 1 15 3 16 4 17 8 18 5 19 6 20 7 21 18 22 19 23 20 24
REMARK SMILES IDX 21 25 22 27 23 28 24 29 76 30 25 31 75 32 26 33 27 34 28 35
REMARK SMILES IDX 69 36 29 37 74 38 68 39 70 40 30 41 73 42 67 43 66 44 31 46
REMARK SMILES IDX 57 47 40 48 56 49 41 50 44 51 55 52 71 53 42 54 43 55 54 57
REMARK SMILES IDX 72 58 45 59 32 60 33 61 38 62 34 63 35 64 37 65 39 66 36 67
REMARK SMILES IDX 58 68 59 69 64 70 60 71 61 72 63 73 65 74 62 75 46 76 47 77
REMARK SMILES IDX 52 78 48 79 49 80 51 81 53 82 50 83
REMARK H PARENT 16 5 9 11 20 26 70 45 44 56
REMARK Flexibility Score: inf
ROOT
ATOM      1  C   UNL A   1      36.465  20.333  25.002  1.00  0.00     0.117 C 
ENDROOT
BRANCH   1   2
ATOM      2  N   UNL A   1      35.278  19.488  24.917  1.00  0.00    -0.356 N 
ATOM      3  C   UNL A   1      33.947  19.786  25.002  1.00  0.00     0.220 C 
ATOM      4  O   UNL A   1      33.142  18.869  24.823  1.00  0.00    -0.275 OA
ATOM      5  H   UNL A   1      35.471  18.533  24.773  1.00  0.00     0.163 HD
BRANCH   3   6
ATOM      6  C   UNL A   1      33.463  21.183  25.362  1.00  0.00     0.104 C 
BRANCH   6   7
ATOM      7  C   UNL A   1      32.856  21.916  24.151  1.00  0.00     0.009 C 
ATOM      8  N   UNL A   1      32.105  24.533  23.024  1.00  0.00    -0.328 N 
ATOM      9  C   UNL A   1      31.075  23.623  23.515  1.00  0.00     0.263 C 
ATOM     10  C   UNL A   1      33.209  23.767  22.423  1.00  0.00     0.263 C 
ATOM     11  H   UNL A   1      32.474  25.039  23.829  1.00  0.00     0.348 HD
ATOM     12  C   UNL A   1      31.644  22.725  24.591  1.00  0.00     0.066 C 
ATOM     13  C   UNL A   1      33.871  22.844  23.464  1.00  0.00     0.066 C 
BRANCH   8  14
ATOM     14  C   UNL A   1      31.585  25.605  22.142  1.00  0.00     0.222 C 
ATOM     15  C   UNL A   1      32.526  25.817  20.942  1.00  0.00     0.082 C 
BRANCH  14  16
ATOM     16  C   UNL A   1      31.301  26.915  22.855  1.00  0.00     0.063 A 
ATOM     17  C   UNL A   1      30.448  27.948  22.493  1.00  0.00     0.023 A 
ATOM     18  S   UNL A   1      32.108  27.283  24.330  1.00  0.00    -0.127 S 
ATOM     19  C   UNL A   1      30.535  29.068  23.368  1.00  0.00     0.028 A 
ATOM     20  C   UNL A   1      31.403  28.819  24.399  1.00  0.00     0.070 A 
ATOM     21  Br  UNL A   1      31.777  30.057  25.754  1.00  0.00    -0.039 Br
ENDBRANCH  14  16
ENDBRANCH   8  14
ENDBRANCH   6   7
ENDBRANCH   3   6
ENDBRANCH   1   2
BRANCH   1  22
ATOM     22  C   UNL A   1      37.789  19.567  24.882  1.00  0.00     0.042 C 
BRANCH  22  23
ATOM     23  C   UNL A   1      38.936  20.121  25.721  1.00  0.00     0.118 C 
BRANCH  23  24
ATOM     24  N   UNL A   1      39.996  19.141  25.879  1.00  0.00    -0.352 N 
ATOM     25  C   UNL A   1      41.354  19.310  26.009  1.00  0.00     0.251 C 
ATOM     26  H   UNL A   1      39.693  18.205  25.897  1.00  0.00     0.163 HD
ATOM     27  O   UNL A   1      42.087  18.339  25.839  1.00  0.00    -0.269 OA
BRANCH  25  28
ATOM     28  C   UNL A   1      41.962  20.625  26.348  1.00  0.00     0.039 A 
ATOM     29  C   UNL A   1      42.145  20.946  27.699  1.00  0.00     0.014 A 
ATOM     30  C   UNL A   1      42.246  21.588  25.376  1.00  0.00     0.014 A 
ATOM     31  C   UNL A   1      42.630  22.206  28.071  1.00  0.00     0.010 A 
ATOM     32  C   UNL A   1      42.793  22.822  25.742  1.00  0.00     0.010 A 
ATOM     33  C   UNL A   1      42.972  23.154  27.095  1.00  0.00    -0.014 A 
BRANCH  33  34
ATOM     34  C   UNL A   1      43.462  24.510  27.468  1.00  0.00     0.031 A 
ATOM     35  C   UNL A   1      42.487  25.574  27.904  1.00  0.00     0.074 A 
ATOM     36  C   UNL A   1      44.773  24.809  27.382  1.00  0.00     0.049 A 
ATOM     37  N   UNL A   1      42.701  26.837  28.172  1.00  0.00    -0.248 NA
ATOM     38  C   UNL A   1      41.079  25.163  28.040  1.00  0.00     0.031 C 
ATOM     39  C   UNL A   1      45.828  23.885  26.966  1.00  0.00     0.029 A 
ATOM     40  N   UNL A   1      45.441  25.983  27.636  1.00  0.00    -0.354 N 
ATOM     41  C   UNL A   1      41.458  27.375  28.488  1.00  0.00     0.074 A 
ATOM     42  C   UNL A   1      40.488  26.311  28.337  1.00  0.00     0.031 C 
ATOM     43  C   UNL A   1      47.011  24.520  27.010  1.00  0.00     0.029 A 
ATOM     44  C   UNL A   1      46.797  25.905  27.420  1.00  0.00     0.049 A 
ATOM     45  H   UNL A   1      44.992  26.802  27.944  1.00  0.00     0.167 HD
ATOM     46  C   UNL A   1      41.150  28.632  28.887  1.00  0.00     0.037 A 
ATOM     47  C   UNL A   1      47.755  26.844  27.529  1.00  0.00     0.037 A 
ATOM     48  C   UNL A   1      42.111  29.688  29.073  1.00  0.00     0.049 A 
ATOM     49  C   UNL A   1      47.386  28.238  27.957  1.00  0.00     0.074 A 
ATOM     50  C   UNL A   1      41.895  30.987  29.501  1.00  0.00     0.029 A 
ATOM     51  N   UNL A   1      43.473  29.561  28.854  1.00  0.00    -0.354 N 
ATOM     52  N   UNL A   1      46.209  28.723  28.270  1.00  0.00    -0.248 NA
ATOM     53  C   UNL A   1      48.481  29.216  28.048  1.00  0.00     0.031 C 
ATOM     54  C   UNL A   1      43.125  31.654  29.518  1.00  0.00     0.029 A 
ATOM     55  C   UNL A   1      44.110  30.760  29.132  1.00  0.00     0.049 A 
ATOM     56  H   UNL A   1      43.923  28.741  28.546  1.00  0.00     0.167 HD
ATOM     57  C   UNL A   1      46.426  30.048  28.625  1.00  0.00     0.074 A 
ATOM     58  C   UNL A   1      47.848  30.291  28.496  1.00  0.00     0.031 C 
ATOM     59  C   UNL A   1      45.527  30.981  29.022  1.00  0.00     0.037 A 
BRANCH  46  60
ATOM     60  C   UNL A   1      39.707  28.938  29.163  1.00  0.00     0.057 A 
ATOM     61  C   UNL A   1      38.831  29.322  28.139  1.00  0.00     0.134 A 
ATOM     62  C   UNL A   1      39.179  28.808  30.453  1.00  0.00     0.134 A 
ATOM     63  F   UNL A   1      39.277  29.474  26.883  1.00  0.00    -0.206 F 
ATOM     64  C   UNL A   1      37.484  29.587  28.393  1.00  0.00     0.040 A 
ATOM     65  C   UNL A   1      37.829  29.048  30.715  1.00  0.00     0.040 A 
ATOM     66  F   UNL A   1      39.963  28.438  31.476  1.00  0.00    -0.206 F 
ATOM     67  C   UNL A   1      36.978  29.443  29.684  1.00  0.00     0.006 A 
ENDBRANCH  46  60
BRANCH  47  68
ATOM     68  C   UNL A   1      49.171  26.502  27.244  1.00  0.00     0.057 A 
ATOM     69  C   UNL A   1      49.674  26.558  25.939  1.00  0.00     0.134 A 
ATOM     70  C   UNL A   1      50.044  26.085  28.256  1.00  0.00     0.134 A 
ATOM     71  F   UNL A   1      48.879  26.929  24.925  1.00  0.00    -0.206 F 
ATOM     72  C   UNL A   1      50.989  26.192  25.646  1.00  0.00     0.040 A 
ATOM     73  C   UNL A   1      51.367  25.737  27.981  1.00  0.00     0.040 A 
ATOM     74  F   UNL A   1      49.621  26.013  29.527  1.00  0.00    -0.206 F 
ATOM     75  C   UNL A   1      51.841  25.784  26.671  1.00  0.00     0.006 A 
ENDBRANCH  47  68
BRANCH  59  76
ATOM     76  C   UNL A   1      46.057  32.332  29.393  1.00  0.00     0.057 A 
ATOM     77  C   UNL A   1      46.485  32.627  30.694  1.00  0.00     0.134 A 
ATOM     78  C   UNL A   1      46.179  33.339  28.426  1.00  0.00     0.134 A 
ATOM     79  F   UNL A   1      46.382  31.709  31.667  1.00  0.00    -0.206 F 
ATOM     80  C   UNL A   1      47.000  33.881  31.024  1.00  0.00     0.040 A 
ATOM     81  C   UNL A   1      46.712  34.590  28.740  1.00  0.00     0.040 A 
ATOM     82  F   UNL A   1      45.792  33.118  27.162  1.00  0.00    -0.206 F 
ATOM     83  C   UNL A   1      47.120  34.865  30.044  1.00  0.00     0.006 A 
ENDBRANCH  59  76
ENDBRANCH  33  34
ENDBRANCH  25  28
ENDBRANCH  23  24
ENDBRANCH  22  23
ENDBRANCH   1  22
TORSDOF 13
ENDMDL
MODEL 2
REMARK VINA RESULT:     -11.5      1.324      2.003
REMARK SMILES C[C@H](c1ccc(Br)s1)[NH+]1CCC(CC(=O)NCCCNC(=O)c2ccc(-c3c4nc(c(-c5c(F)cccc5F)c5ccc([nH]5)c(-c5c(F)cccc5F)c5nc(c(-c6c(F)cccc6F)c6ccc3[nH]6)C=C5)C=C4)cc2)CC1
REMARK SMILES IDX 17 1 16 2 14 3 15 4 13 6 12 7 9 8 10 9 78 10 11 12 77 13
REMARK SMILES IDX 2 14 1 15 3 16 4 17 8 18 5 19 6 20 7 21 18 22 19 23 20 24
REMARK SMILES IDX 21 25 22 27 23 28 24 29 76 30 25 31 75 32 26 33 27 34 28 35
REMARK SMILES IDX 69 36 29 37 74 38 68 39 70 40 30 41 73 42 67 43 66 44 31 46
REMARK SMILES IDX 57 47 40 48 56 49 41 50 44 51 55 52 71 53 42 54 43 55 54 57
REMARK SMILES IDX 72 58 45 59 32 60 33 61 38 62 34 63 35 64 37 65 39 66 36 67
REMARK SMILES IDX 58 68 59 69 64 70 60 71 61 72 63 73 65 74 62 75 46 76 47 77
REMARK SMILES IDX 52 78 48 79 49 80 51 81 53 82 50 83
REMARK H PARENT 16 5 9 11 20 26 70 45 44 56
REMARK Flexibility Score: inf
ROOT
ATOM      1  C   UNL A   1      36.066  20.462  25.005  1.00  0.00     0.117 C 
ENDROOT
BRANCH   1   2
ATOM      2  N   UNL A   1      34.917  19.562  25.000  1.00  0.00    -0.356 N 
ATOM      3  C   UNL A   1      33.580  19.800  25.155  1.00  0.00     0.220 C 
ATOM      4  O   UNL A   1      32.810  18.845  25.036  1.00  0.00    -0.275 OA
ATOM      5  H   UNL A   1      35.146  18.615  24.860  1.00  0.00     0.163 HD
BRANCH   3   6
ATOM      6  C   UNL A   1      33.052  21.181  25.521  1.00  0.00     0.104 C 
BRANCH   6   7
ATOM      7  C   UNL A   1      32.567  21.962  24.285  1.00  0.00     0.009 C 
ATOM      8  N   UNL A   1      31.970  24.626  23.178  1.00  0.00    -0.328 N 
ATOM      9  C   UNL A   1      30.883  23.725  23.551  1.00  0.00     0.263 C 
ATOM     10  C   UNL A   1      33.106  23.853  22.651  1.00  0.00     0.263 C 
ATOM     11  H   UNL A   1      32.278  25.100  24.027  1.00  0.00     0.348 HD
ATOM     12  C   UNL A   1      31.339  22.785  24.644  1.00  0.00     0.066 C 
ATOM     13  C   UNL A   1      33.656  22.885  23.717  1.00  0.00     0.066 C 
BRANCH   8  14
ATOM     14  C   UNL A   1      31.550  25.734  22.288  1.00  0.00     0.222 C 
ATOM     15  C   UNL A   1      32.577  25.934  21.158  1.00  0.00     0.082 C 
BRANCH  14  16
ATOM     16  C   UNL A   1      31.266  27.039  23.009  1.00  0.00     0.063 A 
ATOM     17  C   UNL A   1      30.336  28.026  22.713  1.00  0.00     0.023 A 
ATOM     18  S   UNL A   1      32.178  27.465  24.405  1.00  0.00    -0.127 S 
ATOM     19  C   UNL A   1      30.444  29.161  23.566  1.00  0.00     0.028 A 
ATOM     20  C   UNL A   1      31.408  28.967  24.520  1.00  0.00     0.070 A 
ATOM     21  Br  UNL A   1      31.838  30.240  25.825  1.00  0.00    -0.039 Br
ENDBRANCH  14  16
ENDBRANCH   8  14
ENDBRANCH   6   7
ENDBRANCH   3   6
ENDBRANCH   1   2
BRANCH   1  22
ATOM     22  C   UNL A   1      37.409  19.764  24.751  1.00  0.00     0.042 C 
BRANCH  22  23
ATOM     23  C   UNL A   1      38.608  20.390  25.456  1.00  0.00     0.118 C 
BRANCH  23  24
ATOM     24  N   UNL A   1      39.659  19.414  25.679  1.00  0.00    -0.352 N 
ATOM     25  C   UNL A   1      40.980  19.587  26.018  1.00  0.00     0.251 C 
ATOM     26  H   UNL A   1      39.381  18.476  25.570  1.00  0.00     0.163 HD
ATOM     27  O   UNL A   1      41.755  18.645  25.870  1.00  0.00    -0.269 OA
BRANCH  25  28
ATOM     28  C   UNL A   1      41.499  20.873  26.555  1.00  0.00     0.039 A 
ATOM     29  C   UNL A   1      41.396  21.110  27.932  1.00  0.00     0.014 A 
ATOM     30  C   UNL A   1      41.976  21.891  25.724  1.00  0.00     0.014 A 
ATOM     31  C   UNL A   1      41.789  22.341  28.472  1.00  0.00     0.010 A 
ATOM     32  C   UNL A   1      42.430  23.095  26.271  1.00  0.00     0.010 A 
ATOM     33  C   UNL A   1      42.323  23.343  27.649  1.00  0.00    -0.014 A 
BRANCH  33  34
ATOM     34  C   UNL A   1      42.720  24.670  28.197  1.00  0.00     0.031 A 
ATOM     35  C   UNL A   1      41.681  25.742  28.410  1.00  0.00     0.074 A 
ATOM     36  C   UNL A   1      44.012  24.936  28.472  1.00  0.00     0.049 A 
ATOM     37  N   UNL A   1      41.838  26.988  28.782  1.00  0.00    -0.248 NA
ATOM     38  C   UNL A   1      40.281  25.365  28.154  1.00  0.00     0.031 C 
ATOM     39  C   UNL A   1      45.124  23.999  28.306  1.00  0.00     0.029 A 
ATOM     40  N   UNL A   1      44.608  26.079  28.944  1.00  0.00    -0.354 N 
ATOM     41  C   UNL A   1      40.565  27.547  28.784  1.00  0.00     0.074 A 
ATOM     42  C   UNL A   1      39.652  26.517  28.337  1.00  0.00     0.031 C 
ATOM     43  C   UNL A   1      46.264  24.600  28.686  1.00  0.00     0.029 A 
ATOM     44  C   UNL A   1      45.972  25.972  29.088  1.00  0.00     0.049 A 
ATOM     45  H   UNL A   1      44.108  26.898  29.160  1.00  0.00     0.167 HD
ATOM     46  C   UNL A   1      40.184  28.796  29.145  1.00  0.00     0.037 A 
ATOM     47  C   UNL A   1      46.883  26.880  29.487  1.00  0.00     0.037 A 
ATOM     48  C   UNL A   1      41.079  29.817  29.624  1.00  0.00     0.049 A 
ATOM     49  C   UNL A   1      46.438  28.266  29.865  1.00  0.00     0.074 A 
ATOM     50  C   UNL A   1      40.780  31.104  30.038  1.00  0.00     0.029 A 
ATOM     51  N   UNL A   1      42.449  29.661  29.764  1.00  0.00    -0.354 N 
ATOM     52  N   UNL A   1      45.228  28.771  29.880  1.00  0.00    -0.248 NA
ATOM     53  C   UNL A   1      47.485  29.209  30.284  1.00  0.00     0.031 C 
ATOM     54  C   UNL A   1      41.973  31.735  30.406  1.00  0.00     0.029 A 
ATOM     55  C   UNL A   1      43.009  30.830  30.252  1.00  0.00     0.049 A 
ATOM     56  H   UNL A   1      42.950  28.841  29.548  1.00  0.00     0.167 HD
ATOM     57  C   UNL A   1      45.366  30.074  30.338  1.00  0.00     0.074 A 
ATOM     58  C   UNL A   1      46.775  30.283  30.598  1.00  0.00     0.031 C 
ATOM     59  C   UNL A   1      44.409  31.015  30.528  1.00  0.00     0.037 A 
BRANCH  46  60
ATOM     60  C   UNL A   1      38.724  29.130  29.046  1.00  0.00     0.057 A 
ATOM     61  C   UNL A   1      37.874  29.037  30.156  1.00  0.00     0.134 A 
ATOM     62  C   UNL A   1      38.171  29.587  27.844  1.00  0.00     0.134 A 
ATOM     63  F   UNL A   1      38.341  28.596  31.334  1.00  0.00    -0.206 F 
ATOM     64  C   UNL A   1      36.521  29.367  30.068  1.00  0.00     0.040 A 
ATOM     65  C   UNL A   1      36.825  29.941  27.749  1.00  0.00     0.040 A 
ATOM     66  F   UNL A   1      38.932  29.705  26.745  1.00  0.00    -0.206 F 
ATOM     67  C   UNL A   1      35.994  29.827  28.862  1.00  0.00     0.006 A 
ENDBRANCH  46  60
BRANCH  47  68
ATOM     68  C   UNL A   1      48.318  26.510  29.568  1.00  0.00     0.057 A 
ATOM     69  C   UNL A   1      48.835  25.886  30.710  1.00  0.00     0.134 A 
ATOM     70  C   UNL A   1      49.210  26.795  28.527  1.00  0.00     0.134 A 
ATOM     71  F   UNL A   1      48.033  25.609  31.748  1.00  0.00    -0.206 F 
ATOM     72  C   UNL A   1      50.191  25.576  30.823  1.00  0.00     0.040 A 
ATOM     73  C   UNL A   1      50.564  26.471  28.618  1.00  0.00     0.040 A 
ATOM     74  F   UNL A   1      48.775  27.389  27.407  1.00  0.00    -0.206 F 
ATOM     75  C   UNL A   1      51.060  25.866  29.772  1.00  0.00     0.006 A 
ENDBRANCH  47  68
BRANCH  59  76
ATOM     76  C   UNL A   1      44.845  32.336  31.085  1.00  0.00     0.057 A 
ATOM     77  C   UNL A   1      44.910  32.571  32.464  1.00  0.00     0.134 A 
ATOM     78  C   UNL A   1      45.244  33.373  30.230  1.00  0.00     0.134 A 
ATOM     79  F   UNL A   1      44.529  31.623  33.333  1.00  0.00    -0.206 F 
ATOM     80  C   UNL A   1      45.340  33.797  32.973  1.00  0.00     0.040 A 
ATOM     81  C   UNL A   1      45.696  34.595  30.728  1.00  0.00     0.040 A 
ATOM     82  F   UNL A   1      45.211  33.208  28.900  1.00  0.00    -0.206 F 
ATOM     83  C   UNL A   1      45.741  34.811  32.105  1.00  0.00     0.006 A 
ENDBRANCH  59  76
ENDBRANCH  33  34
ENDBRANCH  25  28
ENDBRANCH  23  24
ENDBRANCH  22  23
ENDBRANCH   1  22
TORSDOF 13
ENDMDL
MODEL 3
REMARK VINA RESULT:     -11.5      3.332      7.699
REMARK SMILES C[C@H](c1ccc(Br)s1)[NH+]1CCC(CC(=O)NCCCNC(=O)c2ccc(-c3c4nc(c(-c5c(F)cccc5F)c5ccc([nH]5)c(-c5c(F)cccc5F)c5nc(c(-c6c(F)cccc6F)c6ccc3[nH]6)C=C5)C=C4)cc2)CC1
REMARK SMILES IDX 17 1 16 2 14 3 15 4 13 6 12 7 9 8 10 9 78 10 11 12 77 13
REMARK SMILES IDX 2 14 1 15 3 16 4 17 8 18 5 19 6 20 7 21 18 22 19 23 20 24
REMARK SMILES IDX 21 25 22 27 23 28 24 29 76 30 25 31 75 32 26 33 27 34 28 35
REMARK SMILES IDX 69 36 29 37 74 38 68 39 70 40 30 41 73 42 67 43 66 44 31 46
REMARK SMILES IDX 57 47 40 48 56 49 41 50 44 51 55 52 71 53 42 54 43 55 54 57
REMARK SMILES IDX 72 58 45 59 32 60 33 61 38 62 34 63 35 64 37 65 39 66 36 67
REMARK SMILES IDX 58 68 59 69 64 70 60 71 61 72 63 73 65 74 62 75 46 76 47 77
REMARK SMILES IDX 52 78 48 79 49 80 51 81 53 82 50 83
REMARK H PARENT 16 5 9 11 20 26 70 45 44 56
REMARK Flexibility Score: inf
ROOT
ATOM      1  C   UNL A   1      31.808  29.422  25.508  1.00  0.00     0.117 C 
ENDROOT
BRANCH   1   2
ATOM      2  N   UNL A   1      31.405  29.509  24.108  1.00  0.00    -0.356 N 
ATOM      3  C   UNL A   1      30.690  28.654  23.317  1.00  0.00     0.220 C 
ATOM      4  O   UNL A   1      30.432  29.017  22.167  1.00  0.00    -0.275 OA
ATOM      5  H   UNL A   1      31.700  30.331  23.653  1.00  0.00     0.163 HD
BRANCH   3   6
ATOM      6  C   UNL A   1      30.273  27.274  23.806  1.00  0.00     0.104 C 
BRANCH   6   7
ATOM      7  C   UNL A   1      31.445  26.273  23.784  1.00  0.00     0.009 C 
ATOM      8  N   UNL A   1      32.211  23.431  23.900  1.00  0.00    -0.328 N 
ATOM      9  C   UNL A   1      32.429  24.298  25.055  1.00  0.00     0.263 C 
ATOM     10  C   UNL A   1      32.407  24.191  22.655  1.00  0.00     0.263 C 
ATOM     11  H   UNL A   1      31.240  23.122  23.930  1.00  0.00     0.348 HD
ATOM     12  C   UNL A   1      31.428  25.430  25.051  1.00  0.00     0.066 C 
ATOM     13  C   UNL A   1      31.400  25.353  22.554  1.00  0.00     0.066 C 
BRANCH   8  14
ATOM     14  C   UNL A   1      32.986  22.168  23.946  1.00  0.00     0.222 C 
ATOM     15  C   UNL A   1      32.444  21.245  25.053  1.00  0.00     0.082 C 
BRANCH  14  16
ATOM     16  C   UNL A   1      34.485  22.362  24.078  1.00  0.00     0.063 A 
ATOM     17  C   UNL A   1      35.379  22.951  23.195  1.00  0.00     0.023 A 
ATOM     18  S   UNL A   1      35.303  21.798  25.484  1.00  0.00    -0.127 S 
ATOM     19  C   UNL A   1      36.732  22.848  23.628  1.00  0.00     0.028 A 
ATOM     20  C   UNL A   1      36.810  22.242  24.855  1.00  0.00     0.070 A 
ATOM     21  Br  UNL A   1      38.425  21.932  25.751  1.00  0.00    -0.039 Br
ENDBRANCH  14  16
ENDBRANCH   8  14
ENDBRANCH   6   7
ENDBRANCH   3   6
ENDBRANCH   1   2
BRANCH   1  22
ATOM     22  C   UNL A   1      33.172  28.751  25.726  1.00  0.00     0.042 C 
BRANCH  22  23
ATOM     23  C   UNL A   1      33.658  28.728  27.171  1.00  0.00     0.118 C 
BRANCH  23  24
ATOM     24  N   UNL A   1      33.732  30.069  27.725  1.00  0.00    -0.352 N 
ATOM     25  C   UNL A   1      34.726  30.679  28.452  1.00  0.00     0.251 C 
ATOM     26  H   UNL A   1      32.944  30.631  27.551  1.00  0.00     0.163 HD
ATOM     27  O   UNL A   1      34.460  31.711  29.064  1.00  0.00    -0.269 OA
BRANCH  25  28
ATOM     28  C   UNL A   1      36.108  30.134  28.521  1.00  0.00     0.039 A 
ATOM     29  C   UNL A   1      36.567  29.632  29.746  1.00  0.00     0.014 A 
ATOM     30  C   UNL A   1      36.996  30.212  27.444  1.00  0.00     0.014 A 
ATOM     31  C   UNL A   1      37.889  29.191  29.883  1.00  0.00     0.010 A 
ATOM     32  C   UNL A   1      38.296  29.710  27.561  1.00  0.00     0.010 A 
ATOM     33  C   UNL A   1      38.765  29.213  28.788  1.00  0.00    -0.014 A 
BRANCH  33  34
ATOM     34  C   UNL A   1      40.183  28.776  28.918  1.00  0.00     0.031 A 
ATOM     35  C   UNL A   1      41.221  29.727  29.456  1.00  0.00     0.074 A 
ATOM     36  C   UNL A   1      40.556  27.543  28.523  1.00  0.00     0.049 A 
ATOM     37  N   UNL A   1      42.518  29.573  29.554  1.00  0.00    -0.248 NA
ATOM     38  C   UNL A   1      40.736  31.034  29.932  1.00  0.00     0.031 C 
ATOM     39  C   UNL A   1      39.662  26.522  27.975  1.00  0.00     0.029 A 
ATOM     40  N   UNL A   1      41.791  26.942  28.516  1.00  0.00    -0.354 N 
ATOM     41  C   UNL A   1      43.004  30.764  30.080  1.00  0.00     0.074 A 
ATOM     42  C   UNL A   1      41.869  31.647  30.243  1.00  0.00     0.031 C 
ATOM     43  C   UNL A   1      40.375  25.416  27.702  1.00  0.00     0.029 A 
ATOM     44  C   UNL A   1      41.779  25.660  28.019  1.00  0.00     0.049 A 
ATOM     45  H   UNL A   1      42.608  27.386  28.838  1.00  0.00     0.167 HD
ATOM     46  C   UNL A   1      44.275  31.090  30.419  1.00  0.00     0.037 A 
ATOM     47  C   UNL A   1      42.785  24.785  27.830  1.00  0.00     0.037 A 
ATOM     48  C   UNL A   1      45.405  30.207  30.294  1.00  0.00     0.049 A 
ATOM     49  C   UNL A   1      44.191  25.177  28.197  1.00  0.00     0.074 A 
ATOM     50  C   UNL A   1      46.726  30.441  30.637  1.00  0.00     0.029 A 
ATOM     51  N   UNL A   1      45.345  28.915  29.797  1.00  0.00    -0.354 N 
ATOM     52  N   UNL A   1      44.628  26.300  28.713  1.00  0.00    -0.248 NA
ATOM     53  C   UNL A   1      45.242  24.177  27.958  1.00  0.00     0.031 C 
ATOM     54  C   UNL A   1      47.470  29.297  30.324  1.00  0.00     0.029 A 
ATOM     55  C   UNL A   1      46.605  28.341  29.818  1.00  0.00     0.049 A 
ATOM     56  H   UNL A   1      44.527  28.470  29.476  1.00  0.00     0.167 HD
ATOM     57  C   UNL A   1      45.996  26.129  28.888  1.00  0.00     0.074 A 
ATOM     58  C   UNL A   1      46.315  24.793  28.432  1.00  0.00     0.031 C 
ATOM     59  C   UNL A   1      46.905  27.003  29.383  1.00  0.00     0.037 A 
BRANCH  46  60
ATOM     60  C   UNL A   1      44.513  32.464  30.972  1.00  0.00     0.057 A 
ATOM     61  C   UNL A   1      44.444  32.723  32.347  1.00  0.00     0.134 A 
ATOM     62  C   UNL A   1      44.854  33.529  30.129  1.00  0.00     0.134 A 
ATOM     63  F   UNL A   1      44.112  31.748  33.207  1.00  0.00    -0.206 F 
ATOM     64  C   UNL A   1      44.685  33.998  32.863  1.00  0.00     0.040 A 
ATOM     65  C   UNL A   1      45.120  34.802  30.635  1.00  0.00     0.040 A 
ATOM     66  F   UNL A   1      44.944  33.347  28.804  1.00  0.00    -0.206 F 
ATOM     67  C   UNL A   1      45.031  35.041  32.005  1.00  0.00     0.006 A 
ENDBRANCH  46  60
BRANCH  47  68
ATOM     68  C   UNL A   1      42.507  23.436  27.278  1.00  0.00     0.057 A 
ATOM     69  C   UNL A   1      42.180  22.368  28.123  1.00  0.00     0.134 A 
ATOM     70  C   UNL A   1      42.589  23.173  25.906  1.00  0.00     0.134 A 
ATOM     71  F   UNL A   1      42.108  22.554  29.448  1.00  0.00    -0.206 F 
ATOM     72  C   UNL A   1      41.964  21.082  27.624  1.00  0.00     0.040 A 
ATOM     73  C   UNL A   1      42.354  21.897  25.392  1.00  0.00     0.040 A 
ATOM     74  F   UNL A   1      42.896  24.156  25.046  1.00  0.00    -0.206 F 
ATOM     75  C   UNL A   1      42.048  20.845  26.253  1.00  0.00     0.006 A 
ENDBRANCH  47  68
BRANCH  59  76
ATOM     76  C   UNL A   1      48.321  26.528  29.504  1.00  0.00     0.057 A 
ATOM     77  C   UNL A   1      48.786  25.877  30.653  1.00  0.00     0.134 A 
ATOM     78  C   UNL A   1      49.218  26.686  28.439  1.00  0.00     0.134 A 
ATOM     79  F   UNL A   1      47.979  25.706  31.711  1.00  0.00    -0.206 F 
ATOM     80  C   UNL A   1      50.100  25.415  30.746  1.00  0.00     0.040 A 
ATOM     81  C   UNL A   1      50.528  26.210  28.513  1.00  0.00     0.040 A 
ATOM     82  F   UNL A   1      48.832  27.295  27.309  1.00  0.00    -0.206 F 
ATOM     83  C   UNL A   1      50.973  25.576  29.672  1.00  0.00     0.006 A 
ENDBRANCH  59  76
ENDBRANCH  33  34
ENDBRANCH  25  28
ENDBRANCH  23  24
ENDBRANCH  22  23
ENDBRANCH   1  22
TORSDOF 13
ENDMDL
