MODEL 1
REMARK VINA RESULT:     -13.1      0.000      0.000
REMARK SMILES O=C(NCCCNC(=O)[C@@H]1CCCC[C@@H]1C(=O)Nc1ccccc1C(=O)N1CCN(c2ccc(F)cc2)CC1)c1ccc(-c2c3nc(c(-c4c(F)cccc4F)c4ccc([nH]4)c(-c4c(F)cccc4F)c4nc(c(-c5c(F)cccc5F)c5ccc2[nH]5)C=C4)C=C3)cc1
REMARK SMILES IDX 6 1 5 2 4 3 3 4 1 5 2 6 40 8 41 9 93 10 42 11 92 12 43 13
REMARK SMILES IDX 44 14 45 15 86 16 46 17 91 18 85 19 87 20 47 21 90 22 84 23
REMARK SMILES IDX 83 24 48 26 74 27 57 28 73 29 58 30 61 31 72 32 88 33 59 34
REMARK SMILES IDX 60 35 71 37 89 38 62 39 49 40 50 41 55 42 51 43 52 44 54 45
REMARK SMILES IDX 56 46 53 47 75 48 76 49 81 50 77 51 78 52 80 53 82 54 79 55
REMARK SMILES IDX 63 56 64 57 69 58 65 59 66 60 68 61 70 62 67 63 7 64 8 65
REMARK SMILES IDX 9 67 10 68 11 69 15 70 12 71 14 72 13 73 16 74 17 75 18 76
REMARK SMILES IDX 19 78 20 79 24 80 21 81 23 82 22 83 25 84 26 85 27 86 28 87
REMARK SMILES IDX 39 88 29 89 38 90 30 91 31 92 32 93 37 94 33 95 36 96 34 97
REMARK SMILES IDX 35 98
REMARK H PARENT 3 7 87 25 61 36 7 66 18 77
REMARK Flexibility Score: inf
ROOT
ATOM      1  C   UNL A   1      34.661  32.037  28.999  1.00  0.00     0.117 C 
ENDROOT
BRANCH   1   2
ATOM      2  C   UNL A   1      34.645  33.589  29.014  1.00  0.00     0.042 C 
BRANCH   2   3
ATOM      3  C   UNL A   1      33.303  34.366  28.831  1.00  0.00     0.118 C 
BRANCH   3   4
ATOM      4  N   UNL A   1      32.678  35.038  29.981  1.00  0.00    -0.352 N 
ATOM      5  O   UNL A   1      32.290  35.825  32.070  1.00  0.00    -0.269 OA
ATOM      6  C   UNL A   1      33.019  35.213  31.311  1.00  0.00     0.251 C 
ATOM      7  H   UNL A   1      31.819  35.460  29.751  1.00  0.00     0.163 HD
BRANCH   6   8
ATOM      8  C   UNL A   1      34.242  34.646  31.913  1.00  0.00     0.039 A 
ATOM      9  C   UNL A   1      35.441  35.337  31.926  1.00  0.00     0.014 A 
ATOM     10  C   UNL A   1      34.156  33.377  32.514  1.00  0.00     0.014 A 
ATOM     11  C   UNL A   1      36.596  34.677  32.308  1.00  0.00     0.010 A 
ATOM     12  C   UNL A   1      35.301  32.757  33.010  1.00  0.00     0.010 A 
ATOM     13  C   UNL A   1      36.541  33.376  32.837  1.00  0.00    -0.014 A 
BRANCH  13  14
ATOM     14  C   UNL A   1      37.804  32.689  33.177  1.00  0.00     0.031 A 
ATOM     15  C   UNL A   1      38.490  32.964  34.485  1.00  0.00     0.074 A 
ATOM     16  C   UNL A   1      38.279  31.759  32.330  1.00  0.00     0.049 A 
ATOM     17  N   UNL A   1      39.586  32.435  34.965  1.00  0.00    -0.248 NA
ATOM     18  C   UNL A   1      37.876  33.971  35.365  1.00  0.00     0.031 C 
ATOM     19  C   UNL A   1      37.682  31.424  31.035  1.00  0.00     0.029 A 
ATOM     20  N   UNL A   1      39.342  30.906  32.439  1.00  0.00    -0.354 N 
ATOM     21  C   UNL A   1      39.811  33.068  36.181  1.00  0.00     0.074 A 
ATOM     22  C   UNL A   1      38.749  34.032  36.361  1.00  0.00     0.031 C 
ATOM     23  C   UNL A   1      38.348  30.393  30.499  1.00  0.00     0.029 A 
ATOM     24  C   UNL A   1      39.463  30.050  31.374  1.00  0.00     0.049 A 
ATOM     25  H   UNL A   1      39.960  30.905  33.206  1.00  0.00     0.167 HD
ATOM     26  C   UNL A   1      40.816  32.856  37.065  1.00  0.00     0.037 A 
ATOM     27  C   UNL A   1      40.386  29.107  31.116  1.00  0.00     0.037 A 
ATOM     28  C   UNL A   1      41.844  31.864  36.884  1.00  0.00     0.049 A 
ATOM     29  C   UNL A   1      41.481  28.883  32.112  1.00  0.00     0.074 A 
ATOM     30  C   UNL A   1      42.890  31.541  37.728  1.00  0.00     0.029 A 
ATOM     31  N   UNL A   1      41.949  31.032  35.777  1.00  0.00    -0.354 N 
ATOM     32  N   UNL A   1      41.683  29.488  33.258  1.00  0.00    -0.248 NA
ATOM     33  C   UNL A   1      42.482  27.862  31.780  1.00  0.00     0.031 C 
ATOM     34  C   UNL A   1      43.651  30.540  37.115  1.00  0.00     0.029 A 
ATOM     35  C   UNL A   1      43.053  30.208  35.908  1.00  0.00     0.049 A 
ATOM     36  H   UNL A   1      41.329  31.028  35.012  1.00  0.00     0.167 HD
ATOM     37  C   UNL A   1      42.831  28.920  33.790  1.00  0.00     0.074 A 
ATOM     38  C   UNL A   1      43.271  27.910  32.845  1.00  0.00     0.031 C 
ATOM     39  C   UNL A   1      43.466  29.212  34.951  1.00  0.00     0.037 A 
BRANCH  26  40
ATOM     40  C   UNL A   1      40.868  33.736  38.280  1.00  0.00     0.057 A 
ATOM     41  C   UNL A   1      40.149  33.447  39.447  1.00  0.00     0.134 A 
ATOM     42  C   UNL A   1      41.664  34.890  38.285  1.00  0.00     0.134 A 
ATOM     43  F   UNL A   1      39.356  32.366  39.507  1.00  0.00    -0.206 F 
ATOM     44  C   UNL A   1      40.199  34.285  40.563  1.00  0.00     0.040 A 
ATOM     45  C   UNL A   1      41.741  35.722  39.403  1.00  0.00     0.040 A 
ATOM     46  F   UNL A   1      42.382  35.225  37.203  1.00  0.00    -0.206 F 
ATOM     47  C   UNL A   1      41.000  35.425  40.545  1.00  0.00     0.006 A 
ENDBRANCH  26  40
BRANCH  27  48
ATOM     48  C   UNL A   1      40.295  28.342  29.850  1.00  0.00     0.057 A 
ATOM     49  C   UNL A   1      41.115  28.640  28.759  1.00  0.00     0.134 A 
ATOM     50  C   UNL A   1      39.451  27.228  29.742  1.00  0.00     0.134 A 
ATOM     51  F   UNL A   1      41.938  29.698  28.799  1.00  0.00    -0.206 F 
ATOM     52  C   UNL A   1      41.107  27.851  27.606  1.00  0.00     0.040 A 
ATOM     53  C   UNL A   1      39.452  26.417  28.608  1.00  0.00     0.040 A 
ATOM     54  F   UNL A   1      38.652  26.884  30.764  1.00  0.00    -0.206 F 
ATOM     55  C   UNL A   1      40.283  26.728  27.536  1.00  0.00     0.006 A 
ENDBRANCH  27  48
BRANCH  39  56
ATOM     56  C   UNL A   1      44.691  28.413  35.271  1.00  0.00     0.057 A 
ATOM     57  C   UNL A   1      45.966  28.837  34.884  1.00  0.00     0.134 A 
ATOM     58  C   UNL A   1      44.593  27.235  36.021  1.00  0.00     0.134 A 
ATOM     59  F   UNL A   1      46.120  29.951  34.154  1.00  0.00    -0.206 F 
ATOM     60  C   UNL A   1      47.106  28.108  35.223  1.00  0.00     0.040 A 
ATOM     61  C   UNL A   1      45.727  26.508  36.383  1.00  0.00     0.040 A 
ATOM     62  F   UNL A   1      43.397  26.781  36.426  1.00  0.00    -0.206 F 
ATOM     63  C   UNL A   1      46.988  26.944  35.981  1.00  0.00     0.006 A 
ENDBRANCH  39  56
ENDBRANCH  13  14
ENDBRANCH   6   8
ENDBRANCH   3   4
ENDBRANCH   2   3
ENDBRANCH   1   2
BRANCH   1  64
ATOM     64  N   UNL A   1      33.765  31.424  27.963  1.00  0.00    -0.356 N 
ATOM     65  C   UNL A   1      34.018  30.186  27.381  1.00  0.00     0.223 C 
ATOM     66  H   UNL A   1      32.962  31.920  27.683  1.00  0.00     0.163 HD
ATOM     67  O   UNL A   1      34.914  29.476  27.843  1.00  0.00    -0.275 OA
BRANCH  65  68
ATOM     68  C   UNL A   1      33.138  29.692  26.171  1.00  0.00     0.091 C 
ATOM     69  C   UNL A   1      31.881  30.593  26.099  1.00  0.00     0.014 C 
ATOM     70  C   UNL A   1      32.734  28.171  25.953  1.00  0.00     0.091 C 
ATOM     71  C   UNL A   1      30.979  30.359  24.887  1.00  0.00     0.001 C 
ATOM     72  C   UNL A   1      32.104  28.095  24.538  1.00  0.00     0.014 C 
ATOM     73  C   UNL A   1      30.809  28.907  24.451  1.00  0.00     0.001 C 
BRANCH  70  74
ATOM     74  C   UNL A   1      31.656  27.539  26.891  1.00  0.00     0.228 C 
ATOM     75  O   UNL A   1      31.340  28.087  27.955  1.00  0.00    -0.274 OA
ATOM     76  N   UNL A   1      30.844  26.488  26.539  1.00  0.00    -0.325 N 
ATOM     77  H   UNL A   1      30.084  26.373  27.152  1.00  0.00     0.169 HD
BRANCH  76  78
ATOM     78  C   UNL A   1      30.852  25.538  25.497  1.00  0.00     0.054 A 
ATOM     79  C   UNL A   1      29.838  25.671  24.538  1.00  0.00     0.027 A 
ATOM     80  C   UNL A   1      31.742  24.472  25.347  1.00  0.00     0.063 A 
ATOM     81  C   UNL A   1      29.859  24.919  23.356  1.00  0.00     0.002 A 
ATOM     82  C   UNL A   1      31.814  23.771  24.128  1.00  0.00     0.016 A 
ATOM     83  C   UNL A   1      30.887  24.016  23.122  1.00  0.00     0.001 A 
BRANCH  80  84
ATOM     84  C   UNL A   1      32.592  23.969  26.436  1.00  0.00     0.256 C 
ATOM     85  O   UNL A   1      32.044  23.652  27.492  1.00  0.00    -0.269 OA
ATOM     86  N   UNL A   1      33.922  23.675  26.156  1.00  0.00    -0.335 N 
ATOM     87  C   UNL A   1      34.377  22.501  26.811  1.00  0.00     0.141 C 
ATOM     88  C   UNL A   1      35.021  24.626  25.878  1.00  0.00     0.141 C 
ATOM     89  C   UNL A   1      35.467  21.808  26.022  1.00  0.00     0.138 C 
ATOM     90  C   UNL A   1      36.334  23.964  25.268  1.00  0.00     0.138 C 
ATOM     91  N   UNL A   1      36.640  22.650  25.875  1.00  0.00    -0.368 N 
BRANCH  91  92
ATOM     92  C   UNL A   1      37.750  21.852  25.533  1.00  0.00     0.037 A 
ATOM     93  C   UNL A   1      37.589  20.578  24.953  1.00  0.00     0.029 A 
ATOM     94  C   UNL A   1      38.990  22.133  26.133  1.00  0.00     0.029 A 
ATOM     95  C   UNL A   1      38.572  19.589  25.091  1.00  0.00     0.041 A 
ATOM     96  C   UNL A   1      39.971  21.147  26.280  1.00  0.00     0.041 A 
ATOM     97  C   UNL A   1      39.741  19.875  25.778  1.00  0.00     0.123 A 
ATOM     98  F   UNL A   1      40.645  18.908  25.987  1.00  0.00    -0.207 F 
ENDBRANCH  91  92
ENDBRANCH  80  84
ENDBRANCH  76  78
ENDBRANCH  70  74
ENDBRANCH  65  68
ENDBRANCH   1  64
TORSDOF 14
ENDMDL
MODEL 2
REMARK VINA RESULT:     -13.0      7.210     12.072
REMARK SMILES O=C(NCCCNC(=O)[C@@H]1CCCC[C@@H]1C(=O)Nc1ccccc1C(=O)N1CCN(c2ccc(F)cc2)CC1)c1ccc(-c2c3nc(c(-c4c(F)cccc4F)c4ccc([nH]4)c(-c4c(F)cccc4F)c4nc(c(-c5c(F)cccc5F)c5ccc2[nH]5)C=C4)C=C3)cc1
REMARK SMILES IDX 6 1 5 2 4 3 3 4 1 5 2 6 40 8 41 9 93 10 42 11 92 12 43 13
REMARK SMILES IDX 44 14 45 15 86 16 46 17 91 18 85 19 87 20 47 21 90 22 84 23
REMARK SMILES IDX 83 24 48 26 74 27 57 28 73 29 58 30 61 31 72 32 88 33 59 34
REMARK SMILES IDX 60 35 71 37 89 38 62 39 49 40 50 41 55 42 51 43 52 44 54 45
REMARK SMILES IDX 56 46 53 47 75 48 76 49 81 50 77 51 78 52 80 53 82 54 79 55
REMARK SMILES IDX 63 56 64 57 69 58 65 59 66 60 68 61 70 62 67 63 7 64 8 65
REMARK SMILES IDX 9 67 10 68 11 69 15 70 12 71 14 72 13 73 16 74 17 75 18 76
REMARK SMILES IDX 19 78 20 79 24 80 21 81 23 82 22 83 25 84 26 85 27 86 28 87
REMARK SMILES IDX 39 88 29 89 38 90 30 91 31 92 32 93 37 94 33 95 36 96 34 97
REMARK SMILES IDX 35 98
REMARK H PARENT 3 7 87 25 61 36 7 66 18 77
REMARK Flexibility Score: inf
ROOT
ATOM      1  C   UNL A   1      39.362  24.737  26.751  1.00  0.00     0.117 C 
ENDROOT
BRANCH   1   2
ATOM      2  C   UNL A   1      40.167  24.405  28.037  1.00  0.00     0.042 C 
BRANCH   2   3
ATOM      3  C   UNL A   1      41.137  23.181  28.065  1.00  0.00     0.118 C 
BRANCH   3   4
ATOM      4  N   UNL A   1      41.686  22.648  26.809  1.00  0.00    -0.352 N 
ATOM      5  O   UNL A   1      42.913  22.413  24.918  1.00  0.00    -0.269 OA
ATOM      6  C   UNL A   1      42.656  23.065  25.915  1.00  0.00     0.251 C 
ATOM      7  H   UNL A   1      41.265  21.799  26.542  1.00  0.00     0.163 HD
BRANCH   6   8
ATOM      8  C   UNL A   1      43.410  24.325  26.069  1.00  0.00     0.039 A 
ATOM      9  C   UNL A   1      43.526  25.241  25.037  1.00  0.00     0.014 A 
ATOM     10  C   UNL A   1      43.994  24.599  27.319  1.00  0.00     0.014 A 
ATOM     11  C   UNL A   1      44.415  26.294  25.167  1.00  0.00     0.010 A 
ATOM     12  C   UNL A   1      44.795  25.725  27.488  1.00  0.00     0.010 A 
ATOM     13  C   UNL A   1      45.071  26.537  26.385  1.00  0.00    -0.014 A 
BRANCH  13  14
ATOM     14  C   UNL A   1      46.054  27.637  26.460  1.00  0.00     0.031 A 
ATOM     15  C   UNL A   1      47.520  27.361  26.281  1.00  0.00     0.074 A 
ATOM     16  C   UNL A   1      45.601  28.894  26.610  1.00  0.00     0.049 A 
ATOM     17  N   UNL A   1      48.521  28.204  26.285  1.00  0.00    -0.248 NA
ATOM     18  C   UNL A   1      47.918  25.959  26.085  1.00  0.00     0.031 C 
ATOM     19  C   UNL A   1      44.194  29.260  26.793  1.00  0.00     0.029 A 
ATOM     20  N   UNL A   1      46.260  30.093  26.599  1.00  0.00    -0.354 N 
ATOM     21  C   UNL A   1      49.666  27.432  26.129  1.00  0.00     0.074 A 
ATOM     22  C   UNL A   1      49.240  26.053  26.048  1.00  0.00     0.031 C 
ATOM     23  C   UNL A   1      44.088  30.596  26.811  1.00  0.00     0.029 A 
ATOM     24  C   UNL A   1      45.425  31.174  26.723  1.00  0.00     0.049 A 
ATOM     25  H   UNL A   1      47.237  30.172  26.512  1.00  0.00     0.167 HD
ATOM     26  C   UNL A   1      50.953  27.845  26.056  1.00  0.00     0.037 A 
ATOM     27  C   UNL A   1      45.704  32.487  26.782  1.00  0.00     0.037 A 
ATOM     28  C   UNL A   1      51.353  29.228  26.101  1.00  0.00     0.049 A 
ATOM     29  C   UNL A   1      47.134  32.921  26.690  1.00  0.00     0.074 A 
ATOM     30  C   UNL A   1      52.624  29.763  26.004  1.00  0.00     0.029 A 
ATOM     31  N   UNL A   1      50.478  30.296  26.254  1.00  0.00    -0.354 N 
ATOM     32  N   UNL A   1      48.207  32.183  26.542  1.00  0.00    -0.248 NA
ATOM     33  C   UNL A   1      47.397  34.362  26.785  1.00  0.00     0.031 C 
ATOM     34  C   UNL A   1      52.523  31.153  26.137  1.00  0.00     0.029 A 
ATOM     35  C   UNL A   1      51.184  31.486  26.271  1.00  0.00     0.049 A 
ATOM     36  H   UNL A   1      49.501  30.218  26.336  1.00  0.00     0.167 HD
ATOM     37  C   UNL A   1      49.276  33.065  26.522  1.00  0.00     0.074 A 
ATOM     38  C   UNL A   1      48.717  34.398  26.657  1.00  0.00     0.031 C 
ATOM     39  C   UNL A   1      50.600  32.797  26.407  1.00  0.00     0.037 A 
BRANCH  26  40
ATOM     40  C   UNL A   1      52.017  26.790  25.960  1.00  0.00     0.057 A 
ATOM     41  C   UNL A   1      52.383  26.203  24.741  1.00  0.00     0.134 A 
ATOM     42  C   UNL A   1      52.696  26.362  27.109  1.00  0.00     0.134 A 
ATOM     43  F   UNL A   1      51.763  26.554  23.605  1.00  0.00    -0.206 F 
ATOM     44  C   UNL A   1      53.364  25.212  24.673  1.00  0.00     0.040 A 
ATOM     45  C   UNL A   1      53.697  25.391  27.050  1.00  0.00     0.040 A 
ATOM     46  F   UNL A   1      52.400  26.885  28.308  1.00  0.00    -0.206 F 
ATOM     47  C   UNL A   1      54.028  24.806  25.829  1.00  0.00     0.006 A 
ENDBRANCH  26  40
BRANCH  27  48
ATOM     48  C   UNL A   1      44.591  33.450  26.958  1.00  0.00     0.057 A 
ATOM     49  C   UNL A   1      44.184  33.869  28.227  1.00  0.00     0.134 A 
ATOM     50  C   UNL A   1      43.977  34.048  25.850  1.00  0.00     0.134 A 
ATOM     51  F   UNL A   1      44.729  33.326  29.326  1.00  0.00    -0.206 F 
ATOM     52  C   UNL A   1      43.211  34.857  28.389  1.00  0.00     0.040 A 
ATOM     53  C   UNL A   1      43.023  35.055  25.997  1.00  0.00     0.040 A 
ATOM     54  F   UNL A   1      44.338  33.698  24.606  1.00  0.00    -0.206 F 
ATOM     55  C   UNL A   1      42.638  35.462  27.271  1.00  0.00     0.006 A 
ENDBRANCH  27  48
BRANCH  39  56
ATOM     56  C   UNL A   1      51.529  33.972  26.401  1.00  0.00     0.057 A 
ATOM     57  C   UNL A   1      52.085  34.474  27.583  1.00  0.00     0.134 A 
ATOM     58  C   UNL A   1      51.911  34.568  25.194  1.00  0.00     0.134 A 
ATOM     59  F   UNL A   1      51.746  33.949  28.770  1.00  0.00    -0.206 F 
ATOM     60  C   UNL A   1      52.983  35.541  27.565  1.00  0.00     0.040 A 
ATOM     61  C   UNL A   1      52.823  35.623  25.162  1.00  0.00     0.040 A 
ATOM     62  F   UNL A   1      51.416  34.126  24.029  1.00  0.00    -0.206 F 
ATOM     63  C   UNL A   1      53.360  36.113  26.351  1.00  0.00     0.006 A 
ENDBRANCH  39  56
ENDBRANCH  13  14
ENDBRANCH   6   8
ENDBRANCH   3   4
ENDBRANCH   2   3
ENDBRANCH   1   2
BRANCH   1  64
ATOM     64  N   UNL A   1      38.056  24.007  26.638  1.00  0.00    -0.356 N 
ATOM     65  C   UNL A   1      37.926  22.788  25.980  1.00  0.00     0.223 C 
ATOM     66  H   UNL A   1      37.256  24.409  27.047  1.00  0.00     0.163 HD
ATOM     67  O   UNL A   1      38.940  22.188  25.618  1.00  0.00    -0.275 OA
BRANCH  65  68
ATOM     68  C   UNL A   1      36.494  22.173  25.741  1.00  0.00     0.091 C 
ATOM     69  C   UNL A   1      36.677  20.791  25.069  1.00  0.00     0.014 C 
ATOM     70  C   UNL A   1      35.312  22.970  25.041  1.00  0.00     0.091 C 
ATOM     71  C   UNL A   1      35.397  19.974  24.899  1.00  0.00     0.001 C 
ATOM     72  C   UNL A   1      34.038  22.107  25.242  1.00  0.00     0.014 C 
ATOM     73  C   UNL A   1      34.147  20.762  24.518  1.00  0.00     0.001 C 
BRANCH  70  74
ATOM     74  C   UNL A   1      35.378  23.208  23.498  1.00  0.00     0.228 C 
ATOM     75  O   UNL A   1      36.399  22.934  22.856  1.00  0.00    -0.274 OA
ATOM     76  N   UNL A   1      34.292  23.524  22.717  1.00  0.00    -0.325 N 
ATOM     77  H   UNL A   1      34.471  23.413  21.756  1.00  0.00     0.169 HD
BRANCH  76  78
ATOM     78  C   UNL A   1      32.980  23.969  22.979  1.00  0.00     0.054 A 
ATOM     79  C   UNL A   1      31.957  23.044  22.727  1.00  0.00     0.027 A 
ATOM     80  C   UNL A   1      32.604  25.236  23.431  1.00  0.00     0.063 A 
ATOM     81  C   UNL A   1      30.640  23.295  23.136  1.00  0.00     0.002 A 
ATOM     82  C   UNL A   1      31.302  25.462  23.915  1.00  0.00     0.016 A 
ATOM     83  C   UNL A   1      30.327  24.478  23.791  1.00  0.00     0.001 A 
BRANCH  80  84
ATOM     84  C   UNL A   1      33.485  26.411  23.370  1.00  0.00     0.256 C 
ATOM     85  O   UNL A   1      34.045  26.653  22.300  1.00  0.00    -0.269 OA
ATOM     86  N   UNL A   1      33.478  27.301  24.438  1.00  0.00    -0.335 N 
ATOM     87  C   UNL A   1      33.560  28.657  24.028  1.00  0.00     0.141 C 
ATOM     88  C   UNL A   1      34.026  27.090  25.796  1.00  0.00     0.141 C 
ATOM     89  C   UNL A   1      32.870  29.580  25.008  1.00  0.00     0.138 C 
ATOM     90  C   UNL A   1      33.559  28.164  26.875  1.00  0.00     0.138 C 
ATOM     91  N   UNL A   1      33.492  29.533  26.318  1.00  0.00    -0.368 N 
BRANCH  91  92
ATOM     92  C   UNL A   1      33.122  30.677  27.054  1.00  0.00     0.037 A 
ATOM     93  C   UNL A   1      31.954  31.403  26.747  1.00  0.00     0.029 A 
ATOM     94  C   UNL A   1      34.105  31.331  27.817  1.00  0.00     0.029 A 
ATOM     95  C   UNL A   1      31.840  32.762  27.069  1.00  0.00     0.041 A 
ATOM     96  C   UNL A   1      33.999  32.690  28.134  1.00  0.00     0.041 A 
ATOM     97  C   UNL A   1      32.877  33.399  27.734  1.00  0.00     0.123 A 
ATOM     98  F   UNL A   1      32.808  34.716  27.967  1.00  0.00    -0.207 F 
ENDBRANCH  91  92
ENDBRANCH  80  84
ENDBRANCH  76  78
ENDBRANCH  70  74
ENDBRANCH  65  68
ENDBRANCH   1  64
TORSDOF 14
ENDMDL
MODEL 3
REMARK VINA RESULT:     -13.0      5.669     11.157
REMARK SMILES O=C(NCCCNC(=O)[C@@H]1CCCC[C@@H]1C(=O)Nc1ccccc1C(=O)N1CCN(c2ccc(F)cc2)CC1)c1ccc(-c2c3nc(c(-c4c(F)cccc4F)c4ccc([nH]4)c(-c4c(F)cccc4F)c4nc(c(-c5c(F)cccc5F)c5ccc2[nH]5)C=C4)C=C3)cc1
REMARK SMILES IDX 6 1 5 2 4 3 3 4 1 5 2 6 40 8 41 9 93 10 42 11 92 12 43 13
REMARK SMILES IDX 44 14 45 15 86 16 46 17 91 18 85 19 87 20 47 21 90 22 84 23
REMARK SMILES IDX 83 24 48 26 74 27 57 28 73 29 58 30 61 31 72 32 88 33 59 34
REMARK SMILES IDX 60 35 71 37 89 38 62 39 49 40 50 41 55 42 51 43 52 44 54 45
REMARK SMILES IDX 56 46 53 47 75 48 76 49 81 50 77 51 78 52 80 53 82 54 79 55
REMARK SMILES IDX 63 56 64 57 69 58 65 59 66 60 68 61 70 62 67 63 7 64 8 65
REMARK SMILES IDX 9 67 10 68 11 69 15 70 12 71 14 72 13 73 16 74 17 75 18 76
REMARK SMILES IDX 19 78 20 79 24 80 21 81 23 82 22 83 25 84 26 85 27 86 28 87
REMARK SMILES IDX 39 88 29 89 38 90 30 91 31 92 32 93 37 94 33 95 36 96 34 97
REMARK SMILES IDX 35 98
REMARK H PARENT 3 7 87 25 61 36 7 66 18 77
REMARK Flexibility Score: inf
ROOT
ATOM      1  C   UNL A   1      40.629  22.407  26.370  1.00  0.00     0.117 C 
ENDROOT
BRANCH   1   2
ATOM      2  C   UNL A   1      41.642  21.284  26.722  1.00  0.00     0.042 C 
BRANCH   2   3
ATOM      3  C   UNL A   1      41.502  19.867  26.080  1.00  0.00     0.118 C 
BRANCH   3   4
ATOM      4  N   UNL A   1      42.624  19.286  25.328  1.00  0.00    -0.352 N 
ATOM      5  O   UNL A   1      44.615  19.032  24.276  1.00  0.00    -0.269 OA
ATOM      6  C   UNL A   1      43.862  19.746  24.913  1.00  0.00     0.251 C 
ATOM      7  H   UNL A   1      42.456  18.355  25.056  1.00  0.00     0.163 HD
BRANCH   6   8
ATOM      8  C   UNL A   1      44.339  21.121  25.164  1.00  0.00     0.039 A 
ATOM      9  C   UNL A   1      45.185  21.422  26.218  1.00  0.00     0.014 A 
ATOM     10  C   UNL A   1      43.936  22.134  24.276  1.00  0.00     0.014 A 
ATOM     11  C   UNL A   1      45.426  22.748  26.531  1.00  0.00     0.010 A 
ATOM     12  C   UNL A   1      44.278  23.461  24.523  1.00  0.00     0.010 A 
ATOM     13  C   UNL A   1      44.961  23.781  25.698  1.00  0.00    -0.014 A 
BRANCH  13  14
ATOM     14  C   UNL A   1      45.193  25.183  26.103  1.00  0.00     0.031 A 
ATOM     15  C   UNL A   1      44.095  25.981  26.744  1.00  0.00     0.074 A 
ATOM     16  C   UNL A   1      46.427  25.698  25.956  1.00  0.00     0.049 A 
ATOM     17  N   UNL A   1      44.125  27.211  27.190  1.00  0.00    -0.248 NA
ATOM     18  C   UNL A   1      42.789  25.321  26.897  1.00  0.00     0.031 C 
ATOM     19  C   UNL A   1      47.558  24.999  25.342  1.00  0.00     0.029 A 
ATOM     20  N   UNL A   1      46.947  26.904  26.339  1.00  0.00    -0.354 N 
ATOM     21  C   UNL A   1      42.839  27.482  27.640  1.00  0.00     0.074 A 
ATOM     22  C   UNL A   1      42.046  26.297  27.401  1.00  0.00     0.031 C 
ATOM     23  C   UNL A   1      48.654  25.762  25.449  1.00  0.00     0.029 A 
ATOM     24  C   UNL A   1      48.284  27.031  26.065  1.00  0.00     0.049 A 
ATOM     25  H   UNL A   1      46.414  27.611  26.770  1.00  0.00     0.167 HD
ATOM     26  C   UNL A   1      42.370  28.621  28.204  1.00  0.00     0.037 A 
ATOM     27  C   UNL A   1      49.119  28.066  26.264  1.00  0.00     0.037 A 
ATOM     28  C   UNL A   1      43.186  29.778  28.468  1.00  0.00     0.049 A 
ATOM     29  C   UNL A   1      48.581  29.310  26.898  1.00  0.00     0.074 A 
ATOM     30  C   UNL A   1      42.824  30.972  29.064  1.00  0.00     0.029 A 
ATOM     31  N   UNL A   1      44.534  29.879  28.150  1.00  0.00    -0.354 N 
ATOM     32  N   UNL A   1      47.363  29.555  27.320  1.00  0.00    -0.248 NA
ATOM     33  C   UNL A   1      49.519  30.425  27.075  1.00  0.00     0.031 C 
ATOM     34  C   UNL A   1      43.944  31.811  29.072  1.00  0.00     0.029 A 
ATOM     35  C   UNL A   1      45.014  31.123  28.522  1.00  0.00     0.049 A 
ATOM     36  H   UNL A   1      45.069  29.171  27.725  1.00  0.00     0.167 HD
ATOM     37  C   UNL A   1      47.386  30.849  27.816  1.00  0.00     0.074 A 
ATOM     38  C   UNL A   1      48.745  31.331  27.657  1.00  0.00     0.031 C 
ATOM     39  C   UNL A   1      46.373  31.574  28.350  1.00  0.00     0.037 A 
BRANCH  26  40
ATOM     40  C   UNL A   1      40.907  28.679  28.537  1.00  0.00     0.057 A 
ATOM     41  C   UNL A   1      39.934  29.008  27.584  1.00  0.00     0.134 A 
ATOM     42  C   UNL A   1      40.464  28.391  29.834  1.00  0.00     0.134 A 
ATOM     43  F   UNL A   1      40.289  29.311  26.326  1.00  0.00    -0.206 F 
ATOM     44  C   UNL A   1      38.578  29.073  27.915  1.00  0.00     0.040 A 
ATOM     45  C   UNL A   1      39.109  28.427  30.171  1.00  0.00     0.040 A 
ATOM     46  F   UNL A   1      41.340  28.064  30.796  1.00  0.00    -0.206 F 
ATOM     47  C   UNL A   1      38.162  28.777  29.211  1.00  0.00     0.006 A 
ENDBRANCH  26  40
BRANCH  27  48
ATOM     48  C   UNL A   1      50.531  27.942  25.829  1.00  0.00     0.057 A 
ATOM     49  C   UNL A   1      51.540  27.581  26.725  1.00  0.00     0.134 A 
ATOM     50  C   UNL A   1      50.882  28.085  24.480  1.00  0.00     0.134 A 
ATOM     51  F   UNL A   1      51.267  27.437  28.031  1.00  0.00    -0.206 F 
ATOM     52  C   UNL A   1      52.849  27.356  26.294  1.00  0.00     0.040 A 
ATOM     53  C   UNL A   1      52.180  27.839  24.032  1.00  0.00     0.040 A 
ATOM     54  F   UNL A   1      49.952  28.415  23.571  1.00  0.00    -0.206 F 
ATOM     55  C   UNL A   1      53.167  27.473  24.941  1.00  0.00     0.006 A 
ENDBRANCH  27  48
BRANCH  39  56
ATOM     56  C   UNL A   1      46.706  32.957  28.819  1.00  0.00     0.057 A 
ATOM     57  C   UNL A   1      47.182  33.199  30.112  1.00  0.00     0.134 A 
ATOM     58  C   UNL A   1      46.597  34.047  27.948  1.00  0.00     0.134 A 
ATOM     59  F   UNL A   1      47.295  32.195  30.995  1.00  0.00    -0.206 F 
ATOM     60  C   UNL A   1      47.530  34.484  30.527  1.00  0.00     0.040 A 
ATOM     61  C   UNL A   1      46.961  35.333  28.345  1.00  0.00     0.040 A 
ATOM     62  F   UNL A   1      46.152  33.876  26.694  1.00  0.00    -0.206 F 
ATOM     63  C   UNL A   1      47.427  35.554  29.640  1.00  0.00     0.006 A 
ENDBRANCH  39  56
ENDBRANCH  13  14
ENDBRANCH   6   8
ENDBRANCH   3   4
ENDBRANCH   2   3
ENDBRANCH   1   2
BRANCH   1  64
ATOM     64  N   UNL A   1      39.260  21.909  26.012  1.00  0.00    -0.356 N 
ATOM     65  C   UNL A   1      38.160  22.750  25.878  1.00  0.00     0.223 C 
ATOM     66  H   UNL A   1      39.134  20.944  25.865  1.00  0.00     0.163 HD
ATOM     67  O   UNL A   1      38.332  23.971  25.883  1.00  0.00    -0.275 OA
BRANCH  65  68
ATOM     68  C   UNL A   1      36.721  22.137  25.683  1.00  0.00     0.091 C 
ATOM     69  C   UNL A   1      36.885  20.730  25.060  1.00  0.00     0.014 C 
ATOM     70  C   UNL A   1      35.534  22.916  24.972  1.00  0.00     0.091 C 
ATOM     71  C   UNL A   1      35.596  19.916  24.939  1.00  0.00     0.001 C 
ATOM     72  C   UNL A   1      34.257  22.070  25.223  1.00  0.00     0.014 C 
ATOM     73  C   UNL A   1      34.346  20.699  24.548  1.00  0.00     0.001 C 
BRANCH  70  74
ATOM     74  C   UNL A   1      35.578  23.097  23.420  1.00  0.00     0.228 C 
ATOM     75  O   UNL A   1      36.609  22.850  22.782  1.00  0.00    -0.274 OA
ATOM     76  N   UNL A   1      34.473  23.327  22.636  1.00  0.00    -0.325 N 
ATOM     77  H   UNL A   1      34.652  23.188  21.679  1.00  0.00     0.169 HD
BRANCH  76  78
ATOM     78  C   UNL A   1      33.142  23.716  22.891  1.00  0.00     0.054 A 
ATOM     79  C   UNL A   1      32.164  22.737  22.666  1.00  0.00     0.027 A 
ATOM     80  C   UNL A   1      32.708  24.975  23.312  1.00  0.00     0.063 A 
ATOM     81  C   UNL A   1      30.838  22.935  23.072  1.00  0.00     0.002 A 
ATOM     82  C   UNL A   1      31.396  25.150  23.794  1.00  0.00     0.016 A 
ATOM     83  C   UNL A   1      30.469  24.119  23.698  1.00  0.00     0.001 A 
BRANCH  80  84
ATOM     84  C   UNL A   1      33.531  26.189  23.218  1.00  0.00     0.256 C 
ATOM     85  O   UNL A   1      34.040  26.454  22.128  1.00  0.00    -0.269 OA
ATOM     86  N   UNL A   1      33.523  27.079  24.286  1.00  0.00    -0.335 N 
ATOM     87  C   UNL A   1      33.528  28.436  23.872  1.00  0.00     0.141 C 
ATOM     88  C   UNL A   1      34.130  26.896  25.623  1.00  0.00     0.141 C 
ATOM     89  C   UNL A   1      32.833  29.329  24.877  1.00  0.00     0.138 C 
ATOM     90  C   UNL A   1      33.655  27.949  26.718  1.00  0.00     0.138 C 
ATOM     91  N   UNL A   1      33.504  29.313  26.164  1.00  0.00    -0.368 N 
BRANCH  91  92
ATOM     92  C   UNL A   1      33.111  30.440  26.913  1.00  0.00     0.037 A 
ATOM     93  C   UNL A   1      31.932  31.150  26.609  1.00  0.00     0.029 A 
ATOM     94  C   UNL A   1      34.078  31.102  27.689  1.00  0.00     0.029 A 
ATOM     95  C   UNL A   1      31.791  32.502  26.948  1.00  0.00     0.041 A 
ATOM     96  C   UNL A   1      33.945  32.454  28.024  1.00  0.00     0.041 A 
ATOM     97  C   UNL A   1      32.813  33.148  27.627  1.00  0.00     0.123 A 
ATOM     98  F   UNL A   1      32.720  34.461  27.877  1.00  0.00    -0.207 F 
ENDBRANCH  91  92
ENDBRANCH  80  84
ENDBRANCH  76  78
ENDBRANCH  70  74
ENDBRANCH  65  68
ENDBRANCH   1  64
TORSDOF 14
ENDMDL
