MODEL 1
REMARK VINA RESULT:     -10.9      0.000      0.000
REMARK SMILES CC[C@@](C)(NS(=O)(=O)c1ccc(F)c(Cl)c1)C(=O)NCCCNC(=O)c1ccc(-c2c3nc(c(-c4c(F)cccc4F)c4ccc([nH]4)c(-c4c(F)cccc4F)c4nc(c(-c5c(F)cccc5F)c5ccc2[nH]5)C=C4)C=C3)cc1
REMARK SMILES IDX 20 1 19 2 17 3 18 4 3 6 4 7 2 8 1 9 5 10 6 12 7 13 8 14 9 15
REMARK SMILES IDX 10 16 16 17 11 18 14 19 12 20 15 21 13 22 21 23 22 24 23 25
REMARK SMILES IDX 24 26 25 28 26 29 27 30 79 31 28 32 78 33 29 34 30 35 31 36
REMARK SMILES IDX 72 37 32 38 77 39 71 40 73 41 33 42 76 43 70 44 69 45 34 47
REMARK SMILES IDX 60 48 43 49 59 50 44 51 47 52 58 53 74 54 45 55 46 56 57 58
REMARK SMILES IDX 75 59 48 60 35 61 36 62 41 63 37 64 38 65 40 66 42 67 39 68
REMARK SMILES IDX 61 69 62 70 67 71 63 72 64 73 66 74 68 75 65 76 49 77 50 78
REMARK SMILES IDX 55 79 51 80 52 81 54 82 56 83 53 84
REMARK H PARENT 19 5 5 11 23 27 73 46 47 57
REMARK Flexibility Score: inf
ROOT
ATOM      1  C   UNL A   1      36.441  20.250  24.754  1.00  0.00     0.117 C 
ENDROOT
BRANCH   1   2
ATOM      2  N   UNL A   1      35.763  20.992  25.820  1.00  0.00    -0.354 N 
ATOM      3  C   UNL A   1      35.258  22.245  26.047  1.00  0.00     0.241 C 
ATOM      4  O   UNL A   1      34.603  22.325  27.099  1.00  0.00    -0.273 OA
ATOM      5  H   UNL A   1      35.633  20.419  26.609  1.00  0.00     0.163 HD
BRANCH   3   6
ATOM      6  C   UNL A   1      35.505  23.533  25.219  1.00  0.00     0.108 C 
ATOM      7  C   UNL A   1      34.927  24.776  25.902  1.00  0.00     0.040 C 
BRANCH   6   8
ATOM      8  C   UNL A   1      37.058  23.797  25.014  1.00  0.00     0.030 C 
ATOM      9  C   UNL A   1      38.034  23.472  26.136  1.00  0.00     0.006 C 
ENDBRANCH   6   8
BRANCH   6  10
ATOM     10  N   UNL A   1      35.060  23.479  23.803  1.00  0.00    -0.196 NA
ATOM     11  H   UNL A   1      35.778  22.917  23.347  1.00  0.00     0.142 HD
BRANCH  10  12
ATOM     12  S   UNL A   1      33.656  22.956  23.112  1.00  0.00     0.241 S 
ATOM     13  O   UNL A   1      33.681  23.339  21.713  1.00  0.00    -0.207 OA
ATOM     14  O   UNL A   1      33.583  21.564  23.466  1.00  0.00    -0.207 OA
BRANCH  12  15
ATOM     15  C   UNL A   1      32.253  23.756  23.866  1.00  0.00     0.084 A 
ATOM     16  C   UNL A   1      31.907  25.067  23.535  1.00  0.00     0.025 A 
ATOM     17  C   UNL A   1      31.654  23.180  24.985  1.00  0.00     0.045 A 
ATOM     18  C   UNL A   1      30.948  25.746  24.305  1.00  0.00     0.042 A 
ATOM     19  C   UNL A   1      30.665  23.821  25.718  1.00  0.00     0.078 A 
ATOM     20  C   UNL A   1      30.324  25.117  25.383  1.00  0.00     0.141 A 
ATOM     21  Cl  UNL A   1      29.941  23.002  27.047  1.00  0.00    -0.081 Cl
ATOM     22  F   UNL A   1      29.430  25.795  26.116  1.00  0.00    -0.205 F 
ENDBRANCH  12  15
ENDBRANCH  10  12
ENDBRANCH   6  10
ENDBRANCH   3   6
ENDBRANCH   1   2
BRANCH   1  23
ATOM     23  C   UNL A   1      37.736  19.413  24.986  1.00  0.00     0.042 C 
BRANCH  23  24
ATOM     24  C   UNL A   1      39.004  19.867  25.739  1.00  0.00     0.118 C 
BRANCH  24  25
ATOM     25  N   UNL A   1      40.107  18.927  25.752  1.00  0.00    -0.352 N 
ATOM     26  C   UNL A   1      41.450  19.182  25.945  1.00  0.00     0.251 C 
ATOM     27  H   UNL A   1      39.868  17.984  25.603  1.00  0.00     0.163 HD
ATOM     28  O   UNL A   1      42.268  18.284  25.762  1.00  0.00    -0.269 OA
BRANCH  26  29
ATOM     29  C   UNL A   1      41.952  20.529  26.333  1.00  0.00     0.039 A 
ATOM     30  C   UNL A   1      41.983  20.862  27.692  1.00  0.00     0.014 A 
ATOM     31  C   UNL A   1      42.245  21.515  25.385  1.00  0.00     0.014 A 
ATOM     32  C   UNL A   1      42.335  22.158  28.098  1.00  0.00     0.010 A 
ATOM     33  C   UNL A   1      42.618  22.811  25.795  1.00  0.00     0.010 A 
ATOM     34  C   UNL A   1      42.668  23.149  27.157  1.00  0.00    -0.014 A 
BRANCH  34  35
ATOM     35  C   UNL A   1      43.095  24.501  27.635  1.00  0.00     0.031 A 
ATOM     36  C   UNL A   1      44.540  24.935  27.617  1.00  0.00     0.074 A 
ATOM     37  C   UNL A   1      42.158  25.377  28.054  1.00  0.00     0.049 A 
ATOM     38  N   UNL A   1      45.052  26.119  27.858  1.00  0.00    -0.248 NA
ATOM     39  C   UNL A   1      45.538  23.906  27.300  1.00  0.00     0.031 C 
ATOM     40  C   UNL A   1      40.729  25.082  28.170  1.00  0.00     0.029 A 
ATOM     41  N   UNL A   1      42.257  26.694  28.438  1.00  0.00    -0.354 N 
ATOM     42  C   UNL A   1      46.427  25.982  27.709  1.00  0.00     0.074 A 
ATOM     43  C   UNL A   1      46.673  24.585  27.410  1.00  0.00     0.031 C 
ATOM     44  C   UNL A   1      40.081  26.193  28.553  1.00  0.00     0.029 A 
ATOM     45  C   UNL A   1      41.044  27.275  28.731  1.00  0.00     0.049 A 
ATOM     46  H   UNL A   1      43.113  27.175  28.499  1.00  0.00     0.167 HD
ATOM     47  C   UNL A   1      47.395  26.931  27.791  1.00  0.00     0.037 A 
ATOM     48  C   UNL A   1      40.736  28.538  29.086  1.00  0.00     0.037 A 
ATOM     49  C   UNL A   1      47.156  28.322  28.096  1.00  0.00     0.049 A 
ATOM     50  C   UNL A   1      41.827  29.571  29.174  1.00  0.00     0.074 A 
ATOM     51  C   UNL A   1      48.068  29.363  28.158  1.00  0.00     0.029 A 
ATOM     52  N   UNL A   1      45.916  28.865  28.402  1.00  0.00    -0.354 N 
ATOM     53  N   UNL A   1      43.110  29.443  28.940  1.00  0.00    -0.248 NA
ATOM     54  C   UNL A   1      41.422  30.930  29.561  1.00  0.00     0.031 C 
ATOM     55  C   UNL A   1      47.390  30.522  28.553  1.00  0.00     0.029 A 
ATOM     56  C   UNL A   1      46.045  30.218  28.679  1.00  0.00     0.049 A 
ATOM     57  H   UNL A   1      45.070  28.363  28.419  1.00  0.00     0.167 HD
ATOM     58  C   UNL A   1      43.660  30.706  29.125  1.00  0.00     0.074 A 
ATOM     59  C   UNL A   1      42.566  31.592  29.467  1.00  0.00     0.031 C 
ATOM     60  C   UNL A   1      44.954  31.095  29.022  1.00  0.00     0.037 A 
BRANCH  47  61
ATOM     61  C   UNL A   1      48.817  26.500  27.547  1.00  0.00     0.057 A 
ATOM     62  C   UNL A   1      49.619  25.986  28.576  1.00  0.00     0.134 A 
ATOM     63  C   UNL A   1      49.376  26.550  26.263  1.00  0.00     0.134 A 
ATOM     64  F   UNL A   1      49.149  25.909  29.830  1.00  0.00    -0.206 F 
ATOM     65  C   UNL A   1      50.932  25.570  28.343  1.00  0.00     0.040 A 
ATOM     66  C   UNL A   1      50.677  26.110  26.012  1.00  0.00     0.040 A 
ATOM     67  F   UNL A   1      48.661  27.013  25.227  1.00  0.00    -0.206 F 
ATOM     68  C   UNL A   1      51.463  25.626  27.056  1.00  0.00     0.006 A 
ENDBRANCH  47  61
BRANCH  48  69
ATOM     69  C   UNL A   1      39.321  28.912  29.353  1.00  0.00     0.057 A 
ATOM     70  C   UNL A   1      38.484  29.371  28.329  1.00  0.00     0.134 A 
ATOM     71  C   UNL A   1      38.779  28.834  30.641  1.00  0.00     0.134 A 
ATOM     72  F   UNL A   1      38.949  29.489  27.077  1.00  0.00    -0.206 F 
ATOM     73  C   UNL A   1      37.166  29.759  28.579  1.00  0.00     0.040 A 
ATOM     74  C   UNL A   1      37.455  29.191  30.901  1.00  0.00     0.040 A 
ATOM     75  F   UNL A   1      39.526  28.399  31.665  1.00  0.00    -0.206 F 
ATOM     76  C   UNL A   1      36.647  29.663  29.869  1.00  0.00     0.006 A 
ENDBRANCH  48  69
BRANCH  60  77
ATOM     77  C   UNL A   1      45.253  32.550  29.255  1.00  0.00     0.057 A 
ATOM     78  C   UNL A   1      45.632  33.040  30.512  1.00  0.00     0.134 A 
ATOM     79  C   UNL A   1      45.170  33.473  28.204  1.00  0.00     0.134 A 
ATOM     80  F   UNL A   1      45.721  32.213  31.566  1.00  0.00    -0.206 F 
ATOM     81  C   UNL A   1      45.883  34.398  30.724  1.00  0.00     0.040 A 
ATOM     82  C   UNL A   1      45.447  34.829  28.396  1.00  0.00     0.040 A 
ATOM     83  F   UNL A   1      44.821  33.074  26.973  1.00  0.00    -0.206 F 
ATOM     84  C   UNL A   1      45.793  35.295  29.662  1.00  0.00     0.006 A 
ENDBRANCH  60  77
ENDBRANCH  34  35
ENDBRANCH  26  29
ENDBRANCH  24  25
ENDBRANCH  23  24
ENDBRANCH   1  23
TORSDOF 14
ENDMDL
MODEL 2
REMARK VINA RESULT:     -10.9      1.576      2.095
REMARK SMILES CC[C@@](C)(NS(=O)(=O)c1ccc(F)c(Cl)c1)C(=O)NCCCNC(=O)c1ccc(-c2c3nc(c(-c4c(F)cccc4F)c4ccc([nH]4)c(-c4c(F)cccc4F)c4nc(c(-c5c(F)cccc5F)c5ccc2[nH]5)C=C4)C=C3)cc1
REMARK SMILES IDX 20 1 19 2 17 3 18 4 3 6 4 7 2 8 1 9 5 10 6 12 7 13 8 14 9 15
REMARK SMILES IDX 10 16 16 17 11 18 14 19 12 20 15 21 13 22 21 23 22 24 23 25
REMARK SMILES IDX 24 26 25 28 26 29 27 30 79 31 28 32 78 33 29 34 30 35 31 36
REMARK SMILES IDX 72 37 32 38 77 39 71 40 73 41 33 42 76 43 70 44 69 45 34 47
REMARK SMILES IDX 60 48 43 49 59 50 44 51 47 52 58 53 74 54 45 55 46 56 57 58
REMARK SMILES IDX 75 59 48 60 35 61 36 62 41 63 37 64 38 65 40 66 42 67 39 68
REMARK SMILES IDX 61 69 62 70 67 71 63 72 64 73 66 74 68 75 65 76 49 77 50 78
REMARK SMILES IDX 55 79 51 80 52 81 54 82 56 83 53 84
REMARK H PARENT 19 5 5 11 23 27 73 46 47 57
REMARK Flexibility Score: inf
ROOT
ATOM      1  C   UNL A   1      36.074  20.484  24.898  1.00  0.00     0.117 C 
ENDROOT
BRANCH   1   2
ATOM      2  N   UNL A   1      35.420  21.061  26.075  1.00  0.00    -0.354 N 
ATOM      3  C   UNL A   1      34.193  21.550  26.440  1.00  0.00     0.241 C 
ATOM      4  O   UNL A   1      34.100  21.776  27.658  1.00  0.00    -0.273 OA
ATOM      5  H   UNL A   1      36.051  21.113  26.828  1.00  0.00     0.163 HD
BRANCH   3   6
ATOM      6  C   UNL A   1      33.011  21.936  25.515  1.00  0.00     0.108 C 
ATOM      7  C   UNL A   1      32.226  20.709  25.041  1.00  0.00     0.040 C 
BRANCH   6   8
ATOM      8  C   UNL A   1      31.980  22.885  26.263  1.00  0.00     0.030 C 
ATOM      9  C   UNL A   1      30.491  22.575  26.210  1.00  0.00     0.006 C 
ENDBRANCH   6   8
BRANCH   6  10
ATOM     10  N   UNL A   1      33.360  22.794  24.353  1.00  0.00    -0.196 NA
ATOM     11  H   UNL A   1      32.456  23.009  23.933  1.00  0.00     0.142 HD
BRANCH  10  12
ATOM     12  S   UNL A   1      34.187  24.218  24.249  1.00  0.00     0.241 S 
ATOM     13  O   UNL A   1      35.318  24.141  25.155  1.00  0.00    -0.207 OA
ATOM     14  O   UNL A   1      34.417  24.393  22.840  1.00  0.00    -0.207 OA
BRANCH  12  15
ATOM     15  C   UNL A   1      33.161  25.576  24.779  1.00  0.00     0.084 A 
ATOM     16  C   UNL A   1      32.014  25.932  24.069  1.00  0.00     0.025 A 
ATOM     17  C   UNL A   1      33.639  26.461  25.744  1.00  0.00     0.045 A 
ATOM     18  C   UNL A   1      31.357  27.137  24.372  1.00  0.00     0.042 A 
ATOM     19  C   UNL A   1      32.967  27.625  26.090  1.00  0.00     0.078 A 
ATOM     20  C   UNL A   1      31.830  27.970  25.387  1.00  0.00     0.141 A 
ATOM     21  Cl  UNL A   1      33.604  28.623  27.339  1.00  0.00    -0.081 Cl
ATOM     22  F   UNL A   1      31.199  29.125  25.640  1.00  0.00    -0.205 F 
ENDBRANCH  12  15
ENDBRANCH  10  12
ENDBRANCH   6  10
ENDBRANCH   3   6
ENDBRANCH   1   2
BRANCH   1  23
ATOM     23  C   UNL A   1      37.430  19.716  24.965  1.00  0.00     0.042 C 
BRANCH  23  24
ATOM     24  C   UNL A   1      38.768  20.255  25.511  1.00  0.00     0.118 C 
BRANCH  24  25
ATOM     25  N   UNL A   1      39.832  19.282  25.659  1.00  0.00    -0.352 N 
ATOM     26  C   UNL A   1      41.135  19.491  26.068  1.00  0.00     0.251 C 
ATOM     27  H   UNL A   1      39.597  18.352  25.438  1.00  0.00     0.163 HD
ATOM     28  O   UNL A   1      41.950  18.576  25.979  1.00  0.00    -0.269 OA
BRANCH  26  29
ATOM     29  C   UNL A   1      41.602  20.809  26.579  1.00  0.00     0.039 A 
ATOM     30  C   UNL A   1      41.440  21.090  27.941  1.00  0.00     0.014 A 
ATOM     31  C   UNL A   1      42.052  21.821  25.725  1.00  0.00     0.014 A 
ATOM     32  C   UNL A   1      41.756  22.359  28.447  1.00  0.00     0.010 A 
ATOM     33  C   UNL A   1      42.388  23.090  26.239  1.00  0.00     0.010 A 
ATOM     34  C   UNL A   1      42.244  23.375  27.607  1.00  0.00    -0.014 A 
BRANCH  34  35
ATOM     35  C   UNL A   1      42.624  24.697  28.197  1.00  0.00     0.031 A 
ATOM     36  C   UNL A   1      44.063  25.075  28.448  1.00  0.00     0.074 A 
ATOM     37  C   UNL A   1      41.658  25.597  28.473  1.00  0.00     0.049 A 
ATOM     38  N   UNL A   1      44.563  26.231  28.815  1.00  0.00    -0.248 NA
ATOM     39  C   UNL A   1      45.067  24.017  28.278  1.00  0.00     0.031 C 
ATOM     40  C   UNL A   1      40.222  25.354  28.326  1.00  0.00     0.029 A 
ATOM     41  N   UNL A   1      41.730  26.898  28.912  1.00  0.00    -0.354 N 
ATOM     42  C   UNL A   1      45.938  26.046  28.906  1.00  0.00     0.074 A 
ATOM     43  C   UNL A   1      46.186  24.649  28.609  1.00  0.00     0.031 C 
ATOM     44  C   UNL A   1      39.553  26.479  28.625  1.00  0.00     0.029 A 
ATOM     45  C   UNL A   1      40.505  27.518  29.005  1.00  0.00     0.049 A 
ATOM     46  H   UNL A   1      42.578  27.344  29.139  1.00  0.00     0.167 HD
ATOM     47  C   UNL A   1      46.907  26.954  29.189  1.00  0.00     0.037 A 
ATOM     48  C   UNL A   1      40.181  28.782  29.343  1.00  0.00     0.037 A 
ATOM     49  C   UNL A   1      46.664  28.344  29.493  1.00  0.00     0.049 A 
ATOM     50  C   UNL A   1      41.273  29.769  29.656  1.00  0.00     0.074 A 
ATOM     51  C   UNL A   1      47.585  29.347  29.750  1.00  0.00     0.029 A 
ATOM     52  N   UNL A   1      45.409  28.927  29.593  1.00  0.00    -0.354 N 
ATOM     53  N   UNL A   1      42.572  29.598  29.648  1.00  0.00    -0.248 NA
ATOM     54  C   UNL A   1      40.851  31.132  30.011  1.00  0.00     0.031 C 
ATOM     55  C   UNL A   1      46.886  30.521  30.057  1.00  0.00     0.029 A 
ATOM     56  C   UNL A   1      45.531  30.266  29.934  1.00  0.00     0.049 A 
ATOM     57  H   UNL A   1      44.556  28.458  29.445  1.00  0.00     0.167 HD
ATOM     58  C   UNL A   1      43.122  30.833  29.968  1.00  0.00     0.074 A 
ATOM     59  C   UNL A   1      42.015  31.751  30.142  1.00  0.00     0.031 C 
ATOM     60  C   UNL A   1      44.427  31.175  30.108  1.00  0.00     0.037 A 
BRANCH  47  61
ATOM     61  C   UNL A   1      48.334  26.475  29.185  1.00  0.00     0.057 A 
ATOM     62  C   UNL A   1      48.937  25.942  30.334  1.00  0.00     0.134 A 
ATOM     63  C   UNL A   1      49.100  26.498  28.012  1.00  0.00     0.134 A 
ATOM     64  F   UNL A   1      48.263  25.888  31.492  1.00  0.00    -0.206 F 
ATOM     65  C   UNL A   1      50.256  25.481  30.323  1.00  0.00     0.040 A 
ATOM     66  C   UNL A   1      50.410  26.014  27.981  1.00  0.00     0.040 A 
ATOM     67  F   UNL A   1      48.583  26.978  26.870  1.00  0.00    -0.206 F 
ATOM     68  C   UNL A   1      50.994  25.512  29.142  1.00  0.00     0.006 A 
ENDBRANCH  47  61
BRANCH  48  69
ATOM     69  C   UNL A   1      38.755  29.203  29.369  1.00  0.00     0.057 A 
ATOM     70  C   UNL A   1      38.121  29.699  28.223  1.00  0.00     0.134 A 
ATOM     71  C   UNL A   1      37.996  29.132  30.543  1.00  0.00     0.134 A 
ATOM     72  F   UNL A   1      38.799  29.812  27.071  1.00  0.00    -0.206 F 
ATOM     73  C   UNL A   1      36.793  30.131  28.248  1.00  0.00     0.040 A 
ATOM     74  C   UNL A   1      36.660  29.534  30.577  1.00  0.00     0.040 A 
ATOM     75  F   UNL A   1      38.542  28.663  31.674  1.00  0.00    -0.206 F 
ATOM     76  C   UNL A   1      36.057  30.042  29.428  1.00  0.00     0.006 A 
ENDBRANCH  48  69
BRANCH  60  77
ATOM     77  C   UNL A   1      44.728  32.610  30.438  1.00  0.00     0.057 A 
ATOM     78  C   UNL A   1      44.908  33.049  31.758  1.00  0.00     0.134 A 
ATOM     79  C   UNL A   1      44.848  33.567  29.422  1.00  0.00     0.134 A 
ATOM     80  F   UNL A   1      44.795  32.188  32.781  1.00  0.00    -0.206 F 
ATOM     81  C   UNL A   1      45.162  34.390  32.056  1.00  0.00     0.040 A 
ATOM     82  C   UNL A   1      45.131  34.905  29.705  1.00  0.00     0.040 A 
ATOM     83  F   UNL A   1      44.697  33.217  28.136  1.00  0.00    -0.206 F 
ATOM     84  C   UNL A   1      45.278  35.321  31.026  1.00  0.00     0.006 A 
ENDBRANCH  60  77
ENDBRANCH  34  35
ENDBRANCH  26  29
ENDBRANCH  24  25
ENDBRANCH  23  24
ENDBRANCH   1  23
TORSDOF 14
ENDMDL
MODEL 3
REMARK VINA RESULT:     -10.8      5.740     10.185
REMARK SMILES CC[C@@](C)(NS(=O)(=O)c1ccc(F)c(Cl)c1)C(=O)NCCCNC(=O)c1ccc(-c2c3nc(c(-c4c(F)cccc4F)c4ccc([nH]4)c(-c4c(F)cccc4F)c4nc(c(-c5c(F)cccc5F)c5ccc2[nH]5)C=C4)C=C3)cc1
REMARK SMILES IDX 20 1 19 2 17 3 18 4 3 6 4 7 2 8 1 9 5 10 6 12 7 13 8 14 9 15
REMARK SMILES IDX 10 16 16 17 11 18 14 19 12 20 15 21 13 22 21 23 22 24 23 25
REMARK SMILES IDX 24 26 25 28 26 29 27 30 79 31 28 32 78 33 29 34 30 35 31 36
REMARK SMILES IDX 72 37 32 38 77 39 71 40 73 41 33 42 76 43 70 44 69 45 34 47
REMARK SMILES IDX 60 48 43 49 59 50 44 51 47 52 58 53 74 54 45 55 46 56 57 58
REMARK SMILES IDX 75 59 48 60 35 61 36 62 41 63 37 64 38 65 40 66 42 67 39 68
REMARK SMILES IDX 61 69 62 70 67 71 63 72 64 73 66 74 68 75 65 76 49 77 50 78
REMARK SMILES IDX 55 79 51 80 52 81 54 82 56 83 53 84
REMARK H PARENT 19 5 5 11 23 27 73 46 47 57
REMARK Flexibility Score: inf
ROOT
ATOM      1  C   UNL A   1      32.008  30.513  26.497  1.00  0.00     0.117 C 
ENDROOT
BRANCH   1   2
ATOM      2  N   UNL A   1      32.779  30.062  25.336  1.00  0.00    -0.354 N 
ATOM      3  C   UNL A   1      32.796  29.020  24.447  1.00  0.00     0.241 C 
ATOM      4  O   UNL A   1      33.581  29.196  23.501  1.00  0.00    -0.273 OA
ATOM      5  H   UNL A   1      33.501  30.700  25.134  1.00  0.00     0.163 HD
BRANCH   3   6
ATOM      6  C   UNL A   1      32.054  27.663  24.561  1.00  0.00     0.108 C 
ATOM      7  C   UNL A   1      32.704  26.577  23.700  1.00  0.00     0.040 C 
BRANCH   6   8
ATOM      8  C   UNL A   1      32.053  27.131  26.058  1.00  0.00     0.030 C 
ATOM      9  C   UNL A   1      31.647  25.693  26.348  1.00  0.00     0.006 C 
ENDBRANCH   6   8
BRANCH   6  10
ATOM     10  N   UNL A   1      30.592  27.709  24.300  1.00  0.00    -0.196 NA
ATOM     11  H   UNL A   1      30.244  28.365  24.998  1.00  0.00     0.142 HD
BRANCH  10  12
ATOM     12  S   UNL A   1      29.729  28.088  22.944  1.00  0.00     0.241 S 
ATOM     13  O   UNL A   1      30.508  27.671  21.793  1.00  0.00    -0.207 OA
ATOM     14  O   UNL A   1      28.434  27.507  23.174  1.00  0.00    -0.207 OA
BRANCH  12  15
ATOM     15  C   UNL A   1      29.494  29.851  22.827  1.00  0.00     0.084 A 
ATOM     16  C   UNL A   1      29.567  30.664  23.959  1.00  0.00     0.025 A 
ATOM     17  C   UNL A   1      28.968  30.397  21.657  1.00  0.00     0.045 A 
ATOM     18  C   UNL A   1      29.153  32.005  23.877  1.00  0.00     0.042 A 
ATOM     19  C   UNL A   1      28.610  31.733  21.550  1.00  0.00     0.078 A 
ATOM     20  C   UNL A   1      28.689  32.535  22.672  1.00  0.00     0.141 A 
ATOM     21  Cl  UNL A   1      28.029  32.329  20.043  1.00  0.00    -0.081 Cl
ATOM     22  F   UNL A   1      28.278  33.810  22.627  1.00  0.00    -0.205 F 
ENDBRANCH  12  15
ENDBRANCH  10  12
ENDBRANCH   6  10
ENDBRANCH   3   6
ENDBRANCH   1   2
BRANCH   1  23
ATOM     23  C   UNL A   1      31.844  32.015  26.883  1.00  0.00     0.042 C 
BRANCH  23  24
ATOM     24  C   UNL A   1      32.974  33.052  27.053  1.00  0.00     0.118 C 
BRANCH  24  25
ATOM     25  N   UNL A   1      32.641  34.236  27.819  1.00  0.00    -0.352 N 
ATOM     26  C   UNL A   1      33.196  34.675  29.005  1.00  0.00     0.251 C 
ATOM     27  H   UNL A   1      31.924  34.800  27.448  1.00  0.00     0.163 HD
ATOM     28  O   UNL A   1      32.679  35.616  29.602  1.00  0.00    -0.269 OA
BRANCH  26  29
ATOM     29  C   UNL A   1      34.387  34.018  29.612  1.00  0.00     0.039 A 
ATOM     30  C   UNL A   1      35.655  34.370  29.137  1.00  0.00     0.014 A 
ATOM     31  C   UNL A   1      34.270  32.963  30.523  1.00  0.00     0.014 A 
ATOM     32  C   UNL A   1      36.797  33.696  29.594  1.00  0.00     0.010 A 
ATOM     33  C   UNL A   1      35.421  32.300  30.996  1.00  0.00     0.010 A 
ATOM     34  C   UNL A   1      36.699  32.658  30.537  1.00  0.00    -0.014 A 
BRANCH  34  35
ATOM     35  C   UNL A   1      37.946  32.003  31.042  1.00  0.00     0.031 A 
ATOM     36  C   UNL A   1      38.504  32.298  32.412  1.00  0.00     0.074 A 
ATOM     37  C   UNL A   1      38.569  31.089  30.270  1.00  0.00     0.049 A 
ATOM     38  N   UNL A   1      39.488  31.709  33.050  1.00  0.00    -0.248 NA
ATOM     39  C   UNL A   1      37.888  33.405  33.157  1.00  0.00     0.031 C 
ATOM     40  C   UNL A   1      38.172  30.736  28.906  1.00  0.00     0.029 A 
ATOM     41  N   UNL A   1      39.649  30.275  30.521  1.00  0.00    -0.354 N 
ATOM     42  C   UNL A   1      39.600  32.360  34.274  1.00  0.00     0.074 A 
ATOM     43  C   UNL A   1      38.618  33.426  34.264  1.00  0.00     0.031 C 
ATOM     44  C   UNL A   1      38.965  29.751  28.458  1.00  0.00     0.029 A 
ATOM     45  C   UNL A   1      39.941  29.413  29.489  1.00  0.00     0.049 A 
ATOM     46  H   UNL A   1      40.164  30.308  31.358  1.00  0.00     0.167 HD
ATOM     47  C   UNL A   1      40.426  32.086  35.316  1.00  0.00     0.037 A 
ATOM     48  C   UNL A   1      40.877  28.448  29.386  1.00  0.00     0.037 A 
ATOM     49  C   UNL A   1      41.410  31.030  35.327  1.00  0.00     0.049 A 
ATOM     50  C   UNL A   1      41.783  28.166  30.554  1.00  0.00     0.074 A 
ATOM     51  C   UNL A   1      42.260  30.651  36.353  1.00  0.00     0.029 A 
ATOM     52  N   UNL A   1      41.685  30.191  34.257  1.00  0.00    -0.354 N 
ATOM     53  N   UNL A   1      41.812  28.732  31.736  1.00  0.00    -0.248 NA
ATOM     54  C   UNL A   1      42.776  27.097  30.378  1.00  0.00     0.031 C 
ATOM     55  C   UNL A   1      43.084  29.619  35.886  1.00  0.00     0.029 A 
ATOM     56  C   UNL A   1      42.708  29.315  34.589  1.00  0.00     0.049 A 
ATOM     57  H   UNL A   1      41.222  30.214  33.389  1.00  0.00     0.167 HD
ATOM     58  C   UNL A   1      42.805  28.073  32.450  1.00  0.00     0.074 A 
ATOM     59  C   UNL A   1      43.338  27.048  31.577  1.00  0.00     0.031 C 
ATOM     60  C   UNL A   1      43.237  28.299  33.716  1.00  0.00     0.037 A 
BRANCH  47  61
ATOM     61  C   UNL A   1      40.304  32.946  36.546  1.00  0.00     0.057 A 
ATOM     62  C   UNL A   1      39.329  32.703  37.523  1.00  0.00     0.134 A 
ATOM     63  C   UNL A   1      41.201  33.996  36.784  1.00  0.00     0.134 A 
ATOM     64  F   UNL A   1      38.437  31.713  37.362  1.00  0.00    -0.206 F 
ATOM     65  C   UNL A   1      39.229  33.491  38.672  1.00  0.00     0.040 A 
ATOM     66  C   UNL A   1      41.130  34.774  37.941  1.00  0.00     0.040 A 
ATOM     67  F   UNL A   1      42.172  34.276  35.901  1.00  0.00    -0.206 F 
ATOM     68  C   UNL A   1      40.136  34.527  38.887  1.00  0.00     0.006 A 
ENDBRANCH  47  61
BRANCH  48  69
ATOM     69  C   UNL A   1      40.985  27.646  28.138  1.00  0.00     0.057 A 
ATOM     70  C   UNL A   1      41.764  28.081  27.059  1.00  0.00     0.134 A 
ATOM     71  C   UNL A   1      40.299  26.435  27.990  1.00  0.00     0.134 A 
ATOM     72  F   UNL A   1      42.429  29.244  27.130  1.00  0.00    -0.206 F 
ATOM     73  C   UNL A   1      41.841  27.352  25.870  1.00  0.00     0.040 A 
ATOM     74  C   UNL A   1      40.389  25.682  26.818  1.00  0.00     0.040 A 
ATOM     75  F   UNL A   1      39.539  25.961  28.987  1.00  0.00    -0.206 F 
ATOM     76  C   UNL A   1      41.156  26.144  25.751  1.00  0.00     0.006 A 
ENDBRANCH  48  69
BRANCH  60  77
ATOM     77  C   UNL A   1      44.322  27.399  34.240  1.00  0.00     0.057 A 
ATOM     78  C   UNL A   1      44.045  26.134  34.777  1.00  0.00     0.134 A 
ATOM     79  C   UNL A   1      45.664  27.800  34.198  1.00  0.00     0.134 A 
ATOM     80  F   UNL A   1      42.781  25.692  34.859  1.00  0.00    -0.206 F 
ATOM     81  C   UNL A   1      45.058  25.317  35.286  1.00  0.00     0.040 A 
ATOM     82  C   UNL A   1      46.688  26.980  34.676  1.00  0.00     0.040 A 
ATOM     83  F   UNL A   1      46.003  28.994  33.690  1.00  0.00    -0.206 F 
ATOM     84  C   UNL A   1      46.385  25.739  35.231  1.00  0.00     0.006 A 
ENDBRANCH  60  77
ENDBRANCH  34  35
ENDBRANCH  26  29
ENDBRANCH  24  25
ENDBRANCH  23  24
ENDBRANCH   1  23
TORSDOF 14
ENDMDL
