MODEL 1
REMARK VINA RESULT:     -12.7      0.000      0.000
REMARK SMILES O=C(NCCCNC(=O)c1cnccc1C(=O)N1CCC(Cc2ccccc2)CC1)c1ccc(-c2c3nc(c(-c4c(F)cccc4F)c4ccc([nH]4)c(-c4c(F)cccc4F)c4nc(c(-c5c(F)cccc5F)c5ccc2[nH]5)C=C4)C=C3)cc1
REMARK SMILES IDX 5 1 4 2 3 3 1 4 2 5 31 7 32 8 84 9 33 10 83 11 34 12 35 13
REMARK SMILES IDX 36 14 77 15 37 16 82 17 76 18 78 19 38 20 81 21 75 22 74 23
REMARK SMILES IDX 39 25 65 26 48 27 64 28 49 29 52 30 63 31 79 32 50 33 51 34
REMARK SMILES IDX 62 36 80 37 53 38 40 39 41 40 46 41 42 42 43 43 45 44 47 45
REMARK SMILES IDX 44 46 66 47 67 48 72 49 68 50 69 51 71 52 73 53 70 54 54 55
REMARK SMILES IDX 55 56 60 57 56 58 57 59 59 60 61 61 58 62 6 63 7 64 8 65
REMARK SMILES IDX 9 67 10 68 11 69 15 70 12 71 14 72 13 73 16 74 17 75 18 76
REMARK SMILES IDX 19 77 30 78 20 79 29 80 21 81 22 82 23 83 24 84 28 85 25 86
REMARK SMILES IDX 27 87 26 88
REMARK H PARENT 3 6 78 24 52 35 7 66
REMARK Flexibility Score: inf
ROOT
ATOM      1  C   UNL A   1      37.511  23.444  25.351  1.00  0.00     0.042 C 
ENDROOT
BRANCH   1   2
ATOM      2  C   UNL A   1      38.515  23.304  26.492  1.00  0.00     0.118 C 
BRANCH   2   3
ATOM      3  N   UNL A   1      39.915  23.471  26.118  1.00  0.00    -0.352 N 
ATOM      4  O   UNL A   1      41.999  24.321  26.041  1.00  0.00    -0.269 OA
ATOM      5  C   UNL A   1      40.850  24.415  26.465  1.00  0.00     0.251 C 
ATOM      6  H   UNL A   1      40.250  22.780  25.504  1.00  0.00     0.163 HD
BRANCH   5   7
ATOM      7  C   UNL A   1      40.455  25.597  27.254  1.00  0.00     0.039 A 
ATOM      8  C   UNL A   1      40.975  26.856  26.980  1.00  0.00     0.014 A 
ATOM      9  C   UNL A   1      39.616  25.407  28.355  1.00  0.00     0.014 A 
ATOM     10  C   UNL A   1      40.896  27.843  27.950  1.00  0.00     0.010 A 
ATOM     11  C   UNL A   1      39.417  26.450  29.260  1.00  0.00     0.010 A 
ATOM     12  C   UNL A   1      40.124  27.650  29.107  1.00  0.00    -0.014 A 
BRANCH  12  13
ATOM     13  C   UNL A   1      40.091  28.714  30.142  1.00  0.00     0.031 A 
ATOM     14  C   UNL A   1      39.022  29.776  30.131  1.00  0.00     0.074 A 
ATOM     15  C   UNL A   1      40.998  28.675  31.137  1.00  0.00     0.049 A 
ATOM     16  N   UNL A   1      38.836  30.763  30.971  1.00  0.00    -0.248 NA
ATOM     17  C   UNL A   1      38.045  29.738  29.031  1.00  0.00     0.031 C 
ATOM     18  C   UNL A   1      42.079  27.693  31.253  1.00  0.00     0.029 A 
ATOM     19  N   UNL A   1      41.130  29.446  32.261  1.00  0.00    -0.354 N 
ATOM     20  C   UNL A   1      37.757  31.487  30.477  1.00  0.00     0.074 A 
ATOM     21  C   UNL A   1      37.333  30.833  29.259  1.00  0.00     0.031 C 
ATOM     22  C   UNL A   1      42.707  27.866  32.423  1.00  0.00     0.029 A 
ATOM     23  C   UNL A   1      42.127  29.017  33.102  1.00  0.00     0.049 A 
ATOM     24  H   UNL A   1      40.567  30.232  32.447  1.00  0.00     0.167 HD
ATOM     25  C   UNL A   1      37.175  32.595  30.993  1.00  0.00     0.037 A 
ATOM     26  C   UNL A   1      42.536  29.500  34.288  1.00  0.00     0.037 A 
ATOM     27  C   UNL A   1      37.567  33.211  32.234  1.00  0.00     0.049 A 
ATOM     28  C   UNL A   1      41.857  30.712  34.849  1.00  0.00     0.074 A 
ATOM     29  C   UNL A   1      37.014  34.312  32.866  1.00  0.00     0.029 A 
ATOM     30  N   UNL A   1      38.607  32.769  33.038  1.00  0.00    -0.354 N 
ATOM     31  N   UNL A   1      40.843  31.387  34.365  1.00  0.00    -0.248 NA
ATOM     32  C   UNL A   1      42.392  31.241  36.109  1.00  0.00     0.031 C 
ATOM     33  C   UNL A   1      37.739  34.553  34.039  1.00  0.00     0.029 A 
ATOM     34  C   UNL A   1      38.721  33.583  34.154  1.00  0.00     0.049 A 
ATOM     35  H   UNL A   1      39.179  31.991  32.846  1.00  0.00     0.167 HD
ATOM     36  C   UNL A   1      40.614  32.419  35.262  1.00  0.00     0.074 A 
ATOM     37  C   UNL A   1      41.580  32.264  36.332  1.00  0.00     0.031 C 
ATOM     38  C   UNL A   1      39.693  33.410  35.202  1.00  0.00     0.037 A 
BRANCH  25  39
ATOM     39  C   UNL A   1      36.066  33.231  30.206  1.00  0.00     0.057 A 
ATOM     40  C   UNL A   1      34.719  33.082  30.560  1.00  0.00     0.134 A 
ATOM     41  C   UNL A   1      36.356  34.034  29.095  1.00  0.00     0.134 A 
ATOM     42  F   UNL A   1      34.372  32.316  31.604  1.00  0.00    -0.206 F 
ATOM     43  C   UNL A   1      33.700  33.693  29.826  1.00  0.00     0.040 A 
ATOM     44  C   UNL A   1      35.347  34.666  28.365  1.00  0.00     0.040 A 
ATOM     45  F   UNL A   1      37.626  34.221  28.705  1.00  0.00    -0.206 F 
ATOM     46  C   UNL A   1      34.014  34.494  28.729  1.00  0.00     0.006 A 
ENDBRANCH  25  39
BRANCH  26  47
ATOM     47  C   UNL A   1      43.637  28.825  35.015  1.00  0.00     0.057 A 
ATOM     48  C   UNL A   1      43.370  27.840  35.970  1.00  0.00     0.134 A 
ATOM     49  C   UNL A   1      44.979  29.118  34.744  1.00  0.00     0.134 A 
ATOM     50  F   UNL A   1      42.103  27.527  36.282  1.00  0.00    -0.206 F 
ATOM     51  C   UNL A   1      44.398  27.171  36.636  1.00  0.00     0.040 A 
ATOM     52  C   UNL A   1      46.017  28.441  35.382  1.00  0.00     0.040 A 
ATOM     53  F   UNL A   1      45.297  30.045  33.828  1.00  0.00    -0.206 F 
ATOM     54  C   UNL A   1      45.727  27.466  36.335  1.00  0.00     0.006 A 
ENDBRANCH  26  47
BRANCH  38  55
ATOM     55  C   UNL A   1      39.687  34.389  36.336  1.00  0.00     0.057 A 
ATOM     56  C   UNL A   1      38.979  34.136  37.517  1.00  0.00     0.134 A 
ATOM     57  C   UNL A   1      40.402  35.589  36.247  1.00  0.00     0.134 A 
ATOM     58  F   UNL A   1      38.263  33.010  37.653  1.00  0.00    -0.206 F 
ATOM     59  C   UNL A   1      38.963  35.057  38.565  1.00  0.00     0.040 A 
ATOM     60  C   UNL A   1      40.410  36.508  37.296  1.00  0.00     0.040 A 
ATOM     61  F   UNL A   1      41.101  35.884  35.141  1.00  0.00    -0.206 F 
ATOM     62  C   UNL A   1      39.684  36.245  38.457  1.00  0.00     0.006 A 
ENDBRANCH  38  55
ENDBRANCH  12  13
ENDBRANCH   5   7
ENDBRANCH   2   3
ENDBRANCH   1   2
BRANCH   1  63
ATOM     63  C   UNL A   1      36.512  22.301  25.233  1.00  0.00     0.118 C 
BRANCH  63  64
ATOM     64  N   UNL A   1      35.707  22.127  26.432  1.00  0.00    -0.352 N 
ATOM     65  C   UNL A   1      34.537  21.443  26.609  1.00  0.00     0.253 C 
ATOM     66  H   UNL A   1      36.058  22.569  27.239  1.00  0.00     0.163 HD
ATOM     67  O   UNL A   1      33.996  21.439  27.711  1.00  0.00    -0.269 OA
BRANCH  65  68
ATOM     68  C   UNL A   1      33.854  20.798  25.489  1.00  0.00     0.070 A 
ATOM     69  C   UNL A   1      34.344  19.541  25.152  1.00  0.00     0.125 A 
ATOM     70  C   UNL A   1      32.771  21.297  24.766  1.00  0.00     0.055 A 
ATOM     71  N   UNL A   1      33.788  18.737  24.215  1.00  0.00    -0.264 NA
ATOM     72  C   UNL A   1      32.166  20.469  23.811  1.00  0.00     0.035 A 
ATOM     73  C   UNL A   1      32.699  19.213  23.580  1.00  0.00     0.112 A 
BRANCH  70  74
ATOM     74  C   UNL A   1      32.058  22.548  25.103  1.00  0.00     0.254 C 
ATOM     75  O   UNL A   1      30.985  22.397  25.690  1.00  0.00    -0.269 OA
ATOM     76  N   UNL A   1      32.618  23.805  24.881  1.00  0.00    -0.339 N 
ATOM     77  C   UNL A   1      32.350  24.800  25.909  1.00  0.00     0.120 C 
ATOM     78  C   UNL A   1      33.668  24.116  23.909  1.00  0.00     0.120 C 
ATOM     79  C   UNL A   1      32.325  26.238  25.433  1.00  0.00     0.025 C 
ATOM     80  C   UNL A   1      33.621  25.577  23.433  1.00  0.00     0.025 C 
ATOM     81  C   UNL A   1      33.597  26.537  24.636  1.00  0.00    -0.003 C 
BRANCH  81  82
ATOM     82  C   UNL A   1      33.669  28.018  24.221  1.00  0.00     0.039 C 
BRANCH  82  83
ATOM     83  C   UNL A   1      33.542  28.962  25.401  1.00  0.00    -0.048 A 
ATOM     84  C   UNL A   1      34.512  28.981  26.413  1.00  0.00     0.004 A 
ATOM     85  C   UNL A   1      32.457  29.848  25.494  1.00  0.00     0.004 A 
ATOM     86  C   UNL A   1      34.400  29.865  27.489  1.00  0.00     0.000 A 
ATOM     87  C   UNL A   1      32.347  30.732  26.569  1.00  0.00     0.000 A 
ATOM     88  C   UNL A   1      33.318  30.741  27.567  1.00  0.00     0.000 A 
ENDBRANCH  82  83
ENDBRANCH  81  82
ENDBRANCH  70  74
ENDBRANCH  65  68
ENDBRANCH  63  64
ENDBRANCH   1  63
TORSDOF 13
ENDMDL
MODEL 2
REMARK VINA RESULT:     -12.5      2.568      8.114
REMARK SMILES O=C(NCCCNC(=O)c1cnccc1C(=O)N1CCC(Cc2ccccc2)CC1)c1ccc(-c2c3nc(c(-c4c(F)cccc4F)c4ccc([nH]4)c(-c4c(F)cccc4F)c4nc(c(-c5c(F)cccc5F)c5ccc2[nH]5)C=C4)C=C3)cc1
REMARK SMILES IDX 5 1 4 2 3 3 1 4 2 5 31 7 32 8 84 9 33 10 83 11 34 12 35 13
REMARK SMILES IDX 36 14 77 15 37 16 82 17 76 18 78 19 38 20 81 21 75 22 74 23
REMARK SMILES IDX 39 25 65 26 48 27 64 28 49 29 52 30 63 31 79 32 50 33 51 34
REMARK SMILES IDX 62 36 80 37 53 38 40 39 41 40 46 41 42 42 43 43 45 44 47 45
REMARK SMILES IDX 44 46 66 47 67 48 72 49 68 50 69 51 71 52 73 53 70 54 54 55
REMARK SMILES IDX 55 56 60 57 56 58 57 59 59 60 61 61 58 62 6 63 7 64 8 65
REMARK SMILES IDX 9 67 10 68 11 69 15 70 12 71 14 72 13 73 16 74 17 75 18 76
REMARK SMILES IDX 19 77 30 78 20 79 29 80 21 81 22 82 23 83 24 84 28 85 25 86
REMARK SMILES IDX 27 87 26 88
REMARK H PARENT 3 6 78 24 52 35 7 66
REMARK Flexibility Score: inf
ROOT
ATOM      1  C   UNL A   1      31.909  31.461  26.689  1.00  0.00     0.042 C 
ENDROOT
BRANCH   1   2
ATOM      2  C   UNL A   1      32.942  32.391  27.322  1.00  0.00     0.118 C 
BRANCH   2   3
ATOM      3  N   UNL A   1      32.456  33.720  27.672  1.00  0.00    -0.352 N 
ATOM      4  O   UNL A   1      32.395  35.783  28.575  1.00  0.00    -0.269 OA
ATOM      5  C   UNL A   1      32.986  34.712  28.460  1.00  0.00     0.251 C 
ATOM      6  H   UNL A   1      31.588  33.949  27.269  1.00  0.00     0.163 HD
BRANCH   5   7
ATOM      7  C   UNL A   1      34.204  34.459  29.252  1.00  0.00     0.039 A 
ATOM      8  C   UNL A   1      35.470  34.675  28.721  1.00  0.00     0.014 A 
ATOM      9  C   UNL A   1      34.062  33.896  30.523  1.00  0.00     0.014 A 
ATOM     10  C   UNL A   1      36.565  34.075  29.323  1.00  0.00     0.010 A 
ATOM     11  C   UNL A   1      35.186  33.421  31.198  1.00  0.00     0.010 A 
ATOM     12  C   UNL A   1      36.436  33.432  30.565  1.00  0.00    -0.014 A 
BRANCH  12  13
ATOM     13  C   UNL A   1      37.622  32.768  31.163  1.00  0.00     0.031 A 
ATOM     14  C   UNL A   1      38.137  33.174  32.520  1.00  0.00     0.074 A 
ATOM     15  C   UNL A   1      38.193  31.745  30.500  1.00  0.00     0.049 A 
ATOM     16  N   UNL A   1      39.146  32.684  33.197  1.00  0.00    -0.248 NA
ATOM     17  C   UNL A   1      37.444  34.280  33.202  1.00  0.00     0.031 C 
ATOM     18  C   UNL A   1      37.779  31.263  29.179  1.00  0.00     0.029 A 
ATOM     19  N   UNL A   1      39.207  30.898  30.858  1.00  0.00    -0.354 N 
ATOM     20  C   UNL A   1      39.238  33.449  34.353  1.00  0.00     0.074 A 
ATOM     21  C   UNL A   1      38.189  34.442  34.287  1.00  0.00     0.031 C 
ATOM     22  C   UNL A   1      38.471  30.156  28.878  1.00  0.00     0.029 A 
ATOM     23  C   UNL A   1      39.430  29.897  29.945  1.00  0.00     0.049 A 
ATOM     24  H   UNL A   1      39.726  30.997  31.689  1.00  0.00     0.167 HD
ATOM     25  C   UNL A   1      40.117  33.331  35.377  1.00  0.00     0.037 A 
ATOM     26  C   UNL A   1      40.313  28.884  29.959  1.00  0.00     0.037 A 
ATOM     27  C   UNL A   1      41.125  32.307  35.463  1.00  0.00     0.049 A 
ATOM     28  C   UNL A   1      41.258  28.762  31.115  1.00  0.00     0.074 A 
ATOM     29  C   UNL A   1      42.038  32.075  36.478  1.00  0.00     0.029 A 
ATOM     30  N   UNL A   1      41.344  31.335  34.499  1.00  0.00    -0.354 N 
ATOM     31  N   UNL A   1      41.334  29.498  32.197  1.00  0.00    -0.248 NA
ATOM     32  C   UNL A   1      42.250  27.683  31.043  1.00  0.00     0.031 C 
ATOM     33  C   UNL A   1      42.830  30.980  36.113  1.00  0.00     0.029 A 
ATOM     34  C   UNL A   1      42.387  30.509  34.888  1.00  0.00     0.049 A 
ATOM     35  H   UNL A   1      40.834  31.244  33.662  1.00  0.00     0.167 HD
ATOM     36  C   UNL A   1      42.379  28.970  32.939  1.00  0.00     0.074 A 
ATOM     37  C   UNL A   1      42.890  27.836  32.193  1.00  0.00     0.031 C 
ATOM     38  C   UNL A   1      42.878  29.390  34.127  1.00  0.00     0.037 A 
BRANCH  25  39
ATOM     39  C   UNL A   1      40.047  34.350  36.477  1.00  0.00     0.057 A 
ATOM     40  C   UNL A   1      39.301  34.139  37.644  1.00  0.00     0.134 A 
ATOM     41  C   UNL A   1      40.765  35.550  36.378  1.00  0.00     0.134 A 
ATOM     42  F   UNL A   1      38.580  33.019  37.795  1.00  0.00    -0.206 F 
ATOM     43  C   UNL A   1      39.258  35.091  38.665  1.00  0.00     0.040 A 
ATOM     44  C   UNL A   1      40.746  36.500  37.401  1.00  0.00     0.040 A 
ATOM     45  F   UNL A   1      41.502  35.813  35.289  1.00  0.00    -0.206 F 
ATOM     46  C   UNL A   1      39.988  36.273  38.547  1.00  0.00     0.006 A 
ENDBRANCH  25  39
BRANCH  26  47
ATOM     47  C   UNL A   1      40.331  27.911  28.841  1.00  0.00     0.057 A 
ATOM     48  C   UNL A   1      39.595  26.724  28.909  1.00  0.00     0.134 A 
ATOM     49  C   UNL A   1      41.049  28.162  27.665  1.00  0.00     0.134 A 
ATOM     50  F   UNL A   1      38.899  26.424  30.016  1.00  0.00    -0.206 F 
ATOM     51  C   UNL A   1      39.574  25.816  27.849  1.00  0.00     0.040 A 
ATOM     52  C   UNL A   1      41.018  27.277  26.589  1.00  0.00     0.040 A 
ATOM     53  F   UNL A   1      41.764  29.289  27.537  1.00  0.00    -0.206 F 
ATOM     54  C   UNL A   1      40.281  26.097  26.681  1.00  0.00     0.006 A 
ENDBRANCH  26  47
BRANCH  38  55
ATOM     55  C   UNL A   1      44.023  28.605  34.688  1.00  0.00     0.057 A 
ATOM     56  C   UNL A   1      45.353  28.960  34.423  1.00  0.00     0.134 A 
ATOM     57  C   UNL A   1      43.794  27.492  35.505  1.00  0.00     0.134 A 
ATOM     58  F   UNL A   1      45.633  30.006  33.634  1.00  0.00    -0.206 F 
ATOM     59  C   UNL A   1      46.417  28.217  34.935  1.00  0.00     0.040 A 
ATOM     60  C   UNL A   1      44.850  26.755  36.039  1.00  0.00     0.040 A 
ATOM     61  F   UNL A   1      42.543  27.107  35.796  1.00  0.00    -0.206 F 
ATOM     62  C   UNL A   1      46.166  27.113  35.749  1.00  0.00     0.006 A 
ENDBRANCH  38  55
ENDBRANCH  12  13
ENDBRANCH   5   7
ENDBRANCH   2   3
ENDBRANCH   1   2
BRANCH   1  63
ATOM     63  C   UNL A   1      32.157  29.977  26.917  1.00  0.00     0.118 C 
BRANCH  63  64
ATOM     64  N   UNL A   1      33.181  29.433  26.038  1.00  0.00    -0.352 N 
ATOM     65  C   UNL A   1      33.054  28.655  24.923  1.00  0.00     0.253 C 
ATOM     66  H   UNL A   1      34.108  29.661  26.285  1.00  0.00     0.163 HD
ATOM     67  O   UNL A   1      34.060  28.274  24.329  1.00  0.00    -0.269 OA
BRANCH  65  68
ATOM     68  C   UNL A   1      31.749  28.172  24.474  1.00  0.00     0.070 A 
ATOM     69  C   UNL A   1      31.211  28.862  23.394  1.00  0.00     0.125 A 
ATOM     70  C   UNL A   1      31.027  27.099  24.995  1.00  0.00     0.055 A 
ATOM     71  N   UNL A   1      30.065  28.511  22.766  1.00  0.00    -0.264 NA
ATOM     72  C   UNL A   1      29.852  26.704  24.341  1.00  0.00     0.035 A 
ATOM     73  C   UNL A   1      29.421  27.428  23.242  1.00  0.00     0.112 A 
BRANCH  70  74
ATOM     74  C   UNL A   1      31.536  26.189  26.043  1.00  0.00     0.254 C 
ATOM     75  O   UNL A   1      31.317  26.549  27.201  1.00  0.00    -0.269 OA
ATOM     76  N   UNL A   1      32.114  24.957  25.741  1.00  0.00    -0.339 N 
ATOM     77  C   UNL A   1      31.791  23.873  26.658  1.00  0.00     0.120 C 
ATOM     78  C   UNL A   1      32.734  24.591  24.466  1.00  0.00     0.120 C 
ATOM     79  C   UNL A   1      32.846  22.794  26.787  1.00  0.00     0.025 C 
ATOM     80  C   UNL A   1      33.807  23.501  24.621  1.00  0.00     0.025 C 
ATOM     81  C   UNL A   1      33.245  22.295  25.396  1.00  0.00    -0.003 C 
BRANCH  81  82
ATOM     82  C   UNL A   1      34.239  21.123  25.480  1.00  0.00     0.039 C 
BRANCH  82  83
ATOM     83  C   UNL A   1      33.803  19.928  24.655  1.00  0.00    -0.048 A 
ATOM     84  C   UNL A   1      34.565  18.751  24.637  1.00  0.00     0.004 A 
ATOM     85  C   UNL A   1      32.617  19.971  23.906  1.00  0.00     0.004 A 
ATOM     86  C   UNL A   1      34.150  17.646  23.890  1.00  0.00     0.000 A 
ATOM     87  C   UNL A   1      32.203  18.865  23.160  1.00  0.00     0.000 A 
ATOM     88  C   UNL A   1      32.969  17.702  23.152  1.00  0.00     0.000 A 
ENDBRANCH  82  83
ENDBRANCH  81  82
ENDBRANCH  70  74
ENDBRANCH  65  68
ENDBRANCH  63  64
ENDBRANCH   1  63
TORSDOF 13
ENDMDL
MODEL 3
REMARK VINA RESULT:     -12.5      2.761      8.315
REMARK SMILES O=C(NCCCNC(=O)c1cnccc1C(=O)N1CCC(Cc2ccccc2)CC1)c1ccc(-c2c3nc(c(-c4c(F)cccc4F)c4ccc([nH]4)c(-c4c(F)cccc4F)c4nc(c(-c5c(F)cccc5F)c5ccc2[nH]5)C=C4)C=C3)cc1
REMARK SMILES IDX 5 1 4 2 3 3 1 4 2 5 31 7 32 8 84 9 33 10 83 11 34 12 35 13
REMARK SMILES IDX 36 14 77 15 37 16 82 17 76 18 78 19 38 20 81 21 75 22 74 23
REMARK SMILES IDX 39 25 65 26 48 27 64 28 49 29 52 30 63 31 79 32 50 33 51 34
REMARK SMILES IDX 62 36 80 37 53 38 40 39 41 40 46 41 42 42 43 43 45 44 47 45
REMARK SMILES IDX 44 46 66 47 67 48 72 49 68 50 69 51 71 52 73 53 70 54 54 55
REMARK SMILES IDX 55 56 60 57 56 58 57 59 59 60 61 61 58 62 6 63 7 64 8 65
REMARK SMILES IDX 9 67 10 68 11 69 15 70 12 71 14 72 13 73 16 74 17 75 18 76
REMARK SMILES IDX 19 77 30 78 20 79 29 80 21 81 22 82 23 83 24 84 28 85 25 86
REMARK SMILES IDX 27 87 26 88
REMARK H PARENT 3 6 78 24 52 35 7 66
REMARK Flexibility Score: inf
ROOT
ATOM      1  C   UNL A   1      31.989  30.989  26.631  1.00  0.00     0.042 C 
ENDROOT
BRANCH   1   2
ATOM      2  C   UNL A   1      33.053  31.921  27.206  1.00  0.00     0.118 C 
BRANCH   2   3
ATOM      3  N   UNL A   1      32.574  33.231  27.631  1.00  0.00    -0.352 N 
ATOM      4  O   UNL A   1      32.542  35.259  28.611  1.00  0.00    -0.269 OA
ATOM      5  C   UNL A   1      33.137  34.201  28.424  1.00  0.00     0.251 C 
ATOM      6  H   UNL A   1      31.682  33.463  27.285  1.00  0.00     0.163 HD
BRANCH   5   7
ATOM      7  C   UNL A   1      34.400  33.934  29.138  1.00  0.00     0.039 A 
ATOM      8  C   UNL A   1      35.613  34.424  28.669  1.00  0.00     0.014 A 
ATOM      9  C   UNL A   1      34.365  33.086  30.249  1.00  0.00     0.014 A 
ATOM     10  C   UNL A   1      36.791  33.849  29.120  1.00  0.00     0.010 A 
ATOM     11  C   UNL A   1      35.559  32.620  30.798  1.00  0.00     0.010 A 
ATOM     12  C   UNL A   1      36.779  32.932  30.184  1.00  0.00    -0.014 A 
BRANCH  12  13
ATOM     13  C   UNL A   1      38.055  32.309  30.616  1.00  0.00     0.031 A 
ATOM     14  C   UNL A   1      38.810  32.833  31.811  1.00  0.00     0.074 A 
ATOM     15  C   UNL A   1      38.496  31.218  29.962  1.00  0.00     0.049 A 
ATOM     16  N   UNL A   1      39.927  32.392  32.336  1.00  0.00    -0.248 NA
ATOM     17  C   UNL A   1      38.254  34.009  32.498  1.00  0.00     0.031 C 
ATOM     18  C   UNL A   1      37.847  30.620  28.791  1.00  0.00     0.029 A 
ATOM     19  N   UNL A   1      39.559  30.391  30.209  1.00  0.00    -0.354 N 
ATOM     20  C   UNL A   1      40.229  33.262  33.377  1.00  0.00     0.074 A 
ATOM     21  C   UNL A   1      39.185  34.262  33.408  1.00  0.00     0.031 C 
ATOM     22  C   UNL A   1      38.473  29.478  28.477  1.00  0.00     0.029 A 
ATOM     23  C   UNL A   1      39.611  29.305  29.371  1.00  0.00     0.049 A 
ATOM     24  H   UNL A   1      40.222  30.560  30.917  1.00  0.00     0.167 HD
ATOM     25  C   UNL A   1      41.281  33.227  34.229  1.00  0.00     0.037 A 
ATOM     26  C   UNL A   1      40.483  28.283  29.320  1.00  0.00     0.037 A 
ATOM     27  C   UNL A   1      42.289  32.199  34.228  1.00  0.00     0.049 A 
ATOM     28  C   UNL A   1      41.624  28.256  30.291  1.00  0.00     0.074 A 
ATOM     29  C   UNL A   1      43.372  32.049  35.076  1.00  0.00     0.029 A 
ATOM     30  N   UNL A   1      42.328  31.136  33.338  1.00  0.00    -0.354 N 
ATOM     31  N   UNL A   1      41.897  29.089  31.265  1.00  0.00    -0.248 NA
ATOM     32  C   UNL A   1      42.588  27.159  30.143  1.00  0.00     0.031 C 
ATOM     33  C   UNL A   1      44.085  30.911  34.680  1.00  0.00     0.029 A 
ATOM     34  C   UNL A   1      43.425  30.333  33.608  1.00  0.00     0.049 A 
ATOM     35  H   UNL A   1      41.672  30.974  32.621  1.00  0.00     0.167 HD
ATOM     36  C   UNL A   1      43.061  28.617  31.851  1.00  0.00     0.074 A 
ATOM     37  C   UNL A   1      43.428  27.409  31.136  1.00  0.00     0.031 C 
ATOM     38  C   UNL A   1      43.769  29.139  32.881  1.00  0.00     0.037 A 
BRANCH  25  39
ATOM     39  C   UNL A   1      41.413  34.347  35.220  1.00  0.00     0.057 A 
ATOM     40  C   UNL A   1      42.086  35.537  34.916  1.00  0.00     0.134 A 
ATOM     41  C   UNL A   1      40.828  34.243  36.489  1.00  0.00     0.134 A 
ATOM     42  F   UNL A   1      42.680  35.696  33.725  1.00  0.00    -0.206 F 
ATOM     43  C   UNL A   1      42.186  36.576  35.844  1.00  0.00     0.040 A 
ATOM     44  C   UNL A   1      40.904  35.282  37.418  1.00  0.00     0.040 A 
ATOM     45  F   UNL A   1      40.165  33.131  36.843  1.00  0.00    -0.206 F 
ATOM     46  C   UNL A   1      41.588  36.452  37.097  1.00  0.00     0.006 A 
ENDBRANCH  25  39
BRANCH  26  47
ATOM     47  C   UNL A   1      40.297  27.209  28.317  1.00  0.00     0.057 A 
ATOM     48  C   UNL A   1      40.926  27.273  27.069  1.00  0.00     0.134 A 
ATOM     49  C   UNL A   1      39.522  26.076  28.594  1.00  0.00     0.134 A 
ATOM     50  F   UNL A   1      41.670  28.341  26.743  1.00  0.00    -0.206 F 
ATOM     51  C   UNL A   1      40.789  26.251  26.129  1.00  0.00     0.040 A 
ATOM     52  C   UNL A   1      39.395  25.036  27.675  1.00  0.00     0.040 A 
ATOM     53  F   UNL A   1      38.903  25.953  29.778  1.00  0.00    -0.206 F 
ATOM     54  C   UNL A   1      40.027  25.124  26.435  1.00  0.00     0.006 A 
ENDBRANCH  26  47
BRANCH  38  55
ATOM     55  C   UNL A   1      44.999  28.392  33.296  1.00  0.00     0.057 A 
ATOM     56  C   UNL A   1      44.944  27.362  34.244  1.00  0.00     0.134 A 
ATOM     57  C   UNL A   1      46.245  28.700  32.737  1.00  0.00     0.134 A 
ATOM     58  F   UNL A   1      43.781  27.034  34.825  1.00  0.00    -0.206 F 
ATOM     59  C   UNL A   1      46.095  26.679  34.639  1.00  0.00     0.040 A 
ATOM     60  C   UNL A   1      47.397  28.011  33.110  1.00  0.00     0.040 A 
ATOM     61  F   UNL A   1      46.358  29.675  31.822  1.00  0.00    -0.206 F 
ATOM     62  C   UNL A   1      47.325  27.001  34.068  1.00  0.00     0.006 A 
ENDBRANCH  38  55
ENDBRANCH  12  13
ENDBRANCH   5   7
ENDBRANCH   2   3
ENDBRANCH   1   2
BRANCH   1  63
ATOM     63  C   UNL A   1      32.277  29.504  26.803  1.00  0.00     0.118 C 
BRANCH  63  64
ATOM     64  N   UNL A   1      33.182  28.982  25.791  1.00  0.00    -0.352 N 
ATOM     65  C   UNL A   1      32.918  28.208  24.697  1.00  0.00     0.253 C 
ATOM     66  H   UNL A   1      34.129  29.222  25.914  1.00  0.00     0.163 HD
ATOM     67  O   UNL A   1      33.840  27.847  23.970  1.00  0.00    -0.269 OA
BRANCH  65  68
ATOM     68  C   UNL A   1      31.572  27.708  24.422  1.00  0.00     0.070 A 
ATOM     69  C   UNL A   1      30.909  28.353  23.385  1.00  0.00     0.125 A 
ATOM     70  C   UNL A   1      30.919  26.657  25.067  1.00  0.00     0.055 A 
ATOM     71  N   UNL A   1      29.699  27.977  22.909  1.00  0.00    -0.264 NA
ATOM     72  C   UNL A   1      29.678  26.236  24.570  1.00  0.00     0.035 A 
ATOM     73  C   UNL A   1      29.120  26.914  23.501  1.00  0.00     0.112 A 
BRANCH  70  74
ATOM     74  C   UNL A   1      31.552  25.791  26.085  1.00  0.00     0.254 C 
ATOM     75  O   UNL A   1      31.402  26.159  27.251  1.00  0.00    -0.269 OA
ATOM     76  N   UNL A   1      32.166  24.584  25.755  1.00  0.00    -0.339 N 
ATOM     77  C   UNL A   1      31.968  23.500  26.707  1.00  0.00     0.120 C 
ATOM     78  C   UNL A   1      32.706  24.228  24.442  1.00  0.00     0.120 C 
ATOM     79  C   UNL A   1      33.083  22.477  26.770  1.00  0.00     0.025 C 
ATOM     80  C   UNL A   1      33.841  23.194  24.528  1.00  0.00     0.025 C 
ATOM     81  C   UNL A   1      33.401  21.976  25.359  1.00  0.00    -0.003 C 
BRANCH  81  82
ATOM     82  C   UNL A   1      34.455  20.855  25.382  1.00  0.00     0.039 C 
BRANCH  82  83
ATOM     83  C   UNL A   1      34.012  19.620  24.622  1.00  0.00    -0.048 A 
ATOM     84  C   UNL A   1      32.817  19.618  23.889  1.00  0.00     0.004 A 
ATOM     85  C   UNL A   1      34.799  18.458  24.626  1.00  0.00     0.004 A 
ATOM     86  C   UNL A   1      32.421  18.484  23.176  1.00  0.00     0.000 A 
ATOM     87  C   UNL A   1      34.403  17.325  23.912  1.00  0.00     0.000 A 
ATOM     88  C   UNL A   1      33.214  17.337  23.187  1.00  0.00     0.000 A 
ENDBRANCH  82  83
ENDBRANCH  81  82
ENDBRANCH  70  74
ENDBRANCH  65  68
ENDBRANCH  63  64
ENDBRANCH   1  63
TORSDOF 13
ENDMDL
