MODEL 1
REMARK VINA RESULT:     -12.0      0.000      0.000
REMARK SMILES O=C(NCCCNC(=O)c1ccc(S(=O)(=O)Nc2ccccc2I)cc1)c1ccc(-c2c3nc(c(-c4c(F)cccc4F)c4ccc([nH]4)c(-c4c(F)cccc4F)c4nc(c(-c5c(F)cccc5F)c5ccc2[nH]5)C=C4)C=C3)cc1
REMARK SMILES IDX 5 1 4 2 3 3 1 4 2 5 27 7 28 8 80 9 29 10 79 11 30 12 31 13
REMARK SMILES IDX 32 14 73 15 33 16 78 17 72 18 74 19 34 20 77 21 71 22 70 23
REMARK SMILES IDX 35 25 61 26 44 27 60 28 45 29 48 30 59 31 75 32 46 33 47 34
REMARK SMILES IDX 58 36 76 37 49 38 36 39 37 40 42 41 38 42 39 43 41 44 43 45
REMARK SMILES IDX 40 46 62 47 63 48 68 49 64 50 65 51 67 52 69 53 66 54 50 55
REMARK SMILES IDX 51 56 56 57 52 58 53 59 55 60 57 61 54 62 6 63 7 64 8 65
REMARK SMILES IDX 9 67 10 68 11 69 26 70 12 71 25 72 13 73 14 74 15 75 16 76
REMARK SMILES IDX 17 77 18 79 19 80 23 81 20 82 22 83 24 84 21 85
REMARK H PARENT 3 6 74 24 48 35 7 66 17 78
REMARK Flexibility Score: inf
ROOT
ATOM      1  C   UNL A   1      31.592  31.958  26.896  1.00  0.00     0.042 C 
ENDROOT
BRANCH   1   2
ATOM      2  C   UNL A   1      32.799  32.875  26.926  1.00  0.00     0.118 C 
BRANCH   2   3
ATOM      3  N   UNL A   1      32.539  34.122  27.631  1.00  0.00    -0.352 N 
ATOM      4  O   UNL A   1      32.598  35.620  29.307  1.00  0.00    -0.269 OA
ATOM      5  C   UNL A   1      33.112  34.644  28.765  1.00  0.00     0.251 C 
ATOM      6  H   UNL A   1      31.838  34.683  27.228  1.00  0.00     0.163 HD
BRANCH   5   7
ATOM      7  C   UNL A   1      34.320  34.028  29.355  1.00  0.00     0.039 A 
ATOM      8  C   UNL A   1      35.599  34.473  29.015  1.00  0.00     0.014 A 
ATOM      9  C   UNL A   1      34.167  33.008  30.300  1.00  0.00     0.014 A 
ATOM     10  C   UNL A   1      36.719  33.795  29.480  1.00  0.00     0.010 A 
ATOM     11  C   UNL A   1      35.295  32.398  30.851  1.00  0.00     0.010 A 
ATOM     12  C   UNL A   1      36.580  32.765  30.420  1.00  0.00    -0.014 A 
BRANCH  12  13
ATOM     13  C   UNL A   1      37.786  32.125  30.998  1.00  0.00     0.031 A 
ATOM     14  C   UNL A   1      38.515  31.047  30.252  1.00  0.00     0.074 A 
ATOM     15  C   UNL A   1      38.204  32.509  32.219  1.00  0.00     0.049 A 
ATOM     16  N   UNL A   1      39.523  30.311  30.644  1.00  0.00    -0.248 NA
ATOM     17  C   UNL A   1      38.044  30.749  28.890  1.00  0.00     0.031 C 
ATOM     18  C   UNL A   1      37.573  33.546  33.038  1.00  0.00     0.029 A 
ATOM     19  N   UNL A   1      39.248  32.066  32.988  1.00  0.00    -0.354 N 
ATOM     20  C   UNL A   1      39.787  29.441  29.594  1.00  0.00     0.074 A 
ATOM     21  C   UNL A   1      38.822  29.730  28.554  1.00  0.00     0.031 C 
ATOM     22  C   UNL A   1      38.248  33.668  34.189  1.00  0.00     0.029 A 
ATOM     23  C   UNL A   1      39.313  32.673  34.217  1.00  0.00     0.049 A 
ATOM     24  H   UNL A   1      39.887  31.379  32.689  1.00  0.00     0.167 HD
ATOM     25  C   UNL A   1      40.748  28.490  29.510  1.00  0.00     0.037 A 
ATOM     26  C   UNL A   1      40.114  32.432  35.270  1.00  0.00     0.037 A 
ATOM     27  C   UNL A   1      41.713  28.224  30.545  1.00  0.00     0.049 A 
ATOM     28  C   UNL A   1      41.152  31.356  35.167  1.00  0.00     0.074 A 
ATOM     29  C   UNL A   1      42.757  27.314  30.539  1.00  0.00     0.029 A 
ATOM     30  N   UNL A   1      41.747  28.862  31.777  1.00  0.00    -0.354 N 
ATOM     31  N   UNL A   1      41.411  30.559  34.159  1.00  0.00    -0.248 NA
ATOM     32  C   UNL A   1      42.006  31.142  36.342  1.00  0.00     0.031 C 
ATOM     33  C   UNL A   1      43.393  27.371  31.783  1.00  0.00     0.029 A 
ATOM     34  C   UNL A   1      42.777  28.350  32.548  1.00  0.00     0.049 A 
ATOM     35  H   UNL A   1      41.130  29.576  32.060  1.00  0.00     0.167 HD
ATOM     36  C   UNL A   1      42.469  29.761  34.568  1.00  0.00     0.074 A 
ATOM     37  C   UNL A   1      42.807  30.175  35.915  1.00  0.00     0.031 C 
ATOM     38  C   UNL A   1      43.104  28.778  33.885  1.00  0.00     0.037 A 
BRANCH  25  39
ATOM     39  C   UNL A   1      40.778  27.647  28.268  1.00  0.00     0.057 A 
ATOM     40  C   UNL A   1      41.519  28.011  27.137  1.00  0.00     0.134 A 
ATOM     41  C   UNL A   1      40.067  26.442  28.212  1.00  0.00     0.134 A 
ATOM     42  F   UNL A   1      42.214  29.159  27.120  1.00  0.00    -0.206 F 
ATOM     43  C   UNL A   1      41.526  27.223  25.984  1.00  0.00     0.040 A 
ATOM     44  C   UNL A   1      40.086  25.633  27.074  1.00  0.00     0.040 A 
ATOM     45  F   UNL A   1      39.341  26.028  29.262  1.00  0.00    -0.206 F 
ATOM     46  C   UNL A   1      40.811  26.028  25.952  1.00  0.00     0.006 A 
ENDBRANCH  25  39
BRANCH  26  47
ATOM     47  C   UNL A   1      39.934  33.224  36.510  1.00  0.00     0.057 A 
ATOM     48  C   UNL A   1      40.646  34.408  36.723  1.00  0.00     0.134 A 
ATOM     49  C   UNL A   1      38.991  32.851  37.476  1.00  0.00     0.134 A 
ATOM     50  F   UNL A   1      41.568  34.810  35.835  1.00  0.00    -0.206 F 
ATOM     51  C   UNL A   1      40.428  35.195  37.854  1.00  0.00     0.040 A 
ATOM     52  C   UNL A   1      38.746  33.640  38.600  1.00  0.00     0.040 A 
ATOM     53  F   UNL A   1      38.267  31.733  37.319  1.00  0.00    -0.206 F 
ATOM     54  C   UNL A   1      39.467  34.816  38.791  1.00  0.00     0.006 A 
ENDBRANCH  26  47
BRANCH  38  55
ATOM     55  C   UNL A   1      44.255  28.102  34.566  1.00  0.00     0.057 A 
ATOM     56  C   UNL A   1      44.089  26.919  35.297  1.00  0.00     0.134 A 
ATOM     57  C   UNL A   1      45.554  28.610  34.436  1.00  0.00     0.134 A 
ATOM     58  F   UNL A   1      42.867  26.393  35.470  1.00  0.00    -0.206 F 
ATOM     59  C   UNL A   1      45.177  26.267  35.879  1.00  0.00     0.040 A 
ATOM     60  C   UNL A   1      46.651  27.956  34.994  1.00  0.00     0.040 A 
ATOM     61  F   UNL A   1      45.777  29.737  33.744  1.00  0.00    -0.206 F 
ATOM     62  C   UNL A   1      46.463  26.780  35.720  1.00  0.00     0.006 A 
ENDBRANCH  38  55
ENDBRANCH  12  13
ENDBRANCH   5   7
ENDBRANCH   2   3
ENDBRANCH   1   2
BRANCH   1  63
ATOM     63  C   UNL A   1      31.940  30.482  26.913  1.00  0.00     0.118 C 
BRANCH  63  64
ATOM     64  N   UNL A   1      33.298  30.204  27.366  1.00  0.00    -0.352 N 
ATOM     65  C   UNL A   1      34.202  29.235  26.996  1.00  0.00     0.251 C 
ATOM     66  H   UNL A   1      33.628  30.822  28.059  1.00  0.00     0.163 HD
ATOM     67  O   UNL A   1      35.252  29.131  27.625  1.00  0.00    -0.269 OA
BRANCH  65  68
ATOM     68  C   UNL A   1      33.926  28.309  25.870  1.00  0.00     0.039 A 
ATOM     69  C   UNL A   1      33.822  28.804  24.563  1.00  0.00     0.015 A 
ATOM     70  C   UNL A   1      33.764  26.947  26.091  1.00  0.00     0.015 A 
ATOM     71  C   UNL A   1      33.589  27.927  23.490  1.00  0.00     0.023 A 
ATOM     72  C   UNL A   1      33.713  26.073  25.019  1.00  0.00     0.023 A 
ATOM     73  C   UNL A   1      33.536  26.550  23.726  1.00  0.00     0.087 A 
BRANCH  73  74
ATOM     74  S   UNL A   1      33.322  25.391  22.397  1.00  0.00     0.261 S 
ATOM     75  O   UNL A   1      33.422  26.125  21.149  1.00  0.00    -0.201 OA
ATOM     76  O   UNL A   1      34.204  24.277  22.663  1.00  0.00    -0.201 OA
BRANCH  74  77
ATOM     77  N   UNL A   1      31.722  24.775  22.440  1.00  0.00    -0.279 N 
ATOM     78  H   UNL A   1      31.219  24.633  21.605  1.00  0.00     0.180 HD
BRANCH  77  79
ATOM     79  C   UNL A   1      31.123  24.468  23.715  1.00  0.00     0.062 A 
ATOM     80  C   UNL A   1      31.436  23.264  24.362  1.00  0.00     0.028 A 
ATOM     81  C   UNL A   1      30.329  25.420  24.382  1.00  0.00     0.037 A 
ATOM     82  C   UNL A   1      31.003  23.035  25.673  1.00  0.00     0.002 A 
ATOM     83  C   UNL A   1      29.900  25.185  25.694  1.00  0.00     0.017 A 
ATOM     84  I   UNL A   1      29.777  27.239  23.493  1.00  0.00    -0.042 I 
ATOM     85  C   UNL A   1      30.248  23.999  26.342  1.00  0.00     0.001 A 
ENDBRANCH  77  79
ENDBRANCH  74  77
ENDBRANCH  73  74
ENDBRANCH  65  68
ENDBRANCH  63  64
ENDBRANCH   1  63
TORSDOF 13
ENDMDL
MODEL 2
REMARK VINA RESULT:     -12.0      5.218     10.001
REMARK SMILES O=C(NCCCNC(=O)c1ccc(S(=O)(=O)Nc2ccccc2I)cc1)c1ccc(-c2c3nc(c(-c4c(F)cccc4F)c4ccc([nH]4)c(-c4c(F)cccc4F)c4nc(c(-c5c(F)cccc5F)c5ccc2[nH]5)C=C4)C=C3)cc1
REMARK SMILES IDX 5 1 4 2 3 3 1 4 2 5 27 7 28 8 80 9 29 10 79 11 30 12 31 13
REMARK SMILES IDX 32 14 73 15 33 16 78 17 72 18 74 19 34 20 77 21 71 22 70 23
REMARK SMILES IDX 35 25 61 26 44 27 60 28 45 29 48 30 59 31 75 32 46 33 47 34
REMARK SMILES IDX 58 36 76 37 49 38 36 39 37 40 42 41 38 42 39 43 41 44 43 45
REMARK SMILES IDX 40 46 62 47 63 48 68 49 64 50 65 51 67 52 69 53 66 54 50 55
REMARK SMILES IDX 51 56 56 57 52 58 53 59 55 60 57 61 54 62 6 63 7 64 8 65
REMARK SMILES IDX 9 67 10 68 11 69 26 70 12 71 25 72 13 73 14 74 15 75 16 76
REMARK SMILES IDX 17 77 18 79 19 80 23 81 20 82 22 83 24 84 21 85
REMARK H PARENT 3 6 74 24 48 35 7 66 17 78
REMARK Flexibility Score: inf
ROOT
ATOM      1  C   UNL A   1      38.207  19.940  24.802  1.00  0.00     0.042 C 
ENDROOT
BRANCH   1   2
ATOM      2  C   UNL A   1      39.010  19.890  26.087  1.00  0.00     0.118 C 
BRANCH   2   3
ATOM      3  N   UNL A   1      40.156  18.997  25.999  1.00  0.00    -0.352 N 
ATOM      4  O   UNL A   1      42.304  18.381  25.751  1.00  0.00    -0.269 OA
ATOM      5  C   UNL A   1      41.502  19.261  26.053  1.00  0.00     0.251 C 
ATOM      6  H   UNL A   1      39.927  18.046  25.881  1.00  0.00     0.163 HD
BRANCH   5   7
ATOM      7  C   UNL A   1      41.995  20.600  26.443  1.00  0.00     0.039 A 
ATOM      8  C   UNL A   1      42.271  20.910  27.776  1.00  0.00     0.014 A 
ATOM      9  C   UNL A   1      42.225  21.554  25.446  1.00  0.00     0.014 A 
ATOM     10  C   UNL A   1      42.606  22.210  28.134  1.00  0.00     0.010 A 
ATOM     11  C   UNL A   1      42.667  22.831  25.795  1.00  0.00     0.010 A 
ATOM     12  C   UNL A   1      42.830  23.178  27.146  1.00  0.00    -0.014 A 
BRANCH  12  13
ATOM     13  C   UNL A   1      43.300  24.531  27.530  1.00  0.00     0.031 A 
ATOM     14  C   UNL A   1      42.329  25.583  27.975  1.00  0.00     0.074 A 
ATOM     15  C   UNL A   1      44.615  24.810  27.448  1.00  0.00     0.049 A 
ATOM     16  N   UNL A   1      42.548  26.843  28.252  1.00  0.00    -0.248 NA
ATOM     17  C   UNL A   1      40.924  25.170  28.119  1.00  0.00     0.031 C 
ATOM     18  C   UNL A   1      45.652  23.865  27.027  1.00  0.00     0.029 A 
ATOM     19  N   UNL A   1      45.302  25.967  27.704  1.00  0.00    -0.354 N 
ATOM     20  C   UNL A   1      41.309  27.383  28.570  1.00  0.00     0.074 A 
ATOM     21  C   UNL A   1      40.338  26.317  28.436  1.00  0.00     0.031 C 
ATOM     22  C   UNL A   1      46.844  24.477  27.063  1.00  0.00     0.029 A 
ATOM     23  C   UNL A   1      46.646  25.870  27.442  1.00  0.00     0.049 A 
ATOM     24  H   UNL A   1      44.874  26.787  28.039  1.00  0.00     0.167 HD
ATOM     25  C   UNL A   1      41.013  28.651  28.940  1.00  0.00     0.037 A 
ATOM     26  C   UNL A   1      47.611  26.807  27.465  1.00  0.00     0.037 A 
ATOM     27  C   UNL A   1      41.990  29.699  29.086  1.00  0.00     0.049 A 
ATOM     28  C   UNL A   1      47.257  28.212  27.849  1.00  0.00     0.074 A 
ATOM     29  C   UNL A   1      41.799  31.006  29.501  1.00  0.00     0.029 A 
ATOM     30  N   UNL A   1      43.344  29.560  28.813  1.00  0.00    -0.354 N 
ATOM     31  N   UNL A   1      46.086  28.703  28.174  1.00  0.00    -0.248 NA
ATOM     32  C   UNL A   1      48.351  29.190  27.867  1.00  0.00     0.031 C 
ATOM     33  C   UNL A   1      43.029  31.669  29.436  1.00  0.00     0.029 A 
ATOM     34  C   UNL A   1      43.996  30.763  29.027  1.00  0.00     0.049 A 
ATOM     35  H   UNL A   1      43.777  28.728  28.513  1.00  0.00     0.167 HD
ATOM     36  C   UNL A   1      46.303  30.044  28.455  1.00  0.00     0.074 A 
ATOM     37  C   UNL A   1      47.719  30.287  28.266  1.00  0.00     0.031 C 
ATOM     38  C   UNL A   1      45.407  30.986  28.839  1.00  0.00     0.037 A 
BRANCH  25  39
ATOM     39  C   UNL A   1      39.568  28.982  29.178  1.00  0.00     0.057 A 
ATOM     40  C   UNL A   1      38.980  28.885  30.446  1.00  0.00     0.134 A 
ATOM     41  C   UNL A   1      38.757  29.420  28.124  1.00  0.00     0.134 A 
ATOM     42  F   UNL A   1      39.698  28.460  31.497  1.00  0.00    -0.206 F 
ATOM     43  C   UNL A   1      37.630  29.182  30.650  1.00  0.00     0.040 A 
ATOM     44  C   UNL A   1      37.413  29.743  28.320  1.00  0.00     0.040 A 
ATOM     45  F   UNL A   1      39.256  29.542  26.884  1.00  0.00    -0.206 F 
ATOM     46  C   UNL A   1      36.844  29.616  29.585  1.00  0.00     0.006 A 
ENDBRANCH  25  39
BRANCH  26  47
ATOM     47  C   UNL A   1      48.994  26.427  27.089  1.00  0.00     0.057 A 
ATOM     48  C   UNL A   1      49.916  26.004  28.051  1.00  0.00     0.134 A 
ATOM     49  C   UNL A   1      49.401  26.409  25.749  1.00  0.00     0.134 A 
ATOM     50  F   UNL A   1      49.584  26.008  29.351  1.00  0.00    -0.206 F 
ATOM     51  C   UNL A   1      51.195  25.577  27.694  1.00  0.00     0.040 A 
ATOM     52  C   UNL A   1      50.668  25.963  25.376  1.00  0.00     0.040 A 
ATOM     53  F   UNL A   1      48.555  26.790  24.780  1.00  0.00    -0.206 F 
ATOM     54  C   UNL A   1      51.570  25.546  26.352  1.00  0.00     0.006 A 
ENDBRANCH  26  47
BRANCH  38  55
ATOM     55  C   UNL A   1      45.935  32.360  29.117  1.00  0.00     0.057 A 
ATOM     56  C   UNL A   1      45.954  33.357  28.133  1.00  0.00     0.134 A 
ATOM     57  C   UNL A   1      46.368  32.707  30.403  1.00  0.00     0.134 A 
ATOM     58  F   UNL A   1      45.566  33.081  26.879  1.00  0.00    -0.206 F 
ATOM     59  C   UNL A   1      46.394  34.650  28.418  1.00  0.00     0.040 A 
ATOM     60  C   UNL A   1      46.789  34.002  30.705  1.00  0.00     0.040 A 
ATOM     61  F   UNL A   1      46.369  31.798  31.389  1.00  0.00    -0.206 F 
ATOM     62  C   UNL A   1      46.803  34.978  29.710  1.00  0.00     0.006 A 
ENDBRANCH  38  55
ENDBRANCH  12  13
ENDBRANCH   5   7
ENDBRANCH   2   3
ENDBRANCH   1   2
BRANCH   1  63
ATOM     63  C   UNL A   1      37.403  21.213  24.626  1.00  0.00     0.118 C 
BRANCH  63  64
ATOM     64  N   UNL A   1      37.974  22.366  25.314  1.00  0.00    -0.352 N 
ATOM     65  C   UNL A   1      37.384  23.472  25.882  1.00  0.00     0.251 C 
ATOM     66  H   UNL A   1      38.957  22.349  25.386  1.00  0.00     0.163 HD
ATOM     67  O   UNL A   1      38.100  24.381  26.295  1.00  0.00    -0.269 OA
BRANCH  65  68
ATOM     68  C   UNL A   1      35.909  23.594  25.988  1.00  0.00     0.039 A 
ATOM     69  C   UNL A   1      35.175  22.641  26.709  1.00  0.00     0.015 A 
ATOM     70  C   UNL A   1      35.235  24.644  25.377  1.00  0.00     0.015 A 
ATOM     71  C   UNL A   1      33.782  22.769  26.837  1.00  0.00     0.023 A 
ATOM     72  C   UNL A   1      33.896  24.861  25.652  1.00  0.00     0.023 A 
ATOM     73  C   UNL A   1      33.142  23.891  26.302  1.00  0.00     0.087 A 
BRANCH  73  74
ATOM     74  S   UNL A   1      31.395  24.141  26.501  1.00  0.00     0.261 S 
ATOM     75  O   UNL A   1      30.898  23.113  27.396  1.00  0.00    -0.201 OA
ATOM     76  O   UNL A   1      31.202  25.539  26.815  1.00  0.00    -0.201 OA
BRANCH  74  77
ATOM     77  N   UNL A   1      30.612  23.860  25.001  1.00  0.00    -0.279 N 
ATOM     78  H   UNL A   1      29.842  23.248  24.946  1.00  0.00     0.180 HD
BRANCH  77  79
ATOM     79  C   UNL A   1      31.095  24.534  23.821  1.00  0.00     0.062 A 
ATOM     80  C   UNL A   1      30.798  25.889  23.619  1.00  0.00     0.028 A 
ATOM     81  C   UNL A   1      31.972  23.883  22.933  1.00  0.00     0.037 A 
ATOM     82  C   UNL A   1      31.405  26.596  22.574  1.00  0.00     0.002 A 
ATOM     83  C   UNL A   1      32.578  24.596  21.890  1.00  0.00     0.017 A 
ATOM     84  I   UNL A   1      32.459  21.851  23.127  1.00  0.00    -0.042 I 
ATOM     85  C   UNL A   1      32.302  25.954  21.721  1.00  0.00     0.001 A 
ENDBRANCH  77  79
ENDBRANCH  74  77
ENDBRANCH  73  74
ENDBRANCH  65  68
ENDBRANCH  63  64
ENDBRANCH   1  63
TORSDOF 13
ENDMDL
MODEL 3
REMARK VINA RESULT:     -12.0      4.711      9.395
REMARK SMILES O=C(NCCCNC(=O)c1ccc(S(=O)(=O)Nc2ccccc2I)cc1)c1ccc(-c2c3nc(c(-c4c(F)cccc4F)c4ccc([nH]4)c(-c4c(F)cccc4F)c4nc(c(-c5c(F)cccc5F)c5ccc2[nH]5)C=C4)C=C3)cc1
REMARK SMILES IDX 5 1 4 2 3 3 1 4 2 5 27 7 28 8 80 9 29 10 79 11 30 12 31 13
REMARK SMILES IDX 32 14 73 15 33 16 78 17 72 18 74 19 34 20 77 21 71 22 70 23
REMARK SMILES IDX 35 25 61 26 44 27 60 28 45 29 48 30 59 31 75 32 46 33 47 34
REMARK SMILES IDX 58 36 76 37 49 38 36 39 37 40 42 41 38 42 39 43 41 44 43 45
REMARK SMILES IDX 40 46 62 47 63 48 68 49 64 50 65 51 67 52 69 53 66 54 50 55
REMARK SMILES IDX 51 56 56 57 52 58 53 59 55 60 57 61 54 62 6 63 7 64 8 65
REMARK SMILES IDX 9 67 10 68 11 69 26 70 12 71 25 72 13 73 14 74 15 75 16 76
REMARK SMILES IDX 17 77 18 79 19 80 23 81 20 82 22 83 24 84 21 85
REMARK H PARENT 3 6 74 24 48 35 7 66 17 78
REMARK Flexibility Score: inf
ROOT
ATOM      1  C   UNL A   1      38.158  19.894  24.873  1.00  0.00     0.042 C 
ENDROOT
BRANCH   1   2
ATOM      2  C   UNL A   1      39.102  20.003  26.055  1.00  0.00     0.118 C 
BRANCH   2   3
ATOM      3  N   UNL A   1      40.322  19.228  25.873  1.00  0.00    -0.352 N 
ATOM      4  O   UNL A   1      42.515  18.834  25.579  1.00  0.00    -0.269 OA
ATOM      5  C   UNL A   1      41.639  19.599  25.976  1.00  0.00     0.251 C 
ATOM      6  H   UNL A   1      40.176  18.284  25.637  1.00  0.00     0.163 HD
BRANCH   5   7
ATOM      7  C   UNL A   1      42.013  20.918  26.533  1.00  0.00     0.039 A 
ATOM      8  C   UNL A   1      42.126  21.116  27.910  1.00  0.00     0.014 A 
ATOM      9  C   UNL A   1      42.297  21.968  25.654  1.00  0.00     0.014 A 
ATOM     10  C   UNL A   1      42.349  22.392  28.414  1.00  0.00     0.010 A 
ATOM     11  C   UNL A   1      42.628  23.226  26.160  1.00  0.00     0.010 A 
ATOM     12  C   UNL A   1      42.625  23.455  27.545  1.00  0.00    -0.014 A 
BRANCH  12  13
ATOM     13  C   UNL A   1      42.976  24.786  28.095  1.00  0.00     0.031 A 
ATOM     14  C   UNL A   1      41.912  25.805  28.377  1.00  0.00     0.074 A 
ATOM     15  C   UNL A   1      44.272  25.078  28.313  1.00  0.00     0.049 A 
ATOM     16  N   UNL A   1      42.043  27.048  28.763  1.00  0.00    -0.248 NA
ATOM     17  C   UNL A   1      40.517  25.375  28.192  1.00  0.00     0.031 C 
ATOM     18  C   UNL A   1      45.393  24.167  28.074  1.00  0.00     0.029 A 
ATOM     19  N   UNL A   1      44.867  26.224  28.773  1.00  0.00    -0.354 N 
ATOM     20  C   UNL A   1      40.755  27.561  28.836  1.00  0.00     0.074 A 
ATOM     21  C   UNL A   1      39.855  26.498  28.438  1.00  0.00     0.031 C 
ATOM     22  C   UNL A   1      46.538  24.783  28.399  1.00  0.00     0.029 A 
ATOM     23  C   UNL A   1      46.237  26.151  28.802  1.00  0.00     0.049 A 
ATOM     24  H   UNL A   1      44.361  27.021  29.053  1.00  0.00     0.167 HD
ATOM     25  C   UNL A   1      40.362  28.804  29.202  1.00  0.00     0.037 A 
ATOM     26  C   UNL A   1      47.157  27.091  29.083  1.00  0.00     0.037 A 
ATOM     27  C   UNL A   1      41.265  29.848  29.612  1.00  0.00     0.049 A 
ATOM     28  C   UNL A   1      46.702  28.469  29.458  1.00  0.00     0.074 A 
ATOM     29  C   UNL A   1      40.965  31.127  30.047  1.00  0.00     0.029 A 
ATOM     30  N   UNL A   1      42.648  29.734  29.630  1.00  0.00    -0.354 N 
ATOM     31  N   UNL A   1      45.480  28.933  29.550  1.00  0.00    -0.248 NA
ATOM     32  C   UNL A   1      47.748  29.453  29.765  1.00  0.00     0.031 C 
ATOM     33  C   UNL A   1      42.168  31.801  30.285  1.00  0.00     0.029 A 
ATOM     34  C   UNL A   1      43.217  30.927  30.044  1.00  0.00     0.049 A 
ATOM     35  H   UNL A   1      43.151  28.924  29.385  1.00  0.00     0.167 HD
ATOM     36  C   UNL A   1      45.605  30.257  29.944  1.00  0.00     0.074 A 
ATOM     37  C   UNL A   1      47.024  30.520  30.078  1.00  0.00     0.031 C 
ATOM     38  C   UNL A   1      44.631  31.169  30.177  1.00  0.00     0.037 A 
BRANCH  25  39
ATOM     39  C   UNL A   1      38.893  29.110  29.141  1.00  0.00     0.057 A 
ATOM     40  C   UNL A   1      38.066  29.022  30.268  1.00  0.00     0.134 A 
ATOM     41  C   UNL A   1      38.302  29.516  27.938  1.00  0.00     0.134 A 
ATOM     42  F   UNL A   1      38.566  28.628  31.449  1.00  0.00    -0.206 F 
ATOM     43  C   UNL A   1      36.699  29.296  30.193  1.00  0.00     0.040 A 
ATOM     44  C   UNL A   1      36.941  29.817  27.856  1.00  0.00     0.040 A 
ATOM     45  F   UNL A   1      39.037  29.629  26.821  1.00  0.00    -0.206 F 
ATOM     46  C   UNL A   1      36.134  29.699  28.985  1.00  0.00     0.006 A 
ENDBRANCH  25  39
BRANCH  26  47
ATOM     47  C   UNL A   1      48.595  26.742  28.993  1.00  0.00     0.057 A 
ATOM     48  C   UNL A   1      49.266  26.153  30.069  1.00  0.00     0.134 A 
ATOM     49  C   UNL A   1      49.311  26.926  27.804  1.00  0.00     0.134 A 
ATOM     50  F   UNL A   1      48.632  25.961  31.236  1.00  0.00    -0.206 F 
ATOM     51  C   UNL A   1      50.600  25.757  29.966  1.00  0.00     0.040 A 
ATOM     52  C   UNL A   1      50.638  26.514  27.680  1.00  0.00     0.040 A 
ATOM     53  F   UNL A   1      48.717  27.474  26.734  1.00  0.00    -0.206 F 
ATOM     54  C   UNL A   1      51.286  25.928  28.764  1.00  0.00     0.006 A 
ENDBRANCH  26  47
BRANCH  38  55
ATOM     55  C   UNL A   1      45.060  32.530  30.637  1.00  0.00     0.057 A 
ATOM     56  C   UNL A   1      45.260  33.584  29.737  1.00  0.00     0.134 A 
ATOM     57  C   UNL A   1      45.214  32.801  32.002  1.00  0.00     0.134 A 
ATOM     58  F   UNL A   1      45.142  33.382  28.416  1.00  0.00    -0.206 F 
ATOM     59  C   UNL A   1      45.604  34.861  30.181  1.00  0.00     0.040 A 
ATOM     60  C   UNL A   1      45.536  34.079  32.459  1.00  0.00     0.040 A 
ATOM     61  F   UNL A   1      45.032  31.833  32.913  1.00  0.00    -0.206 F 
ATOM     62  C   UNL A   1      45.732  35.114  31.546  1.00  0.00     0.006 A 
ENDBRANCH  38  55
ENDBRANCH  12  13
ENDBRANCH   5   7
ENDBRANCH   2   3
ENDBRANCH   1   2
BRANCH   1  63
ATOM     63  C   UNL A   1      37.371  21.159  24.594  1.00  0.00     0.118 C 
BRANCH  63  64
ATOM     64  N   UNL A   1      37.908  22.342  25.256  1.00  0.00    -0.352 N 
ATOM     65  C   UNL A   1      37.288  23.449  25.790  1.00  0.00     0.251 C 
ATOM     66  H   UNL A   1      38.891  22.349  25.338  1.00  0.00     0.163 HD
ATOM     67  O   UNL A   1      37.979  24.384  26.186  1.00  0.00    -0.269 OA
BRANCH  65  68
ATOM     68  C   UNL A   1      35.810  23.540  25.880  1.00  0.00     0.039 A 
ATOM     69  C   UNL A   1      35.121  22.827  26.871  1.00  0.00     0.015 A 
ATOM     70  C   UNL A   1      35.089  24.323  24.987  1.00  0.00     0.015 A 
ATOM     71  C   UNL A   1      33.724  22.932  26.978  1.00  0.00     0.023 A 
ATOM     72  C   UNL A   1      33.743  24.562  25.206  1.00  0.00     0.023 A 
ATOM     73  C   UNL A   1      33.034  23.810  26.136  1.00  0.00     0.087 A 
BRANCH  73  74
ATOM     74  S   UNL A   1      31.279  24.040  26.278  1.00  0.00     0.261 S 
ATOM     75  O   UNL A   1      30.686  23.744  24.987  1.00  0.00    -0.201 OA
ATOM     76  O   UNL A   1      30.854  23.322  27.459  1.00  0.00    -0.201 OA
BRANCH  74  77
ATOM     77  N   UNL A   1      30.951  25.699  26.564  1.00  0.00    -0.279 N 
ATOM     78  H   UNL A   1      30.898  26.047  27.484  1.00  0.00     0.180 HD
BRANCH  77  79
ATOM     79  C   UNL A   1      30.753  26.579  25.439  1.00  0.00     0.062 A 
ATOM     80  C   UNL A   1      29.703  26.339  24.541  1.00  0.00     0.028 A 
ATOM     81  C   UNL A   1      31.521  27.751  25.302  1.00  0.00     0.037 A 
ATOM     82  C   UNL A   1      29.394  27.280  23.551  1.00  0.00     0.002 A 
ATOM     83  C   UNL A   1      31.205  28.689  24.311  1.00  0.00     0.017 A 
ATOM     84  I   UNL A   1      33.132  28.188  26.572  1.00  0.00    -0.042 I 
ATOM     85  C   UNL A   1      30.135  28.457  23.445  1.00  0.00     0.001 A 
ENDBRANCH  77  79
ENDBRANCH  74  77
ENDBRANCH  73  74
ENDBRANCH  65  68
ENDBRANCH  63  64
ENDBRANCH   1  63
TORSDOF 13
ENDMDL
