MODEL 1
REMARK VINA RESULT:     -12.0      0.000      0.000
REMARK SMILES O=C(NCCCNC(=O)c1cn(-c2ccccc2)c2c1N=C(O)C[C@@H]2c1cccs1)c1ccc(-c2c3nc(c(-c4c(F)cccc4F)c4ccc([nH]4)c(-c4c(F)cccc4F)c4nc(c(-c5c(F)cccc5F)c5ccc2[nH]5)C=C4)C=C3)cc1
REMARK SMILES IDX 4 1 3 2 1 3 2 4 31 6 32 7 84 8 33 9 83 10 34 11 35 12 36 13
REMARK SMILES IDX 77 14 37 15 82 16 76 17 78 18 38 19 81 20 75 21 74 22 39 24
REMARK SMILES IDX 65 25 48 26 64 27 49 28 52 29 63 30 79 31 50 32 51 33 62 35
REMARK SMILES IDX 80 36 53 37 40 38 41 39 46 40 42 41 43 42 45 43 47 44 44 45
REMARK SMILES IDX 66 46 67 47 72 48 68 49 69 50 71 51 73 52 70 53 54 54 55 55
REMARK SMILES IDX 60 56 56 57 57 58 59 59 61 60 58 61 5 62 6 63 7 64 8 65 9 67
REMARK SMILES IDX 10 68 11 69 20 70 12 71 19 72 21 73 25 74 22 75 24 76 13 77
REMARK SMILES IDX 14 78 18 79 15 80 17 81 16 82 26 83 27 84 30 85 28 86 29 87
REMARK SMILES IDX 23 88
REMARK H PARENT 3 5 78 23 52 34 7 66 23 89
REMARK Flexibility Score: inf
ROOT
ATOM      1  C   UNL A   1      38.479  33.445  34.043  1.00  0.00     0.118 C 
ENDROOT
BRANCH   1   2
ATOM      2  N   UNL A   1      38.496  33.922  32.676  1.00  0.00    -0.352 N 
ATOM      3  O   UNL A   1      38.614  34.057  30.477  1.00  0.00    -0.269 OA
ATOM      4  C   UNL A   1      38.944  33.424  31.485  1.00  0.00     0.251 C 
ATOM      5  H   UNL A   1      38.088  34.813  32.582  1.00  0.00     0.163 HD
BRANCH   4   6
ATOM      6  C   UNL A   1      39.823  32.232  31.317  1.00  0.00     0.039 A 
ATOM      7  C   UNL A   1      40.955  32.154  30.505  1.00  0.00     0.014 A 
ATOM      8  C   UNL A   1      39.424  31.074  32.012  1.00  0.00     0.014 A 
ATOM      9  C   UNL A   1      41.624  30.943  30.331  1.00  0.00     0.010 A 
ATOM     10  C   UNL A   1      40.099  29.867  31.861  1.00  0.00     0.010 A 
ATOM     11  C   UNL A   1      41.184  29.793  30.990  1.00  0.00    -0.014 A 
BRANCH  11  12
ATOM     12  C   UNL A   1      41.957  28.562  30.828  1.00  0.00     0.031 A 
ATOM     13  C   UNL A   1      42.572  28.005  32.071  1.00  0.00     0.074 A 
ATOM     14  C   UNL A   1      41.986  27.847  29.684  1.00  0.00     0.049 A 
ATOM     15  N   UNL A   1      43.806  27.676  32.290  1.00  0.00    -0.248 NA
ATOM     16  C   UNL A   1      41.692  27.827  33.236  1.00  0.00     0.031 C 
ATOM     17  C   UNL A   1      41.189  28.058  28.475  1.00  0.00     0.029 A 
ATOM     18  N   UNL A   1      42.666  26.695  29.413  1.00  0.00    -0.354 N 
ATOM     19  C   UNL A   1      43.834  27.097  33.560  1.00  0.00     0.074 A 
ATOM     20  C   UNL A   1      42.531  27.310  34.134  1.00  0.00     0.031 C 
ATOM     21  C   UNL A   1      41.272  26.958  27.693  1.00  0.00     0.029 A 
ATOM     22  C   UNL A   1      42.219  26.027  28.283  1.00  0.00     0.049 A 
ATOM     23  H   UNL A   1      43.410  26.368  29.969  1.00  0.00     0.167 HD
ATOM     24  C   UNL A   1      44.869  26.320  33.983  1.00  0.00     0.037 A 
ATOM     25  C   UNL A   1      42.548  24.772  27.893  1.00  0.00     0.037 A 
ATOM     26  C   UNL A   1      46.070  26.578  33.234  1.00  0.00     0.049 A 
ATOM     27  C   UNL A   1      43.791  24.377  28.594  1.00  0.00     0.074 A 
ATOM     28  C   UNL A   1      46.862  27.686  33.002  1.00  0.00     0.029 A 
ATOM     29  N   UNL A   1      46.496  25.637  32.330  1.00  0.00    -0.354 N 
ATOM     30  N   UNL A   1      44.970  24.872  28.348  1.00  0.00    -0.248 NA
ATOM     31  C   UNL A   1      43.664  23.664  29.856  1.00  0.00     0.031 C 
ATOM     32  C   UNL A   1      47.351  27.522  31.673  1.00  0.00     0.029 A 
ATOM     33  C   UNL A   1      46.842  26.316  31.193  1.00  0.00     0.049 A 
ATOM     34  H   UNL A   1      46.542  24.664  32.473  1.00  0.00     0.167 HD
ATOM     35  C   UNL A   1      45.602  24.905  29.581  1.00  0.00     0.074 A 
ATOM     36  C   UNL A   1      44.801  24.043  30.442  1.00  0.00     0.031 C 
ATOM     37  C   UNL A   1      46.552  25.844  29.863  1.00  0.00     0.037 A 
BRANCH  24  38
ATOM     38  C   UNL A   1      44.713  25.082  34.842  1.00  0.00     0.057 A 
ATOM     39  C   UNL A   1      45.464  24.965  36.028  1.00  0.00     0.134 A 
ATOM     40  C   UNL A   1      44.106  23.887  34.405  1.00  0.00     0.134 A 
ATOM     41  F   UNL A   1      46.093  26.027  36.555  1.00  0.00    -0.206 F 
ATOM     42  C   UNL A   1      45.682  23.737  36.666  1.00  0.00     0.040 A 
ATOM     43  C   UNL A   1      44.273  22.665  35.064  1.00  0.00     0.040 A 
ATOM     44  F   UNL A   1      43.403  23.813  33.269  1.00  0.00    -0.206 F 
ATOM     45  C   UNL A   1      45.096  22.579  36.177  1.00  0.00     0.006 A 
ENDBRANCH  24  38
BRANCH  25  46
ATOM     46  C   UNL A   1      41.727  23.792  27.149  1.00  0.00     0.057 A 
ATOM     47  C   UNL A   1      42.309  22.868  26.272  1.00  0.00     0.134 A 
ATOM     48  C   UNL A   1      40.379  23.566  27.480  1.00  0.00     0.134 A 
ATOM     49  F   UNL A   1      43.602  22.971  25.932  1.00  0.00    -0.206 F 
ATOM     50  C   UNL A   1      41.597  21.773  25.764  1.00  0.00     0.040 A 
ATOM     51  C   UNL A   1      39.653  22.485  26.972  1.00  0.00     0.040 A 
ATOM     52  F   UNL A   1      39.746  24.337  28.376  1.00  0.00    -0.206 F 
ATOM     53  C   UNL A   1      40.266  21.575  26.121  1.00  0.00     0.006 A 
ENDBRANCH  25  46
BRANCH  37  54
ATOM     54  C   UNL A   1      47.109  26.646  28.723  1.00  0.00     0.057 A 
ATOM     55  C   UNL A   1      46.517  27.821  28.234  1.00  0.00     0.134 A 
ATOM     56  C   UNL A   1      48.362  26.302  28.204  1.00  0.00     0.134 A 
ATOM     57  F   UNL A   1      45.371  28.286  28.747  1.00  0.00    -0.206 F 
ATOM     58  C   UNL A   1      47.123  28.588  27.236  1.00  0.00     0.040 A 
ATOM     59  C   UNL A   1      48.994  27.080  27.231  1.00  0.00     0.040 A 
ATOM     60  F   UNL A   1      49.016  25.227  28.669  1.00  0.00    -0.206 F 
ATOM     61  C   UNL A   1      48.369  28.221  26.735  1.00  0.00     0.006 A 
ENDBRANCH  37  54
ENDBRANCH  11  12
ENDBRANCH   4   6
ENDBRANCH   1   2
BRANCH   1  62
ATOM     62  C   UNL A   1      37.176  33.717  34.789  1.00  0.00     0.042 C 
BRANCH  62  63
ATOM     63  C   UNL A   1      36.149  34.526  34.006  1.00  0.00     0.118 C 
BRANCH  63  64
ATOM     64  N   UNL A   1      34.797  34.009  34.132  1.00  0.00    -0.352 N 
ATOM     65  C   UNL A   1      34.037  33.324  33.209  1.00  0.00     0.255 C 
ATOM     66  H   UNL A   1      34.363  34.172  35.001  1.00  0.00     0.163 HD
ATOM     67  O   UNL A   1      32.871  33.078  33.469  1.00  0.00    -0.269 OA
BRANCH  65  68
ATOM     68  C   UNL A   1      34.634  33.000  31.923  1.00  0.00     0.084 A 
ATOM     69  C   UNL A   1      35.528  31.962  31.720  1.00  0.00     0.107 A 
ATOM     70  C   UNL A   1      34.449  33.586  30.655  1.00  0.00     0.101 A 
ATOM     71  N   UNL A   1      35.827  31.864  30.372  1.00  0.00    -0.317 N 
ATOM     72  C   UNL A   1      35.079  32.822  29.705  1.00  0.00     0.058 A 
ATOM     73  N   UNL A   1      33.581  34.638  30.379  1.00  0.00    -0.215 NA
ATOM     74  C   UNL A   1      34.773  32.892  28.246  1.00  0.00     0.088 C 
ATOM     75  C   UNL A   1      33.391  34.868  29.125  1.00  0.00     0.187 C 
ATOM     76  C   UNL A   1      34.054  34.221  27.934  1.00  0.00     0.112 C 
BRANCH  71  77
ATOM     77  C   UNL A   1      36.667  30.870  29.811  1.00  0.00     0.045 A 
ATOM     78  C   UNL A   1      37.525  31.182  28.752  1.00  0.00     0.026 A 
ATOM     79  C   UNL A   1      36.640  29.570  30.334  1.00  0.00     0.026 A 
ATOM     80  C   UNL A   1      38.343  30.189  28.210  1.00  0.00     0.002 A 
ATOM     81  C   UNL A   1      37.439  28.576  29.768  1.00  0.00     0.002 A 
ATOM     82  C   UNL A   1      38.291  28.886  28.709  1.00  0.00     0.000 A 
ENDBRANCH  71  77
BRANCH  74  83
ATOM     83  C   UNL A   1      33.960  31.717  27.700  1.00  0.00     0.014 A 
ATOM     84  C   UNL A   1      34.424  30.430  27.476  1.00  0.00     0.016 A 
ATOM     85  S   UNL A   1      32.303  31.840  27.252  1.00  0.00    -0.148 S 
ATOM     86  C   UNL A   1      33.414  29.549  26.995  1.00  0.00     0.012 A 
ATOM     87  C   UNL A   1      32.200  30.181  26.871  1.00  0.00     0.065 A 
ENDBRANCH  74  83
BRANCH  75  88
ATOM     88  O   UNL A   1      32.530  35.855  28.796  1.00  0.00    -0.496 OA
ATOM     89  H   UNL A   1      32.177  35.899  27.930  1.00  0.00     0.294 HD
ENDBRANCH  75  88
ENDBRANCH  65  68
ENDBRANCH  63  64
ENDBRANCH  62  63
ENDBRANCH   1  62
TORSDOF 13
ENDMDL
MODEL 2
REMARK VINA RESULT:     -12.0      4.873     11.508
REMARK SMILES O=C(NCCCNC(=O)c1cn(-c2ccccc2)c2c1N=C(O)C[C@@H]2c1cccs1)c1ccc(-c2c3nc(c(-c4c(F)cccc4F)c4ccc([nH]4)c(-c4c(F)cccc4F)c4nc(c(-c5c(F)cccc5F)c5ccc2[nH]5)C=C4)C=C3)cc1
REMARK SMILES IDX 4 1 3 2 1 3 2 4 31 6 32 7 84 8 33 9 83 10 34 11 35 12 36 13
REMARK SMILES IDX 77 14 37 15 82 16 76 17 78 18 38 19 81 20 75 21 74 22 39 24
REMARK SMILES IDX 65 25 48 26 64 27 49 28 52 29 63 30 79 31 50 32 51 33 62 35
REMARK SMILES IDX 80 36 53 37 40 38 41 39 46 40 42 41 43 42 45 43 47 44 44 45
REMARK SMILES IDX 66 46 67 47 72 48 68 49 69 50 71 51 73 52 70 53 54 54 55 55
REMARK SMILES IDX 60 56 56 57 57 58 59 59 61 60 58 61 5 62 6 63 7 64 8 65 9 67
REMARK SMILES IDX 10 68 11 69 20 70 12 71 19 72 21 73 25 74 22 75 24 76 13 77
REMARK SMILES IDX 14 78 18 79 15 80 17 81 16 82 26 83 27 84 30 85 28 86 29 87
REMARK SMILES IDX 23 88
REMARK H PARENT 3 5 78 23 52 34 7 66 23 89
REMARK Flexibility Score: inf
ROOT
ATOM      1  C   UNL A   1      46.615  25.525  26.692  1.00  0.00     0.118 C 
ENDROOT
BRANCH   1   2
ATOM      2  N   UNL A   1      45.935  24.754  27.712  1.00  0.00    -0.352 N 
ATOM      3  O   UNL A   1      44.444  23.960  29.130  1.00  0.00    -0.269 OA
ATOM      4  C   UNL A   1      44.824  24.941  28.484  1.00  0.00     0.251 C 
ATOM      5  H   UNL A   1      46.378  23.893  27.890  1.00  0.00     0.163 HD
BRANCH   4   6
ATOM      6  C   UNL A   1      44.082  26.225  28.642  1.00  0.00     0.039 A 
ATOM      7  C   UNL A   1      43.687  27.077  27.610  1.00  0.00     0.014 A 
ATOM      8  C   UNL A   1      43.812  26.617  29.968  1.00  0.00     0.014 A 
ATOM      9  C   UNL A   1      43.109  28.315  27.893  1.00  0.00     0.010 A 
ATOM     10  C   UNL A   1      43.217  27.841  30.256  1.00  0.00     0.010 A 
ATOM     11  C   UNL A   1      42.895  28.709  29.215  1.00  0.00    -0.014 A 
BRANCH  11  12
ATOM     12  C   UNL A   1      42.227  29.987  29.459  1.00  0.00     0.031 A 
ATOM     13  C   UNL A   1      42.988  31.211  29.066  1.00  0.00     0.074 A 
ATOM     14  C   UNL A   1      40.938  30.090  29.844  1.00  0.00     0.049 A 
ATOM     15  N   UNL A   1      43.268  32.258  29.776  1.00  0.00    -0.248 NA
ATOM     16  C   UNL A   1      43.539  31.252  27.703  1.00  0.00     0.031 C 
ATOM     17  C   UNL A   1      39.948  29.018  29.959  1.00  0.00     0.029 A 
ATOM     18  N   UNL A   1      40.211  31.216  30.104  1.00  0.00    -0.354 N 
ATOM     19  C   UNL A   1      43.886  33.161  28.911  1.00  0.00     0.074 A 
ATOM     20  C   UNL A   1      44.119  32.452  27.680  1.00  0.00     0.031 C 
ATOM     21  C   UNL A   1      38.715  29.563  30.055  1.00  0.00     0.029 A 
ATOM     22  C   UNL A   1      38.840  31.009  30.133  1.00  0.00     0.049 A 
ATOM     23  H   UNL A   1      40.623  32.096  30.259  1.00  0.00     0.167 HD
ATOM     24  C   UNL A   1      44.001  34.487  29.202  1.00  0.00     0.037 A 
ATOM     25  C   UNL A   1      37.872  31.956  30.152  1.00  0.00     0.037 A 
ATOM     26  C   UNL A   1      43.894  34.733  30.615  1.00  0.00     0.049 A 
ATOM     27  C   UNL A   1      38.479  33.234  30.588  1.00  0.00     0.074 A 
ATOM     28  C   UNL A   1      44.588  34.322  31.737  1.00  0.00     0.029 A 
ATOM     29  N   UNL A   1      42.752  35.322  31.094  1.00  0.00    -0.354 N 
ATOM     30  N   UNL A   1      38.891  33.486  31.797  1.00  0.00    -0.248 NA
ATOM     31  C   UNL A   1      38.973  34.139  29.561  1.00  0.00     0.031 C 
ATOM     32  C   UNL A   1      43.607  34.233  32.768  1.00  0.00     0.029 A 
ATOM     33  C   UNL A   1      42.388  34.618  32.211  1.00  0.00     0.049 A 
ATOM     34  H   UNL A   1      42.284  36.099  30.710  1.00  0.00     0.167 HD
ATOM     35  C   UNL A   1      40.004  34.294  31.630  1.00  0.00     0.074 A 
ATOM     36  C   UNL A   1      39.932  34.758  30.249  1.00  0.00     0.031 C 
ATOM     37  C   UNL A   1      41.024  34.288  32.538  1.00  0.00     0.037 A 
BRANCH  24  38
ATOM     38  C   UNL A   1      43.865  35.600  28.183  1.00  0.00     0.057 A 
ATOM     39  C   UNL A   1      44.895  36.555  28.062  1.00  0.00     0.134 A 
ATOM     40  C   UNL A   1      42.655  35.949  27.549  1.00  0.00     0.134 A 
ATOM     41  F   UNL A   1      46.098  36.348  28.617  1.00  0.00    -0.206 F 
ATOM     42  C   UNL A   1      44.700  37.801  27.453  1.00  0.00     0.040 A 
ATOM     43  C   UNL A   1      42.467  37.169  26.892  1.00  0.00     0.040 A 
ATOM     44  F   UNL A   1      41.563  35.179  27.613  1.00  0.00    -0.206 F 
ATOM     45  C   UNL A   1      43.478  38.117  26.876  1.00  0.00     0.006 A 
ENDBRANCH  24  38
BRANCH  25  46
ATOM     46  C   UNL A   1      36.510  31.895  29.578  1.00  0.00     0.057 A 
ATOM     47  C   UNL A   1      35.439  32.581  30.165  1.00  0.00     0.134 A 
ATOM     48  C   UNL A   1      36.282  31.375  28.291  1.00  0.00     0.134 A 
ATOM     49  F   UNL A   1      35.573  33.153  31.370  1.00  0.00    -0.206 F 
ATOM     50  C   UNL A   1      34.214  32.754  29.505  1.00  0.00     0.040 A 
ATOM     51  C   UNL A   1      35.062  31.531  27.626  1.00  0.00     0.040 A 
ATOM     52  F   UNL A   1      37.263  30.776  27.602  1.00  0.00    -0.206 F 
ATOM     53  C   UNL A   1      34.027  32.234  28.227  1.00  0.00     0.006 A 
ENDBRANCH  25  46
BRANCH  37  54
ATOM     54  C   UNL A   1      40.786  33.620  33.860  1.00  0.00     0.057 A 
ATOM     55  C   UNL A   1      40.985  32.250  34.088  1.00  0.00     0.134 A 
ATOM     56  C   UNL A   1      40.492  34.413  34.974  1.00  0.00     0.134 A 
ATOM     57  F   UNL A   1      41.375  31.432  33.101  1.00  0.00    -0.206 F 
ATOM     58  C   UNL A   1      40.845  31.688  35.360  1.00  0.00     0.040 A 
ATOM     59  C   UNL A   1      40.383  33.869  36.257  1.00  0.00     0.040 A 
ATOM     60  F   UNL A   1      40.350  35.741  34.843  1.00  0.00    -0.206 F 
ATOM     61  C   UNL A   1      40.548  32.500  36.451  1.00  0.00     0.006 A 
ENDBRANCH  37  54
ENDBRANCH  11  12
ENDBRANCH   4   6
ENDBRANCH   1   2
BRANCH   1  62
ATOM     62  C   UNL A   1      46.707  24.833  25.335  1.00  0.00     0.042 C 
BRANCH  62  63
ATOM     63  C   UNL A   1      46.403  23.340  25.359  1.00  0.00     0.118 C 
BRANCH  63  64
ATOM     64  N   UNL A   1      45.841  22.851  24.112  1.00  0.00    -0.352 N 
ATOM     65  C   UNL A   1      44.544  22.477  23.830  1.00  0.00     0.255 C 
ATOM     66  H   UNL A   1      46.476  22.777  23.363  1.00  0.00     0.163 HD
ATOM     67  O   UNL A   1      44.296  21.978  22.744  1.00  0.00    -0.269 OA
BRANCH  65  68
ATOM     68  C   UNL A   1      43.541  22.613  24.873  1.00  0.00     0.084 A 
ATOM     69  C   UNL A   1      43.032  23.825  25.309  1.00  0.00     0.107 A 
ATOM     70  C   UNL A   1      42.861  21.632  25.622  1.00  0.00     0.101 A 
ATOM     71  N   UNL A   1      42.029  23.600  26.236  1.00  0.00    -0.317 N 
ATOM     72  C   UNL A   1      41.867  22.228  26.356  1.00  0.00     0.058 A 
ATOM     73  N   UNL A   1      43.019  20.258  25.470  1.00  0.00    -0.215 NA
ATOM     74  C   UNL A   1      40.708  21.490  26.938  1.00  0.00     0.088 C 
ATOM     75  C   UNL A   1      42.142  19.540  26.084  1.00  0.00     0.187 C 
ATOM     76  C   UNL A   1      41.041  19.985  27.015  1.00  0.00     0.112 C 
BRANCH  71  77
ATOM     77  C   UNL A   1      41.257  24.623  26.842  1.00  0.00     0.045 A 
ATOM     78  C   UNL A   1      40.942  24.563  28.203  1.00  0.00     0.026 A 
ATOM     79  C   UNL A   1      40.818  25.704  26.066  1.00  0.00     0.026 A 
ATOM     80  C   UNL A   1      40.178  25.578  28.780  1.00  0.00     0.002 A 
ATOM     81  C   UNL A   1      40.030  26.700  26.645  1.00  0.00     0.002 A 
ATOM     82  C   UNL A   1      39.713  26.638  28.000  1.00  0.00     0.000 A 
ENDBRANCH  71  77
BRANCH  74  83
ATOM     83  C   UNL A   1      39.380  21.694  26.206  1.00  0.00     0.014 A 
ATOM     84  C   UNL A   1      38.629  22.859  26.178  1.00  0.00     0.016 A 
ATOM     85  S   UNL A   1      38.597  20.455  25.305  1.00  0.00    -0.148 S 
ATOM     86  C   UNL A   1      37.455  22.745  25.378  1.00  0.00     0.012 A 
ATOM     87  C   UNL A   1      37.342  21.499  24.809  1.00  0.00     0.065 A 
ENDBRANCH  74  83
BRANCH  75  88
ATOM     88  O   UNL A   1      42.225  18.199  25.944  1.00  0.00    -0.496 OA
ATOM     89  H   UNL A   1      42.514  17.671  26.661  1.00  0.00     0.294 HD
ENDBRANCH  75  88
ENDBRANCH  65  68
ENDBRANCH  63  64
ENDBRANCH  62  63
ENDBRANCH   1  62
TORSDOF 13
ENDMDL
MODEL 3
REMARK VINA RESULT:     -11.8      2.929      5.598
REMARK SMILES O=C(NCCCNC(=O)c1cn(-c2ccccc2)c2c1N=C(O)C[C@@H]2c1cccs1)c1ccc(-c2c3nc(c(-c4c(F)cccc4F)c4ccc([nH]4)c(-c4c(F)cccc4F)c4nc(c(-c5c(F)cccc5F)c5ccc2[nH]5)C=C4)C=C3)cc1
REMARK SMILES IDX 4 1 3 2 1 3 2 4 31 6 32 7 84 8 33 9 83 10 34 11 35 12 36 13
REMARK SMILES IDX 77 14 37 15 82 16 76 17 78 18 38 19 81 20 75 21 74 22 39 24
REMARK SMILES IDX 65 25 48 26 64 27 49 28 52 29 63 30 79 31 50 32 51 33 62 35
REMARK SMILES IDX 80 36 53 37 40 38 41 39 46 40 42 41 43 42 45 43 47 44 44 45
REMARK SMILES IDX 66 46 67 47 72 48 68 49 69 50 71 51 73 52 70 53 54 54 55 55
REMARK SMILES IDX 60 56 56 57 57 58 59 59 61 60 58 61 5 62 6 63 7 64 8 65 9 67
REMARK SMILES IDX 10 68 11 69 20 70 12 71 19 72 21 73 25 74 22 75 24 76 13 77
REMARK SMILES IDX 14 78 18 79 15 80 17 81 16 82 26 83 27 84 30 85 28 86 29 87
REMARK SMILES IDX 23 88
REMARK H PARENT 3 5 78 23 52 34 7 66 23 89
REMARK Flexibility Score: inf
ROOT
ATOM      1  C   UNL A   1      34.893  34.034  28.882  1.00  0.00     0.118 C 
ENDROOT
BRANCH   1   2
ATOM      2  N   UNL A   1      34.409  32.873  28.164  1.00  0.00    -0.352 N 
ATOM      3  O   UNL A   1      34.052  30.817  27.449  1.00  0.00    -0.269 OA
ATOM      4  C   UNL A   1      34.843  31.588  28.001  1.00  0.00     0.251 C 
ATOM      5  H   UNL A   1      33.570  33.052  27.680  1.00  0.00     0.163 HD
BRANCH   4   6
ATOM      6  C   UNL A   1      36.188  31.070  28.383  1.00  0.00     0.039 A 
ATOM      7  C   UNL A   1      37.260  31.833  28.845  1.00  0.00     0.014 A 
ATOM      8  C   UNL A   1      36.385  29.687  28.202  1.00  0.00     0.014 A 
ATOM      9  C   UNL A   1      38.511  31.251  29.049  1.00  0.00     0.010 A 
ATOM     10  C   UNL A   1      37.625  29.095  28.424  1.00  0.00     0.010 A 
ATOM     11  C   UNL A   1      38.702  29.887  28.817  1.00  0.00    -0.014 A 
BRANCH  11  12
ATOM     12  C   UNL A   1      40.014  29.310  29.108  1.00  0.00     0.031 A 
ATOM     13  C   UNL A   1      40.408  29.269  30.548  1.00  0.00     0.074 A 
ATOM     14  C   UNL A   1      40.771  28.681  28.185  1.00  0.00     0.049 A 
ATOM     15  N   UNL A   1      41.488  29.713  31.109  1.00  0.00    -0.248 NA
ATOM     16  C   UNL A   1      39.445  28.682  31.493  1.00  0.00     0.031 C 
ATOM     17  C   UNL A   1      40.406  28.337  26.810  1.00  0.00     0.029 A 
ATOM     18  N   UNL A   1      42.002  28.111  28.334  1.00  0.00    -0.354 N 
ATOM     19  C   UNL A   1      41.422  29.320  32.447  1.00  0.00     0.074 A 
ATOM     20  C   UNL A   1      40.102  28.782  32.649  1.00  0.00     0.031 C 
ATOM     21  C   UNL A   1      41.296  27.443  26.326  1.00  0.00     0.029 A 
ATOM     22  C   UNL A   1      42.353  27.249  27.305  1.00  0.00     0.049 A 
ATOM     23  H   UNL A   1      42.589  28.295  29.102  1.00  0.00     0.167 HD
ATOM     24  C   UNL A   1      42.519  29.295  33.253  1.00  0.00     0.037 A 
ATOM     25  C   UNL A   1      43.398  26.387  27.284  1.00  0.00     0.037 A 
ATOM     26  C   UNL A   1      43.563  30.152  32.759  1.00  0.00     0.049 A 
ATOM     27  C   UNL A   1      44.371  26.809  28.317  1.00  0.00     0.074 A 
ATOM     28  C   UNL A   1      43.674  31.501  32.479  1.00  0.00     0.029 A 
ATOM     29  N   UNL A   1      44.678  29.577  32.204  1.00  0.00    -0.354 N 
ATOM     30  N   UNL A   1      45.116  27.874  28.244  1.00  0.00    -0.248 NA
ATOM     31  C   UNL A   1      44.256  26.217  29.642  1.00  0.00     0.031 C 
ATOM     32  C   UNL A   1      44.559  31.576  31.363  1.00  0.00     0.029 A 
ATOM     33  C   UNL A   1      44.946  30.272  31.056  1.00  0.00     0.049 A 
ATOM     34  H   UNL A   1      45.185  28.813  32.562  1.00  0.00     0.167 HD
ATOM     35  C   UNL A   1      45.214  28.325  29.551  1.00  0.00     0.074 A 
ATOM     36  C   UNL A   1      44.770  27.206  30.374  1.00  0.00     0.031 C 
ATOM     37  C   UNL A   1      45.379  29.651  29.830  1.00  0.00     0.037 A 
BRANCH  24  38
ATOM     38  C   UNL A   1      42.783  28.236  34.303  1.00  0.00     0.057 A 
ATOM     39  C   UNL A   1      42.924  26.891  33.907  1.00  0.00     0.134 A 
ATOM     40  C   UNL A   1      42.597  28.430  35.687  1.00  0.00     0.134 A 
ATOM     41  F   UNL A   1      43.108  26.565  32.619  1.00  0.00    -0.206 F 
ATOM     42  C   UNL A   1      42.782  25.822  34.801  1.00  0.00     0.040 A 
ATOM     43  C   UNL A   1      42.507  27.371  36.597  1.00  0.00     0.040 A 
ATOM     44  F   UNL A   1      42.394  29.639  36.221  1.00  0.00    -0.206 F 
ATOM     45  C   UNL A   1      42.559  26.060  36.150  1.00  0.00     0.006 A 
ENDBRANCH  24  38
BRANCH  25  46
ATOM     46  C   UNL A   1      43.500  25.078  26.604  1.00  0.00     0.057 A 
ATOM     47  C   UNL A   1      42.697  23.994  26.983  1.00  0.00     0.134 A 
ATOM     48  C   UNL A   1      44.202  24.934  25.394  1.00  0.00     0.134 A 
ATOM     49  F   UNL A   1      41.953  24.053  28.097  1.00  0.00    -0.206 F 
ATOM     50  C   UNL A   1      42.585  22.839  26.197  1.00  0.00     0.040 A 
ATOM     51  C   UNL A   1      44.109  23.784  24.605  1.00  0.00     0.040 A 
ATOM     52  F   UNL A   1      44.932  25.940  24.893  1.00  0.00    -0.206 F 
ATOM     53  C   UNL A   1      43.287  22.736  24.999  1.00  0.00     0.006 A 
ENDBRANCH  25  46
BRANCH  37  54
ATOM     54  C   UNL A   1      45.750  30.568  28.701  1.00  0.00     0.057 A 
ATOM     55  C   UNL A   1      44.811  31.202  27.872  1.00  0.00     0.134 A 
ATOM     56  C   UNL A   1      47.090  30.938  28.542  1.00  0.00     0.134 A 
ATOM     57  F   UNL A   1      43.497  30.991  28.024  1.00  0.00    -0.206 F 
ATOM     58  C   UNL A   1      45.197  32.123  26.895  1.00  0.00     0.040 A 
ATOM     59  C   UNL A   1      47.484  31.883  27.592  1.00  0.00     0.040 A 
ATOM     60  F   UNL A   1      48.034  30.419  29.341  1.00  0.00    -0.206 F 
ATOM     61  C   UNL A   1      46.538  32.470  26.756  1.00  0.00     0.006 A 
ENDBRANCH  37  54
ENDBRANCH  11  12
ENDBRANCH   4   6
ENDBRANCH   1   2
BRANCH   1  62
ATOM     62  C   UNL A   1      34.293  34.210  30.274  1.00  0.00     0.042 C 
BRANCH  62  63
ATOM     63  C   UNL A   1      35.097  33.572  31.400  1.00  0.00     0.118 C 
BRANCH  63  64
ATOM     64  N   UNL A   1      34.952  34.266  32.668  1.00  0.00    -0.352 N 
ATOM     65  C   UNL A   1      35.869  34.417  33.687  1.00  0.00     0.255 C 
ATOM     66  H   UNL A   1      34.075  34.686  32.822  1.00  0.00     0.163 HD
ATOM     67  O   UNL A   1      35.512  34.939  34.731  1.00  0.00    -0.269 OA
BRANCH  65  68
ATOM     68  C   UNL A   1      37.204  33.870  33.506  1.00  0.00     0.084 A 
ATOM     69  C   UNL A   1      38.135  34.371  32.611  1.00  0.00     0.107 A 
ATOM     70  C   UNL A   1      37.851  32.803  34.158  1.00  0.00     0.101 A 
ATOM     71  N   UNL A   1      39.331  33.690  32.756  1.00  0.00    -0.317 N 
ATOM     72  C   UNL A   1      39.171  32.776  33.787  1.00  0.00     0.058 A 
ATOM     73  N   UNL A   1      37.301  32.042  35.186  1.00  0.00    -0.215 NA
ATOM     74  C   UNL A   1      40.237  32.068  34.555  1.00  0.00     0.088 C 
ATOM     75  C   UNL A   1      38.136  31.274  35.798  1.00  0.00     0.187 C 
ATOM     76  C   UNL A   1      39.591  31.021  35.487  1.00  0.00     0.112 C 
BRANCH  71  77
ATOM     77  C   UNL A   1      40.513  33.989  32.034  1.00  0.00     0.045 A 
ATOM     78  C   UNL A   1      41.471  34.856  32.567  1.00  0.00     0.026 A 
ATOM     79  C   UNL A   1      40.721  33.398  30.780  1.00  0.00     0.026 A 
ATOM     80  C   UNL A   1      42.627  35.140  31.839  1.00  0.00     0.002 A 
ATOM     81  C   UNL A   1      41.865  33.710  30.045  1.00  0.00     0.002 A 
ATOM     82  C   UNL A   1      42.819  34.577  30.576  1.00  0.00     0.000 A 
ENDBRANCH  71  77
BRANCH  74  83
ATOM     83  C   UNL A   1      41.167  32.979  35.359  1.00  0.00     0.014 A 
ATOM     84  C   UNL A   1      42.541  32.843  35.486  1.00  0.00     0.016 A 
ATOM     85  S   UNL A   1      40.613  34.333  36.265  1.00  0.00    -0.148 S 
ATOM     86  C   UNL A   1      43.131  33.872  36.274  1.00  0.00     0.012 A 
ATOM     87  C   UNL A   1      42.196  34.775  36.722  1.00  0.00     0.065 A 
ENDBRANCH  74  83
BRANCH  75  88
ATOM     88  O   UNL A   1      37.666  30.538  36.828  1.00  0.00    -0.496 OA
ATOM     89  H   UNL A   1      36.779  30.643  37.112  1.00  0.00     0.294 HD
ENDBRANCH  75  88
ENDBRANCH  65  68
ENDBRANCH  63  64
ENDBRANCH  62  63
ENDBRANCH   1  62
TORSDOF 13
ENDMDL
