MODEL 1
REMARK VINA RESULT:     -12.1      0.000      0.000
REMARK SMILES Cc1[nH]c2ccccc2c1[C@@H](C(=O)NCCCNC(=O)c1ccc(-c2c3nc(c(-c4c(F)cccc4F)c4ccc([nH]4)c(-c4c(F)cccc4F)c4nc(c(-c5c(F)cccc5F)c5ccc2[nH]5)C=C4)C=C3)cc1)[NH+]1CCCC1
REMARK SMILES IDX 16 1 15 2 14 3 12 4 13 5 11 7 10 8 1 9 2 10 3 11 4 12 9 14
REMARK SMILES IDX 5 15 8 16 6 17 7 18 75 19 76 20 79 21 77 23 78 24 17 25
REMARK SMILES IDX 18 26 19 27 20 29 21 30 22 31 74 32 23 33 73 34 24 35 25 36
REMARK SMILES IDX 26 37 67 38 27 39 72 40 66 41 68 42 28 43 71 44 65 45 64 46
REMARK SMILES IDX 29 48 55 49 38 50 54 51 39 52 42 53 53 54 69 55 40 56 41 57
REMARK SMILES IDX 52 59 70 60 43 61 30 62 31 63 36 64 32 65 33 66 35 67 37 68
REMARK SMILES IDX 34 69 56 70 57 71 62 72 58 73 59 74 61 75 63 76 60 77 44 78
REMARK SMILES IDX 45 79 50 80 46 81 47 82 49 83 51 84 48 85
REMARK H PARENT 14 6 3 13 75 22 18 28 68 47 42 58
REMARK Flexibility Score: inf
ROOT
ATOM      1  C   UNL A   1      32.538  28.277  26.696  1.00  0.00     0.042 C 
ENDROOT
BRANCH   1   2
ATOM      2  C   UNL A   1      32.370  26.763  26.640  1.00  0.00     0.118 C 
BRANCH   2   3
ATOM      3  N   UNL A   1      31.006  26.371  26.340  1.00  0.00    -0.351 N 
ATOM      4  C   UNL A   1      30.389  26.239  25.118  1.00  0.00     0.283 C 
ATOM      5  O   UNL A   1      29.189  25.951  25.145  1.00  0.00    -0.268 OA
ATOM      6  H   UNL A   1      30.441  26.175  27.122  1.00  0.00     0.163 HD
BRANCH   4   7
ATOM      7  C   UNL A   1      31.231  26.413  23.818  1.00  0.00     0.307 C 
BRANCH   7   8
ATOM      8  C   UNL A   1      31.064  27.782  23.185  1.00  0.00     0.047 A 
ATOM      9  C   UNL A   1      33.579  28.481  22.807  1.00  0.00     0.065 C 
ATOM     10  C   UNL A   1      32.097  28.610  22.745  1.00  0.00     0.022 A 
ATOM     11  N   UNL A   1      31.531  29.710  22.151  1.00  0.00    -0.358 N 
ATOM     12  C   UNL A   1      30.164  29.648  22.216  1.00  0.00     0.046 A 
ATOM     13  H   UNL A   1      32.039  30.443  21.734  1.00  0.00     0.166 HD
ATOM     14  C   UNL A   1      29.837  28.496  22.931  1.00  0.00     0.009 A 
ATOM     15  C   UNL A   1      29.205  30.525  21.697  1.00  0.00     0.027 A 
ATOM     16  C   UNL A   1      28.471  28.263  23.206  1.00  0.00     0.011 A 
ATOM     17  C   UNL A   1      27.860  30.228  21.927  1.00  0.00     0.002 A 
ATOM     18  C   UNL A   1      27.496  29.122  22.687  1.00  0.00     0.001 A 
ENDBRANCH   7   8
BRANCH   7  19
ATOM     19  N   UNL A   1      31.093  25.272  22.872  1.00  0.00    -0.321 N 
ATOM     20  C   UNL A   1      31.114  23.947  23.495  1.00  0.00     0.263 C 
ATOM     21  C   UNL A   1      32.027  25.194  21.751  1.00  0.00     0.263 C 
ATOM     22  H   UNL A   1      30.169  25.509  22.510  1.00  0.00     0.349 HD
ATOM     23  C   UNL A   1      32.532  23.426  23.330  1.00  0.00     0.067 C 
ATOM     24  C   UNL A   1      33.053  24.116  22.083  1.00  0.00     0.067 C 
ENDBRANCH   7  19
ENDBRANCH   4   7
ENDBRANCH   2   3
ENDBRANCH   1   2
BRANCH   1  25
ATOM     25  C   UNL A   1      33.880  28.723  27.262  1.00  0.00     0.118 C 
BRANCH  25  26
ATOM     26  N   UNL A   1      33.846  30.091  27.761  1.00  0.00    -0.352 N 
ATOM     27  C   UNL A   1      34.790  30.796  28.466  1.00  0.00     0.251 C 
ATOM     28  H   UNL A   1      33.017  30.586  27.563  1.00  0.00     0.163 HD
ATOM     29  O   UNL A   1      34.495  31.876  28.966  1.00  0.00    -0.269 OA
BRANCH  27  30
ATOM     30  C   UNL A   1      36.155  30.252  28.636  1.00  0.00     0.039 A 
ATOM     31  C   UNL A   1      37.043  30.306  27.559  1.00  0.00     0.014 A 
ATOM     32  C   UNL A   1      36.551  29.666  29.841  1.00  0.00     0.014 A 
ATOM     33  C   UNL A   1      38.347  29.829  27.710  1.00  0.00     0.010 A 
ATOM     34  C   UNL A   1      37.872  29.265  30.015  1.00  0.00     0.010 A 
ATOM     35  C   UNL A   1      38.783  29.335  28.950  1.00  0.00    -0.014 A 
BRANCH  35  36
ATOM     36  C   UNL A   1      40.175  28.865  29.156  1.00  0.00     0.031 A 
ATOM     37  C   UNL A   1      41.198  29.795  29.753  1.00  0.00     0.074 A 
ATOM     38  C   UNL A   1      40.538  27.632  28.750  1.00  0.00     0.049 A 
ATOM     39  N   UNL A   1      42.488  29.625  29.897  1.00  0.00    -0.248 NA
ATOM     40  C   UNL A   1      40.707  31.099  30.229  1.00  0.00     0.031 C 
ATOM     41  C   UNL A   1      39.647  26.644  28.136  1.00  0.00     0.029 A 
ATOM     42  N   UNL A   1      41.758  27.004  28.779  1.00  0.00    -0.354 N 
ATOM     43  C   UNL A   1      42.959  30.799  30.472  1.00  0.00     0.074 A 
ATOM     44  C   UNL A   1      41.832  31.695  30.596  1.00  0.00     0.031 C 
ATOM     45  C   UNL A   1      40.349  25.533  27.860  1.00  0.00     0.029 A 
ATOM     46  C   UNL A   1      41.743  25.743  28.231  1.00  0.00     0.049 A 
ATOM     47  H   UNL A   1      42.568  27.418  29.156  1.00  0.00     0.167 HD
ATOM     48  C   UNL A   1      44.214  31.093  30.888  1.00  0.00     0.037 A 
ATOM     49  C   UNL A   1      42.747  24.867  28.034  1.00  0.00     0.037 A 
ATOM     50  C   UNL A   1      45.333  30.194  30.780  1.00  0.00     0.049 A 
ATOM     51  C   UNL A   1      44.142  25.240  28.463  1.00  0.00     0.074 A 
ATOM     52  C   UNL A   1      46.642  30.395  31.181  1.00  0.00     0.029 A 
ATOM     53  N   UNL A   1      45.271  28.921  30.236  1.00  0.00    -0.354 N 
ATOM     54  N   UNL A   1      44.565  26.339  29.038  1.00  0.00    -0.248 NA
ATOM     55  C   UNL A   1      45.198  24.247  28.218  1.00  0.00     0.031 C 
ATOM     56  C   UNL A   1      47.380  29.255  30.851  1.00  0.00     0.029 A 
ATOM     57  C   UNL A   1      46.520  28.326  30.289  1.00  0.00     0.049 A 
ATOM     58  H   UNL A   1      44.460  28.501  29.869  1.00  0.00     0.167 HD
ATOM     59  C   UNL A   1      45.923  26.150  29.266  1.00  0.00     0.074 A 
ATOM     60  C   UNL A   1      46.251  24.829  28.773  1.00  0.00     0.031 C 
ATOM     61  C   UNL A   1      46.819  26.994  29.831  1.00  0.00     0.037 A 
BRANCH  48  62
ATOM     62  C   UNL A   1      44.442  32.435  31.518  1.00  0.00     0.057 A 
ATOM     63  C   UNL A   1      44.781  33.556  30.748  1.00  0.00     0.134 A 
ATOM     64  C   UNL A   1      44.264  32.626  32.893  1.00  0.00     0.134 A 
ATOM     65  F   UNL A   1      44.979  33.437  29.426  1.00  0.00    -0.206 F 
ATOM     66  C   UNL A   1      44.953  34.814  31.325  1.00  0.00     0.040 A 
ATOM     67  C   UNL A   1      44.406  33.886  33.479  1.00  0.00     0.040 A 
ATOM     68  F   UNL A   1      43.931  31.598  33.688  1.00  0.00    -0.206 F 
ATOM     69  C   UNL A   1      44.755  34.984  32.694  1.00  0.00     0.006 A 
ENDBRANCH  48  62
BRANCH  49  70
ATOM     70  C   UNL A   1      42.487  23.546  27.403  1.00  0.00     0.057 A 
ATOM     71  C   UNL A   1      42.169  22.425  28.180  1.00  0.00     0.134 A 
ATOM     72  C   UNL A   1      42.611  23.355  26.022  1.00  0.00     0.134 A 
ATOM     73  F   UNL A   1      42.055  22.538  29.512  1.00  0.00    -0.206 F 
ATOM     74  C   UNL A   1      42.023  21.158  27.614  1.00  0.00     0.040 A 
ATOM     75  C   UNL A   1      42.437  22.099  25.439  1.00  0.00     0.040 A 
ATOM     76  F   UNL A   1      42.904  24.388  25.218  1.00  0.00    -0.206 F 
ATOM     77  C   UNL A   1      42.158  20.993  26.237  1.00  0.00     0.006 A 
ENDBRANCH  49  70
BRANCH  61  78
ATOM     78  C   UNL A   1      48.220  26.491  30.018  1.00  0.00     0.057 A 
ATOM     79  C   UNL A   1      49.220  26.695  29.060  1.00  0.00     0.134 A 
ATOM     80  C   UNL A   1      48.583  25.837  31.204  1.00  0.00     0.134 A 
ATOM     81  F   UNL A   1      48.935  27.304  27.899  1.00  0.00    -0.206 F 
ATOM     82  C   UNL A   1      50.526  26.246  29.263  1.00  0.00     0.040 A 
ATOM     83  C   UNL A   1      49.891  25.409  31.431  1.00  0.00     0.040 A 
ATOM     84  F   UNL A   1      47.675  25.619  32.167  1.00  0.00    -0.206 F 
ATOM     85  C   UNL A   1      50.866  25.609  30.456  1.00  0.00     0.006 A 
ENDBRANCH  61  78
ENDBRANCH  35  36
ENDBRANCH  27  30
ENDBRANCH  25  26
ENDBRANCH   1  25
TORSDOF 12
ENDMDL
MODEL 2
REMARK VINA RESULT:     -12.1      3.353      6.971
REMARK SMILES Cc1[nH]c2ccccc2c1[C@@H](C(=O)NCCCNC(=O)c1ccc(-c2c3nc(c(-c4c(F)cccc4F)c4ccc([nH]4)c(-c4c(F)cccc4F)c4nc(c(-c5c(F)cccc5F)c5ccc2[nH]5)C=C4)C=C3)cc1)[NH+]1CCCC1
REMARK SMILES IDX 16 1 15 2 14 3 12 4 13 5 11 7 10 8 1 9 2 10 3 11 4 12 9 14
REMARK SMILES IDX 5 15 8 16 6 17 7 18 75 19 76 20 79 21 77 23 78 24 17 25
REMARK SMILES IDX 18 26 19 27 20 29 21 30 22 31 74 32 23 33 73 34 24 35 25 36
REMARK SMILES IDX 26 37 67 38 27 39 72 40 66 41 68 42 28 43 71 44 65 45 64 46
REMARK SMILES IDX 29 48 55 49 38 50 54 51 39 52 42 53 53 54 69 55 40 56 41 57
REMARK SMILES IDX 52 59 70 60 43 61 30 62 31 63 36 64 32 65 33 66 35 67 37 68
REMARK SMILES IDX 34 69 56 70 57 71 62 72 58 73 59 74 61 75 63 76 60 77 44 78
REMARK SMILES IDX 45 79 50 80 46 81 47 82 49 83 51 84 48 85
REMARK H PARENT 14 6 3 13 75 22 18 28 68 47 42 58
REMARK Flexibility Score: inf
ROOT
ATOM      1  C   UNL A   1      31.571  29.490  26.913  1.00  0.00     0.042 C 
ENDROOT
BRANCH   1   2
ATOM      2  C   UNL A   1      32.088  28.059  27.000  1.00  0.00     0.118 C 
BRANCH   2   3
ATOM      3  N   UNL A   1      31.028  27.080  26.842  1.00  0.00    -0.351 N 
ATOM      4  C   UNL A   1      30.696  26.329  25.739  1.00  0.00     0.283 C 
ATOM      5  O   UNL A   1      29.699  25.611  25.853  1.00  0.00    -0.268 OA
ATOM      6  H   UNL A   1      30.466  26.936  27.637  1.00  0.00     0.163 HD
BRANCH   4   7
ATOM      7  C   UNL A   1      31.599  26.401  24.471  1.00  0.00     0.307 C 
BRANCH   7   8
ATOM      8  C   UNL A   1      31.369  27.658  23.652  1.00  0.00     0.047 A 
ATOM      9  C   UNL A   1      33.848  28.459  23.238  1.00  0.00     0.065 C 
ATOM     10  C   UNL A   1      32.364  28.484  23.125  1.00  0.00     0.022 A 
ATOM     11  N   UNL A   1      31.751  29.454  22.374  1.00  0.00    -0.358 N 
ATOM     12  C   UNL A   1      30.389  29.314  22.417  1.00  0.00     0.046 A 
ATOM     13  H   UNL A   1      32.226  30.155  21.872  1.00  0.00     0.166 HD
ATOM     14  C   UNL A   1      30.110  28.252  23.276  1.00  0.00     0.009 A 
ATOM     15  C   UNL A   1      29.395  30.050  21.761  1.00  0.00     0.027 A 
ATOM     16  C   UNL A   1      28.753  27.971  23.550  1.00  0.00     0.011 A 
ATOM     17  C   UNL A   1      28.064  29.702  22.000  1.00  0.00     0.002 A 
ATOM     18  C   UNL A   1      27.745  28.687  22.896  1.00  0.00     0.001 A 
ENDBRANCH   7   8
BRANCH   7  19
ATOM     19  N   UNL A   1      31.602  25.139  23.681  1.00  0.00    -0.321 N 
ATOM     20  C   UNL A   1      32.611  24.160  24.086  1.00  0.00     0.263 C 
ATOM     21  C   UNL A   1      31.716  25.241  22.227  1.00  0.00     0.263 C 
ATOM     22  H   UNL A   1      30.657  24.833  23.912  1.00  0.00     0.349 HD
ATOM     23  C   UNL A   1      33.774  24.326  23.123  1.00  0.00     0.067 C 
ATOM     24  C   UNL A   1      33.145  24.867  21.852  1.00  0.00     0.067 C 
ENDBRANCH   7  19
ENDBRANCH   4   7
ENDBRANCH   2   3
ENDBRANCH   1   2
BRANCH   1  25
ATOM     25  C   UNL A   1      32.485  30.424  26.132  1.00  0.00     0.118 C 
BRANCH  25  26
ATOM     26  N   UNL A   1      32.257  31.826  26.456  1.00  0.00    -0.352 N 
ATOM     27  C   UNL A   1      32.902  32.640  27.354  1.00  0.00     0.251 C 
ATOM     28  H   UNL A   1      31.526  32.256  25.954  1.00  0.00     0.163 HD
ATOM     29  O   UNL A   1      32.434  33.741  27.624  1.00  0.00    -0.269 OA
BRANCH  27  30
ATOM     30  C   UNL A   1      34.150  32.189  28.008  1.00  0.00     0.039 A 
ATOM     31  C   UNL A   1      35.206  33.094  28.146  1.00  0.00     0.014 A 
ATOM     32  C   UNL A   1      34.292  30.874  28.459  1.00  0.00     0.014 A 
ATOM     33  C   UNL A   1      36.379  32.698  28.792  1.00  0.00     0.010 A 
ATOM     34  C   UNL A   1      35.429  30.505  29.171  1.00  0.00     0.010 A 
ATOM     35  C   UNL A   1      36.488  31.410  29.340  1.00  0.00    -0.014 A 
BRANCH  35  36
ATOM     36  C   UNL A   1      37.703  30.975  30.072  1.00  0.00     0.031 A 
ATOM     37  C   UNL A   1      38.676  30.034  29.414  1.00  0.00     0.074 A 
ATOM     38  C   UNL A   1      37.899  31.368  31.346  1.00  0.00     0.049 A 
ATOM     39  N   UNL A   1      39.723  29.436  29.921  1.00  0.00    -0.248 NA
ATOM     40  C   UNL A   1      38.423  29.704  28.001  1.00  0.00     0.031 C 
ATOM     41  C   UNL A   1      37.019  32.258  32.106  1.00  0.00     0.029 A 
ATOM     42  N   UNL A   1      38.898  31.055  32.234  1.00  0.00    -0.354 N 
ATOM     43  C   UNL A   1      40.247  28.658  28.896  1.00  0.00     0.074 A 
ATOM     44  C   UNL A   1      39.371  28.812  27.756  1.00  0.00     0.031 C 
ATOM     45  C   UNL A   1      37.524  32.429  33.339  1.00  0.00     0.029 A 
ATOM     46  C   UNL A   1      38.735  31.628  33.474  1.00  0.00     0.049 A 
ATOM     47  H   UNL A   1      39.660  30.476  32.005  1.00  0.00     0.167 HD
ATOM     48  C   UNL A   1      41.373  27.906  28.894  1.00  0.00     0.037 A 
ATOM     49  C   UNL A   1      39.469  31.502  34.596  1.00  0.00     0.037 A 
ATOM     50  C   UNL A   1      42.254  27.767  30.023  1.00  0.00     0.049 A 
ATOM     51  C   UNL A   1      40.690  30.620  34.579  1.00  0.00     0.074 A 
ATOM     52  C   UNL A   1      43.425  27.037  30.118  1.00  0.00     0.029 A 
ATOM     53  N   UNL A   1      42.062  28.377  31.253  1.00  0.00    -0.354 N 
ATOM     54  N   UNL A   1      41.192  29.920  33.590  1.00  0.00    -0.248 NA
ATOM     55  C   UNL A   1      41.450  30.515  35.832  1.00  0.00     0.031 C 
ATOM     56  C   UNL A   1      43.926  27.179  31.415  1.00  0.00     0.029 A 
ATOM     57  C   UNL A   1      43.092  28.038  32.112  1.00  0.00     0.049 A 
ATOM     58  H   UNL A   1      41.306  28.967  31.480  1.00  0.00     0.167 HD
ATOM     59  C   UNL A   1      42.349  29.333  34.090  1.00  0.00     0.074 A 
ATOM     60  C   UNL A   1      42.477  29.763  35.466  1.00  0.00     0.031 C 
ATOM     61  C   UNL A   1      43.225  28.509  33.467  1.00  0.00     0.037 A 
BRANCH  48  62
ATOM     62  C   UNL A   1      41.731  27.192  27.624  1.00  0.00     0.057 A 
ATOM     63  C   UNL A   1      42.465  27.825  26.611  1.00  0.00     0.134 A 
ATOM     64  C   UNL A   1      41.396  25.846  27.434  1.00  0.00     0.134 A 
ATOM     65  F   UNL A   1      42.806  29.117  26.726  1.00  0.00    -0.206 F 
ATOM     66  C   UNL A   1      42.835  27.151  25.448  1.00  0.00     0.040 A 
ATOM     67  C   UNL A   1      41.786  25.153  26.287  1.00  0.00     0.040 A 
ATOM     68  F   UNL A   1      40.702  25.177  28.368  1.00  0.00    -0.206 F 
ATOM     69  C   UNL A   1      42.504  25.807  25.288  1.00  0.00     0.006 A 
ENDBRANCH  48  62
BRANCH  49  70
ATOM     70  C   UNL A   1      39.084  32.221  35.839  1.00  0.00     0.057 A 
ATOM     71  C   UNL A   1      38.232  31.630  36.780  1.00  0.00     0.134 A 
ATOM     72  C   UNL A   1      39.504  33.533  36.088  1.00  0.00     0.134 A 
ATOM     73  F   UNL A   1      37.778  30.382  36.589  1.00  0.00    -0.206 F 
ATOM     74  C   UNL A   1      37.780  32.328  37.900  1.00  0.00     0.040 A 
ATOM     75  C   UNL A   1      39.084  34.233  37.220  1.00  0.00     0.040 A 
ATOM     76  F   UNL A   1      40.328  34.155  35.233  1.00  0.00    -0.206 F 
ATOM     77  C   UNL A   1      38.207  33.636  38.122  1.00  0.00     0.006 A 
ENDBRANCH  49  70
BRANCH  61  78
ATOM     78  C   UNL A   1      44.439  28.080  34.237  1.00  0.00     0.057 A 
ATOM     79  C   UNL A   1      44.468  26.898  34.986  1.00  0.00     0.134 A 
ATOM     80  C   UNL A   1      45.615  28.842  34.184  1.00  0.00     0.134 A 
ATOM     81  F   UNL A   1      43.373  26.130  35.087  1.00  0.00    -0.206 F 
ATOM     82  C   UNL A   1      45.616  26.499  35.673  1.00  0.00     0.040 A 
ATOM     83  C   UNL A   1      46.776  28.440  34.843  1.00  0.00     0.040 A 
ATOM     84  F   UNL A   1      45.657  29.981  33.476  1.00  0.00    -0.206 F 
ATOM     85  C   UNL A   1      46.777  27.267  35.594  1.00  0.00     0.006 A 
ENDBRANCH  61  78
ENDBRANCH  35  36
ENDBRANCH  27  30
ENDBRANCH  25  26
ENDBRANCH   1  25
TORSDOF 12
ENDMDL
MODEL 3
REMARK VINA RESULT:     -12.0      1.927      2.302
REMARK SMILES Cc1[nH]c2ccccc2c1[C@@H](C(=O)NCCCNC(=O)c1ccc(-c2c3nc(c(-c4c(F)cccc4F)c4ccc([nH]4)c(-c4c(F)cccc4F)c4nc(c(-c5c(F)cccc5F)c5ccc2[nH]5)C=C4)C=C3)cc1)[NH+]1CCCC1
REMARK SMILES IDX 16 1 15 2 14 3 12 4 13 5 11 7 10 8 1 9 2 10 3 11 4 12 9 14
REMARK SMILES IDX 5 15 8 16 6 17 7 18 75 19 76 20 79 21 77 23 78 24 17 25
REMARK SMILES IDX 18 26 19 27 20 29 21 30 22 31 74 32 23 33 73 34 24 35 25 36
REMARK SMILES IDX 26 37 67 38 27 39 72 40 66 41 68 42 28 43 71 44 65 45 64 46
REMARK SMILES IDX 29 48 55 49 38 50 54 51 39 52 42 53 53 54 69 55 40 56 41 57
REMARK SMILES IDX 52 59 70 60 43 61 30 62 31 63 36 64 32 65 33 66 35 67 37 68
REMARK SMILES IDX 34 69 56 70 57 71 62 72 58 73 59 74 61 75 63 76 60 77 44 78
REMARK SMILES IDX 45 79 50 80 46 81 47 82 49 83 51 84 48 85
REMARK H PARENT 14 6 3 13 75 22 18 28 68 47 42 58
REMARK Flexibility Score: inf
ROOT
ATOM      1  C   UNL A   1      32.350  28.944  26.854  1.00  0.00     0.042 C 
ENDROOT
BRANCH   1   2
ATOM      2  C   UNL A   1      32.466  27.435  27.027  1.00  0.00     0.118 C 
BRANCH   2   3
ATOM      3  N   UNL A   1      31.208  26.754  26.781  1.00  0.00    -0.351 N 
ATOM      4  C   UNL A   1      30.689  26.290  25.595  1.00  0.00     0.283 C 
ATOM      5  O   UNL A   1      29.557  25.800  25.655  1.00  0.00    -0.268 OA
ATOM      6  H   UNL A   1      30.647  26.606  27.576  1.00  0.00     0.163 HD
BRANCH   4   7
ATOM      7  C   UNL A   1      31.554  26.372  24.302  1.00  0.00     0.307 C 
BRANCH   7   8
ATOM      8  C   UNL A   1      31.371  27.679  23.551  1.00  0.00     0.047 A 
ATOM      9  C   UNL A   1      33.877  28.440  23.234  1.00  0.00     0.065 C 
ATOM     10  C   UNL A   1      32.397  28.508  23.092  1.00  0.00     0.022 A 
ATOM     11  N   UNL A   1      31.823  29.533  22.385  1.00  0.00    -0.358 N 
ATOM     12  C   UNL A   1      30.457  29.425  22.391  1.00  0.00     0.046 A 
ATOM     13  H   UNL A   1      32.325  30.249  21.933  1.00  0.00     0.166 HD
ATOM     14  C   UNL A   1      30.135  28.323  23.183  1.00  0.00     0.009 A 
ATOM     15  C   UNL A   1      29.495  30.220  21.758  1.00  0.00     0.027 A 
ATOM     16  C   UNL A   1      28.766  28.060  23.413  1.00  0.00     0.011 A 
ATOM     17  C   UNL A   1      28.152  29.892  21.950  1.00  0.00     0.002 A 
ATOM     18  C   UNL A   1      27.789  28.837  22.780  1.00  0.00     0.001 A 
ENDBRANCH   7   8
BRANCH   7  19
ATOM     19  N   UNL A   1      31.460  25.152  23.455  1.00  0.00    -0.321 N 
ATOM     20  C   UNL A   1      32.210  23.997  23.950  1.00  0.00     0.263 C 
ATOM     21  C   UNL A   1      31.811  25.271  22.041  1.00  0.00     0.263 C 
ATOM     22  H   UNL A   1      30.453  25.014  23.529  1.00  0.00     0.349 HD
ATOM     23  C   UNL A   1      33.518  23.979  23.177  1.00  0.00     0.067 C 
ATOM     24  C   UNL A   1      33.195  24.658  21.859  1.00  0.00     0.067 C 
ENDBRANCH   7  19
ENDBRANCH   4   7
ENDBRANCH   2   3
ENDBRANCH   1   2
BRANCH   1  25
ATOM     25  C   UNL A   1      33.693  29.651  26.731  1.00  0.00     0.118 C 
BRANCH  25  26
ATOM     26  N   UNL A   1      33.668  30.996  27.292  1.00  0.00    -0.352 N 
ATOM     27  C   UNL A   1      34.495  31.579  28.220  1.00  0.00     0.251 C 
ATOM     28  H   UNL A   1      32.947  31.575  26.952  1.00  0.00     0.163 HD
ATOM     29  O   UNL A   1      34.191  32.661  28.711  1.00  0.00    -0.269 OA
BRANCH  27  30
ATOM     30  C   UNL A   1      35.739  30.900  28.643  1.00  0.00     0.039 A 
ATOM     31  C   UNL A   1      36.949  31.284  28.060  1.00  0.00     0.014 A 
ATOM     32  C   UNL A   1      35.713  29.872  29.589  1.00  0.00     0.014 A 
ATOM     33  C   UNL A   1      38.140  30.679  28.471  1.00  0.00     0.010 A 
ATOM     34  C   UNL A   1      36.906  29.328  30.054  1.00  0.00     0.010 A 
ATOM     35  C   UNL A   1      38.132  29.720  29.496  1.00  0.00    -0.014 A 
BRANCH  35  36
ATOM     36  C   UNL A   1      39.385  29.094  29.987  1.00  0.00     0.031 A 
ATOM     37  C   UNL A   1      40.095  29.678  31.179  1.00  0.00     0.074 A 
ATOM     38  C   UNL A   1      39.919  28.047  29.328  1.00  0.00     0.049 A 
ATOM     39  N   UNL A   1      41.260  29.364  31.686  1.00  0.00    -0.248 NA
ATOM     40  C   UNL A   1      39.413  30.780  31.880  1.00  0.00     0.031 C 
ATOM     41  C   UNL A   1      39.341  27.404  28.146  1.00  0.00     0.029 A 
ATOM     42  N   UNL A   1      41.079  27.348  29.551  1.00  0.00    -0.354 N 
ATOM     43  C   UNL A   1      41.451  30.230  32.755  1.00  0.00     0.074 A 
ATOM     44  C   UNL A   1      40.313  31.121  32.790  1.00  0.00     0.031 C 
ATOM     45  C   UNL A   1      40.142  26.398  27.758  1.00  0.00     0.029 A 
ATOM     46  C   UNL A   1      41.310  26.353  28.631  1.00  0.00     0.049 A 
ATOM     47  H   UNL A   1      41.688  27.540  30.300  1.00  0.00     0.167 HD
ATOM     48  C   UNL A   1      42.469  30.260  33.648  1.00  0.00     0.037 A 
ATOM     49  C   UNL A   1      42.356  25.516  28.496  1.00  0.00     0.037 A 
ATOM     50  C   UNL A   1      43.594  29.362  33.623  1.00  0.00     0.049 A 
ATOM     51  C   UNL A   1      43.498  25.605  29.475  1.00  0.00     0.074 A 
ATOM     52  C   UNL A   1      44.671  29.306  34.489  1.00  0.00     0.029 A 
ATOM     53  N   UNL A   1      43.780  28.358  32.686  1.00  0.00    -0.354 N 
ATOM     54  N   UNL A   1      43.646  26.404  30.503  1.00  0.00    -0.248 NA
ATOM     55  C   UNL A   1      44.615  24.670  29.277  1.00  0.00     0.031 C 
ATOM     56  C   UNL A   1      45.527  28.288  34.057  1.00  0.00     0.029 A 
ATOM     57  C   UNL A   1      44.956  27.680  32.951  1.00  0.00     0.049 A 
ATOM     58  H   UNL A   1      43.165  28.157  31.942  1.00  0.00     0.167 HD
ATOM     59  C   UNL A   1      44.847  26.037  31.099  1.00  0.00     0.074 A 
ATOM     60  C   UNL A   1      45.383  24.939  30.323  1.00  0.00     0.031 C 
ATOM     61  C   UNL A   1      45.453  26.562  32.191  1.00  0.00     0.037 A 
BRANCH  48  62
ATOM     62  C   UNL A   1      42.406  31.285  34.741  1.00  0.00     0.057 A 
ATOM     63  C   UNL A   1      42.932  32.573  34.568  1.00  0.00     0.134 A 
ATOM     64  C   UNL A   1      41.763  31.008  35.954  1.00  0.00     0.134 A 
ATOM     65  F   UNL A   1      43.570  32.898  33.434  1.00  0.00    -0.206 F 
ATOM     66  C   UNL A   1      42.837  33.541  35.567  1.00  0.00     0.040 A 
ATOM     67  C   UNL A   1      41.638  31.977  36.951  1.00  0.00     0.040 A 
ATOM     68  F   UNL A   1      41.230  29.798  36.183  1.00  0.00    -0.206 F 
ATOM     69  C   UNL A   1      42.179  33.247  36.760  1.00  0.00     0.006 A 
ENDBRANCH  48  62
BRANCH  49  70
ATOM     70  C   UNL A   1      42.389  24.513  27.398  1.00  0.00     0.057 A 
ATOM     71  C   UNL A   1      41.933  23.205  27.602  1.00  0.00     0.134 A 
ATOM     72  C   UNL A   1      42.933  24.817  26.145  1.00  0.00     0.134 A 
ATOM     73  F   UNL A   1      41.419  22.847  28.788  1.00  0.00    -0.206 F 
ATOM     74  C   UNL A   1      42.051  22.226  26.615  1.00  0.00     0.040 A 
ATOM     75  C   UNL A   1      43.029  23.854  25.138  1.00  0.00     0.040 A 
ATOM     76  F   UNL A   1      43.380  26.052  25.879  1.00  0.00    -0.206 F 
ATOM     77  C   UNL A   1      42.602  22.551  25.377  1.00  0.00     0.006 A 
ENDBRANCH  49  70
BRANCH  61  78
ATOM     78  C   UNL A   1      46.722  25.912  32.658  1.00  0.00     0.057 A 
ATOM     79  C   UNL A   1      47.978  26.289  32.167  1.00  0.00     0.134 A 
ATOM     80  C   UNL A   1      46.685  24.926  33.654  1.00  0.00     0.134 A 
ATOM     81  F   UNL A   1      48.081  27.217  31.205  1.00  0.00    -0.206 F 
ATOM     82  C   UNL A   1      49.151  25.693  32.634  1.00  0.00     0.040 A 
ATOM     83  C   UNL A   1      47.852  24.343  34.148  1.00  0.00     0.040 A 
ATOM     84  F   UNL A   1      45.515  24.526  34.174  1.00  0.00    -0.206 F 
ATOM     85  C   UNL A   1      49.090  24.724  33.634  1.00  0.00     0.006 A 
ENDBRANCH  61  78
ENDBRANCH  35  36
ENDBRANCH  27  30
ENDBRANCH  25  26
ENDBRANCH   1  25
TORSDOF 12
ENDMDL
