MODEL 1
REMARK VINA RESULT:     -11.8      0.000      0.000
REMARK SMILES CCOc1ccc(NC(=O)N2CC[C@@H](C(=O)NCCCNC(=O)c3ccc(-c4c5nc(c(-c6c(F)cccc6F)c6ccc([nH]6)c(-c6c(F)cccc6F)c6nc(c(-c7c(F)cccc7F)c7ccc4[nH]7)C=C6)C=C5)cc3)[C@@H]2C)cc1
REMARK SMILES IDX 18 1 17 2 15 3 16 4 14 6 11 7 12 8 78 9 13 10 79 11 9 12
REMARK SMILES IDX 8 13 10 15 7 16 4 17 5 18 81 19 6 20 80 21 3 22 2 23 1 24
REMARK SMILES IDX 19 25 20 26 21 27 22 28 23 30 24 31 25 32 77 33 26 34 76 35
REMARK SMILES IDX 27 36 28 37 29 38 70 39 30 40 75 41 69 42 71 43 31 44 74 45
REMARK SMILES IDX 68 46 67 47 32 49 58 50 41 51 57 52 42 53 45 54 56 55 72 56
REMARK SMILES IDX 43 57 44 58 55 60 73 61 46 62 33 63 34 64 39 65 35 66 36 67
REMARK SMILES IDX 38 68 40 69 37 70 59 71 60 72 65 73 61 74 62 75 64 76 66 77
REMARK SMILES IDX 63 78 47 79 48 80 53 81 49 82 50 83 52 84 54 85 51 86
REMARK H PARENT 17 5 8 14 21 29 71 48 45 59
REMARK Flexibility Score: inf
ROOT
ATOM      1  C   UNL A   1      37.205  20.958  24.656  1.00  0.00     0.117 C 
ENDROOT
BRANCH   1   2
ATOM      2  N   UNL A   1      35.940  20.674  25.327  1.00  0.00    -0.356 N 
ATOM      3  C   UNL A   1      34.689  21.200  25.311  1.00  0.00     0.225 C 
ATOM      4  O   UNL A   1      33.860  20.581  25.994  1.00  0.00    -0.275 OA
ATOM      5  H   UNL A   1      36.013  19.910  25.945  1.00  0.00     0.163 HD
BRANCH   3   6
ATOM      6  C   UNL A   1      34.233  22.498  24.642  1.00  0.00     0.102 C 
ATOM      7  N   UNL A   1      32.711  23.649  25.974  1.00  0.00    -0.321 N 
ATOM      8  C   UNL A   1      33.842  24.558  25.866  1.00  0.00     0.122 C 
ATOM      9  C   UNL A   1      32.728  22.751  24.823  1.00  0.00     0.096 C 
ATOM     10  C   UNL A   1      34.905  23.804  25.068  1.00  0.00     0.037 C 
ATOM     11  C   UNL A   1      32.111  23.426  23.586  1.00  0.00     0.032 C 
BRANCH   7  12
ATOM     12  C   UNL A   1      31.656  24.006  26.746  1.00  0.00     0.322 C 
ATOM     13  N   UNL A   1      30.936  25.139  26.585  1.00  0.00    -0.308 N 
ATOM     14  H   UNL A   1      30.430  25.360  27.399  1.00  0.00     0.171 HD
ATOM     15  O   UNL A   1      31.238  23.233  27.617  1.00  0.00    -0.248 OA
BRANCH  13  16
ATOM     16  C   UNL A   1      30.709  26.094  25.573  1.00  0.00     0.043 A 
ATOM     17  C   UNL A   1      30.242  28.239  23.805  1.00  0.00     0.119 A 
ATOM     18  C   UNL A   1      29.514  27.071  23.683  1.00  0.00     0.048 A 
ATOM     19  C   UNL A   1      31.214  28.355  24.787  1.00  0.00     0.048 A 
ATOM     20  C   UNL A   1      29.734  26.029  24.588  1.00  0.00     0.030 A 
ATOM     21  C   UNL A   1      31.470  27.273  25.642  1.00  0.00     0.030 A 
BRANCH  17  22
ATOM     22  O   UNL A   1      29.857  29.324  23.078  1.00  0.00    -0.494 OA
BRANCH  22  23
ATOM     23  C   UNL A   1      28.501  29.235  22.639  1.00  0.00     0.226 C 
ATOM     24  C   UNL A   1      27.720  30.392  23.232  1.00  0.00     0.049 C 
ENDBRANCH  22  23
ENDBRANCH  17  22
ENDBRANCH  13  16
ENDBRANCH   7  12
ENDBRANCH   3   6
ENDBRANCH   1   2
BRANCH   1  25
ATOM     25  C   UNL A   1      38.288  19.875  24.785  1.00  0.00     0.042 C 
BRANCH  25  26
ATOM     26  C   UNL A   1      39.072  19.821  26.102  1.00  0.00     0.118 C 
BRANCH  26  27
ATOM     27  N   UNL A   1      40.306  19.061  25.984  1.00  0.00    -0.352 N 
ATOM     28  C   UNL A   1      41.614  19.484  26.060  1.00  0.00     0.251 C 
ATOM     29  H   UNL A   1      40.189  18.097  25.827  1.00  0.00     0.163 HD
ATOM     30  O   UNL A   1      42.508  18.714  25.715  1.00  0.00    -0.269 OA
BRANCH  28  31
ATOM     31  C   UNL A   1      41.986  20.840  26.547  1.00  0.00     0.039 A 
ATOM     32  C   UNL A   1      41.930  21.096  27.923  1.00  0.00     0.014 A 
ATOM     33  C   UNL A   1      42.268  21.892  25.674  1.00  0.00     0.014 A 
ATOM     34  C   UNL A   1      42.190  22.383  28.422  1.00  0.00     0.010 A 
ATOM     35  C   UNL A   1      42.556  23.169  26.177  1.00  0.00     0.010 A 
ATOM     36  C   UNL A   1      42.519  23.435  27.554  1.00  0.00    -0.014 A 
BRANCH  36  37
ATOM     37  C   UNL A   1      42.811  24.803  28.076  1.00  0.00     0.031 A 
ATOM     38  C   UNL A   1      44.222  25.223  28.406  1.00  0.00     0.074 A 
ATOM     39  C   UNL A   1      41.808  25.679  28.289  1.00  0.00     0.049 A 
ATOM     40  N   UNL A   1      44.657  26.363  28.888  1.00  0.00    -0.248 NA
ATOM     41  C   UNL A   1      45.279  24.227  28.180  1.00  0.00     0.031 C 
ATOM     42  C   UNL A   1      40.389  25.411  28.058  1.00  0.00     0.029 A 
ATOM     43  N   UNL A   1      41.831  26.974  28.751  1.00  0.00    -0.354 N 
ATOM     44  C   UNL A   1      46.031  26.215  29.040  1.00  0.00     0.074 A 
ATOM     45  C   UNL A   1      46.353  24.863  28.630  1.00  0.00     0.031 C 
ATOM     46  C   UNL A   1      39.681  26.515  28.352  1.00  0.00     0.029 A 
ATOM     47  C   UNL A   1      40.591  27.558  28.820  1.00  0.00     0.049 A 
ATOM     48  H   UNL A   1      42.661  27.439  29.007  1.00  0.00     0.167 HD
ATOM     49  C   UNL A   1      46.946  27.121  29.463  1.00  0.00     0.037 A 
ATOM     50  C   UNL A   1      40.219  28.793  29.213  1.00  0.00     0.037 A 
ATOM     51  C   UNL A   1      46.652  28.481  29.836  1.00  0.00     0.049 A 
ATOM     52  C   UNL A   1      41.256  29.787  29.662  1.00  0.00     0.074 A 
ATOM     53  C   UNL A   1      47.535  29.481  30.213  1.00  0.00     0.029 A 
ATOM     54  N   UNL A   1      45.384  29.034  29.876  1.00  0.00    -0.354 N 
ATOM     55  N   UNL A   1      42.555  29.646  29.745  1.00  0.00    -0.248 NA
ATOM     56  C   UNL A   1      40.770  31.116  30.070  1.00  0.00     0.031 C 
ATOM     57  C   UNL A   1      46.797  30.631  30.511  1.00  0.00     0.029 A 
ATOM     58  C   UNL A   1      45.458  30.356  30.288  1.00  0.00     0.049 A 
ATOM     59  H   UNL A   1      44.553  28.560  29.647  1.00  0.00     0.167 HD
ATOM     60  C   UNL A   1      43.043  30.870  30.187  1.00  0.00     0.074 A 
ATOM     61  C   UNL A   1      41.902  31.745  30.348  1.00  0.00     0.031 C 
ATOM     62  C   UNL A   1      44.324  31.230  30.438  1.00  0.00     0.037 A 
BRANCH  49  63
ATOM     63  C   UNL A   1      48.376  26.672  29.543  1.00  0.00     0.057 A 
ATOM     64  C   UNL A   1      48.878  26.013  30.671  1.00  0.00     0.134 A 
ATOM     65  C   UNL A   1      49.243  26.853  28.458  1.00  0.00     0.134 A 
ATOM     66  F   UNL A   1      48.099  25.814  31.745  1.00  0.00    -0.206 F 
ATOM     67  C   UNL A   1      50.200  25.570  30.729  1.00  0.00     0.040 A 
ATOM     68  C   UNL A   1      50.561  26.394  28.495  1.00  0.00     0.040 A 
ATOM     69  F   UNL A   1      48.821  27.466  27.342  1.00  0.00    -0.206 F 
ATOM     70  C   UNL A   1      51.045  25.755  29.635  1.00  0.00     0.006 A 
ENDBRANCH  49  63
BRANCH  50  71
ATOM     71  C   UNL A   1      38.788  29.180  29.178  1.00  0.00     0.057 A 
ATOM     72  C   UNL A   1      37.988  29.077  30.321  1.00  0.00     0.134 A 
ATOM     73  C   UNL A   1      38.185  29.642  28.004  1.00  0.00     0.134 A 
ATOM     74  F   UNL A   1      38.507  28.616  31.469  1.00  0.00    -0.206 F 
ATOM     75  C   UNL A   1      36.631  29.406  30.295  1.00  0.00     0.040 A 
ATOM     76  C   UNL A   1      36.835  29.993  27.967  1.00  0.00     0.040 A 
ATOM     77  F   UNL A   1      38.902  29.763  26.877  1.00  0.00    -0.206 F 
ATOM     78  C   UNL A   1      36.053  29.869  29.115  1.00  0.00     0.006 A 
ENDBRANCH  50  71
BRANCH  62  79
ATOM     79  C   UNL A   1      44.571  32.640  30.885  1.00  0.00     0.057 A 
ATOM     80  C   UNL A   1      44.776  33.678  29.968  1.00  0.00     0.134 A 
ATOM     81  C   UNL A   1      44.569  32.970  32.246  1.00  0.00     0.134 A 
ATOM     82  F   UNL A   1      44.801  33.426  28.651  1.00  0.00    -0.206 F 
ATOM     83  C   UNL A   1      44.985  34.993  30.390  1.00  0.00     0.040 A 
ATOM     84  C   UNL A   1      44.758  34.283  32.680  1.00  0.00     0.040 A 
ATOM     85  F   UNL A   1      44.373  32.022  33.176  1.00  0.00    -0.206 F 
ATOM     86  C   UNL A   1      44.972  35.299  31.751  1.00  0.00     0.006 A 
ENDBRANCH  62  79
ENDBRANCH  36  37
ENDBRANCH  28  31
ENDBRANCH  26  27
ENDBRANCH  25  26
ENDBRANCH   1  25
TORSDOF 14
ENDMDL
MODEL 2
REMARK VINA RESULT:     -11.8      0.610      6.179
REMARK SMILES CCOc1ccc(NC(=O)N2CC[C@@H](C(=O)NCCCNC(=O)c3ccc(-c4c5nc(c(-c6c(F)cccc6F)c6ccc([nH]6)c(-c6c(F)cccc6F)c6nc(c(-c7c(F)cccc7F)c7ccc4[nH]7)C=C6)C=C5)cc3)[C@@H]2C)cc1
REMARK SMILES IDX 18 1 17 2 15 3 16 4 14 6 11 7 12 8 78 9 13 10 79 11 9 12
REMARK SMILES IDX 8 13 10 15 7 16 4 17 5 18 81 19 6 20 80 21 3 22 2 23 1 24
REMARK SMILES IDX 19 25 20 26 21 27 22 28 23 30 24 31 25 32 77 33 26 34 76 35
REMARK SMILES IDX 27 36 28 37 29 38 70 39 30 40 75 41 69 42 71 43 31 44 74 45
REMARK SMILES IDX 68 46 67 47 32 49 58 50 41 51 57 52 42 53 45 54 56 55 72 56
REMARK SMILES IDX 43 57 44 58 55 60 73 61 46 62 33 63 34 64 39 65 35 66 36 67
REMARK SMILES IDX 38 68 40 69 37 70 59 71 60 72 65 73 61 74 62 75 64 76 66 77
REMARK SMILES IDX 63 78 47 79 48 80 53 81 49 82 50 83 52 84 54 85 51 86
REMARK H PARENT 17 5 8 14 21 29 71 48 45 59
REMARK Flexibility Score: inf
ROOT
ATOM      1  C   UNL A   1      36.483  20.480  24.596  1.00  0.00     0.117 C 
ENDROOT
BRANCH   1   2
ATOM      2  N   UNL A   1      35.154  20.158  25.108  1.00  0.00    -0.356 N 
ATOM      3  C   UNL A   1      33.903  20.661  24.956  1.00  0.00     0.225 C 
ATOM      4  O   UNL A   1      33.012  20.012  25.524  1.00  0.00    -0.275 OA
ATOM      5  H   UNL A   1      35.170  19.380  25.713  1.00  0.00     0.163 HD
BRANCH   3   6
ATOM      6  C   UNL A   1      33.502  21.967  24.267  1.00  0.00     0.102 C 
ATOM      7  N   UNL A   1      32.406  23.400  25.736  1.00  0.00    -0.321 N 
ATOM      8  C   UNL A   1      33.605  24.133  25.358  1.00  0.00     0.122 C 
ATOM      9  C   UNL A   1      32.098  22.439  24.681  1.00  0.00     0.096 C 
ATOM     10  C   UNL A   1      34.400  23.189  24.457  1.00  0.00     0.037 C 
ATOM     11  C   UNL A   1      31.357  23.116  23.515  1.00  0.00     0.032 C 
BRANCH   7  12
ATOM     12  C   UNL A   1      31.563  23.949  26.645  1.00  0.00     0.322 C 
ATOM     13  N   UNL A   1      30.996  25.171  26.525  1.00  0.00    -0.308 N 
ATOM     14  H   UNL A   1      30.676  25.502  27.395  1.00  0.00     0.171 HD
ATOM     15  O   UNL A   1      31.195  23.289  27.625  1.00  0.00    -0.248 OA
BRANCH  13  16
ATOM     16  C   UNL A   1      30.737  26.103  25.500  1.00  0.00     0.043 A 
ATOM     17  C   UNL A   1      30.134  27.693  23.252  1.00  0.00     0.119 A 
ATOM     18  C   UNL A   1      31.308  27.899  23.951  1.00  0.00     0.048 A 
ATOM     19  C   UNL A   1      29.242  26.713  23.663  1.00  0.00     0.048 A 
ATOM     20  C   UNL A   1      31.609  27.081  25.042  1.00  0.00     0.030 A 
ATOM     21  C   UNL A   1      29.527  25.948  24.803  1.00  0.00     0.030 A 
BRANCH  17  22
ATOM     22  O   UNL A   1      29.965  28.329  22.060  1.00  0.00    -0.494 OA
BRANCH  22  23
ATOM     23  C   UNL A   1      29.778  29.737  22.214  1.00  0.00     0.226 C 
ATOM     24  C   UNL A   1      28.407  30.108  21.683  1.00  0.00     0.049 C 
ENDBRANCH  22  23
ENDBRANCH  17  22
ENDBRANCH  13  16
ENDBRANCH   7  12
ENDBRANCH   3   6
ENDBRANCH   1   2
BRANCH   1  25
ATOM     25  C   UNL A   1      37.608  19.518  25.007  1.00  0.00     0.042 C 
BRANCH  25  26
ATOM     26  C   UNL A   1      38.807  20.117  25.751  1.00  0.00     0.118 C 
BRANCH  26  27
ATOM     27  N   UNL A   1      39.948  19.217  25.785  1.00  0.00    -0.352 N 
ATOM     28  C   UNL A   1      41.283  19.491  25.982  1.00  0.00     0.251 C 
ATOM     29  H   UNL A   1      39.734  18.267  25.646  1.00  0.00     0.163 HD
ATOM     30  O   UNL A   1      42.109  18.610  25.754  1.00  0.00    -0.269 OA
BRANCH  28  31
ATOM     31  C   UNL A   1      41.762  20.816  26.462  1.00  0.00     0.039 A 
ATOM     32  C   UNL A   1      41.704  21.092  27.835  1.00  0.00     0.014 A 
ATOM     33  C   UNL A   1      42.150  21.829  25.584  1.00  0.00     0.014 A 
ATOM     34  C   UNL A   1      42.064  22.356  28.325  1.00  0.00     0.010 A 
ATOM     35  C   UNL A   1      42.538  23.083  26.080  1.00  0.00     0.010 A 
ATOM     36  C   UNL A   1      42.499  23.366  27.453  1.00  0.00    -0.014 A 
BRANCH  36  37
ATOM     37  C   UNL A   1      42.900  24.710  27.967  1.00  0.00     0.031 A 
ATOM     38  C   UNL A   1      41.865  25.763  28.276  1.00  0.00     0.074 A 
ATOM     39  C   UNL A   1      44.203  25.013  28.135  1.00  0.00     0.049 A 
ATOM     40  N   UNL A   1      42.034  26.990  28.708  1.00  0.00    -0.248 NA
ATOM     41  C   UNL A   1      40.459  25.396  28.054  1.00  0.00     0.031 C 
ATOM     42  C   UNL A   1      45.324  24.119  27.843  1.00  0.00     0.029 A 
ATOM     43  N   UNL A   1      44.805  26.162  28.591  1.00  0.00    -0.354 N 
ATOM     44  C   UNL A   1      40.763  27.545  28.793  1.00  0.00     0.074 A 
ATOM     45  C   UNL A   1      39.834  26.532  28.335  1.00  0.00     0.031 C 
ATOM     46  C   UNL A   1      46.474  24.741  28.153  1.00  0.00     0.029 A 
ATOM     47  C   UNL A   1      46.175  26.087  28.638  1.00  0.00     0.049 A 
ATOM     48  H   UNL A   1      44.300  26.963  28.860  1.00  0.00     0.167 HD
ATOM     49  C   UNL A   1      40.394  28.776  29.227  1.00  0.00     0.037 A 
ATOM     50  C   UNL A   1      47.094  26.995  29.025  1.00  0.00     0.037 A 
ATOM     51  C   UNL A   1      41.297  29.782  29.724  1.00  0.00     0.049 A 
ATOM     52  C   UNL A   1      46.659  28.347  29.519  1.00  0.00     0.074 A 
ATOM     53  C   UNL A   1      40.994  31.030  30.244  1.00  0.00     0.029 A 
ATOM     54  N   UNL A   1      42.674  29.657  29.767  1.00  0.00    -0.354 N 
ATOM     55  N   UNL A   1      45.449  28.832  29.645  1.00  0.00    -0.248 NA
ATOM     56  C   UNL A   1      47.723  29.278  29.930  1.00  0.00     0.031 C 
ATOM     57  C   UNL A   1      42.191  31.673  30.573  1.00  0.00     0.029 A 
ATOM     58  C   UNL A   1      43.238  30.812  30.288  1.00  0.00     0.049 A 
ATOM     59  H   UNL A   1      43.180  28.866  29.471  1.00  0.00     0.167 HD
ATOM     60  C   UNL A   1      45.603  30.109  30.170  1.00  0.00     0.074 A 
ATOM     61  C   UNL A   1      47.024  30.323  30.348  1.00  0.00     0.031 C 
ATOM     62  C   UNL A   1      44.649  31.020  30.474  1.00  0.00     0.037 A 
BRANCH  49  63
ATOM     63  C   UNL A   1      38.931  29.110  29.191  1.00  0.00     0.057 A 
ATOM     64  C   UNL A   1      38.127  29.017  30.334  1.00  0.00     0.134 A 
ATOM     65  C   UNL A   1      38.334  29.579  28.015  1.00  0.00     0.134 A 
ATOM     66  F   UNL A   1      38.639  28.568  31.490  1.00  0.00    -0.206 F 
ATOM     67  C   UNL A   1      36.774  29.356  30.303  1.00  0.00     0.040 A 
ATOM     68  C   UNL A   1      36.987  29.944  27.977  1.00  0.00     0.040 A 
ATOM     69  F   UNL A   1      39.051  29.703  26.888  1.00  0.00    -0.206 F 
ATOM     70  C   UNL A   1      36.201  29.828  29.122  1.00  0.00     0.006 A 
ENDBRANCH  49  63
BRANCH  50  71
ATOM     71  C   UNL A   1      48.536  26.648  28.987  1.00  0.00     0.057 A 
ATOM     72  C   UNL A   1      49.327  26.983  27.883  1.00  0.00     0.134 A 
ATOM     73  C   UNL A   1      49.149  25.961  30.040  1.00  0.00     0.134 A 
ATOM     74  F   UNL A   1      48.786  27.619  26.834  1.00  0.00    -0.206 F 
ATOM     75  C   UNL A   1      50.677  26.633  27.819  1.00  0.00     0.040 A 
ATOM     76  C   UNL A   1      50.502  25.622  29.999  1.00  0.00     0.040 A 
ATOM     77  F   UNL A   1      48.442  25.615  31.126  1.00  0.00    -0.206 F 
ATOM     78  C   UNL A   1      51.268  25.954  28.882  1.00  0.00     0.006 A 
ENDBRANCH  50  71
BRANCH  62  79
ATOM     79  C   UNL A   1      45.102  32.325  31.061  1.00  0.00     0.057 A 
ATOM     80  C   UNL A   1      45.388  33.434  30.255  1.00  0.00     0.134 A 
ATOM     81  C   UNL A   1      45.219  32.484  32.447  1.00  0.00     0.134 A 
ATOM     82  F   UNL A   1      45.307  33.344  28.919  1.00  0.00    -0.206 F 
ATOM     83  C   UNL A   1      45.790  34.652  30.809  1.00  0.00     0.040 A 
ATOM     84  C   UNL A   1      45.601  33.701  33.013  1.00  0.00     0.040 A 
ATOM     85  F   UNL A   1      44.954  31.461  33.274  1.00  0.00    -0.206 F 
ATOM     86  C   UNL A   1      45.892  34.789  32.193  1.00  0.00     0.006 A 
ENDBRANCH  62  79
ENDBRANCH  36  37
ENDBRANCH  28  31
ENDBRANCH  26  27
ENDBRANCH  25  26
ENDBRANCH   1  25
TORSDOF 14
ENDMDL
MODEL 3
REMARK VINA RESULT:     -11.6      2.227      7.693
REMARK SMILES CCOc1ccc(NC(=O)N2CC[C@@H](C(=O)NCCCNC(=O)c3ccc(-c4c5nc(c(-c6c(F)cccc6F)c6ccc([nH]6)c(-c6c(F)cccc6F)c6nc(c(-c7c(F)cccc7F)c7ccc4[nH]7)C=C6)C=C5)cc3)[C@@H]2C)cc1
REMARK SMILES IDX 18 1 17 2 15 3 16 4 14 6 11 7 12 8 78 9 13 10 79 11 9 12
REMARK SMILES IDX 8 13 10 15 7 16 4 17 5 18 81 19 6 20 80 21 3 22 2 23 1 24
REMARK SMILES IDX 19 25 20 26 21 27 22 28 23 30 24 31 25 32 77 33 26 34 76 35
REMARK SMILES IDX 27 36 28 37 29 38 70 39 30 40 75 41 69 42 71 43 31 44 74 45
REMARK SMILES IDX 68 46 67 47 32 49 58 50 41 51 57 52 42 53 45 54 56 55 72 56
REMARK SMILES IDX 43 57 44 58 55 60 73 61 46 62 33 63 34 64 39 65 35 66 36 67
REMARK SMILES IDX 38 68 40 69 37 70 59 71 60 72 65 73 61 74 62 75 64 76 66 77
REMARK SMILES IDX 63 78 47 79 48 80 53 81 49 82 50 83 52 84 54 85 51 86
REMARK H PARENT 17 5 8 14 21 29 71 48 45 59
REMARK Flexibility Score: inf
ROOT
ATOM      1  C   UNL A   1      33.392  28.450  24.518  1.00  0.00     0.117 C 
ENDROOT
BRANCH   1   2
ATOM      2  N   UNL A   1      33.726  27.764  23.274  1.00  0.00    -0.356 N 
ATOM      3  C   UNL A   1      33.059  26.995  22.375  1.00  0.00     0.225 C 
ATOM      4  O   UNL A   1      33.722  26.674  21.378  1.00  0.00    -0.275 OA
ATOM      5  H   UNL A   1      34.670  27.892  23.023  1.00  0.00     0.163 HD
BRANCH   3   6
ATOM      6  C   UNL A   1      31.651  26.413  22.512  1.00  0.00     0.102 C 
ATOM      7  N   UNL A   1      31.071  26.110  24.745  1.00  0.00    -0.321 N 
ATOM      8  C   UNL A   1      30.100  27.079  24.258  1.00  0.00     0.122 C 
ATOM      9  C   UNL A   1      31.567  25.339  23.609  1.00  0.00     0.096 C 
ATOM     10  C   UNL A   1      30.500  27.373  22.811  1.00  0.00     0.037 C 
ATOM     11  C   UNL A   1      30.585  24.216  23.232  1.00  0.00     0.032 C 
BRANCH   7  12
ATOM     12  C   UNL A   1      31.040  25.756  26.053  1.00  0.00     0.322 C 
ATOM     13  N   UNL A   1      31.819  24.798  26.606  1.00  0.00    -0.308 N 
ATOM     14  H   UNL A   1      31.448  24.487  27.463  1.00  0.00     0.171 HD
ATOM     15  O   UNL A   1      30.327  26.381  26.847  1.00  0.00    -0.248 OA
BRANCH  13  16
ATOM     16  C   UNL A   1      33.015  24.120  26.295  1.00  0.00     0.043 A 
ATOM     17  C   UNL A   1      35.428  22.691  26.014  1.00  0.00     0.119 A 
ATOM     18  C   UNL A   1      35.282  23.928  25.416  1.00  0.00     0.048 A 
ATOM     19  C   UNL A   1      34.383  22.142  26.742  1.00  0.00     0.048 A 
ATOM     20  C   UNL A   1      34.093  24.639  25.592  1.00  0.00     0.030 A 
ATOM     21  C   UNL A   1      33.171  22.838  26.850  1.00  0.00     0.030 A 
BRANCH  17  22
ATOM     22  O   UNL A   1      36.664  22.120  26.034  1.00  0.00    -0.494 OA
BRANCH  22  23
ATOM     23  C   UNL A   1      37.714  23.086  25.971  1.00  0.00     0.226 C 
ATOM     24  C   UNL A   1      39.030  22.396  26.269  1.00  0.00     0.049 C 
ENDBRANCH  22  23
ENDBRANCH  17  22
ENDBRANCH  13  16
ENDBRANCH   7  12
ENDBRANCH   3   6
ENDBRANCH   1   2
BRANCH   1  25
ATOM     25  C   UNL A   1      34.202  28.025  25.753  1.00  0.00     0.042 C 
BRANCH  25  26
ATOM     26  C   UNL A   1      33.575  28.288  27.127  1.00  0.00     0.118 C 
BRANCH  26  27
ATOM     27  N   UNL A   1      33.543  29.703  27.463  1.00  0.00    -0.352 N 
ATOM     28  C   UNL A   1      34.500  30.489  28.064  1.00  0.00     0.251 C 
ATOM     29  H   UNL A   1      32.711  30.170  27.223  1.00  0.00     0.163 HD
ATOM     30  O   UNL A   1      34.186  31.612  28.455  1.00  0.00    -0.269 OA
BRANCH  28  31
ATOM     31  C   UNL A   1      35.902  30.030  28.259  1.00  0.00     0.039 A 
ATOM     32  C   UNL A   1      36.281  29.551  29.520  1.00  0.00     0.014 A 
ATOM     33  C   UNL A   1      36.876  30.174  27.269  1.00  0.00     0.014 A 
ATOM     34  C   UNL A   1      37.613  29.187  29.774  1.00  0.00     0.010 A 
ATOM     35  C   UNL A   1      38.199  29.781  27.517  1.00  0.00     0.010 A 
ATOM     36  C   UNL A   1      38.588  29.286  28.771  1.00  0.00    -0.014 A 
BRANCH  36  37
ATOM     37  C   UNL A   1      40.004  28.886  29.028  1.00  0.00     0.031 A 
ATOM     38  C   UNL A   1      40.954  29.813  29.745  1.00  0.00     0.074 A 
ATOM     39  C   UNL A   1      40.464  27.696  28.593  1.00  0.00     0.049 A 
ATOM     40  N   UNL A   1      42.221  29.639  30.035  1.00  0.00    -0.248 NA
ATOM     41  C   UNL A   1      40.414  31.109  30.180  1.00  0.00     0.031 C 
ATOM     42  C   UNL A   1      39.683  26.707  27.850  1.00  0.00     0.029 A 
ATOM     43  N   UNL A   1      41.706  27.116  28.713  1.00  0.00    -0.354 N 
ATOM     44  C   UNL A   1      42.634  30.806  30.666  1.00  0.00     0.074 A 
ATOM     45  C   UNL A   1      41.490  31.695  30.688  1.00  0.00     0.031 C 
ATOM     46  C   UNL A   1      40.454  25.634  27.604  1.00  0.00     0.029 A 
ATOM     47  C   UNL A   1      41.790  25.868  28.146  1.00  0.00     0.049 A 
ATOM     48  H   UNL A   1      42.463  27.556  29.163  1.00  0.00     0.167 HD
ATOM     49  C   UNL A   1      43.844  31.110  31.197  1.00  0.00     0.037 A 
ATOM     50  C   UNL A   1      42.822  25.005  28.067  1.00  0.00     0.037 A 
ATOM     51  C   UNL A   1      44.981  30.226  31.221  1.00  0.00     0.049 A 
ATOM     52  C   UNL A   1      44.151  25.357  28.678  1.00  0.00     0.074 A 
ATOM     53  C   UNL A   1      46.224  30.436  31.799  1.00  0.00     0.029 A 
ATOM     54  N   UNL A   1      45.017  28.966  30.649  1.00  0.00    -0.354 N 
ATOM     55  N   UNL A   1      44.504  26.443  29.320  1.00  0.00    -0.248 NA
ATOM     56  C   UNL A   1      45.225  24.358  28.556  1.00  0.00     0.031 C 
ATOM     57  C   UNL A   1      47.021  29.315  31.549  1.00  0.00     0.029 A 
ATOM     58  C   UNL A   1      46.264  28.393  30.844  1.00  0.00     0.049 A 
ATOM     59  H   UNL A   1      44.268  28.540  30.174  1.00  0.00     0.167 HD
ATOM     60  C   UNL A   1      45.826  26.248  29.699  1.00  0.00     0.074 A 
ATOM     61  C   UNL A   1      46.213  24.937  29.222  1.00  0.00     0.031 C 
ATOM     62  C   UNL A   1      46.645  27.086  30.379  1.00  0.00     0.037 A 
BRANCH  49  63
ATOM     63  C   UNL A   1      44.007  32.470  31.810  1.00  0.00     0.057 A 
ATOM     64  C   UNL A   1      43.752  32.701  33.167  1.00  0.00     0.134 A 
ATOM     65  C   UNL A   1      44.474  33.547  31.045  1.00  0.00     0.134 A 
ATOM     66  F   UNL A   1      43.298  31.711  33.950  1.00  0.00    -0.206 F 
ATOM     67  C   UNL A   1      43.933  33.960  33.739  1.00  0.00     0.040 A 
ATOM     68  C   UNL A   1      44.681  34.806  31.611  1.00  0.00     0.040 A 
ATOM     69  F   UNL A   1      44.749  33.390  29.742  1.00  0.00    -0.206 F 
ATOM     70  C   UNL A   1      44.405  35.017  32.961  1.00  0.00     0.006 A 
ENDBRANCH  49  63
BRANCH  50  71
ATOM     71  C   UNL A   1      42.639  23.694  27.398  1.00  0.00     0.057 A 
ATOM     72  C   UNL A   1      42.323  22.548  28.137  1.00  0.00     0.134 A 
ATOM     73  C   UNL A   1      42.794  23.552  26.016  1.00  0.00     0.134 A 
ATOM     74  F   UNL A   1      42.189  22.620  29.469  1.00  0.00    -0.206 F 
ATOM     75  C   UNL A   1      42.182  21.302  27.525  1.00  0.00     0.040 A 
ATOM     76  C   UNL A   1      42.635  22.316  25.387  1.00  0.00     0.040 A 
ATOM     77  F   UNL A   1      43.095  24.615  25.255  1.00  0.00    -0.206 F 
ATOM     78  C   UNL A   1      42.334  21.185  26.145  1.00  0.00     0.006 A 
ENDBRANCH  50  71
BRANCH  62  79
ATOM     79  C   UNL A   1      48.033  26.603  30.679  1.00  0.00     0.057 A 
ATOM     80  C   UNL A   1      49.108  26.876  29.824  1.00  0.00     0.134 A 
ATOM     81  C   UNL A   1      48.304  25.888  31.852  1.00  0.00     0.134 A 
ATOM     82  F   UNL A   1      48.913  27.546  28.678  1.00  0.00    -0.206 F 
ATOM     83  C   UNL A   1      50.402  26.441  30.119  1.00  0.00     0.040 A 
ATOM     84  C   UNL A   1      49.596  25.464  32.167  1.00  0.00     0.040 A 
ATOM     85  F   UNL A   1      47.319  25.598  32.716  1.00  0.00    -0.206 F 
ATOM     86  C   UNL A   1      50.649  25.736  31.297  1.00  0.00     0.006 A 
ENDBRANCH  62  79
ENDBRANCH  36  37
ENDBRANCH  28  31
ENDBRANCH  26  27
ENDBRANCH  25  26
ENDBRANCH   1  25
TORSDOF 14
ENDMDL
