MODEL 1
REMARK VINA RESULT:     -12.4      0.000      0.000
REMARK SMILES Cc1nc(NC(=O)[C@@H]2CCC[C@@H](C(=O)NCCCNC(=O)c3ccc(-c4c5nc(c(-c6c(F)cccc6F)c6ccc([nH]6)c(-c6c(F)cccc6F)c6nc(c(-c7c(F)cccc7F)c7ccc4[nH]7)C=C6)C=C5)cc3)C2)ccc1Br
REMARK SMILES IDX 17 1 16 2 15 3 13 4 14 5 12 7 8 8 9 9 76 10 10 11 11 12 6 13
REMARK SMILES IDX 5 14 7 16 4 17 1 18 2 19 3 20 79 21 78 22 80 23 77 24 18 25
REMARK SMILES IDX 19 26 20 27 21 29 22 30 23 31 75 32 24 33 74 34 25 35 26 36
REMARK SMILES IDX 27 37 68 38 28 39 73 40 67 41 69 42 29 43 72 44 66 45 65 46
REMARK SMILES IDX 30 48 56 49 39 50 55 51 40 52 43 53 54 54 70 55 41 56 42 57
REMARK SMILES IDX 53 59 71 60 44 61 31 62 32 63 37 64 33 65 34 66 36 67 38 68
REMARK SMILES IDX 35 69 57 70 58 71 63 72 59 73 60 74 62 75 64 76 61 77 45 78
REMARK SMILES IDX 46 79 51 80 47 81 48 82 50 83 52 84 49 85
REMARK H PARENT 15 6 5 15 19 28 69 47 43 58
REMARK Flexibility Score: inf
ROOT
ATOM      1  C   UNL A   1      37.860  19.968  24.679  1.00  0.00     0.042 C 
ENDROOT
BRANCH   1   2
ATOM      2  C   UNL A   1      36.432  20.332  25.054  1.00  0.00     0.117 C 
BRANCH   2   3
ATOM      3  N   UNL A   1      36.080  21.657  24.571  1.00  0.00    -0.356 N 
ATOM      4  C   UNL A   1      34.879  22.132  24.138  1.00  0.00     0.223 C 
ATOM      5  O   UNL A   1      34.845  23.263  23.655  1.00  0.00    -0.275 OA
ATOM      6  H   UNL A   1      36.819  22.307  24.553  1.00  0.00     0.163 HD
BRANCH   4   7
ATOM      7  C   UNL A   1      33.630  21.279  24.350  1.00  0.00     0.079 C 
ATOM      8  C   UNL A   1      32.314  23.079  25.538  1.00  0.00     0.079 C 
ATOM      9  C   UNL A   1      31.207  22.977  24.486  1.00  0.00     0.013 C 
ATOM     10  C   UNL A   1      32.951  21.688  25.673  1.00  0.00     0.027 C 
ATOM     11  C   UNL A   1      31.817  22.658  23.126  1.00  0.00     0.002 C 
ATOM     12  C   UNL A   1      32.657  21.378  23.160  1.00  0.00     0.013 C 
BRANCH   8  13
ATOM     13  C   UNL A   1      31.828  23.647  26.861  1.00  0.00     0.228 C 
ATOM     14  N   UNL A   1      31.349  24.919  26.948  1.00  0.00    -0.310 N 
ATOM     15  H   UNL A   1      31.034  25.143  27.853  1.00  0.00     0.171 HD
ATOM     16  O   UNL A   1      31.839  22.957  27.886  1.00  0.00    -0.274 OA
BRANCH  14  17
ATOM     17  C   UNL A   1      31.201  25.978  26.051  1.00  0.00     0.132 A 
ATOM     18  C   UNL A   1      28.410  26.720  23.798  1.00  0.00     0.068 C 
ATOM     19  C   UNL A   1      29.772  26.844  24.414  1.00  0.00     0.054 A 
ATOM     20  N   UNL A   1      30.003  25.969  25.434  1.00  0.00    -0.235 NA
ATOM     21  C   UNL A   1      30.727  27.773  24.008  1.00  0.00     0.039 A 
ATOM     22  C   UNL A   1      31.923  27.828  24.712  1.00  0.00     0.021 A 
ATOM     23  Br  UNL A   1      30.507  28.958  22.551  1.00  0.00    -0.049 Br
ATOM     24  C   UNL A   1      32.153  26.939  25.760  1.00  0.00     0.048 A 
ENDBRANCH  14  17
ENDBRANCH   8  13
ENDBRANCH   4   7
ENDBRANCH   2   3
ENDBRANCH   1   2
BRANCH   1  25
ATOM     25  C   UNL A   1      38.856  20.228  25.801  1.00  0.00     0.118 C 
BRANCH  25  26
ATOM     26  N   UNL A   1      39.958  19.275  25.800  1.00  0.00    -0.352 N 
ATOM     27  C   UNL A   1      41.292  19.488  26.050  1.00  0.00     0.251 C 
ATOM     28  H   UNL A   1      39.711  18.344  25.589  1.00  0.00     0.163 HD
ATOM     29  O   UNL A   1      42.120  18.618  25.820  1.00  0.00    -0.269 OA
BRANCH  27  30
ATOM     30  C   UNL A   1      41.716  20.798  26.578  1.00  0.00     0.039 A 
ATOM     31  C   UNL A   1      42.161  21.778  25.689  1.00  0.00     0.014 A 
ATOM     32  C   UNL A   1      41.641  21.058  27.949  1.00  0.00     0.014 A 
ATOM     33  C   UNL A   1      42.464  23.051  26.172  1.00  0.00     0.010 A 
ATOM     34  C   UNL A   1      41.868  22.346  28.417  1.00  0.00     0.010 A 
ATOM     35  C   UNL A   1      42.291  23.349  27.534  1.00  0.00    -0.014 A 
BRANCH  35  36
ATOM     36  C   UNL A   1      42.582  24.702  28.059  1.00  0.00     0.031 A 
ATOM     37  C   UNL A   1      43.995  25.081  28.395  1.00  0.00     0.074 A 
ATOM     38  C   UNL A   1      41.575  25.568  28.274  1.00  0.00     0.049 A 
ATOM     39  N   UNL A   1      44.461  26.215  28.852  1.00  0.00    -0.248 NA
ATOM     40  C   UNL A   1      45.017  24.037  28.220  1.00  0.00     0.031 C 
ATOM     41  C   UNL A   1      40.156  25.298  28.035  1.00  0.00     0.029 A 
ATOM     42  N   UNL A   1      41.595  26.856  28.743  1.00  0.00    -0.354 N 
ATOM     43  C   UNL A   1      45.826  26.020  29.020  1.00  0.00     0.074 A 
ATOM     44  C   UNL A   1      46.102  24.640  28.681  1.00  0.00     0.031 C 
ATOM     45  C   UNL A   1      39.445  26.400  28.324  1.00  0.00     0.029 A 
ATOM     46  C   UNL A   1      40.354  27.443  28.787  1.00  0.00     0.049 A 
ATOM     47  H   UNL A   1      42.419  27.316  29.021  1.00  0.00     0.167 HD
ATOM     48  C   UNL A   1      46.770  26.914  29.393  1.00  0.00     0.037 A 
ATOM     49  C   UNL A   1      40.000  28.690  29.146  1.00  0.00     0.037 A 
ATOM     50  C   UNL A   1      46.497  28.288  29.715  1.00  0.00     0.049 A 
ATOM     51  C   UNL A   1      41.065  29.661  29.574  1.00  0.00     0.074 A 
ATOM     52  C   UNL A   1      47.387  29.295  30.042  1.00  0.00     0.029 A 
ATOM     53  N   UNL A   1      45.228  28.846  29.758  1.00  0.00    -0.354 N 
ATOM     54  N   UNL A   1      42.364  29.491  29.642  1.00  0.00    -0.248 NA
ATOM     55  C   UNL A   1      40.611  31.003  29.967  1.00  0.00     0.031 C 
ATOM     56  C   UNL A   1      46.652  30.455  30.319  1.00  0.00     0.029 A 
ATOM     57  C   UNL A   1      45.307  30.178  30.128  1.00  0.00     0.049 A 
ATOM     58  H   UNL A   1      44.393  28.366  29.554  1.00  0.00     0.167 HD
ATOM     59  C   UNL A   1      42.885  30.712  30.050  1.00  0.00     0.074 A 
ATOM     60  C   UNL A   1      41.762  31.614  30.204  1.00  0.00     0.031 C 
ATOM     61  C   UNL A   1      44.177  31.059  30.273  1.00  0.00     0.037 A 
BRANCH  48  62
ATOM     62  C   UNL A   1      48.182  26.415  29.465  1.00  0.00     0.057 A 
ATOM     63  C   UNL A   1      49.033  26.507  28.357  1.00  0.00     0.134 A 
ATOM     64  C   UNL A   1      48.712  25.867  30.642  1.00  0.00     0.134 A 
ATOM     65  F   UNL A   1      48.591  27.021  27.200  1.00  0.00    -0.206 F 
ATOM     66  C   UNL A   1      50.362  26.084  28.421  1.00  0.00     0.040 A 
ATOM     67  C   UNL A   1      50.045  25.465  30.727  1.00  0.00     0.040 A 
ATOM     68  F   UNL A   1      47.954  25.769  31.746  1.00  0.00    -0.206 F 
ATOM     69  C   UNL A   1      50.874  25.571  29.612  1.00  0.00     0.006 A 
ENDBRANCH  48  62
BRANCH  49  70
ATOM     70  C   UNL A   1      38.584  29.122  29.063  1.00  0.00     0.057 A 
ATOM     71  C   UNL A   1      37.733  29.078  30.172  1.00  0.00     0.134 A 
ATOM     72  C   UNL A   1      38.061  29.621  27.863  1.00  0.00     0.134 A 
ATOM     73  F   UNL A   1      38.173  28.606  31.347  1.00  0.00    -0.206 F 
ATOM     74  C   UNL A   1      36.410  29.519  30.092  1.00  0.00     0.040 A 
ATOM     75  C   UNL A   1      36.747  30.084  27.776  1.00  0.00     0.040 A 
ATOM     76  F   UNL A   1      38.837  29.704  26.773  1.00  0.00    -0.206 F 
ATOM     77  C   UNL A   1      35.917  30.032  28.894  1.00  0.00     0.006 A 
ENDBRANCH  49  70
BRANCH  61  78
ATOM     78  C   UNL A   1      44.434  32.482  30.671  1.00  0.00     0.057 A 
ATOM     79  C   UNL A   1      44.625  33.469  29.696  1.00  0.00     0.134 A 
ATOM     80  C   UNL A   1      44.488  32.877  32.013  1.00  0.00     0.134 A 
ATOM     81  F   UNL A   1      44.589  33.157  28.392  1.00  0.00    -0.206 F 
ATOM     82  C   UNL A   1      44.854  34.801  30.043  1.00  0.00     0.040 A 
ATOM     83  C   UNL A   1      44.691  34.209  32.372  1.00  0.00     0.040 A 
ATOM     84  F   UNL A   1      44.297  31.981  32.993  1.00  0.00    -0.206 F 
ATOM     85  C   UNL A   1      44.879  35.176  31.385  1.00  0.00     0.006 A 
ENDBRANCH  61  78
ENDBRANCH  35  36
ENDBRANCH  27  30
ENDBRANCH  25  26
ENDBRANCH   1  25
TORSDOF 12
ENDMDL
MODEL 2
REMARK VINA RESULT:     -12.3      1.283      2.125
REMARK SMILES Cc1nc(NC(=O)[C@@H]2CCC[C@@H](C(=O)NCCCNC(=O)c3ccc(-c4c5nc(c(-c6c(F)cccc6F)c6ccc([nH]6)c(-c6c(F)cccc6F)c6nc(c(-c7c(F)cccc7F)c7ccc4[nH]7)C=C6)C=C5)cc3)C2)ccc1Br
REMARK SMILES IDX 17 1 16 2 15 3 13 4 14 5 12 7 8 8 9 9 76 10 10 11 11 12 6 13
REMARK SMILES IDX 5 14 7 16 4 17 1 18 2 19 3 20 79 21 78 22 80 23 77 24 18 25
REMARK SMILES IDX 19 26 20 27 21 29 22 30 23 31 75 32 24 33 74 34 25 35 26 36
REMARK SMILES IDX 27 37 68 38 28 39 73 40 67 41 69 42 29 43 72 44 66 45 65 46
REMARK SMILES IDX 30 48 56 49 39 50 55 51 40 52 43 53 54 54 70 55 41 56 42 57
REMARK SMILES IDX 53 59 71 60 44 61 31 62 32 63 37 64 33 65 34 66 36 67 38 68
REMARK SMILES IDX 35 69 57 70 58 71 63 72 59 73 60 74 62 75 64 76 61 77 45 78
REMARK SMILES IDX 46 79 51 80 47 81 48 82 50 83 52 84 49 85
REMARK H PARENT 15 6 5 15 19 28 69 47 43 58
REMARK Flexibility Score: inf
ROOT
ATOM      1  C   UNL A   1      38.150  19.916  24.641  1.00  0.00     0.042 C 
ENDROOT
BRANCH   1   2
ATOM      2  C   UNL A   1      36.674  20.019  24.992  1.00  0.00     0.117 C 
BRANCH   2   3
ATOM      3  N   UNL A   1      36.352  21.327  25.538  1.00  0.00    -0.356 N 
ATOM      4  C   UNL A   1      35.137  21.874  25.819  1.00  0.00     0.223 C 
ATOM      5  O   UNL A   1      35.100  23.055  26.164  1.00  0.00    -0.275 OA
ATOM      6  H   UNL A   1      37.126  21.903  25.733  1.00  0.00     0.163 HD
BRANCH   4   7
ATOM      7  C   UNL A   1      33.899  20.980  25.777  1.00  0.00     0.079 C 
ATOM      8  C   UNL A   1      32.234  22.877  25.892  1.00  0.00     0.079 C 
ATOM      9  C   UNL A   1      31.604  22.417  24.574  1.00  0.00     0.013 C 
ATOM     10  C   UNL A   1      32.772  21.629  26.607  1.00  0.00     0.027 C 
ATOM     11  C   UNL A   1      32.682  21.841  23.663  1.00  0.00     0.002 C 
ATOM     12  C   UNL A   1      33.446  20.694  24.332  1.00  0.00     0.013 C 
BRANCH   8  13
ATOM     13  C   UNL A   1      31.286  23.698  26.750  1.00  0.00     0.228 C 
ATOM     14  N   UNL A   1      31.203  25.051  26.612  1.00  0.00    -0.310 N 
ATOM     15  H   UNL A   1      30.524  25.449  27.203  1.00  0.00     0.171 HD
ATOM     16  O   UNL A   1      30.553  23.151  27.580  1.00  0.00    -0.274 OA
BRANCH  14  17
ATOM     17  C   UNL A   1      31.858  26.002  25.829  1.00  0.00     0.132 A 
ATOM     18  C   UNL A   1      31.216  26.965  22.354  1.00  0.00     0.068 C 
ATOM     19  C   UNL A   1      31.925  26.911  23.674  1.00  0.00     0.054 A 
ATOM     20  N   UNL A   1      31.302  26.138  24.609  1.00  0.00    -0.235 NA
ATOM     21  C   UNL A   1      33.108  27.591  23.949  1.00  0.00     0.039 A 
ATOM     22  C   UNL A   1      33.622  27.511  25.237  1.00  0.00     0.021 A 
ATOM     23  Br  UNL A   1      34.070  28.611  22.680  1.00  0.00    -0.049 Br
ATOM     24  C   UNL A   1      32.977  26.728  26.194  1.00  0.00     0.048 A 
ENDBRANCH  14  17
ENDBRANCH   8  13
ENDBRANCH   4   7
ENDBRANCH   2   3
ENDBRANCH   1   2
BRANCH   1  25
ATOM     25  C   UNL A   1      39.064  20.080  25.848  1.00  0.00     0.118 C 
BRANCH  25  26
ATOM     26  N   UNL A   1      40.130  19.089  25.878  1.00  0.00    -0.352 N 
ATOM     27  C   UNL A   1      41.482  19.271  26.049  1.00  0.00     0.251 C 
ATOM     28  H   UNL A   1      39.841  18.154  25.758  1.00  0.00     0.163 HD
ATOM     29  O   UNL A   1      42.267  18.354  25.857  1.00  0.00    -0.269 OA
BRANCH  27  30
ATOM     30  C   UNL A   1      41.975  20.603  26.445  1.00  0.00     0.039 A 
ATOM     31  C   UNL A   1      42.287  21.534  25.454  1.00  0.00     0.014 A 
ATOM     32  C   UNL A   1      42.096  20.931  27.798  1.00  0.00     0.014 A 
ATOM     33  C   UNL A   1      42.655  22.828  25.824  1.00  0.00     0.010 A 
ATOM     34  C   UNL A   1      42.386  22.240  28.163  1.00  0.00     0.010 A 
ATOM     35  C   UNL A   1      42.677  23.195  27.180  1.00  0.00    -0.014 A 
BRANCH  35  36
ATOM     36  C   UNL A   1      43.039  24.571  27.589  1.00  0.00     0.031 A 
ATOM     37  C   UNL A   1      44.478  24.998  27.569  1.00  0.00     0.074 A 
ATOM     38  C   UNL A   1      42.083  25.415  28.019  1.00  0.00     0.049 A 
ATOM     39  N   UNL A   1      45.001  26.158  27.876  1.00  0.00    -0.248 NA
ATOM     40  C   UNL A   1      45.464  23.978  27.179  1.00  0.00     0.031 C 
ATOM     41  C   UNL A   1      40.658  25.099  28.131  1.00  0.00     0.029 A 
ATOM     42  N   UNL A   1      42.170  26.716  28.439  1.00  0.00    -0.354 N 
ATOM     43  C   UNL A   1      46.371  26.005  27.717  1.00  0.00     0.074 A 
ATOM     44  C   UNL A   1      46.606  24.624  27.353  1.00  0.00     0.031 C 
ATOM     45  C   UNL A   1      40.000  26.189  28.557  1.00  0.00     0.029 A 
ATOM     46  C   UNL A   1      40.956  27.270  28.766  1.00  0.00     0.049 A 
ATOM     47  H   UNL A   1      43.021  27.208  28.503  1.00  0.00     0.167 HD
ATOM     48  C   UNL A   1      47.347  26.937  27.833  1.00  0.00     0.037 A 
ATOM     49  C   UNL A   1      40.656  28.518  29.171  1.00  0.00     0.037 A 
ATOM     50  C   UNL A   1      47.111  28.311  28.180  1.00  0.00     0.049 A 
ATOM     51  C   UNL A   1      41.759  29.530  29.309  1.00  0.00     0.074 A 
ATOM     52  C   UNL A   1      48.019  29.352  28.261  1.00  0.00     0.029 A 
ATOM     53  N   UNL A   1      45.871  28.836  28.512  1.00  0.00    -0.354 N 
ATOM     54  N   UNL A   1      43.042  29.398  29.069  1.00  0.00    -0.248 NA
ATOM     55  C   UNL A   1      41.366  30.869  29.769  1.00  0.00     0.031 C 
ATOM     56  C   UNL A   1      47.333  30.499  28.679  1.00  0.00     0.029 A 
ATOM     57  C   UNL A   1      45.991  30.180  28.822  1.00  0.00     0.049 A 
ATOM     58  H   UNL A   1      45.028  28.326  28.525  1.00  0.00     0.167 HD
ATOM     59  C   UNL A   1      43.603  30.644  29.312  1.00  0.00     0.074 A 
ATOM     60  C   UNL A   1      42.519  31.520  29.710  1.00  0.00     0.031 C 
ATOM     61  C   UNL A   1      44.899  31.033  29.212  1.00  0.00     0.037 A 
BRANCH  48  62
ATOM     62  C   UNL A   1      48.752  26.479  27.577  1.00  0.00     0.057 A 
ATOM     63  C   UNL A   1      49.556  26.013  28.623  1.00  0.00     0.134 A 
ATOM     64  C   UNL A   1      49.301  26.472  26.287  1.00  0.00     0.134 A 
ATOM     65  F   UNL A   1      49.093  25.991  29.881  1.00  0.00    -0.206 F 
ATOM     66  C   UNL A   1      50.852  25.545  28.394  1.00  0.00     0.040 A 
ATOM     67  C   UNL A   1      50.585  25.983  26.041  1.00  0.00     0.040 A 
ATOM     68  F   UNL A   1      48.575  26.889  25.237  1.00  0.00    -0.206 F 
ATOM     69  C   UNL A   1      51.365  25.519  27.098  1.00  0.00     0.006 A 
ENDBRANCH  48  62
BRANCH  49  70
ATOM     70  C   UNL A   1      39.247  28.907  29.418  1.00  0.00     0.057 A 
ATOM     71  C   UNL A   1      38.443  29.446  28.409  1.00  0.00     0.134 A 
ATOM     72  C   UNL A   1      38.665  28.714  30.678  1.00  0.00     0.134 A 
ATOM     73  F   UNL A   1      38.943  29.659  27.184  1.00  0.00    -0.206 F 
ATOM     74  C   UNL A   1      37.106  29.778  28.643  1.00  0.00     0.040 A 
ATOM     75  C   UNL A   1      37.326  29.022  30.919  1.00  0.00     0.040 A 
ATOM     76  F   UNL A   1      39.384  28.183  31.677  1.00  0.00    -0.206 F 
ATOM     77  C   UNL A   1      36.542  29.557  29.898  1.00  0.00     0.006 A 
ENDBRANCH  49  70
BRANCH  61  78
ATOM     78  C   UNL A   1      45.194  32.474  29.505  1.00  0.00     0.057 A 
ATOM     79  C   UNL A   1      45.565  32.876  30.794  1.00  0.00     0.134 A 
ATOM     80  C   UNL A   1      45.116  33.461  28.514  1.00  0.00     0.134 A 
ATOM     81  F   UNL A   1      45.654  31.981  31.789  1.00  0.00    -0.206 F 
ATOM     82  C   UNL A   1      45.855  34.210  31.086  1.00  0.00     0.040 A 
ATOM     83  C   UNL A   1      45.429  34.793  28.788  1.00  0.00     0.040 A 
ATOM     84  F   UNL A   1      44.782  33.136  27.257  1.00  0.00    -0.206 F 
ATOM     85  C   UNL A   1      45.796  35.171  30.079  1.00  0.00     0.006 A 
ENDBRANCH  61  78
ENDBRANCH  35  36
ENDBRANCH  27  30
ENDBRANCH  25  26
ENDBRANCH   1  25
TORSDOF 12
ENDMDL
MODEL 3
REMARK VINA RESULT:     -12.2      1.254      6.272
REMARK SMILES Cc1nc(NC(=O)[C@@H]2CCC[C@@H](C(=O)NCCCNC(=O)c3ccc(-c4c5nc(c(-c6c(F)cccc6F)c6ccc([nH]6)c(-c6c(F)cccc6F)c6nc(c(-c7c(F)cccc7F)c7ccc4[nH]7)C=C6)C=C5)cc3)C2)ccc1Br
REMARK SMILES IDX 17 1 16 2 15 3 13 4 14 5 12 7 8 8 9 9 76 10 10 11 11 12 6 13
REMARK SMILES IDX 5 14 7 16 4 17 1 18 2 19 3 20 79 21 78 22 80 23 77 24 18 25
REMARK SMILES IDX 19 26 20 27 21 29 22 30 23 31 75 32 24 33 74 34 25 35 26 36
REMARK SMILES IDX 27 37 68 38 28 39 73 40 67 41 69 42 29 43 72 44 66 45 65 46
REMARK SMILES IDX 30 48 56 49 39 50 55 51 40 52 43 53 54 54 70 55 41 56 42 57
REMARK SMILES IDX 53 59 71 60 44 61 31 62 32 63 37 64 33 65 34 66 36 67 38 68
REMARK SMILES IDX 35 69 57 70 58 71 63 72 59 73 60 74 62 75 64 76 61 77 45 78
REMARK SMILES IDX 46 79 51 80 47 81 48 82 50 83 52 84 49 85
REMARK H PARENT 15 6 5 15 19 28 69 47 43 58
REMARK Flexibility Score: inf
ROOT
ATOM      1  C   UNL A   1      37.715  20.100  24.855  1.00  0.00     0.042 C 
ENDROOT
BRANCH   1   2
ATOM      2  C   UNL A   1      36.393  20.671  25.345  1.00  0.00     0.117 C 
BRANCH   2   3
ATOM      3  N   UNL A   1      36.030  21.869  24.606  1.00  0.00    -0.356 N 
ATOM      4  C   UNL A   1      34.854  22.190  23.998  1.00  0.00     0.223 C 
ATOM      5  O   UNL A   1      34.814  23.215  23.320  1.00  0.00    -0.275 OA
ATOM      6  H   UNL A   1      36.738  22.549  24.534  1.00  0.00     0.163 HD
BRANCH   4   7
ATOM      7  C   UNL A   1      33.629  21.313  24.256  1.00  0.00     0.079 C 
ATOM      8  C   UNL A   1      32.323  23.090  25.487  1.00  0.00     0.079 C 
ATOM      9  C   UNL A   1      31.180  22.966  24.476  1.00  0.00     0.013 C 
ATOM     10  C   UNL A   1      32.990  21.712  25.602  1.00  0.00     0.027 C 
ATOM     11  C   UNL A   1      31.748  22.656  23.094  1.00  0.00     0.002 C 
ATOM     12  C   UNL A   1      32.613  21.392  23.100  1.00  0.00     0.013 C 
BRANCH   8  13
ATOM     13  C   UNL A   1      31.873  23.652  26.826  1.00  0.00     0.228 C 
ATOM     14  N   UNL A   1      31.387  24.920  26.931  1.00  0.00    -0.310 N 
ATOM     15  H   UNL A   1      31.098  25.139  27.846  1.00  0.00     0.171 HD
ATOM     16  O   UNL A   1      31.920  22.960  27.848  1.00  0.00    -0.274 OA
BRANCH  14  17
ATOM     17  C   UNL A   1      31.204  25.979  26.042  1.00  0.00     0.132 A 
ATOM     18  C   UNL A   1      28.340  26.704  23.875  1.00  0.00     0.068 C 
ATOM     19  C   UNL A   1      29.718  26.838  24.451  1.00  0.00     0.054 A 
ATOM     20  N   UNL A   1      29.988  25.962  25.460  1.00  0.00    -0.235 NA
ATOM     21  C   UNL A   1      30.653  27.775  24.019  1.00  0.00     0.039 A 
ATOM     22  C   UNL A   1      31.869  27.840  24.687  1.00  0.00     0.021 A 
ATOM     23  Br  UNL A   1      30.380  28.963  22.572  1.00  0.00    -0.049 Br
ATOM     24  C   UNL A   1      32.138  26.949  25.725  1.00  0.00     0.048 A 
ENDBRANCH  14  17
ENDBRANCH   8  13
ENDBRANCH   4   7
ENDBRANCH   2   3
ENDBRANCH   1   2
BRANCH   1  25
ATOM     25  C   UNL A   1      38.891  20.462  25.752  1.00  0.00     0.118 C 
BRANCH  25  26
ATOM     26  N   UNL A   1      39.846  19.370  25.887  1.00  0.00    -0.352 N 
ATOM     27  C   UNL A   1      41.204  19.424  26.094  1.00  0.00     0.251 C 
ATOM     28  H   UNL A   1      39.464  18.465  25.820  1.00  0.00     0.163 HD
ATOM     29  O   UNL A   1      41.893  18.419  25.992  1.00  0.00    -0.269 OA
BRANCH  27  30
ATOM     30  C   UNL A   1      41.823  20.722  26.417  1.00  0.00     0.039 A 
ATOM     31  C   UNL A   1      42.202  21.572  25.377  1.00  0.00     0.014 A 
ATOM     32  C   UNL A   1      41.996  21.103  27.751  1.00  0.00     0.014 A 
ATOM     33  C   UNL A   1      42.692  22.843  25.678  1.00  0.00     0.010 A 
ATOM     34  C   UNL A   1      42.411  22.395  28.047  1.00  0.00     0.010 A 
ATOM     35  C   UNL A   1      42.771  23.271  27.014  1.00  0.00    -0.014 A 
BRANCH  35  36
ATOM     36  C   UNL A   1      43.264  24.626  27.349  1.00  0.00     0.031 A 
ATOM     37  C   UNL A   1      42.294  25.682  27.793  1.00  0.00     0.074 A 
ATOM     38  C   UNL A   1      44.571  24.917  27.209  1.00  0.00     0.049 A 
ATOM     39  N   UNL A   1      42.523  26.922  28.143  1.00  0.00    -0.248 NA
ATOM     40  C   UNL A   1      40.873  25.302  27.822  1.00  0.00     0.031 C 
ATOM     41  C   UNL A   1      45.602  23.990  26.737  1.00  0.00     0.029 A 
ATOM     42  N   UNL A   1      45.254  26.079  27.455  1.00  0.00    -0.354 N 
ATOM     43  C   UNL A   1      41.279  27.466  28.431  1.00  0.00     0.074 A 
ATOM     44  C   UNL A   1      40.293  26.445  28.150  1.00  0.00     0.031 C 
ATOM     45  C   UNL A   1      46.793  24.611  26.761  1.00  0.00     0.029 A 
ATOM     46  C   UNL A   1      46.606  25.979  27.231  1.00  0.00     0.049 A 
ATOM     47  H   UNL A   1      44.819  26.907  27.762  1.00  0.00     0.167 HD
ATOM     48  C   UNL A   1      40.984  28.695  28.915  1.00  0.00     0.037 A 
ATOM     49  C   UNL A   1      47.580  26.891  27.404  1.00  0.00     0.037 A 
ATOM     50  C   UNL A   1      41.965  29.704  29.207  1.00  0.00     0.049 A 
ATOM     51  C   UNL A   1      47.225  28.255  27.925  1.00  0.00     0.074 A 
ATOM     52  C   UNL A   1      41.781  30.958  29.761  1.00  0.00     0.029 A 
ATOM     53  N   UNL A   1      43.324  29.572  28.960  1.00  0.00    -0.354 N 
ATOM     54  N   UNL A   1      46.055  28.729  28.280  1.00  0.00    -0.248 NA
ATOM     55  C   UNL A   1      48.333  29.208  28.078  1.00  0.00     0.031 C 
ATOM     56  C   UNL A   1      43.024  31.599  29.815  1.00  0.00     0.029 A 
ATOM     57  C   UNL A   1      43.988  30.729  29.329  1.00  0.00     0.049 A 
ATOM     58  H   UNL A   1      43.753  28.771  28.580  1.00  0.00     0.167 HD
ATOM     59  C   UNL A   1      46.290  30.021  28.731  1.00  0.00     0.074 A 
ATOM     60  C   UNL A   1      47.716  30.251  28.613  1.00  0.00     0.031 C 
ATOM     61  C   UNL A   1      45.408  30.936  29.205  1.00  0.00     0.037 A 
BRANCH  48  62
ATOM     62  C   UNL A   1      39.534  28.997  29.153  1.00  0.00     0.057 A 
ATOM     63  C   UNL A   1      38.714  29.440  28.109  1.00  0.00     0.134 A 
ATOM     64  C   UNL A   1      38.942  28.821  30.412  1.00  0.00     0.134 A 
ATOM     65  F   UNL A   1      39.216  29.629  26.880  1.00  0.00    -0.206 F 
ATOM     66  C   UNL A   1      37.353  29.686  28.306  1.00  0.00     0.040 A 
ATOM     67  C   UNL A   1      37.578  29.038  30.615  1.00  0.00     0.040 A 
ATOM     68  F   UNL A   1      39.670  28.381  31.449  1.00  0.00    -0.206 F 
ATOM     69  C   UNL A   1      36.780  29.474  29.559  1.00  0.00     0.006 A 
ENDBRANCH  48  62
BRANCH  49  70
ATOM     70  C   UNL A   1      48.995  26.534  27.141  1.00  0.00     0.057 A 
ATOM     71  C   UNL A   1      49.805  25.954  28.123  1.00  0.00     0.134 A 
ATOM     72  C   UNL A   1      49.560  26.743  25.876  1.00  0.00     0.134 A 
ATOM     73  F   UNL A   1      49.324  25.734  29.355  1.00  0.00    -0.206 F 
ATOM     74  C   UNL A   1      51.126  25.590  27.856  1.00  0.00     0.040 A 
ATOM     75  C   UNL A   1      50.872  26.365  25.590  1.00  0.00     0.040 A 
ATOM     76  F   UNL A   1      48.824  27.277  24.891  1.00  0.00    -0.206 F 
ATOM     77  C   UNL A   1      51.660  25.787  26.584  1.00  0.00     0.006 A 
ENDBRANCH  49  70
BRANCH  61  78
ATOM     78  C   UNL A   1      45.976  32.247  29.661  1.00  0.00     0.057 A 
ATOM     79  C   UNL A   1      46.419  32.410  30.980  1.00  0.00     0.134 A 
ATOM     80  C   UNL A   1      46.089  33.344  28.798  1.00  0.00     0.134 A 
ATOM     81  F   UNL A   1      46.334  31.399  31.858  1.00  0.00    -0.206 F 
ATOM     82  C   UNL A   1      46.961  33.617  31.422  1.00  0.00     0.040 A 
ATOM     83  C   UNL A   1      46.653  34.548  29.222  1.00  0.00     0.040 A 
ATOM     84  F   UNL A   1      45.698  33.245  27.519  1.00  0.00    -0.206 F 
ATOM     85  C   UNL A   1      47.087  34.688  30.540  1.00  0.00     0.006 A 
ENDBRANCH  61  78
ENDBRANCH  35  36
ENDBRANCH  27  30
ENDBRANCH  25  26
ENDBRANCH   1  25
TORSDOF 12
ENDMDL
