MODEL 1
REMARK VINA RESULT:     -12.5      0.000      0.000
REMARK SMILES C[C@H]1OCC[C@@H]1C(=O)Nc1sc2c(c1C(=O)NCCCNC(=O)c1ccc(-c3c4nc(c(-c5c(F)cccc5F)c5ccc([nH]5)c(-c5c(F)cccc5F)c5nc(c(-c6c(F)cccc6F)c6ccc3[nH]6)C=C5)C=C4)cc1)CCC2
REMARK SMILES IDX 19 1 18 2 17 3 15 4 16 5 14 7 10 8 11 9 12 10 13 11 80 12
REMARK SMILES IDX 78 13 79 14 9 15 7 16 8 17 6 19 1 20 2 21 3 22 4 23 5 24
REMARK SMILES IDX 20 25 21 26 22 27 23 29 24 30 25 31 77 32 26 33 76 34 27 35
REMARK SMILES IDX 28 36 29 37 70 38 30 39 75 40 69 41 71 42 31 43 74 44 68 45
REMARK SMILES IDX 67 46 32 48 58 49 41 50 57 51 42 52 45 53 56 54 72 55 43 56
REMARK SMILES IDX 44 57 55 59 73 60 46 61 33 62 34 63 39 64 35 65 36 66 38 67
REMARK SMILES IDX 40 68 37 69 59 70 60 71 65 72 61 73 62 74 64 75 66 76 63 77
REMARK SMILES IDX 47 78 48 79 53 80 49 81 50 82 52 83 54 84 51 85
REMARK H PARENT 17 6 9 18 21 28 71 47 45 58
REMARK Flexibility Score: inf
ROOT
ATOM      1  C   UNL A   1      37.872  20.051  24.691  1.00  0.00     0.042 C 
ENDROOT
BRANCH   1   2
ATOM      2  C   UNL A   1      36.861  21.190  24.551  1.00  0.00     0.118 C 
BRANCH   2   3
ATOM      3  N   UNL A   1      36.451  21.788  25.799  1.00  0.00    -0.352 N 
ATOM      4  C   UNL A   1      35.211  22.083  26.302  1.00  0.00     0.254 C 
ATOM      5  O   UNL A   1      35.143  22.020  27.534  1.00  0.00    -0.269 OA
ATOM      6  H   UNL A   1      37.196  22.026  26.397  1.00  0.00     0.163 HD
BRANCH   4   7
ATOM      7  C   UNL A   1      34.038  22.475  25.506  1.00  0.00     0.078 A 
ATOM      8  C   UNL A   1      32.982  21.567  25.329  1.00  0.00     0.108 A 
ATOM      9  S   UNL A   1      31.990  21.912  23.973  1.00  0.00    -0.122 S 
ATOM     10  C   UNL A   1      32.688  23.413  23.846  1.00  0.00     0.011 A 
ATOM     11  C   UNL A   1      33.727  23.640  24.717  1.00  0.00    -0.019 A 
ATOM     12  C   UNL A   1      32.407  24.515  22.896  1.00  0.00     0.047 C 
ATOM     13  C   UNL A   1      34.259  25.006  24.448  1.00  0.00     0.038 C 
ATOM     14  C   UNL A   1      33.165  25.675  23.573  1.00  0.00     0.010 C 
BRANCH   8  15
ATOM     15  N   UNL A   1      32.638  20.360  25.886  1.00  0.00    -0.317 N 
ATOM     16  C   UNL A   1      32.707  19.095  25.392  1.00  0.00     0.230 C 
ATOM     17  O   UNL A   1      32.273  18.197  26.131  1.00  0.00    -0.274 OA
ATOM     18  H   UNL A   1      32.278  20.420  26.800  1.00  0.00     0.170 HD
BRANCH  16  19
ATOM     19  C   UNL A   1      33.395  18.668  24.096  1.00  0.00     0.110 C 
ATOM     20  C   UNL A   1      32.462  18.521  21.751  1.00  0.00     0.039 C 
ATOM     21  C   UNL A   1      32.512  17.880  23.139  1.00  0.00     0.127 C 
ATOM     22  O   UNL A   1      33.100  16.575  23.023  1.00  0.00    -0.378 OA
ATOM     23  C   UNL A   1      34.493  16.688  23.311  1.00  0.00     0.161 C 
ATOM     24  C   UNL A   1      34.677  17.885  24.216  1.00  0.00     0.044 C 
ENDBRANCH  16  19
ENDBRANCH   8  15
ENDBRANCH   4   7
ENDBRANCH   2   3
ENDBRANCH   1   2
BRANCH   1  25
ATOM     25  C   UNL A   1      38.881  20.308  25.790  1.00  0.00     0.118 C 
BRANCH  25  26
ATOM     26  N   UNL A   1      39.938  19.290  25.801  1.00  0.00    -0.352 N 
ATOM     27  C   UNL A   1      41.296  19.440  26.003  1.00  0.00     0.251 C 
ATOM     28  H   UNL A   1      39.635  18.368  25.642  1.00  0.00     0.163 HD
ATOM     29  O   UNL A   1      42.077  18.559  25.696  1.00  0.00    -0.269 OA
BRANCH  27  30
ATOM     30  C   UNL A   1      41.778  20.698  26.593  1.00  0.00     0.039 A 
ATOM     31  C   UNL A   1      42.411  21.672  25.815  1.00  0.00     0.014 A 
ATOM     32  C   UNL A   1      41.543  20.902  27.946  1.00  0.00     0.014 A 
ATOM     33  C   UNL A   1      42.732  22.891  26.403  1.00  0.00     0.010 A 
ATOM     34  C   UNL A   1      41.666  22.158  28.461  1.00  0.00     0.010 A 
ATOM     35  C   UNL A   1      42.338  23.127  27.725  1.00  0.00    -0.014 A 
BRANCH  35  36
ATOM     36  C   UNL A   1      42.501  24.430  28.357  1.00  0.00     0.031 A 
ATOM     37  C   UNL A   1      41.374  25.372  28.115  1.00  0.00     0.074 A 
ATOM     38  C   UNL A   1      43.445  24.614  29.307  1.00  0.00     0.049 A 
ATOM     39  N   UNL A   1      41.423  26.538  27.561  1.00  0.00    -0.248 NA
ATOM     40  C   UNL A   1      40.001  24.908  28.391  1.00  0.00     0.031 C 
ATOM     41  C   UNL A   1      44.407  23.630  29.826  1.00  0.00     0.029 A 
ATOM     42  N   UNL A   1      43.639  25.674  30.135  1.00  0.00    -0.354 N 
ATOM     43  C   UNL A   1      40.129  27.048  27.632  1.00  0.00     0.074 A 
ATOM     44  C   UNL A   1      39.274  25.937  27.951  1.00  0.00     0.031 C 
ATOM     45  C   UNL A   1      44.877  24.041  31.024  1.00  0.00     0.029 A 
ATOM     46  C   UNL A   1      44.388  25.380  31.275  1.00  0.00     0.049 A 
ATOM     47  H   UNL A   1      43.282  26.572  29.947  1.00  0.00     0.167 HD
ATOM     48  C   UNL A   1      39.909  28.390  27.694  1.00  0.00     0.037 A 
ATOM     49  C   UNL A   1      44.531  26.175  32.365  1.00  0.00     0.037 A 
ATOM     50  C   UNL A   1      41.077  29.125  27.276  1.00  0.00     0.049 A 
ATOM     51  C   UNL A   1      44.162  27.552  31.946  1.00  0.00     0.074 A 
ATOM     52  C   UNL A   1      41.841  29.150  26.124  1.00  0.00     0.029 A 
ATOM     53  N   UNL A   1      41.858  29.697  28.252  1.00  0.00    -0.354 N 
ATOM     54  N   UNL A   1      44.854  28.255  31.091  1.00  0.00    -0.248 NA
ATOM     55  C   UNL A   1      42.768  27.946  32.094  1.00  0.00     0.031 C 
ATOM     56  C   UNL A   1      43.188  29.256  26.581  1.00  0.00     0.029 A 
ATOM     57  C   UNL A   1      43.162  29.379  27.970  1.00  0.00     0.049 A 
ATOM     58  H   UNL A   1      41.539  30.233  29.012  1.00  0.00     0.167 HD
ATOM     59  C   UNL A   1      43.903  28.866  30.286  1.00  0.00     0.074 A 
ATOM     60  C   UNL A   1      42.636  28.698  30.998  1.00  0.00     0.031 C 
ATOM     61  C   UNL A   1      44.173  29.174  28.982  1.00  0.00     0.037 A 
BRANCH  48  62
ATOM     62  C   UNL A   1      38.808  29.034  28.507  1.00  0.00     0.057 A 
ATOM     63  C   UNL A   1      38.693  28.712  29.872  1.00  0.00     0.134 A 
ATOM     64  C   UNL A   1      37.695  29.703  27.958  1.00  0.00     0.134 A 
ATOM     65  F   UNL A   1      39.680  28.066  30.512  1.00  0.00    -0.206 F 
ATOM     66  C   UNL A   1      37.527  28.956  30.607  1.00  0.00     0.040 A 
ATOM     67  C   UNL A   1      36.547  30.001  28.697  1.00  0.00     0.040 A 
ATOM     68  F   UNL A   1      37.607  30.017  26.660  1.00  0.00    -0.206 F 
ATOM     69  C   UNL A   1      36.445  29.594  30.016  1.00  0.00     0.006 A 
ENDBRANCH  48  62
BRANCH  49  70
ATOM     70  C   UNL A   1      44.637  25.772  33.790  1.00  0.00     0.057 A 
ATOM     71  C   UNL A   1      45.872  25.799  34.456  1.00  0.00     0.134 A 
ATOM     72  C   UNL A   1      43.504  25.615  34.611  1.00  0.00     0.134 A 
ATOM     73  F   UNL A   1      47.010  25.980  33.771  1.00  0.00    -0.206 F 
ATOM     74  C   UNL A   1      45.972  25.709  35.852  1.00  0.00     0.040 A 
ATOM     75  C   UNL A   1      43.591  25.514  36.004  1.00  0.00     0.040 A 
ATOM     76  F   UNL A   1      42.265  25.644  34.101  1.00  0.00    -0.206 F 
ATOM     77  C   UNL A   1      44.827  25.578  36.631  1.00  0.00     0.006 A 
ENDBRANCH  49  70
BRANCH  61  78
ATOM     78  C   UNL A   1      45.594  29.055  28.498  1.00  0.00     0.057 A 
ATOM     79  C   UNL A   1      46.141  27.897  27.922  1.00  0.00     0.134 A 
ATOM     80  C   UNL A   1      46.384  30.208  28.455  1.00  0.00     0.134 A 
ATOM     81  F   UNL A   1      45.429  26.769  27.819  1.00  0.00    -0.206 F 
ATOM     82  C   UNL A   1      47.426  27.879  27.370  1.00  0.00     0.040 A 
ATOM     83  C   UNL A   1      47.655  30.213  27.875  1.00  0.00     0.040 A 
ATOM     84  F   UNL A   1      45.908  31.370  28.932  1.00  0.00    -0.206 F 
ATOM     85  C   UNL A   1      48.184  29.043  27.338  1.00  0.00     0.006 A 
ENDBRANCH  61  78
ENDBRANCH  35  36
ENDBRANCH  27  30
ENDBRANCH  25  26
ENDBRANCH   1  25
TORSDOF 12
ENDMDL
MODEL 2
REMARK VINA RESULT:     -12.3      5.098      9.642
REMARK SMILES C[C@H]1OCC[C@@H]1C(=O)Nc1sc2c(c1C(=O)NCCCNC(=O)c1ccc(-c3c4nc(c(-c5c(F)cccc5F)c5ccc([nH]5)c(-c5c(F)cccc5F)c5nc(c(-c6c(F)cccc6F)c6ccc3[nH]6)C=C5)C=C4)cc1)CCC2
REMARK SMILES IDX 19 1 18 2 17 3 15 4 16 5 14 7 10 8 11 9 12 10 13 11 80 12
REMARK SMILES IDX 78 13 79 14 9 15 7 16 8 17 6 19 1 20 2 21 3 22 4 23 5 24
REMARK SMILES IDX 20 25 21 26 22 27 23 29 24 30 25 31 77 32 26 33 76 34 27 35
REMARK SMILES IDX 28 36 29 37 70 38 30 39 75 40 69 41 71 42 31 43 74 44 68 45
REMARK SMILES IDX 67 46 32 48 58 49 41 50 57 51 42 52 45 53 56 54 72 55 43 56
REMARK SMILES IDX 44 57 55 59 73 60 46 61 33 62 34 63 39 64 35 65 36 66 38 67
REMARK SMILES IDX 40 68 37 69 59 70 60 71 65 72 61 73 62 74 64 75 66 76 63 77
REMARK SMILES IDX 47 78 48 79 53 80 49 81 50 82 52 83 54 84 51 85
REMARK H PARENT 17 6 9 18 21 28 71 47 45 58
REMARK Flexibility Score: inf
ROOT
ATOM      1  C   UNL A   1      31.485  31.650  26.406  1.00  0.00     0.042 C 
ENDROOT
BRANCH   1   2
ATOM      2  C   UNL A   1      31.602  30.134  26.238  1.00  0.00     0.118 C 
BRANCH   2   3
ATOM      3  N   UNL A   1      32.879  29.681  25.742  1.00  0.00    -0.352 N 
ATOM      4  C   UNL A   1      33.206  28.766  24.774  1.00  0.00     0.254 C 
ATOM      5  O   UNL A   1      34.264  29.019  24.186  1.00  0.00    -0.269 OA
ATOM      6  H   UNL A   1      33.655  30.104  26.176  1.00  0.00     0.163 HD
BRANCH   4   7
ATOM      7  C   UNL A   1      32.431  27.563  24.440  1.00  0.00     0.078 A 
ATOM      8  C   UNL A   1      31.515  27.599  23.376  1.00  0.00     0.108 A 
ATOM      9  S   UNL A   1      30.316  26.374  23.452  1.00  0.00    -0.122 S 
ATOM     10  C   UNL A   1      31.191  25.592  24.626  1.00  0.00     0.011 A 
ATOM     11  C   UNL A   1      32.308  26.266  25.056  1.00  0.00    -0.019 A 
ATOM     12  C   UNL A   1      30.914  24.315  25.324  1.00  0.00     0.047 C 
ATOM     13  C   UNL A   1      32.952  25.450  26.125  1.00  0.00     0.038 C 
ATOM     14  C   UNL A   1      32.279  24.058  25.997  1.00  0.00     0.010 C 
BRANCH   8  15
ATOM     15  N   UNL A   1      31.241  28.483  22.362  1.00  0.00    -0.317 N 
ATOM     16  C   UNL A   1      30.190  29.325  22.169  1.00  0.00     0.230 C 
ATOM     17  O   UNL A   1      30.203  29.980  21.115  1.00  0.00    -0.274 OA
ATOM     18  H   UNL A   1      31.922  28.513  21.652  1.00  0.00     0.170 HD
BRANCH  16  19
ATOM     19  C   UNL A   1      29.090  29.641  23.181  1.00  0.00     0.110 C 
ATOM     20  C   UNL A   1      26.905  28.446  23.613  1.00  0.00     0.039 C 
ATOM     21  C   UNL A   1      27.675  29.385  22.683  1.00  0.00     0.127 C 
ATOM     22  O   UNL A   1      27.013  30.658  22.661  1.00  0.00    -0.378 OA
ATOM     23  C   UNL A   1      27.649  31.506  23.617  1.00  0.00     0.161 C 
ATOM     24  C   UNL A   1      29.074  31.026  23.778  1.00  0.00     0.044 C 
ENDBRANCH  16  19
ENDBRANCH   8  15
ENDBRANCH   4   7
ENDBRANCH   2   3
ENDBRANCH   1   2
BRANCH   1  25
ATOM     25  C   UNL A   1      32.594  32.222  27.262  1.00  0.00     0.118 C 
BRANCH  25  26
ATOM     26  N   UNL A   1      32.362  33.638  27.571  1.00  0.00    -0.352 N 
ATOM     27  C   UNL A   1      33.037  34.465  28.447  1.00  0.00     0.251 C 
ATOM     28  H   UNL A   1      31.617  34.058  27.084  1.00  0.00     0.163 HD
ATOM     29  O   UNL A   1      32.553  35.520  28.812  1.00  0.00    -0.269 OA
BRANCH  27  30
ATOM     30  C   UNL A   1      34.356  34.036  28.934  1.00  0.00     0.039 A 
ATOM     31  C   UNL A   1      34.511  33.447  30.193  1.00  0.00     0.014 A 
ATOM     32  C   UNL A   1      35.439  34.196  28.080  1.00  0.00     0.014 A 
ATOM     33  C   UNL A   1      35.760  32.949  30.548  1.00  0.00     0.010 A 
ATOM     34  C   UNL A   1      36.597  33.528  28.341  1.00  0.00     0.010 A 
ATOM     35  C   UNL A   1      36.792  32.980  29.603  1.00  0.00    -0.014 A 
BRANCH  35  36
ATOM     36  C   UNL A   1      38.078  32.341  29.846  1.00  0.00     0.031 A 
ATOM     37  C   UNL A   1      38.150  30.922  29.400  1.00  0.00     0.074 A 
ATOM     38  C   UNL A   1      39.162  33.085  30.162  1.00  0.00     0.049 A 
ATOM     39  N   UNL A   1      38.411  29.880  30.118  1.00  0.00    -0.248 NA
ATOM     40  C   UNL A   1      37.741  30.600  28.019  1.00  0.00     0.031 C 
ATOM     41  C   UNL A   1      39.239  34.545  30.321  1.00  0.00     0.029 A 
ATOM     42  N   UNL A   1      40.467  32.715  30.246  1.00  0.00    -0.354 N 
ATOM     43  C   UNL A   1      38.429  28.804  29.233  1.00  0.00     0.074 A 
ATOM     44  C   UNL A   1      37.811  29.267  28.020  1.00  0.00     0.031 C 
ATOM     45  C   UNL A   1      40.523  34.948  30.213  1.00  0.00     0.029 A 
ATOM     46  C   UNL A   1      41.369  33.774  30.150  1.00  0.00     0.049 A 
ATOM     47  H   UNL A   1      40.751  31.781  30.364  1.00  0.00     0.167 HD
ATOM     48  C   UNL A   1      39.201  27.709  29.480  1.00  0.00     0.037 A 
ATOM     49  C   UNL A   1      42.710  33.670  29.969  1.00  0.00     0.037 A 
ATOM     50  C   UNL A   1      39.603  27.663  30.864  1.00  0.00     0.049 A 
ATOM     51  C   UNL A   1      43.091  32.288  30.359  1.00  0.00     0.074 A 
ATOM     52  C   UNL A   1      38.924  27.645  32.068  1.00  0.00     0.029 A 
ATOM     53  N   UNL A   1      40.890  28.039  31.169  1.00  0.00    -0.354 N 
ATOM     54  N   UNL A   1      43.016  31.837  31.581  1.00  0.00    -0.248 NA
ATOM     55  C   UNL A   1      43.076  31.271  29.317  1.00  0.00     0.031 C 
ATOM     56  C   UNL A   1      39.685  28.490  32.930  1.00  0.00     0.029 A 
ATOM     57  C   UNL A   1      40.823  28.899  32.235  1.00  0.00     0.049 A 
ATOM     58  H   UNL A   1      41.708  27.744  30.707  1.00  0.00     0.167 HD
ATOM     59  C   UNL A   1      42.505  30.553  31.453  1.00  0.00     0.074 A 
ATOM     60  C   UNL A   1      42.632  30.233  30.031  1.00  0.00     0.031 C 
ATOM     61  C   UNL A   1      41.745  29.992  32.441  1.00  0.00     0.037 A 
BRANCH  48  62
ATOM     62  C   UNL A   1      39.919  26.918  28.412  1.00  0.00     0.057 A 
ATOM     63  C   UNL A   1      40.745  27.600  27.499  1.00  0.00     0.134 A 
ATOM     64  C   UNL A   1      39.608  25.590  28.053  1.00  0.00     0.134 A 
ATOM     65  F   UNL A   1      41.109  28.874  27.719  1.00  0.00    -0.206 F 
ATOM     66  C   UNL A   1      41.153  27.035  26.285  1.00  0.00     0.040 A 
ATOM     67  C   UNL A   1      40.054  24.998  26.869  1.00  0.00     0.040 A 
ATOM     68  F   UNL A   1      38.776  24.824  28.768  1.00  0.00    -0.206 F 
ATOM     69  C   UNL A   1      40.798  25.732  25.962  1.00  0.00     0.006 A 
ENDBRANCH  48  62
BRANCH  49  70
ATOM     70  C   UNL A   1      43.605  34.557  29.183  1.00  0.00     0.057 A 
ATOM     71  C   UNL A   1      43.776  34.365  27.803  1.00  0.00     0.134 A 
ATOM     72  C   UNL A   1      44.098  35.771  29.697  1.00  0.00     0.134 A 
ATOM     73  F   UNL A   1      43.310  33.259  27.207  1.00  0.00    -0.206 F 
ATOM     74  C   UNL A   1      44.370  35.335  26.981  1.00  0.00     0.040 A 
ATOM     75  C   UNL A   1      44.701  36.741  28.890  1.00  0.00     0.040 A 
ATOM     76  F   UNL A   1      43.932  36.100  30.986  1.00  0.00    -0.206 F 
ATOM     77  C   UNL A   1      44.824  36.533  27.523  1.00  0.00     0.006 A 
ENDBRANCH  49  70
BRANCH  61  78
ATOM     78  C   UNL A   1      41.667  30.697  33.770  1.00  0.00     0.057 A 
ATOM     79  C   UNL A   1      40.692  31.650  34.105  1.00  0.00     0.134 A 
ATOM     80  C   UNL A   1      42.503  30.266  34.804  1.00  0.00     0.134 A 
ATOM     81  F   UNL A   1      39.778  32.052  33.216  1.00  0.00    -0.206 F 
ATOM     82  C   UNL A   1      40.584  32.177  35.397  1.00  0.00     0.040 A 
ATOM     83  C   UNL A   1      42.384  30.758  36.107  1.00  0.00     0.040 A 
ATOM     84  F   UNL A   1      43.421  29.312  34.577  1.00  0.00    -0.206 F 
ATOM     85  C   UNL A   1      41.428  31.725  36.404  1.00  0.00     0.006 A 
ENDBRANCH  61  78
ENDBRANCH  35  36
ENDBRANCH  27  30
ENDBRANCH  25  26
ENDBRANCH   1  25
TORSDOF 12
ENDMDL
MODEL 3
REMARK VINA RESULT:     -12.0      2.771      6.822
REMARK SMILES C[C@H]1OCC[C@@H]1C(=O)Nc1sc2c(c1C(=O)NCCCNC(=O)c1ccc(-c3c4nc(c(-c5c(F)cccc5F)c5ccc([nH]5)c(-c5c(F)cccc5F)c5nc(c(-c6c(F)cccc6F)c6ccc3[nH]6)C=C5)C=C4)cc1)CCC2
REMARK SMILES IDX 19 1 18 2 17 3 15 4 16 5 14 7 10 8 11 9 12 10 13 11 80 12
REMARK SMILES IDX 78 13 79 14 9 15 7 16 8 17 6 19 1 20 2 21 3 22 4 23 5 24
REMARK SMILES IDX 20 25 21 26 22 27 23 29 24 30 25 31 77 32 26 33 76 34 27 35
REMARK SMILES IDX 28 36 29 37 70 38 30 39 75 40 69 41 71 42 31 43 74 44 68 45
REMARK SMILES IDX 67 46 32 48 58 49 41 50 57 51 42 52 45 53 56 54 72 55 43 56
REMARK SMILES IDX 44 57 55 59 73 60 46 61 33 62 34 63 39 64 35 65 36 66 38 67
REMARK SMILES IDX 40 68 37 69 59 70 60 71 65 72 61 73 62 74 64 75 66 76 63 77
REMARK SMILES IDX 47 78 48 79 53 80 49 81 50 82 52 83 54 84 51 85
REMARK H PARENT 17 6 9 18 21 28 71 47 45 58
REMARK Flexibility Score: inf
ROOT
ATOM      1  C   UNL A   1      32.842  28.449  27.386  1.00  0.00     0.042 C 
ENDROOT
BRANCH   1   2
ATOM      2  C   UNL A   1      31.650  28.006  26.536  1.00  0.00     0.118 C 
BRANCH   2   3
ATOM      3  N   UNL A   1      31.169  26.676  26.822  1.00  0.00    -0.352 N 
ATOM      4  C   UNL A   1      31.616  25.442  26.426  1.00  0.00     0.254 C 
ATOM      5  O   UNL A   1      31.408  24.547  27.252  1.00  0.00    -0.269 OA
ATOM      6  H   UNL A   1      30.378  26.649  27.407  1.00  0.00     0.163 HD
BRANCH   4   7
ATOM      7  C   UNL A   1      32.264  25.141  25.141  1.00  0.00     0.078 A 
ATOM      8  C   UNL A   1      33.376  24.285  25.106  1.00  0.00     0.108 A 
ATOM      9  S   UNL A   1      34.345  24.465  23.701  1.00  0.00    -0.122 S 
ATOM     10  C   UNL A   1      33.141  25.358  22.987  1.00  0.00     0.011 A 
ATOM     11  C   UNL A   1      32.067  25.630  23.799  1.00  0.00    -0.019 A 
ATOM     12  C   UNL A   1      33.079  25.959  21.634  1.00  0.00     0.047 C 
ATOM     13  C   UNL A   1      31.104  26.462  23.023  1.00  0.00     0.038 C 
ATOM     14  C   UNL A   1      31.582  26.323  21.553  1.00  0.00     0.010 C 
BRANCH   8  15
ATOM     15  N   UNL A   1      33.981  23.442  26.005  1.00  0.00    -0.317 N 
ATOM     16  C   UNL A   1      34.162  22.095  25.986  1.00  0.00     0.230 C 
ATOM     17  O   UNL A   1      34.718  21.606  26.983  1.00  0.00    -0.274 OA
ATOM     18  H   UNL A   1      34.346  23.891  26.802  1.00  0.00     0.170 HD
BRANCH  16  19
ATOM     19  C   UNL A   1      33.885  21.164  24.807  1.00  0.00     0.110 C 
ATOM     20  C   UNL A   1      32.087  21.299  23.035  1.00  0.00     0.039 C 
ATOM     21  C   UNL A   1      32.410  20.961  24.492  1.00  0.00     0.127 C 
ATOM     22  O   UNL A   1      32.132  19.570  24.714  1.00  0.00    -0.378 OA
ATOM     23  C   UNL A   1      33.349  18.842  24.548  1.00  0.00     0.161 C 
ATOM     24  C   UNL A   1      34.491  19.785  24.855  1.00  0.00     0.044 C 
ENDBRANCH  16  19
ENDBRANCH   8  15
ENDBRANCH   4   7
ENDBRANCH   2   3
ENDBRANCH   1   2
BRANCH   1  25
ATOM     25  C   UNL A   1      33.915  29.131  26.563  1.00  0.00     0.118 C 
BRANCH  25  26
ATOM     26  N   UNL A   1      33.928  30.580  26.789  1.00  0.00    -0.352 N 
ATOM     27  C   UNL A   1      34.735  31.330  27.623  1.00  0.00     0.251 C 
ATOM     28  H   UNL A   1      33.268  31.093  26.271  1.00  0.00     0.163 HD
ATOM     29  O   UNL A   1      34.440  32.471  27.922  1.00  0.00    -0.269 OA
BRANCH  27  30
ATOM     30  C   UNL A   1      35.961  30.709  28.147  1.00  0.00     0.039 A 
ATOM     31  C   UNL A   1      36.216  29.345  27.978  1.00  0.00     0.014 A 
ATOM     32  C   UNL A   1      36.879  31.537  28.779  1.00  0.00     0.014 A 
ATOM     33  C   UNL A   1      37.447  28.840  28.385  1.00  0.00     0.010 A 
ATOM     34  C   UNL A   1      38.150  31.089  28.983  1.00  0.00     0.010 A 
ATOM     35  C   UNL A   1      38.413  29.729  28.871  1.00  0.00    -0.014 A 
BRANCH  35  36
ATOM     36  C   UNL A   1      39.773  29.300  29.171  1.00  0.00     0.031 A 
ATOM     37  C   UNL A   1      40.029  29.044  30.615  1.00  0.00     0.074 A 
ATOM     38  C   UNL A   1      40.595  28.894  28.178  1.00  0.00     0.049 A 
ATOM     39  N   UNL A   1      40.905  29.611  31.376  1.00  0.00    -0.248 NA
ATOM     40  C   UNL A   1      39.106  28.151  31.343  1.00  0.00     0.031 C 
ATOM     41  C   UNL A   1      40.306  28.827  26.737  1.00  0.00     0.029 A 
ATOM     42  N   UNL A   1      41.812  28.294  28.257  1.00  0.00    -0.354 N 
ATOM     43  C   UNL A   1      40.799  28.981  32.613  1.00  0.00     0.074 A 
ATOM     44  C   UNL A   1      39.557  28.257  32.594  1.00  0.00     0.031 C 
ATOM     45  C   UNL A   1      41.182  27.995  26.135  1.00  0.00     0.029 A 
ATOM     46  C   UNL A   1      42.189  27.610  27.102  1.00  0.00     0.049 A 
ATOM     47  H   UNL A   1      42.379  28.339  29.060  1.00  0.00     0.167 HD
ATOM     48  C   UNL A   1      41.875  28.885  33.443  1.00  0.00     0.037 A 
ATOM     49  C   UNL A   1      43.225  26.742  26.988  1.00  0.00     0.037 A 
ATOM     50  C   UNL A   1      42.903  29.824  33.065  1.00  0.00     0.049 A 
ATOM     51  C   UNL A   1      44.138  27.008  28.131  1.00  0.00     0.074 A 
ATOM     52  C   UNL A   1      42.951  31.197  32.914  1.00  0.00     0.029 A 
ATOM     53  N   UNL A   1      43.995  29.338  32.386  1.00  0.00    -0.354 N 
ATOM     54  N   UNL A   1      44.815  28.115  28.269  1.00  0.00    -0.248 NA
ATOM     55  C   UNL A   1      43.909  26.258  29.358  1.00  0.00     0.031 C 
ATOM     56  C   UNL A   1      43.749  31.409  31.752  1.00  0.00     0.029 A 
ATOM     57  C   UNL A   1      44.214  30.168  31.317  1.00  0.00     0.049 A 
ATOM     58  H   UNL A   1      44.521  28.540  32.623  1.00  0.00     0.167 HD
ATOM     59  C   UNL A   1      44.712  28.424  29.618  1.00  0.00     0.074 A 
ATOM     60  C   UNL A   1      44.207  27.206  30.251  1.00  0.00     0.031 C 
ATOM     61  C   UNL A   1      44.747  29.720  30.051  1.00  0.00     0.037 A 
BRANCH  48  62
ATOM     62  C   UNL A   1      42.167  27.691  34.322  1.00  0.00     0.057 A 
ATOM     63  C   UNL A   1      41.886  27.774  35.698  1.00  0.00     0.134 A 
ATOM     64  C   UNL A   1      42.975  26.598  33.945  1.00  0.00     0.134 A 
ATOM     65  F   UNL A   1      41.134  28.773  36.188  1.00  0.00    -0.206 F 
ATOM     66  C   UNL A   1      42.439  26.892  36.634  1.00  0.00     0.040 A 
ATOM     67  C   UNL A   1      43.489  25.680  34.865  1.00  0.00     0.040 A 
ATOM     68  F   UNL A   1      43.399  26.411  32.690  1.00  0.00    -0.206 F 
ATOM     69  C   UNL A   1      43.253  25.846  36.219  1.00  0.00     0.006 A 
ENDBRANCH  48  62
BRANCH  49  70
ATOM     70  C   UNL A   1      43.305  25.505  26.170  1.00  0.00     0.057 A 
ATOM     71  C   UNL A   1      44.379  25.290  25.293  1.00  0.00     0.134 A 
ATOM     72  C   UNL A   1      42.488  24.386  26.421  1.00  0.00     0.134 A 
ATOM     73  F   UNL A   1      45.238  26.280  25.015  1.00  0.00    -0.206 F 
ATOM     74  C   UNL A   1      44.644  24.034  24.728  1.00  0.00     0.040 A 
ATOM     75  C   UNL A   1      42.736  23.131  25.856  1.00  0.00     0.040 A 
ATOM     76  F   UNL A   1      41.473  24.447  27.295  1.00  0.00    -0.206 F 
ATOM     77  C   UNL A   1      43.828  22.946  25.020  1.00  0.00     0.006 A 
ENDBRANCH  49  70
BRANCH  61  78
ATOM     78  C   UNL A   1      45.133  30.793  29.067  1.00  0.00     0.057 A 
ATOM     79  C   UNL A   1      44.222  31.505  28.271  1.00  0.00     0.134 A 
ATOM     80  C   UNL A   1      46.458  31.240  29.052  1.00  0.00     0.134 A 
ATOM     81  F   UNL A   1      42.914  31.224  28.292  1.00  0.00    -0.206 F 
ATOM     82  C   UNL A   1      44.618  32.581  27.470  1.00  0.00     0.040 A 
ATOM     83  C   UNL A   1      46.862  32.335  28.284  1.00  0.00     0.040 A 
ATOM     84  F   UNL A   1      47.379  30.649  29.832  1.00  0.00    -0.206 F 
ATOM     85  C   UNL A   1      45.942  33.004  27.482  1.00  0.00     0.006 A 
ENDBRANCH  61  78
ENDBRANCH  35  36
ENDBRANCH  27  30
ENDBRANCH  25  26
ENDBRANCH   1  25
TORSDOF 12
ENDMDL
