MODEL 1
REMARK VINA RESULT:      -9.7      0.000      0.000
REMARK SMILES O=C(NCCCNC(=O)[C@H]1Cc2cc(O)ccc2C[NH2+]1)c1ccc(-c2c3nc(c(-c4c(F)cccc4F)c4ccc([nH]4)c(-c4c(F)cccc4F)c4nc(c(-c5c(F)cccc5F)c5ccc2[nH]5)C=C4)C=C3)cc1
REMARK SMILES IDX 4 1 3 2 1 3 2 4 21 6 22 7 74 8 23 9 73 10 24 11 25 12 26 13
REMARK SMILES IDX 67 14 27 15 72 16 66 17 68 18 28 19 71 20 65 21 64 22 29 24
REMARK SMILES IDX 55 25 38 26 54 27 39 28 42 29 53 30 69 31 40 32 41 33 52 35
REMARK SMILES IDX 70 36 43 37 30 38 31 39 36 40 32 41 33 42 35 43 37 44 34 45
REMARK SMILES IDX 56 46 57 47 62 48 58 49 59 50 61 51 63 52 60 53 44 54 45 55
REMARK SMILES IDX 50 56 46 57 47 58 49 59 51 60 48 61 5 62 6 63 7 64 8 65 9 67
REMARK SMILES IDX 10 68 11 69 20 70 12 71 19 72 13 75 18 76 14 77 17 78 16 79
REMARK SMILES IDX 15 80
REMARK H PARENT 3 5 68 23 42 34 7 66 20 73 20 74 15 81
REMARK Flexibility Score: inf
ROOT
ATOM      1  C   UNL A   1      33.545  35.968  31.157  1.00  0.00     0.118 C 
ENDROOT
BRANCH   1   2
ATOM      2  N   UNL A   1      32.795  35.271  30.120  1.00  0.00    -0.352 N 
ATOM      3  O   UNL A   1      32.461  34.284  28.142  1.00  0.00    -0.269 OA
ATOM      4  C   UNL A   1      33.213  34.462  29.097  1.00  0.00     0.251 C 
ATOM      5  H   UNL A   1      31.822  35.404  30.161  1.00  0.00     0.163 HD
BRANCH   4   6
ATOM      6  C   UNL A   1      34.516  33.763  29.138  1.00  0.00     0.039 A 
ATOM      7  C   UNL A   1      34.625  32.598  29.908  1.00  0.00     0.014 A 
ATOM      8  C   UNL A   1      35.664  34.320  28.567  1.00  0.00     0.014 A 
ATOM      9  C   UNL A   1      35.875  32.016  30.128  1.00  0.00     0.010 A 
ATOM     10  C   UNL A   1      36.897  33.690  28.710  1.00  0.00     0.010 A 
ATOM     11  C   UNL A   1      37.022  32.569  29.542  1.00  0.00    -0.014 A 
BRANCH  11  12
ATOM     12  C   UNL A   1      38.379  32.095  29.911  1.00  0.00     0.031 A 
ATOM     13  C   UNL A   1      38.858  30.765  29.383  1.00  0.00     0.074 A 
ATOM     14  C   UNL A   1      39.164  32.826  30.721  1.00  0.00     0.049 A 
ATOM     15  N   UNL A   1      39.951  30.103  29.664  1.00  0.00    -0.248 NA
ATOM     16  C   UNL A   1      37.967  30.073  28.435  1.00  0.00     0.031 C 
ATOM     17  C   UNL A   1      38.811  34.118  31.309  1.00  0.00     0.029 A 
ATOM     18  N   UNL A   1      40.427  32.576  31.194  1.00  0.00    -0.354 N 
ATOM     19  C   UNL A   1      39.862  28.911  28.954  1.00  0.00     0.074 A 
ATOM     20  C   UNL A   1      38.587  28.914  28.275  1.00  0.00     0.031 C 
ATOM     21  C   UNL A   1      39.842  34.558  32.049  1.00  0.00     0.029 A 
ATOM     22  C   UNL A   1      40.912  33.567  32.012  1.00  0.00     0.049 A 
ATOM     23  H   UNL A   1      40.937  31.765  30.970  1.00  0.00     0.167 HD
ATOM     24  C   UNL A   1      40.774  27.915  28.849  1.00  0.00     0.037 A 
ATOM     25  C   UNL A   1      42.090  33.656  32.658  1.00  0.00     0.037 A 
ATOM     26  C   UNL A   1      42.064  27.935  29.481  1.00  0.00     0.049 A 
ATOM     27  C   UNL A   1      43.094  32.545  32.509  1.00  0.00     0.074 A 
ATOM     28  C   UNL A   1      43.072  26.989  29.425  1.00  0.00     0.029 A 
ATOM     29  N   UNL A   1      42.531  28.975  30.271  1.00  0.00    -0.354 N 
ATOM     30  N   UNL A   1      42.999  31.429  31.829  1.00  0.00    -0.248 NA
ATOM     31  C   UNL A   1      44.373  32.713  33.214  1.00  0.00     0.031 C 
ATOM     32  C   UNL A   1      44.147  27.452  30.193  1.00  0.00     0.029 A 
ATOM     33  C   UNL A   1      43.817  28.698  30.702  1.00  0.00     0.049 A 
ATOM     34  H   UNL A   1      42.024  29.789  30.493  1.00  0.00     0.167 HD
ATOM     35  C   UNL A   1      44.212  30.775  32.001  1.00  0.00     0.074 A 
ATOM     36  C   UNL A   1      45.032  31.628  32.836  1.00  0.00     0.031 C 
ATOM     37  C   UNL A   1      44.615  29.574  31.518  1.00  0.00     0.037 A 
BRANCH  24  38
ATOM     38  C   UNL A   1      40.403  26.733  28.001  1.00  0.00     0.057 A 
ATOM     39  C   UNL A   1      39.537  25.745  28.484  1.00  0.00     0.134 A 
ATOM     40  C   UNL A   1      40.907  26.573  26.703  1.00  0.00     0.134 A 
ATOM     41  F   UNL A   1      39.020  25.835  29.719  1.00  0.00    -0.206 F 
ATOM     42  C   UNL A   1      39.181  24.642  27.704  1.00  0.00     0.040 A 
ATOM     43  C   UNL A   1      40.538  25.488  25.905  1.00  0.00     0.040 A 
ATOM     44  F   UNL A   1      41.727  27.494  26.174  1.00  0.00    -0.206 F 
ATOM     45  C   UNL A   1      39.677  24.517  26.408  1.00  0.00     0.006 A 
ENDBRANCH  24  38
BRANCH  25  46
ATOM     46  C   UNL A   1      42.403  34.846  33.484  1.00  0.00     0.057 A 
ATOM     47  C   UNL A   1      42.101  34.890  34.850  1.00  0.00     0.134 A 
ATOM     48  C   UNL A   1      43.047  35.958  32.930  1.00  0.00     0.134 A 
ATOM     49  F   UNL A   1      41.479  33.858  35.439  1.00  0.00    -0.206 F 
ATOM     50  C   UNL A   1      42.432  35.995  35.636  1.00  0.00     0.040 A 
ATOM     51  C   UNL A   1      43.404  37.060  33.708  1.00  0.00     0.040 A 
ATOM     52  F   UNL A   1      43.380  35.966  31.631  1.00  0.00    -0.206 F 
ATOM     53  C   UNL A   1      43.096  37.080  35.067  1.00  0.00     0.006 A 
ENDBRANCH  25  46
BRANCH  37  54
ATOM     54  C   UNL A   1      46.011  29.143  31.850  1.00  0.00     0.057 A 
ATOM     55  C   UNL A   1      47.078  29.482  31.010  1.00  0.00     0.134 A 
ATOM     56  C   UNL A   1      46.295  28.383  32.991  1.00  0.00     0.134 A 
ATOM     57  F   UNL A   1      46.869  30.203  29.898  1.00  0.00    -0.206 F 
ATOM     58  C   UNL A   1      48.384  29.080  31.295  1.00  0.00     0.040 A 
ATOM     59  C   UNL A   1      47.600  27.994  33.298  1.00  0.00     0.040 A 
ATOM     60  F   UNL A   1      45.317  28.040  33.841  1.00  0.00    -0.206 F 
ATOM     61  C   UNL A   1      48.647  28.341  32.445  1.00  0.00     0.006 A 
ENDBRANCH  37  54
ENDBRANCH  11  12
ENDBRANCH   4   6
ENDBRANCH   1   2
BRANCH   1  62
ATOM     62  C   UNL A   1      33.810  35.058  32.354  1.00  0.00     0.042 C 
BRANCH  62  63
ATOM     63  C   UNL A   1      35.300  34.905  32.644  1.00  0.00     0.118 C 
BRANCH  63  64
ATOM     64  N   UNL A   1      35.552  34.563  34.030  1.00  0.00    -0.351 N 
ATOM     65  C   UNL A   1      36.295  33.618  34.652  1.00  0.00     0.278 C 
ATOM     66  H   UNL A   1      35.075  35.150  34.661  1.00  0.00     0.163 HD
ATOM     67  O   UNL A   1      36.263  33.659  35.894  1.00  0.00    -0.268 OA
BRANCH  65  68
ATOM     68  C   UNL A   1      37.198  32.555  33.977  1.00  0.00     0.277 C 
ATOM     69  C   UNL A   1      38.475  32.117  34.683  1.00  0.00     0.111 C 
ATOM     70  N   UNL A   1      36.352  31.365  33.697  1.00  0.00    -0.332 N 
ATOM     71  C   UNL A   1      39.178  30.973  33.999  1.00  0.00    -0.029 A 
ATOM     72  C   UNL A   1      37.030  30.468  32.752  1.00  0.00     0.298 C 
ATOM     73  H   UNL A   1      35.466  31.669  33.294  1.00  0.00     0.347 HD
ATOM     74  H   UNL A   1      36.186  30.863  34.569  1.00  0.00     0.347 HD
ATOM     75  C   UNL A   1      40.494  30.659  34.354  1.00  0.00     0.050 A 
ATOM     76  C   UNL A   1      38.445  30.117  33.158  1.00  0.00     0.010 A 
ATOM     77  C   UNL A   1      41.075  29.491  33.883  1.00  0.00     0.115 A 
ATOM     78  C   UNL A   1      39.060  28.955  32.672  1.00  0.00     0.013 A 
ATOM     79  C   UNL A   1      40.369  28.635  33.044  1.00  0.00     0.046 A 
BRANCH  77  80
ATOM     80  O   UNL A   1      42.342  29.205  34.295  1.00  0.00    -0.508 OA
ATOM     81  H   UNL A   1      42.807  29.814  34.836  1.00  0.00     0.293 HD
ENDBRANCH  77  80
ENDBRANCH  65  68
ENDBRANCH  63  64
ENDBRANCH  62  63
ENDBRANCH   1  62
TORSDOF 11
ENDMDL
MODEL 2
REMARK VINA RESULT:      -9.5      0.344      6.463
REMARK SMILES O=C(NCCCNC(=O)[C@H]1Cc2cc(O)ccc2C[NH2+]1)c1ccc(-c2c3nc(c(-c4c(F)cccc4F)c4ccc([nH]4)c(-c4c(F)cccc4F)c4nc(c(-c5c(F)cccc5F)c5ccc2[nH]5)C=C4)C=C3)cc1
REMARK SMILES IDX 4 1 3 2 1 3 2 4 21 6 22 7 74 8 23 9 73 10 24 11 25 12 26 13
REMARK SMILES IDX 67 14 27 15 72 16 66 17 68 18 28 19 71 20 65 21 64 22 29 24
REMARK SMILES IDX 55 25 38 26 54 27 39 28 42 29 53 30 69 31 40 32 41 33 52 35
REMARK SMILES IDX 70 36 43 37 30 38 31 39 36 40 32 41 33 42 35 43 37 44 34 45
REMARK SMILES IDX 56 46 57 47 62 48 58 49 59 50 61 51 63 52 60 53 44 54 45 55
REMARK SMILES IDX 50 56 46 57 47 58 49 59 51 60 48 61 5 62 6 63 7 64 8 65 9 67
REMARK SMILES IDX 10 68 11 69 20 70 12 71 19 72 13 75 18 76 14 77 17 78 16 79
REMARK SMILES IDX 15 80
REMARK H PARENT 3 5 68 23 42 34 7 66 20 73 20 74 15 81
REMARK Flexibility Score: inf
ROOT
ATOM      1  C   UNL A   1      33.691  36.089  31.522  1.00  0.00     0.118 C 
ENDROOT
BRANCH   1   2
ATOM      2  N   UNL A   1      32.871  35.519  30.460  1.00  0.00    -0.352 N 
ATOM      3  O   UNL A   1      32.424  34.701  28.429  1.00  0.00    -0.269 OA
ATOM      4  C   UNL A   1      33.208  34.760  29.371  1.00  0.00     0.251 C 
ATOM      5  H   UNL A   1      31.910  35.715  30.537  1.00  0.00     0.163 HD
BRANCH   4   6
ATOM      6  C   UNL A   1      34.461  33.972  29.327  1.00  0.00     0.039 A 
ATOM      7  C   UNL A   1      34.496  32.736  29.985  1.00  0.00     0.014 A 
ATOM      8  C   UNL A   1      35.639  34.502  28.793  1.00  0.00     0.014 A 
ATOM      9  C   UNL A   1      35.705  32.053  30.130  1.00  0.00     0.010 A 
ATOM     10  C   UNL A   1      36.827  33.780  28.859  1.00  0.00     0.010 A 
ATOM     11  C   UNL A   1      36.882  32.579  29.581  1.00  0.00    -0.014 A 
BRANCH  11  12
ATOM     12  C   UNL A   1      38.207  31.983  29.884  1.00  0.00     0.031 A 
ATOM     13  C   UNL A   1      39.166  32.741  30.767  1.00  0.00     0.074 A 
ATOM     14  C   UNL A   1      38.560  30.796  29.361  1.00  0.00     0.049 A 
ATOM     15  N   UNL A   1      40.410  32.471  31.070  1.00  0.00    -0.248 NA
ATOM     16  C   UNL A   1      38.664  33.991  31.363  1.00  0.00     0.031 C 
ATOM     17  C   UNL A   1      37.730  29.972  28.481  1.00  0.00     0.029 A 
ATOM     18  N   UNL A   1      39.721  30.078  29.494  1.00  0.00    -0.354 N 
ATOM     19  C   UNL A   1      40.843  33.529  31.861  1.00  0.00     0.074 A 
ATOM     20  C   UNL A   1      39.751  34.471  31.947  1.00  0.00     0.031 C 
ATOM     21  C   UNL A   1      38.401  28.851  28.169  1.00  0.00     0.029 A 
ATOM     22  C   UNL A   1      39.716  28.893  28.801  1.00  0.00     0.049 A 
ATOM     23  H   UNL A   1      40.484  30.382  30.036  1.00  0.00     0.167 HD
ATOM     24  C   UNL A   1      42.033  33.688  32.490  1.00  0.00     0.037 A 
ATOM     25  C   UNL A   1      40.671  27.951  28.690  1.00  0.00     0.037 A 
ATOM     26  C   UNL A   1      43.099  32.726  32.448  1.00  0.00     0.049 A 
ATOM     27  C   UNL A   1      41.977  28.143  29.414  1.00  0.00     0.074 A 
ATOM     28  C   UNL A   1      44.337  32.777  33.064  1.00  0.00     0.029 A 
ATOM     29  N   UNL A   1      43.039  31.521  31.765  1.00  0.00    -0.354 N 
ATOM     30  N   UNL A   1      42.369  29.143  30.165  1.00  0.00    -0.248 NA
ATOM     31  C   UNL A   1      42.969  27.067  29.279  1.00  0.00     0.031 C 
ATOM     32  C   UNL A   1      45.032  31.606  32.742  1.00  0.00     0.029 A 
ATOM     33  C   UNL A   1      44.215  30.815  31.950  1.00  0.00     0.049 A 
ATOM     34  H   UNL A   1      42.274  31.214  31.227  1.00  0.00     0.167 HD
ATOM     35  C   UNL A   1      43.639  28.806  30.613  1.00  0.00     0.074 A 
ATOM     36  C   UNL A   1      43.945  27.502  30.062  1.00  0.00     0.031 C 
ATOM     37  C   UNL A   1      44.484  29.511  31.404  1.00  0.00     0.037 A 
BRANCH  24  38
ATOM     38  C   UNL A   1      42.223  34.945  33.288  1.00  0.00     0.057 A 
ATOM     39  C   UNL A   1      41.713  35.057  34.587  1.00  0.00     0.134 A 
ATOM     40  C   UNL A   1      42.911  36.049  32.766  1.00  0.00     0.134 A 
ATOM     41  F   UNL A   1      41.042  34.038  35.146  1.00  0.00    -0.206 F 
ATOM     42  C   UNL A   1      41.886  36.220  35.340  1.00  0.00     0.040 A 
ATOM     43  C   UNL A   1      43.112  37.207  33.519  1.00  0.00     0.040 A 
ATOM     44  F   UNL A   1      43.440  36.000  31.534  1.00  0.00    -0.206 F 
ATOM     45  C   UNL A   1      42.594  37.296  34.809  1.00  0.00     0.006 A 
ENDBRANCH  24  38
BRANCH  25  46
ATOM     46  C   UNL A   1      40.430  26.729  27.886  1.00  0.00     0.057 A 
ATOM     47  C   UNL A   1      39.619  25.691  28.356  1.00  0.00     0.134 A 
ATOM     48  C   UNL A   1      40.981  26.589  26.607  1.00  0.00     0.134 A 
ATOM     49  F   UNL A   1      39.066  25.763  29.576  1.00  0.00    -0.206 F 
ATOM     50  C   UNL A   1      39.360  24.559  27.582  1.00  0.00     0.040 A 
ATOM     51  C   UNL A   1      40.713  25.473  25.813  1.00  0.00     0.040 A 
ATOM     52  F   UNL A   1      41.752  27.560  26.095  1.00  0.00    -0.206 F 
ATOM     53  C   UNL A   1      39.900  24.453  26.301  1.00  0.00     0.006 A 
ENDBRANCH  25  46
BRANCH  37  54
ATOM     54  C   UNL A   1      45.791  28.864  31.748  1.00  0.00     0.057 A 
ATOM     55  C   UNL A   1      45.922  28.105  32.916  1.00  0.00     0.134 A 
ATOM     56  C   UNL A   1      46.920  29.004  30.931  1.00  0.00     0.134 A 
ATOM     57  F   UNL A   1      44.878  27.939  33.743  1.00  0.00    -0.206 F 
ATOM     58  C   UNL A   1      47.133  27.503  33.261  1.00  0.00     0.040 A 
ATOM     59  C   UNL A   1      48.130  28.390  31.255  1.00  0.00     0.040 A 
ATOM     60  F   UNL A   1      46.851  29.708  29.792  1.00  0.00    -0.206 F 
ATOM     61  C   UNL A   1      48.238  27.640  32.425  1.00  0.00     0.006 A 
ENDBRANCH  37  54
ENDBRANCH  11  12
ENDBRANCH   4   6
ENDBRANCH   1   2
BRANCH   1  62
ATOM     62  C   UNL A   1      34.010  35.049  32.592  1.00  0.00     0.042 C 
BRANCH  62  63
ATOM     63  C   UNL A   1      35.510  34.916  32.839  1.00  0.00     0.118 C 
BRANCH  63  64
ATOM     64  N   UNL A   1      35.802  34.505  34.198  1.00  0.00    -0.351 N 
ATOM     65  C   UNL A   1      36.507  33.488  34.748  1.00  0.00     0.278 C 
ATOM     66  H   UNL A   1      35.397  35.097  34.872  1.00  0.00     0.163 HD
ATOM     67  O   UNL A   1      36.536  33.483  35.991  1.00  0.00    -0.268 OA
BRANCH  65  68
ATOM     68  C   UNL A   1      37.302  32.394  33.992  1.00  0.00     0.277 C 
ATOM     69  C   UNL A   1      38.575  31.841  34.620  1.00  0.00     0.111 C 
ATOM     70  N   UNL A   1      36.363  31.278  33.707  1.00  0.00    -0.332 N 
ATOM     71  C   UNL A   1      39.164  30.680  33.861  1.00  0.00    -0.029 A 
ATOM     72  C   UNL A   1      36.934  30.376  32.698  1.00  0.00     0.298 C 
ATOM     73  H   UNL A   1      35.483  31.659  33.357  1.00  0.00     0.347 HD
ATOM     74  H   UNL A   1      36.200  30.753  34.566  1.00  0.00     0.347 HD
ATOM     75  C   UNL A   1      40.470  30.263  34.142  1.00  0.00     0.050 A 
ATOM     76  C   UNL A   1      38.337  29.913  33.024  1.00  0.00     0.010 A 
ATOM     77  C   UNL A   1      40.945  29.078  33.600  1.00  0.00     0.115 A 
ATOM     78  C   UNL A   1      38.846  28.732  32.465  1.00  0.00     0.013 A 
ATOM     79  C   UNL A   1      40.144  28.307  32.764  1.00  0.00     0.046 A 
BRANCH  77  80
ATOM     80  O   UNL A   1      42.206  28.689  33.942  1.00  0.00    -0.508 OA
ATOM     81  H   UNL A   1      42.939  29.228  33.719  1.00  0.00     0.293 HD
ENDBRANCH  77  80
ENDBRANCH  65  68
ENDBRANCH  63  64
ENDBRANCH  62  63
ENDBRANCH   1  62
TORSDOF 11
ENDMDL
MODEL 3
REMARK VINA RESULT:      -9.3      4.221      9.165
REMARK SMILES O=C(NCCCNC(=O)[C@H]1Cc2cc(O)ccc2C[NH2+]1)c1ccc(-c2c3nc(c(-c4c(F)cccc4F)c4ccc([nH]4)c(-c4c(F)cccc4F)c4nc(c(-c5c(F)cccc5F)c5ccc2[nH]5)C=C4)C=C3)cc1
REMARK SMILES IDX 4 1 3 2 1 3 2 4 21 6 22 7 74 8 23 9 73 10 24 11 25 12 26 13
REMARK SMILES IDX 67 14 27 15 72 16 66 17 68 18 28 19 71 20 65 21 64 22 29 24
REMARK SMILES IDX 55 25 38 26 54 27 39 28 42 29 53 30 69 31 40 32 41 33 52 35
REMARK SMILES IDX 70 36 43 37 30 38 31 39 36 40 32 41 33 42 35 43 37 44 34 45
REMARK SMILES IDX 56 46 57 47 62 48 58 49 59 50 61 51 63 52 60 53 44 54 45 55
REMARK SMILES IDX 50 56 46 57 47 58 49 59 51 60 48 61 5 62 6 63 7 64 8 65 9 67
REMARK SMILES IDX 10 68 11 69 20 70 12 71 19 72 13 75 18 76 14 77 17 78 16 79
REMARK SMILES IDX 15 80
REMARK H PARENT 3 5 68 23 42 34 7 66 20 73 20 74 15 81
REMARK Flexibility Score: inf
ROOT
ATOM      1  C   UNL A   1      33.348  28.987  27.256  1.00  0.00     0.118 C 
ENDROOT
BRANCH   1   2
ATOM      2  N   UNL A   1      33.697  30.335  27.688  1.00  0.00    -0.352 N 
ATOM      3  O   UNL A   1      34.693  31.894  28.942  1.00  0.00    -0.269 OA
ATOM      4  C   UNL A   1      34.781  30.807  28.378  1.00  0.00     0.251 C 
ATOM      5  H   UNL A   1      33.040  31.024  27.441  1.00  0.00     0.163 HD
BRANCH   4   6
ATOM      6  C   UNL A   1      36.063  30.068  28.417  1.00  0.00     0.039 A 
ATOM      7  C   UNL A   1      36.463  29.487  29.627  1.00  0.00     0.014 A 
ATOM      8  C   UNL A   1      36.946  30.078  27.334  1.00  0.00     0.014 A 
ATOM      9  C   UNL A   1      37.745  28.949  29.758  1.00  0.00     0.010 A 
ATOM     10  C   UNL A   1      38.190  29.462  27.435  1.00  0.00     0.010 A 
ATOM     11  C   UNL A   1      38.623  28.947  28.666  1.00  0.00    -0.014 A 
BRANCH  11  12
ATOM     12  C   UNL A   1      40.047  28.564  28.823  1.00  0.00     0.031 A 
ATOM     13  C   UNL A   1      41.014  29.567  29.405  1.00  0.00     0.074 A 
ATOM     14  C   UNL A   1      40.480  27.353  28.433  1.00  0.00     0.049 A 
ATOM     15  N   UNL A   1      42.314  29.494  29.528  1.00  0.00    -0.248 NA
ATOM     16  C   UNL A   1      40.439  30.836  29.882  1.00  0.00     0.031 C 
ATOM     17  C   UNL A   1      39.649  26.302  27.843  1.00  0.00     0.029 A 
ATOM     18  N   UNL A   1      41.736  26.804  28.473  1.00  0.00    -0.354 N 
ATOM     19  C   UNL A   1      42.710  30.714  30.064  1.00  0.00     0.074 A 
ATOM     20  C   UNL A   1      41.524  31.528  30.192  1.00  0.00     0.031 C 
ATOM     21  C   UNL A   1      40.415  25.227  27.594  1.00  0.00     0.029 A 
ATOM     22  C   UNL A   1      41.791  25.524  27.978  1.00  0.00     0.049 A 
ATOM     23  H   UNL A   1      42.522  27.280  28.823  1.00  0.00     0.167 HD
ATOM     24  C   UNL A   1      43.947  31.111  30.449  1.00  0.00     0.037 A 
ATOM     25  C   UNL A   1      42.841  24.691  27.849  1.00  0.00     0.037 A 
ATOM     26  C   UNL A   1      45.119  30.283  30.371  1.00  0.00     0.049 A 
ATOM     27  C   UNL A   1      44.201  25.150  28.301  1.00  0.00     0.074 A 
ATOM     28  C   UNL A   1      46.416  30.578  30.752  1.00  0.00     0.029 A 
ATOM     29  N   UNL A   1      45.125  28.979  29.898  1.00  0.00    -0.354 N 
ATOM     30  N   UNL A   1      44.558  26.302  28.814  1.00  0.00    -0.248 NA
ATOM     31  C   UNL A   1      45.301  24.186  28.162  1.00  0.00     0.031 C 
ATOM     32  C   UNL A   1      47.211  29.455  30.496  1.00  0.00     0.029 A 
ATOM     33  C   UNL A   1      46.402  28.453  29.984  1.00  0.00     0.049 A 
ATOM     34  H   UNL A   1      44.338  28.500  29.551  1.00  0.00     0.167 HD
ATOM     35  C   UNL A   1      45.916  26.192  29.084  1.00  0.00     0.074 A 
ATOM     36  C   UNL A   1      46.314  24.856  28.693  1.00  0.00     0.031 C 
ATOM     37  C   UNL A   1      46.764  27.113  29.603  1.00  0.00     0.037 A 
BRANCH  24  38
ATOM     38  C   UNL A   1      44.079  32.500  31.003  1.00  0.00     0.057 A 
ATOM     39  C   UNL A   1      44.342  33.588  30.163  1.00  0.00     0.134 A 
ATOM     40  C   UNL A   1      43.947  32.759  32.375  1.00  0.00     0.134 A 
ATOM     41  F   UNL A   1      44.482  33.411  28.841  1.00  0.00    -0.206 F 
ATOM     42  C   UNL A   1      44.464  34.886  30.667  1.00  0.00     0.040 A 
ATOM     43  C   UNL A   1      44.041  34.054  32.886  1.00  0.00     0.040 A 
ATOM     44  F   UNL A   1      43.676  31.762  33.231  1.00  0.00    -0.206 F 
ATOM     45  C   UNL A   1      44.305  35.121  32.031  1.00  0.00     0.006 A 
ENDBRANCH  24  38
BRANCH  25  46
ATOM     46  C   UNL A   1      42.653  23.330  27.291  1.00  0.00     0.057 A 
ATOM     47  C   UNL A   1      42.256  22.257  28.097  1.00  0.00     0.134 A 
ATOM     48  C   UNL A   1      42.835  23.081  25.927  1.00  0.00     0.134 A 
ATOM     49  F   UNL A   1      42.071  22.431  29.413  1.00  0.00    -0.206 F 
ATOM     50  C   UNL A   1      42.041  20.985  27.564  1.00  0.00     0.040 A 
ATOM     51  C   UNL A   1      42.603  21.819  25.376  1.00  0.00     0.040 A 
ATOM     52  F   UNL A   1      43.197  24.074  25.102  1.00  0.00    -0.206 F 
ATOM     53  C   UNL A   1      42.204  20.766  26.197  1.00  0.00     0.006 A 
ENDBRANCH  25  46
BRANCH  37  54
ATOM     54  C   UNL A   1      48.184  26.686  29.813  1.00  0.00     0.057 A 
ATOM     55  C   UNL A   1      49.156  26.943  28.839  1.00  0.00     0.134 A 
ATOM     56  C   UNL A   1      48.586  26.009  30.971  1.00  0.00     0.134 A 
ATOM     57  F   UNL A   1      48.831  27.582  27.704  1.00  0.00    -0.206 F 
ATOM     58  C   UNL A   1      50.482  26.543  29.010  1.00  0.00     0.040 A 
ATOM     59  C   UNL A   1      49.913  25.623  31.162  1.00  0.00     0.040 A 
ATOM     60  F   UNL A   1      47.704  25.746  31.946  1.00  0.00    -0.206 F 
ATOM     61  C   UNL A   1      50.864  25.888  30.178  1.00  0.00     0.006 A 
ENDBRANCH  37  54
ENDBRANCH  11  12
ENDBRANCH   4   6
ENDBRANCH   1   2
BRANCH   1  62
ATOM     62  C   UNL A   1      31.835  28.788  27.235  1.00  0.00     0.042 C 
BRANCH  62  63
ATOM     63  C   UNL A   1      31.395  27.818  26.143  1.00  0.00     0.118 C 
BRANCH  63  64
ATOM     64  N   UNL A   1      31.097  26.502  26.673  1.00  0.00    -0.351 N 
ATOM     65  C   UNL A   1      31.629  25.269  26.501  1.00  0.00     0.278 C 
ATOM     66  H   UNL A   1      30.335  26.505  27.297  1.00  0.00     0.163 HD
ATOM     67  O   UNL A   1      31.087  24.367  27.162  1.00  0.00    -0.268 OA
BRANCH  65  68
ATOM     68  C   UNL A   1      32.852  24.900  25.624  1.00  0.00     0.277 C 
ATOM     69  C   UNL A   1      34.075  24.279  26.288  1.00  0.00     0.111 C 
ATOM     70  N   UNL A   1      32.369  24.008  24.538  1.00  0.00    -0.332 N 
ATOM     71  C   UNL A   1      35.126  23.828  25.307  1.00  0.00    -0.029 A 
ATOM     72  C   UNL A   1      33.378  23.906  23.475  1.00  0.00     0.298 C 
ATOM     73  H   UNL A   1      31.507  24.390  24.147  1.00  0.00     0.347 HD
ATOM     74  H   UNL A   1      32.198  23.080  24.923  1.00  0.00     0.347 HD
ATOM     75  C   UNL A   1      36.410  23.514  25.767  1.00  0.00     0.050 A 
ATOM     76  C   UNL A   1      34.757  23.543  23.981  1.00  0.00     0.010 A 
ATOM     77  C   UNL A   1      37.318  22.907  24.912  1.00  0.00     0.115 A 
ATOM     78  C   UNL A   1      35.698  22.953  23.127  1.00  0.00     0.013 A 
ATOM     79  C   UNL A   1      36.974  22.623  23.594  1.00  0.00     0.046 A 
BRANCH  77  80
ATOM     80  O   UNL A   1      38.539  22.577  25.419  1.00  0.00    -0.508 OA
ATOM     81  H   UNL A   1      38.786  22.869  26.275  1.00  0.00     0.293 HD
ENDBRANCH  77  80
ENDBRANCH  65  68
ENDBRANCH  63  64
ENDBRANCH  62  63
ENDBRANCH   1  62
TORSDOF 11
ENDMDL
