MODEL 1
REMARK VINA RESULT:     -10.9      0.000      0.000
REMARK SMILES Cc1cc(O[C@@H](C)C(=O)NCCCNC(=O)c2ccc(-c3c4nc(c(-c5c(F)cccc5F)c5ccc([nH]5)c(-c5c(F)cccc5F)c5nc(c(-c6c(F)cccc6F)c6ccc3[nH]6)C=C5)C=C4)cc2)n(C)n1
REMARK SMILES IDX 12 1 11 2 10 3 8 4 9 5 6 7 7 8 5 9 4 10 1 11 2 12 3 13 73 14
REMARK SMILES IDX 71 15 72 16 13 17 14 18 15 19 16 21 17 22 18 23 70 24 19 25
REMARK SMILES IDX 69 26 20 27 21 28 22 29 63 30 23 31 68 32 62 33 64 34 24 35
REMARK SMILES IDX 67 36 61 37 60 38 25 40 51 41 34 42 50 43 35 44 38 45 49 46
REMARK SMILES IDX 65 47 36 48 37 49 48 51 66 52 39 53 26 54 27 55 32 56 28 57
REMARK SMILES IDX 29 58 31 59 33 60 30 61 52 62 53 63 58 64 54 65 55 66 57 67
REMARK SMILES IDX 59 68 56 69 40 70 41 71 46 72 42 73 43 74 45 75 47 76 44 77
REMARK H PARENT 10 6 14 20 64 39 38 50
REMARK Flexibility Score: inf
ROOT
ATOM      1  C   UNL A   1      31.484  31.524  26.469  1.00  0.00     0.042 C 
ENDROOT
BRANCH   1   2
ATOM      2  C   UNL A   1      31.660  30.036  26.192  1.00  0.00     0.118 C 
BRANCH   2   3
ATOM      3  N   UNL A   1      32.262  29.817  24.897  1.00  0.00    -0.353 N 
ATOM      4  C   UNL A   1      31.937  28.954  23.897  1.00  0.00     0.260 C 
ATOM      5  O   UNL A   1      32.744  28.892  22.960  1.00  0.00    -0.271 OA
ATOM      6  H   UNL A   1      33.038  30.390  24.704  1.00  0.00     0.163 HD
BRANCH   4   7
ATOM      7  C   UNL A   1      30.618  28.127  23.848  1.00  0.00     0.260 C 
ATOM      8  C   UNL A   1      30.731  26.771  24.540  1.00  0.00     0.064 C 
BRANCH   7   9
ATOM      9  O   UNL A   1      29.754  28.199  22.721  1.00  0.00    -0.465 OA
BRANCH   9  10
ATOM     10  C   UNL A   1      29.078  29.301  22.398  1.00  0.00     0.212 A 
ATOM     11  C   UNL A   1      28.129  32.746  21.595  1.00  0.00     0.069 C 
ATOM     12  C   UNL A   1      28.228  31.297  21.905  1.00  0.00     0.063 A 
ATOM     13  C   UNL A   1      29.305  30.421  21.625  1.00  0.00     0.093 A 
ATOM     14  N   UNL A   1      27.281  30.692  22.626  1.00  0.00    -0.175 NA
ATOM     15  N   UNL A   1      27.780  29.456  22.834  1.00  0.00    -0.237 N 
ATOM     16  C   UNL A   1      26.954  28.479  23.504  1.00  0.00     0.178 C 
ENDBRANCH   9  10
ENDBRANCH   7   9
ENDBRANCH   4   7
ENDBRANCH   2   3
ENDBRANCH   1   2
BRANCH   1  17
ATOM     17  C   UNL A   1      32.720  32.179  27.058  1.00  0.00     0.118 C 
BRANCH  17  18
ATOM     18  N   UNL A   1      32.470  33.563  27.456  1.00  0.00    -0.352 N 
ATOM     19  C   UNL A   1      33.056  34.350  28.419  1.00  0.00     0.251 C 
ATOM     20  H   UNL A   1      31.759  34.012  26.945  1.00  0.00     0.163 HD
ATOM     21  O   UNL A   1      32.524  35.417  28.723  1.00  0.00    -0.269 OA
BRANCH  19  22
ATOM     22  C   UNL A   1      34.298  33.930  29.105  1.00  0.00     0.039 A 
ATOM     23  C   UNL A   1      34.219  33.097  30.228  1.00  0.00     0.014 A 
ATOM     24  C   UNL A   1      35.545  34.379  28.674  1.00  0.00     0.014 A 
ATOM     25  C   UNL A   1      35.386  32.653  30.858  1.00  0.00     0.010 A 
ATOM     26  C   UNL A   1      36.703  33.842  29.218  1.00  0.00     0.010 A 
ATOM     27  C   UNL A   1      36.641  32.985  30.328  1.00  0.00    -0.014 A 
BRANCH  27  28
ATOM     28  C   UNL A   1      37.922  32.511  30.912  1.00  0.00     0.031 A 
ATOM     29  C   UNL A   1      38.602  31.311  30.307  1.00  0.00     0.074 A 
ATOM     30  C   UNL A   1      38.398  33.059  32.048  1.00  0.00     0.049 A 
ATOM     31  N   UNL A   1      39.562  30.567  30.790  1.00  0.00    -0.248 NA
ATOM     32  C   UNL A   1      38.093  30.856  29.001  1.00  0.00     0.031 C 
ATOM     33  C   UNL A   1      37.816  34.203  32.752  1.00  0.00     0.029 A 
ATOM     34  N   UNL A   1      39.466  32.697  32.832  1.00  0.00    -0.354 N 
ATOM     35  C   UNL A   1      39.734  29.534  29.878  1.00  0.00     0.074 A 
ATOM     36  C   UNL A   1      38.750  29.719  28.834  1.00  0.00     0.031 C 
ATOM     37  C   UNL A   1      38.535  34.453  33.858  1.00  0.00     0.029 A 
ATOM     38  C   UNL A   1      39.591  33.453  33.974  1.00  0.00     0.049 A 
ATOM     39  H   UNL A   1      40.083  31.967  32.598  1.00  0.00     0.167 HD
ATOM     40  C   UNL A   1      40.642  28.531  29.898  1.00  0.00     0.037 A 
ATOM     41  C   UNL A   1      40.441  33.331  35.012  1.00  0.00     0.037 A 
ATOM     42  C   UNL A   1      41.654  28.389  30.908  1.00  0.00     0.049 A 
ATOM     43  C   UNL A   1      41.451  32.214  35.006  1.00  0.00     0.074 A 
ATOM     44  C   UNL A   1      42.669  27.452  30.985  1.00  0.00     0.029 A 
ATOM     45  N   UNL A   1      41.786  29.217  32.013  1.00  0.00    -0.354 N 
ATOM     46  N   UNL A   1      41.632  31.269  34.115  1.00  0.00    -0.248 NA
ATOM     47  C   UNL A   1      42.376  32.146  36.146  1.00  0.00     0.031 C 
ATOM     48  C   UNL A   1      43.389  27.687  32.158  1.00  0.00     0.029 A 
ATOM     49  C   UNL A   1      42.858  28.804  32.782  1.00  0.00     0.049 A 
ATOM     50  H   UNL A   1      41.202  29.984  32.219  1.00  0.00     0.167 HD
ATOM     51  C   UNL A   1      42.715  30.525  34.564  1.00  0.00     0.074 A 
ATOM     52  C   UNL A   1      43.150  31.125  35.807  1.00  0.00     0.031 C 
ATOM     53  C   UNL A   1      43.301  29.444  33.995  1.00  0.00     0.037 A 
BRANCH  40  54
ATOM     54  C   UNL A   1      40.591  27.513  28.795  1.00  0.00     0.057 A 
ATOM     55  C   UNL A   1      39.703  26.431  28.824  1.00  0.00     0.134 A 
ATOM     56  C   UNL A   1      41.407  27.647  27.664  1.00  0.00     0.134 A 
ATOM     57  F   UNL A   1      38.901  26.237  29.882  1.00  0.00    -0.206 F 
ATOM     58  C   UNL A   1      39.645  25.505  27.781  1.00  0.00     0.040 A 
ATOM     59  C   UNL A   1      41.336  26.747  26.601  1.00  0.00     0.040 A 
ATOM     60  F   UNL A   1      42.276  28.665  27.567  1.00  0.00    -0.206 F 
ATOM     61  C   UNL A   1      40.457  25.668  26.660  1.00  0.00     0.006 A 
ENDBRANCH  40  54
BRANCH  41  62
ATOM     62  C   UNL A   1      40.382  34.289  36.147  1.00  0.00     0.057 A 
ATOM     63  C   UNL A   1      39.544  34.054  37.244  1.00  0.00     0.134 A 
ATOM     64  C   UNL A   1      41.139  35.466  36.157  1.00  0.00     0.134 A 
ATOM     65  F   UNL A   1      38.780  32.953  37.285  1.00  0.00    -0.206 F 
ATOM     66  C   UNL A   1      39.440  34.967  38.295  1.00  0.00     0.040 A 
ATOM     67  C   UNL A   1      41.067  36.374  37.215  1.00  0.00     0.040 A 
ATOM     68  F   UNL A   1      41.968  35.749  35.140  1.00  0.00    -0.206 F 
ATOM     69  C   UNL A   1      40.206  36.130  38.284  1.00  0.00     0.006 A 
ENDBRANCH  41  62
BRANCH  53  70
ATOM     70  C   UNL A   1      44.523  28.880  34.656  1.00  0.00     0.057 A 
ATOM     71  C   UNL A   1      45.804  29.383  34.404  1.00  0.00     0.134 A 
ATOM     72  C   UNL A   1      44.396  27.880  35.629  1.00  0.00     0.134 A 
ATOM     73  F   UNL A   1      45.991  30.333  33.476  1.00  0.00    -0.206 F 
ATOM     74  C   UNL A   1      46.919  28.907  35.094  1.00  0.00     0.040 A 
ATOM     75  C   UNL A   1      45.499  27.415  36.344  1.00  0.00     0.040 A 
ATOM     76  F   UNL A   1      43.193  27.365  35.924  1.00  0.00    -0.206 F 
ATOM     77  C   UNL A   1      46.766  27.929  36.076  1.00  0.00     0.006 A 
ENDBRANCH  53  70
ENDBRANCH  27  28
ENDBRANCH  19  22
ENDBRANCH  17  18
ENDBRANCH   1  17
TORSDOF 12
ENDMDL
MODEL 2
REMARK VINA RESULT:     -10.8      5.587     10.165
REMARK SMILES Cc1cc(O[C@@H](C)C(=O)NCCCNC(=O)c2ccc(-c3c4nc(c(-c5c(F)cccc5F)c5ccc([nH]5)c(-c5c(F)cccc5F)c5nc(c(-c6c(F)cccc6F)c6ccc3[nH]6)C=C5)C=C4)cc2)n(C)n1
REMARK SMILES IDX 12 1 11 2 10 3 8 4 9 5 6 7 7 8 5 9 4 10 1 11 2 12 3 13 73 14
REMARK SMILES IDX 71 15 72 16 13 17 14 18 15 19 16 21 17 22 18 23 70 24 19 25
REMARK SMILES IDX 69 26 20 27 21 28 22 29 63 30 23 31 68 32 62 33 64 34 24 35
REMARK SMILES IDX 67 36 61 37 60 38 25 40 51 41 34 42 50 43 35 44 38 45 49 46
REMARK SMILES IDX 65 47 36 48 37 49 48 51 66 52 39 53 26 54 27 55 32 56 28 57
REMARK SMILES IDX 29 58 31 59 33 60 30 61 52 62 53 63 58 64 54 65 55 66 57 67
REMARK SMILES IDX 59 68 56 69 40 70 41 71 46 72 42 73 43 74 45 75 47 76 44 77
REMARK H PARENT 10 6 14 20 64 39 38 50
REMARK Flexibility Score: inf
ROOT
ATOM      1  C   UNL A   1      36.945  19.548  24.733  1.00  0.00     0.042 C 
ENDROOT
BRANCH   1   2
ATOM      2  C   UNL A   1      35.636  20.276  25.013  1.00  0.00     0.118 C 
BRANCH   2   3
ATOM      3  N   UNL A   1      34.552  19.341  25.203  1.00  0.00    -0.353 N 
ATOM      4  C   UNL A   1      33.208  19.491  25.054  1.00  0.00     0.260 C 
ATOM      5  O   UNL A   1      32.517  18.541  25.445  1.00  0.00    -0.271 OA
ATOM      6  H   UNL A   1      34.832  18.442  25.489  1.00  0.00     0.163 HD
BRANCH   4   7
ATOM      7  C   UNL A   1      32.534  20.721  24.378  1.00  0.00     0.260 C 
ATOM      8  C   UNL A   1      32.176  20.483  22.913  1.00  0.00     0.064 C 
BRANCH   7   9
ATOM      9  O   UNL A   1      32.907  22.046  24.738  1.00  0.00    -0.465 OA
BRANCH   9  10
ATOM     10  C   UNL A   1      32.061  22.906  25.301  1.00  0.00     0.212 A 
ATOM     11  C   UNL A   1      29.833  25.736  25.967  1.00  0.00     0.069 C 
ATOM     12  C   UNL A   1      30.685  24.520  25.976  1.00  0.00     0.063 A 
ATOM     13  C   UNL A   1      30.981  23.660  24.890  1.00  0.00     0.093 A 
ATOM     14  N   UNL A   1      31.378  24.185  27.066  1.00  0.00    -0.175 NA
ATOM     15  N   UNL A   1      32.137  23.148  26.656  1.00  0.00    -0.237 N 
ATOM     16  C   UNL A   1      32.950  22.456  27.629  1.00  0.00     0.178 C 
ENDBRANCH   9  10
ENDBRANCH   7   9
ENDBRANCH   4   7
ENDBRANCH   2   3
ENDBRANCH   1   2
BRANCH   1  17
ATOM     17  C   UNL A   1      38.153  20.210  25.371  1.00  0.00     0.118 C 
BRANCH  17  18
ATOM     18  N   UNL A   1      39.269  19.279  25.529  1.00  0.00    -0.352 N 
ATOM     19  C   UNL A   1      40.575  19.484  25.906  1.00  0.00     0.251 C 
ATOM     20  H   UNL A   1      39.047  18.340  25.332  1.00  0.00     0.163 HD
ATOM     21  O   UNL A   1      41.391  18.577  25.751  1.00  0.00    -0.269 OA
BRANCH  19  22
ATOM     22  C   UNL A   1      41.018  20.776  26.477  1.00  0.00     0.039 A 
ATOM     23  C   UNL A   1      41.138  20.911  27.866  1.00  0.00     0.014 A 
ATOM     24  C   UNL A   1      41.283  21.871  25.658  1.00  0.00     0.014 A 
ATOM     25  C   UNL A   1      41.602  22.110  28.418  1.00  0.00     0.010 A 
ATOM     26  C   UNL A   1      41.859  23.015  26.193  1.00  0.00     0.010 A 
ATOM     27  C   UNL A   1      42.012  23.157  27.581  1.00  0.00    -0.014 A 
BRANCH  27  28
ATOM     28  C   UNL A   1      42.560  24.440  28.093  1.00  0.00     0.031 A 
ATOM     29  C   UNL A   1      41.608  25.551  28.448  1.00  0.00     0.074 A 
ATOM     30  C   UNL A   1      43.891  24.654  28.109  1.00  0.00     0.049 A 
ATOM     31  N   UNL A   1      41.850  26.819  28.657  1.00  0.00    -0.248 NA
ATOM     32  C   UNL A   1      40.180  25.195  28.527  1.00  0.00     0.031 C 
ATOM     33  C   UNL A   1      44.917  23.672  27.758  1.00  0.00     0.029 A 
ATOM     34  N   UNL A   1      44.606  25.790  28.402  1.00  0.00    -0.354 N 
ATOM     35  C   UNL A   1      40.609  27.415  28.838  1.00  0.00     0.074 A 
ATOM     36  C   UNL A   1      39.612  26.381  28.671  1.00  0.00     0.031 C 
ATOM     37  C   UNL A   1      46.128  24.243  27.861  1.00  0.00     0.029 A 
ATOM     38  C   UNL A   1      45.962  25.646  28.226  1.00  0.00     0.049 A 
ATOM     39  H   UNL A   1      44.187  26.626  28.709  1.00  0.00     0.167 HD
ATOM     40  C   UNL A   1      40.327  28.705  29.135  1.00  0.00     0.037 A 
ATOM     41  C   UNL A   1      46.955  26.552  28.317  1.00  0.00     0.037 A 
ATOM     42  C   UNL A   1      41.327  29.712  29.358  1.00  0.00     0.049 A 
ATOM     43  C   UNL A   1      46.616  27.979  28.662  1.00  0.00     0.074 A 
ATOM     44  C   UNL A   1      41.152  31.031  29.735  1.00  0.00     0.029 A 
ATOM     45  N   UNL A   1      42.692  29.506  29.234  1.00  0.00    -0.354 N 
ATOM     46  N   UNL A   1      45.441  28.520  28.874  1.00  0.00    -0.248 NA
ATOM     47  C   UNL A   1      47.738  28.919  28.781  1.00  0.00     0.031 C 
ATOM     48  C   UNL A   1      42.409  31.635  29.800  1.00  0.00     0.029 A 
ATOM     49  C   UNL A   1      43.370  30.678  29.517  1.00  0.00     0.049 A 
ATOM     50  H   UNL A   1      43.116  28.653  28.983  1.00  0.00     0.167 HD
ATOM     51  C   UNL A   1      45.686  29.849  29.195  1.00  0.00     0.074 A 
ATOM     52  C   UNL A   1      47.121  30.034  29.147  1.00  0.00     0.031 C 
ATOM     53  C   UNL A   1      44.803  30.828  29.506  1.00  0.00     0.037 A 
BRANCH  40  54
ATOM     54  C   UNL A   1      38.882  29.100  29.246  1.00  0.00     0.057 A 
ATOM     55  C   UNL A   1      38.183  29.028  30.457  1.00  0.00     0.134 A 
ATOM     56  C   UNL A   1      38.196  29.609  28.135  1.00  0.00     0.134 A 
ATOM     57  F   UNL A   1      38.777  28.539  31.557  1.00  0.00    -0.206 F 
ATOM     58  C   UNL A   1      36.848  29.423  30.555  1.00  0.00     0.040 A 
ATOM     59  C   UNL A   1      36.871  30.037  28.228  1.00  0.00     0.040 A 
ATOM     60  F   UNL A   1      38.806  29.713  26.945  1.00  0.00    -0.206 F 
ATOM     61  C   UNL A   1      36.191  29.938  29.440  1.00  0.00     0.006 A 
ENDBRANCH  40  54
BRANCH  41  62
ATOM     62  C   UNL A   1      48.364  26.147  28.082  1.00  0.00     0.057 A 
ATOM     63  C   UNL A   1      49.155  25.654  29.128  1.00  0.00     0.134 A 
ATOM     64  C   UNL A   1      48.964  26.260  26.822  1.00  0.00     0.134 A 
ATOM     65  F   UNL A   1      48.645  25.540  30.362  1.00  0.00    -0.206 F 
ATOM     66  C   UNL A   1      50.496  25.315  28.936  1.00  0.00     0.040 A 
ATOM     67  C   UNL A   1      50.295  25.897  26.609  1.00  0.00     0.040 A 
ATOM     68  F   UNL A   1      48.261  26.718  25.776  1.00  0.00    -0.206 F 
ATOM     69  C   UNL A   1      51.068  25.432  27.672  1.00  0.00     0.006 A 
ENDBRANCH  41  62
BRANCH  53  70
ATOM     70  C   UNL A   1      45.351  32.167  29.900  1.00  0.00     0.057 A 
ATOM     71  C   UNL A   1      45.712  32.465  31.218  1.00  0.00     0.134 A 
ATOM     72  C   UNL A   1      45.606  33.136  28.920  1.00  0.00     0.134 A 
ATOM     73  F   UNL A   1      45.483  31.582  32.202  1.00  0.00    -0.206 F 
ATOM     74  C   UNL A   1      46.304  33.684  31.550  1.00  0.00     0.040 A 
ATOM     75  C   UNL A   1      46.220  34.347  29.236  1.00  0.00     0.040 A 
ATOM     76  F   UNL A   1      45.293  32.905  27.636  1.00  0.00    -0.206 F 
ATOM     77  C   UNL A   1      46.571  34.624  30.556  1.00  0.00     0.006 A 
ENDBRANCH  53  70
ENDBRANCH  27  28
ENDBRANCH  19  22
ENDBRANCH  17  18
ENDBRANCH   1  17
TORSDOF 12
ENDMDL
MODEL 3
REMARK VINA RESULT:     -10.8      6.249     10.743
REMARK SMILES Cc1cc(O[C@@H](C)C(=O)NCCCNC(=O)c2ccc(-c3c4nc(c(-c5c(F)cccc5F)c5ccc([nH]5)c(-c5c(F)cccc5F)c5nc(c(-c6c(F)cccc6F)c6ccc3[nH]6)C=C5)C=C4)cc2)n(C)n1
REMARK SMILES IDX 12 1 11 2 10 3 8 4 9 5 6 7 7 8 5 9 4 10 1 11 2 12 3 13 73 14
REMARK SMILES IDX 71 15 72 16 13 17 14 18 15 19 16 21 17 22 18 23 70 24 19 25
REMARK SMILES IDX 69 26 20 27 21 28 22 29 63 30 23 31 68 32 62 33 64 34 24 35
REMARK SMILES IDX 67 36 61 37 60 38 25 40 51 41 34 42 50 43 35 44 38 45 49 46
REMARK SMILES IDX 65 47 36 48 37 49 48 51 66 52 39 53 26 54 27 55 32 56 28 57
REMARK SMILES IDX 29 58 31 59 33 60 30 61 52 62 53 63 58 64 54 65 55 66 57 67
REMARK SMILES IDX 59 68 56 69 40 70 41 71 46 72 42 73 43 74 45 75 47 76 44 77
REMARK H PARENT 10 6 14 20 64 39 38 50
REMARK Flexibility Score: inf
ROOT
ATOM      1  C   UNL A   1      37.944  19.956  24.798  1.00  0.00     0.042 C 
ENDROOT
BRANCH   1   2
ATOM      2  C   UNL A   1      37.353  21.249  24.251  1.00  0.00     0.118 C 
BRANCH   2   3
ATOM      3  N   UNL A   1      37.664  22.367  25.110  1.00  0.00    -0.353 N 
ATOM      4  C   UNL A   1      36.879  23.368  25.592  1.00  0.00     0.260 C 
ATOM      5  O   UNL A   1      37.474  24.277  26.185  1.00  0.00    -0.271 OA
ATOM      6  H   UNL A   1      38.604  22.414  25.397  1.00  0.00     0.163 HD
BRANCH   4   7
ATOM      7  C   UNL A   1      35.325  23.384  25.495  1.00  0.00     0.260 C 
ATOM      8  C   UNL A   1      34.751  24.778  25.255  1.00  0.00     0.064 C 
BRANCH   7   9
ATOM      9  O   UNL A   1      34.536  22.494  26.275  1.00  0.00    -0.465 OA
BRANCH   9  10
ATOM     10  C   UNL A   1      33.791  21.529  25.737  1.00  0.00     0.212 A 
ATOM     11  C   UNL A   1      32.516  18.825  23.622  1.00  0.00     0.069 C 
ATOM     12  C   UNL A   1      32.774  19.902  24.610  1.00  0.00     0.063 A 
ATOM     13  C   UNL A   1      34.018  20.297  25.160  1.00  0.00     0.093 A 
ATOM     14  N   UNL A   1      31.789  20.714  25.000  1.00  0.00    -0.175 NA
ATOM     15  N   UNL A   1      32.417  21.639  25.755  1.00  0.00    -0.237 N 
ATOM     16  C   UNL A   1      31.623  22.632  26.439  1.00  0.00     0.178 C 
ENDBRANCH   9  10
ENDBRANCH   7   9
ENDBRANCH   4   7
ENDBRANCH   2   3
ENDBRANCH   1   2
BRANCH   1  17
ATOM     17  C   UNL A   1      38.930  20.174  25.931  1.00  0.00     0.118 C 
BRANCH  17  18
ATOM     18  N   UNL A   1      40.011  19.190  25.915  1.00  0.00    -0.352 N 
ATOM     19  C   UNL A   1      41.374  19.337  26.017  1.00  0.00     0.251 C 
ATOM     20  H   UNL A   1      39.711  18.258  25.813  1.00  0.00     0.163 HD
ATOM     21  O   UNL A   1      42.099  18.379  25.752  1.00  0.00    -0.269 OA
BRANCH  19  22
ATOM     22  C   UNL A   1      41.981  20.624  26.423  1.00  0.00     0.039 A 
ATOM     23  C   UNL A   1      42.320  21.566  25.444  1.00  0.00     0.014 A 
ATOM     24  C   UNL A   1      42.254  20.900  27.761  1.00  0.00     0.014 A 
ATOM     25  C   UNL A   1      42.849  22.806  25.815  1.00  0.00     0.010 A 
ATOM     26  C   UNL A   1      42.661  22.172  28.138  1.00  0.00     0.010 A 
ATOM     27  C   UNL A   1      42.980  23.138  27.172  1.00  0.00    -0.014 A 
BRANCH  27  28
ATOM     28  C   UNL A   1      43.488  24.452  27.642  1.00  0.00     0.031 A 
ATOM     29  C   UNL A   1      42.503  25.497  28.095  1.00  0.00     0.074 A 
ATOM     30  C   UNL A   1      44.798  24.755  27.537  1.00  0.00     0.049 A 
ATOM     31  N   UNL A   1      42.679  26.777  28.292  1.00  0.00    -0.248 NA
ATOM     32  C   UNL A   1      41.115  25.046  28.303  1.00  0.00     0.031 C 
ATOM     33  C   UNL A   1      45.849  23.844  27.083  1.00  0.00     0.029 A 
ATOM     34  N   UNL A   1      45.460  25.935  27.772  1.00  0.00    -0.354 N 
ATOM     35  C   UNL A   1      41.423  27.288  28.594  1.00  0.00     0.074 A 
ATOM     36  C   UNL A   1      40.485  26.191  28.510  1.00  0.00     0.031 C 
ATOM     37  C   UNL A   1      47.024  24.494  27.077  1.00  0.00     0.029 A 
ATOM     38  C   UNL A   1      46.801  25.882  27.469  1.00  0.00     0.049 A 
ATOM     39  H   UNL A   1      45.018  26.740  28.124  1.00  0.00     0.167 HD
ATOM     40  C   UNL A   1      41.085  28.556  28.927  1.00  0.00     0.037 A 
ATOM     41  C   UNL A   1      47.735  26.852  27.476  1.00  0.00     0.037 A 
ATOM     42  C   UNL A   1      42.033  29.627  29.066  1.00  0.00     0.049 A 
ATOM     43  C   UNL A   1      47.337  28.252  27.864  1.00  0.00     0.074 A 
ATOM     44  C   UNL A   1      41.807  30.930  29.470  1.00  0.00     0.029 A 
ATOM     45  N   UNL A   1      43.392  29.513  28.813  1.00  0.00    -0.354 N 
ATOM     46  N   UNL A   1      46.154  28.713  28.189  1.00  0.00    -0.248 NA
ATOM     47  C   UNL A   1      48.401  29.265  27.887  1.00  0.00     0.031 C 
ATOM     48  C   UNL A   1      43.023  31.617  29.422  1.00  0.00     0.029 A 
ATOM     49  C   UNL A   1      44.015  30.726  29.043  1.00  0.00     0.049 A 
ATOM     50  H   UNL A   1      43.846  28.690  28.515  1.00  0.00     0.167 HD
ATOM     51  C   UNL A   1      46.340  30.055  28.499  1.00  0.00     0.074 A 
ATOM     52  C   UNL A   1      47.748  30.335  28.319  1.00  0.00     0.031 C 
ATOM     53  C   UNL A   1      45.427  30.971  28.900  1.00  0.00     0.037 A 
BRANCH  40  54
ATOM     54  C   UNL A   1      39.634  28.854  29.176  1.00  0.00     0.057 A 
ATOM     55  C   UNL A   1      39.067  28.769  30.453  1.00  0.00     0.134 A 
ATOM     56  C   UNL A   1      38.806  29.281  28.130  1.00  0.00     0.134 A 
ATOM     57  F   UNL A   1      39.801  28.355  31.498  1.00  0.00    -0.206 F 
ATOM     58  C   UNL A   1      37.723  29.074  30.678  1.00  0.00     0.040 A 
ATOM     59  C   UNL A   1      37.470  29.619  28.347  1.00  0.00     0.040 A 
ATOM     60  F   UNL A   1      39.286  29.392  26.882  1.00  0.00    -0.206 F 
ATOM     61  C   UNL A   1      36.923  29.509  29.624  1.00  0.00     0.006 A 
ENDBRANCH  40  54
BRANCH  41  62
ATOM     62  C   UNL A   1      49.141  26.543  27.107  1.00  0.00     0.057 A 
ATOM     63  C   UNL A   1      50.082  26.199  28.085  1.00  0.00     0.134 A 
ATOM     64  C   UNL A   1      49.585  26.601  25.781  1.00  0.00     0.134 A 
ATOM     65  F   UNL A   1      49.724  26.143  29.376  1.00  0.00    -0.206 F 
ATOM     66  C   UNL A   1      51.418  25.953  27.762  1.00  0.00     0.040 A 
ATOM     67  C   UNL A   1      50.911  26.330  25.440  1.00  0.00     0.040 A 
ATOM     68  F   UNL A   1      48.733  26.917  24.794  1.00  0.00    -0.206 F 
ATOM     69  C   UNL A   1      51.835  26.014  26.435  1.00  0.00     0.006 A 
ENDBRANCH  41  62
BRANCH  53  70
ATOM     70  C   UNL A   1      45.920  32.342  29.253  1.00  0.00     0.057 A 
ATOM     71  C   UNL A   1      45.943  33.387  28.323  1.00  0.00     0.134 A 
ATOM     72  C   UNL A   1      46.288  32.638  30.572  1.00  0.00     0.134 A 
ATOM     73  F   UNL A   1      45.612  33.166  27.042  1.00  0.00    -0.206 F 
ATOM     74  C   UNL A   1      46.320  34.679  28.692  1.00  0.00     0.040 A 
ATOM     75  C   UNL A   1      46.642  33.930  30.959  1.00  0.00     0.040 A 
ATOM     76  F   UNL A   1      46.275  31.681  31.513  1.00  0.00    -0.206 F 
ATOM     77  C   UNL A   1      46.659  34.955  30.016  1.00  0.00     0.006 A 
ENDBRANCH  53  70
ENDBRANCH  27  28
ENDBRANCH  19  22
ENDBRANCH  17  18
ENDBRANCH   1  17
TORSDOF 12
ENDMDL
