MODEL 1
REMARK VINA RESULT:     -10.3      0.000      0.000
REMARK SMILES O=C(NCCCNC(=O)[C@@H]1CC[C@@H](CNC(=O)c2ccc(O)nn2)O1)c1ccc(-c2c3nc(c(-c4c(F)cccc4F)c4ccc([nH]4)c(-c4c(F)cccc4F)c4nc(c(-c5c(F)cccc5F)c5ccc2[nH]5)C=C4)C=C3)cc1
REMARK SMILES IDX 6 1 5 2 4 3 3 4 1 5 2 6 26 8 27 9 79 10 28 11 78 12 29 13
REMARK SMILES IDX 30 14 31 15 72 16 32 17 77 18 71 19 73 20 33 21 76 22 70 23
REMARK SMILES IDX 69 24 34 26 60 27 43 28 59 29 44 30 47 31 58 32 74 33 45 34
REMARK SMILES IDX 46 35 57 37 75 38 48 39 35 40 36 41 41 42 37 43 38 44 40 45
REMARK SMILES IDX 42 46 39 47 61 48 62 49 67 50 63 51 64 52 66 53 68 54 65 55
REMARK SMILES IDX 49 56 50 57 55 58 51 59 52 60 54 61 56 62 53 63 7 64 8 65
REMARK SMILES IDX 9 67 10 68 11 69 25 70 12 71 13 72 14 73 15 74 16 75 17 77
REMARK SMILES IDX 18 78 19 79 24 80 20 81 23 82 21 83 22 84
REMARK H PARENT 3 7 73 25 47 36 7 66 15 76 22 85
REMARK Flexibility Score: inf
ROOT
ATOM      1  C   UNL A   1      33.266  36.393  32.732  1.00  0.00     0.117 C 
ENDROOT
BRANCH   1   2
ATOM      2  C   UNL A   1      32.826  36.964  31.389  1.00  0.00     0.042 C 
BRANCH   2   3
ATOM      3  C   UNL A   1      33.600  36.385  30.207  1.00  0.00     0.118 C 
BRANCH   3   4
ATOM      4  N   UNL A   1      32.782  35.462  29.431  1.00  0.00    -0.352 N 
ATOM      5  O   UNL A   1      32.355  33.910  27.864  1.00  0.00    -0.269 OA
ATOM      6  C   UNL A   1      33.145  34.373  28.686  1.00  0.00     0.251 C 
ATOM      7  H   UNL A   1      31.816  35.651  29.446  1.00  0.00     0.163 HD
BRANCH   6   8
ATOM      8  C   UNL A   1      34.463  33.732  28.874  1.00  0.00     0.039 A 
ATOM      9  C   UNL A   1      35.520  34.013  28.004  1.00  0.00     0.014 A 
ATOM     10  C   UNL A   1      34.673  32.928  30.000  1.00  0.00     0.014 A 
ATOM     11  C   UNL A   1      36.767  33.430  28.218  1.00  0.00     0.010 A 
ATOM     12  C   UNL A   1      35.936  32.383  30.240  1.00  0.00     0.010 A 
ATOM     13  C   UNL A   1      36.987  32.623  29.344  1.00  0.00    -0.014 A 
BRANCH  13  14
ATOM     14  C   UNL A   1      38.350  32.099  29.594  1.00  0.00     0.031 A 
ATOM     15  C   UNL A   1      39.339  32.883  30.403  1.00  0.00     0.074 A 
ATOM     16  C   UNL A   1      38.666  30.875  29.131  1.00  0.00     0.049 A 
ATOM     17  N   UNL A   1      40.525  32.524  30.826  1.00  0.00    -0.248 NA
ATOM     18  C   UNL A   1      38.946  34.246  30.791  1.00  0.00     0.031 C 
ATOM     19  C   UNL A   1      37.787  30.028  28.320  1.00  0.00     0.029 A 
ATOM     20  N   UNL A   1      39.799  30.122  29.295  1.00  0.00    -0.354 N 
ATOM     21  C   UNL A   1      41.009  33.603  31.552  1.00  0.00     0.074 A 
ATOM     22  C   UNL A   1      40.012  34.650  31.468  1.00  0.00     0.031 C 
ATOM     23  C   UNL A   1      38.400  28.856  28.089  1.00  0.00     0.029 A 
ATOM     24  C   UNL A   1      39.718  28.879  28.715  1.00  0.00     0.049 A 
ATOM     25  H   UNL A   1      40.593  30.441  29.782  1.00  0.00     0.167 HD
ATOM     26  C   UNL A   1      42.169  33.700  32.245  1.00  0.00     0.037 A 
ATOM     27  C   UNL A   1      40.606  27.870  28.701  1.00  0.00     0.037 A 
ATOM     28  C   UNL A   1      43.170  32.668  32.305  1.00  0.00     0.049 A 
ATOM     29  C   UNL A   1      41.908  28.031  29.432  1.00  0.00     0.074 A 
ATOM     30  C   UNL A   1      44.385  32.677  32.970  1.00  0.00     0.029 A 
ATOM     31  N   UNL A   1      43.075  31.440  31.668  1.00  0.00    -0.354 N 
ATOM     32  N   UNL A   1      42.333  29.039  30.153  1.00  0.00    -0.248 NA
ATOM     33  C   UNL A   1      42.849  26.906  29.352  1.00  0.00     0.031 C 
ATOM     34  C   UNL A   1      45.037  31.465  32.711  1.00  0.00     0.029 A 
ATOM     35  C   UNL A   1      44.212  30.688  31.914  1.00  0.00     0.049 A 
ATOM     36  H   UNL A   1      42.311  31.146  31.121  1.00  0.00     0.167 HD
ATOM     37  C   UNL A   1      43.580  28.662  30.632  1.00  0.00     0.074 A 
ATOM     38  C   UNL A   1      43.832  27.325  30.135  1.00  0.00     0.031 C 
ATOM     39  C   UNL A   1      44.444  29.360  31.410  1.00  0.00     0.037 A 
BRANCH  26  40
ATOM     40  C   UNL A   1      42.407  34.971  33.004  1.00  0.00     0.057 A 
ATOM     41  C   UNL A   1      43.222  35.984  32.483  1.00  0.00     0.134 A 
ATOM     42  C   UNL A   1      41.851  35.177  34.273  1.00  0.00     0.134 A 
ATOM     43  F   UNL A   1      43.787  35.850  31.274  1.00  0.00    -0.206 F 
ATOM     44  C   UNL A   1      43.476  37.155  33.200  1.00  0.00     0.040 A 
ATOM     45  C   UNL A   1      42.083  36.350  34.991  1.00  0.00     0.040 A 
ATOM     46  F   UNL A   1      41.050  34.250  34.822  1.00  0.00    -0.206 F 
ATOM     47  C   UNL A   1      42.903  37.342  34.456  1.00  0.00     0.006 A 
ENDBRANCH  26  40
BRANCH  27  48
ATOM     48  C   UNL A   1      40.292  26.606  27.993  1.00  0.00     0.057 A 
ATOM     49  C   UNL A   1      39.446  25.646  28.559  1.00  0.00     0.134 A 
ATOM     50  C   UNL A   1      40.801  26.348  26.716  1.00  0.00     0.134 A 
ATOM     51  F   UNL A   1      38.929  25.835  29.782  1.00  0.00    -0.206 F 
ATOM     52  C   UNL A   1      39.113  24.475  27.878  1.00  0.00     0.040 A 
ATOM     53  C   UNL A   1      40.460  25.192  26.014  1.00  0.00     0.040 A 
ATOM     54  F   UNL A   1      41.603  27.242  26.116  1.00  0.00    -0.206 F 
ATOM     55  C   UNL A   1      39.613  24.251  26.596  1.00  0.00     0.006 A 
ENDBRANCH  27  48
BRANCH  39  56
ATOM     56  C   UNL A   1      45.720  28.667  31.782  1.00  0.00     0.057 A 
ATOM     57  C   UNL A   1      45.767  27.799  32.880  1.00  0.00     0.134 A 
ATOM     58  C   UNL A   1      46.896  28.847  31.043  1.00  0.00     0.134 A 
ATOM     59  F   UNL A   1      44.675  27.589  33.630  1.00  0.00    -0.206 F 
ATOM     60  C   UNL A   1      46.939  27.126  33.225  1.00  0.00     0.040 A 
ATOM     61  C   UNL A   1      48.067  28.160  31.364  1.00  0.00     0.040 A 
ATOM     62  F   UNL A   1      46.908  29.650  29.968  1.00  0.00    -0.206 F 
ATOM     63  C   UNL A   1      48.091  27.298  32.459  1.00  0.00     0.006 A 
ENDBRANCH  39  56
ENDBRANCH  13  14
ENDBRANCH   6   8
ENDBRANCH   3   4
ENDBRANCH   2   3
ENDBRANCH   1   2
BRANCH   1  64
ATOM     64  N   UNL A   1      33.076  34.958  32.812  1.00  0.00    -0.354 N 
ATOM     65  C   UNL A   1      33.894  34.012  33.358  1.00  0.00     0.249 C 
ATOM     66  H   UNL A   1      32.240  34.619  32.418  1.00  0.00     0.163 HD
ATOM     67  O   UNL A   1      33.532  32.834  33.309  1.00  0.00    -0.272 OA
BRANCH  65  68
ATOM     68  C   UNL A   1      35.189  34.416  34.079  1.00  0.00     0.207 C 
ATOM     69  C   UNL A   1      36.344  34.607  33.111  1.00  0.00     0.045 C 
ATOM     70  O   UNL A   1      35.645  33.505  35.087  1.00  0.00    -0.363 OA
ATOM     71  C   UNL A   1      37.534  34.485  34.028  1.00  0.00     0.037 C 
ATOM     72  C   UNL A   1      37.084  33.434  35.034  1.00  0.00     0.138 C 
BRANCH  72  73
ATOM     73  C   UNL A   1      37.660  33.606  36.447  1.00  0.00     0.148 C 
BRANCH  73  74
ATOM     74  N   UNL A   1      37.556  32.396  37.250  1.00  0.00    -0.348 N 
ATOM     75  C   UNL A   1      37.895  31.108  36.896  1.00  0.00     0.271 C 
ATOM     76  H   UNL A   1      37.201  32.514  38.160  1.00  0.00     0.163 HD
ATOM     77  O   UNL A   1      37.499  30.166  37.582  1.00  0.00    -0.267 OA
BRANCH  75  78
ATOM     78  C   UNL A   1      38.672  30.846  35.661  1.00  0.00     0.151 A 
ATOM     79  C   UNL A   1      39.983  31.288  35.559  1.00  0.00     0.042 A 
ATOM     80  N   UNL A   1      38.058  30.144  34.676  1.00  0.00    -0.142 NA
ATOM     81  C   UNL A   1      40.695  30.951  34.415  1.00  0.00     0.072 A 
ATOM     82  N   UNL A   1      38.758  29.820  33.554  1.00  0.00    -0.112 NA
ATOM     83  C   UNL A   1      40.039  30.218  33.451  1.00  0.00     0.230 A 
BRANCH  83  84
ATOM     84  O   UNL A   1      40.683  29.836  32.318  1.00  0.00    -0.492 OA
ATOM     85  H   UNL A   1      41.614  29.732  32.321  1.00  0.00     0.295 HD
ENDBRANCH  83  84
ENDBRANCH  75  78
ENDBRANCH  73  74
ENDBRANCH  72  73
ENDBRANCH  65  68
ENDBRANCH   1  64
TORSDOF 14
ENDMDL
MODEL 2
REMARK VINA RESULT:      -9.8      4.336      7.760
REMARK SMILES O=C(NCCCNC(=O)[C@@H]1CC[C@@H](CNC(=O)c2ccc(O)nn2)O1)c1ccc(-c2c3nc(c(-c4c(F)cccc4F)c4ccc([nH]4)c(-c4c(F)cccc4F)c4nc(c(-c5c(F)cccc5F)c5ccc2[nH]5)C=C4)C=C3)cc1
REMARK SMILES IDX 6 1 5 2 4 3 3 4 1 5 2 6 26 8 27 9 79 10 28 11 78 12 29 13
REMARK SMILES IDX 30 14 31 15 72 16 32 17 77 18 71 19 73 20 33 21 76 22 70 23
REMARK SMILES IDX 69 24 34 26 60 27 43 28 59 29 44 30 47 31 58 32 74 33 45 34
REMARK SMILES IDX 46 35 57 37 75 38 48 39 35 40 36 41 41 42 37 43 38 44 40 45
REMARK SMILES IDX 42 46 39 47 61 48 62 49 67 50 63 51 64 52 66 53 68 54 65 55
REMARK SMILES IDX 49 56 50 57 55 58 51 59 52 60 54 61 56 62 53 63 7 64 8 65
REMARK SMILES IDX 9 67 10 68 11 69 25 70 12 71 13 72 14 73 15 74 16 75 17 77
REMARK SMILES IDX 18 78 19 79 24 80 20 81 23 82 21 83 22 84
REMARK H PARENT 3 7 73 25 47 36 7 66 15 76 22 85
REMARK Flexibility Score: inf
ROOT
ATOM      1  C   UNL A   1      31.503  30.673  27.092  1.00  0.00     0.117 C 
ENDROOT
BRANCH   1   2
ATOM      2  C   UNL A   1      31.478  32.157  26.744  1.00  0.00     0.042 C 
BRANCH   2   3
ATOM      3  C   UNL A   1      32.784  32.875  27.078  1.00  0.00     0.118 C 
BRANCH   3   4
ATOM      4  N   UNL A   1      32.540  34.207  27.617  1.00  0.00    -0.352 N 
ATOM      5  O   UNL A   1      32.508  35.818  29.181  1.00  0.00    -0.269 OA
ATOM      6  C   UNL A   1      33.063  34.821  28.723  1.00  0.00     0.251 C 
ATOM      7  H   UNL A   1      31.898  34.751  27.105  1.00  0.00     0.163 HD
BRANCH   6   8
ATOM      8  C   UNL A   1      34.298  34.316  29.356  1.00  0.00     0.039 A 
ATOM      9  C   UNL A   1      34.233  33.478  30.473  1.00  0.00     0.014 A 
ATOM     10  C   UNL A   1      35.532  34.593  28.756  1.00  0.00     0.014 A 
ATOM     11  C   UNL A   1      35.405  32.979  31.034  1.00  0.00     0.010 A 
ATOM     12  C   UNL A   1      36.704  34.054  29.292  1.00  0.00     0.010 A 
ATOM     13  C   UNL A   1      36.647  33.252  30.441  1.00  0.00    -0.014 A 
BRANCH  13  14
ATOM     14  C   UNL A   1      37.864  32.627  31.006  1.00  0.00     0.031 A 
ATOM     15  C   UNL A   1      38.455  33.119  32.294  1.00  0.00     0.074 A 
ATOM     16  C   UNL A   1      38.398  31.566  30.374  1.00  0.00     0.049 A 
ATOM     17  N   UNL A   1      39.436  32.611  32.996  1.00  0.00    -0.248 NA
ATOM     18  C   UNL A   1      37.868  34.338  32.869  1.00  0.00     0.031 C 
ATOM     19  C   UNL A   1      37.915  31.008  29.108  1.00  0.00     0.029 A 
ATOM     20  N   UNL A   1      39.445  30.751  30.720  1.00  0.00    -0.354 N 
ATOM     21  C   UNL A   1      39.566  33.429  34.109  1.00  0.00     0.074 A 
ATOM     22  C   UNL A   1      38.600  34.498  33.963  1.00  0.00     0.031 C 
ATOM     23  C   UNL A   1      38.642  29.921  28.802  1.00  0.00     0.029 A 
ATOM     24  C   UNL A   1      39.651  29.719  29.837  1.00  0.00     0.049 A 
ATOM     25  H   UNL A   1      39.996  30.893  31.523  1.00  0.00     0.167 HD
ATOM     26  C   UNL A   1      40.399  33.287  35.168  1.00  0.00     0.037 A 
ATOM     27  C   UNL A   1      40.547  28.718  29.867  1.00  0.00     0.037 A 
ATOM     28  C   UNL A   1      41.377  32.239  35.299  1.00  0.00     0.049 A 
ATOM     29  C   UNL A   1      41.496  28.621  31.027  1.00  0.00     0.074 A 
ATOM     30  C   UNL A   1      42.277  32.017  36.327  1.00  0.00     0.029 A 
ATOM     31  N   UNL A   1      41.589  31.237  34.363  1.00  0.00    -0.354 N 
ATOM     32  N   UNL A   1      41.577  29.375  32.095  1.00  0.00    -0.248 NA
ATOM     33  C   UNL A   1      42.473  27.525  30.986  1.00  0.00     0.031 C 
ATOM     34  C   UNL A   1      43.052  30.897  36.000  1.00  0.00     0.029 A 
ATOM     35  C   UNL A   1      42.611  30.403  34.784  1.00  0.00     0.049 A 
ATOM     36  H   UNL A   1      41.085  31.135  33.523  1.00  0.00     0.167 HD
ATOM     37  C   UNL A   1      42.597  28.832  32.865  1.00  0.00     0.074 A 
ATOM     38  C   UNL A   1      43.090  27.674  32.148  1.00  0.00     0.031 C 
ATOM     39  C   UNL A   1      43.086  29.255  34.056  1.00  0.00     0.037 A 
BRANCH  26  40
ATOM     40  C   UNL A   1      40.276  34.291  36.275  1.00  0.00     0.057 A 
ATOM     41  C   UNL A   1      39.385  34.093  37.336  1.00  0.00     0.134 A 
ATOM     42  C   UNL A   1      41.025  35.475  36.270  1.00  0.00     0.134 A 
ATOM     43  F   UNL A   1      38.638  32.981  37.401  1.00  0.00    -0.206 F 
ATOM     44  C   UNL A   1      39.240  35.041  38.352  1.00  0.00     0.040 A 
ATOM     45  C   UNL A   1      40.902  36.421  37.288  1.00  0.00     0.040 A 
ATOM     46  F   UNL A   1      41.906  35.717  35.288  1.00  0.00    -0.206 F 
ATOM     47  C   UNL A   1      40.003  36.207  38.331  1.00  0.00     0.006 A 
ENDBRANCH  26  40
BRANCH  27  48
ATOM     48  C   UNL A   1      40.582  27.710  28.780  1.00  0.00     0.057 A 
ATOM     49  C   UNL A   1      39.760  26.578  28.813  1.00  0.00     0.134 A 
ATOM     50  C   UNL A   1      41.409  27.879  27.665  1.00  0.00     0.134 A 
ATOM     51  F   UNL A   1      38.947  26.360  29.857  1.00  0.00    -0.206 F 
ATOM     52  C   UNL A   1      39.758  25.649  27.772  1.00  0.00     0.040 A 
ATOM     53  C   UNL A   1      41.401  26.970  26.607  1.00  0.00     0.040 A 
ATOM     54  F   UNL A   1      42.203  28.956  27.571  1.00  0.00    -0.206 F 
ATOM     55  C   UNL A   1      40.573  25.850  26.660  1.00  0.00     0.006 A 
ENDBRANCH  27  48
BRANCH  39  56
ATOM     56  C   UNL A   1      44.190  28.437  34.655  1.00  0.00     0.057 A 
ATOM     57  C   UNL A   1      45.530  28.766  34.421  1.00  0.00     0.134 A 
ATOM     58  C   UNL A   1      43.924  27.333  35.476  1.00  0.00     0.134 A 
ATOM     59  F   UNL A   1      45.850  29.808  33.640  1.00  0.00    -0.206 F 
ATOM     60  C   UNL A   1      46.570  28.031  34.991  1.00  0.00     0.040 A 
ATOM     61  C   UNL A   1      44.955  26.606  36.071  1.00  0.00     0.040 A 
ATOM     62  F   UNL A   1      42.660  26.981  35.752  1.00  0.00    -0.206 F 
ATOM     63  C   UNL A   1      46.283  26.953  35.828  1.00  0.00     0.006 A 
ENDBRANCH  39  56
ENDBRANCH  13  14
ENDBRANCH   6   8
ENDBRANCH   3   4
ENDBRANCH   2   3
ENDBRANCH   1   2
BRANCH   1  64
ATOM     64  N   UNL A   1      32.850  30.174  27.290  1.00  0.00    -0.354 N 
ATOM     65  C   UNL A   1      33.512  29.197  26.605  1.00  0.00     0.249 C 
ATOM     66  H   UNL A   1      33.356  30.599  28.019  1.00  0.00     0.163 HD
ATOM     67  O   UNL A   1      34.665  28.926  26.951  1.00  0.00    -0.272 OA
BRANCH  65  68
ATOM     68  C   UNL A   1      32.866  28.512  25.392  1.00  0.00     0.207 C 
ATOM     69  C   UNL A   1      33.751  27.420  24.815  1.00  0.00     0.045 C 
ATOM     70  O   UNL A   1      32.521  29.378  24.304  1.00  0.00    -0.363 OA
ATOM     71  C   UNL A   1      33.187  27.271  23.426  1.00  0.00     0.037 C 
ATOM     72  C   UNL A   1      32.794  28.698  23.062  1.00  0.00     0.138 C 
BRANCH  72  73
ATOM     73  C   UNL A   1      31.576  28.813  22.134  1.00  0.00     0.148 C 
BRANCH  73  74
ATOM     74  N   UNL A   1      30.445  28.014  22.586  1.00  0.00    -0.348 N 
ATOM     75  C   UNL A   1      29.167  28.437  22.880  1.00  0.00     0.271 C 
ATOM     76  H   UNL A   1      30.616  27.050  22.694  1.00  0.00     0.163 HD
ATOM     77  O   UNL A   1      28.409  27.693  23.502  1.00  0.00    -0.267 OA
BRANCH  75  78
ATOM     78  C   UNL A   1      28.723  29.803  22.513  1.00  0.00     0.151 A 
ATOM     79  C   UNL A   1      28.830  30.838  23.431  1.00  0.00     0.042 A 
ATOM     80  N   UNL A   1      28.247  29.987  21.256  1.00  0.00    -0.142 NA
ATOM     81  C   UNL A   1      28.474  32.115  23.015  1.00  0.00     0.072 A 
ATOM     82  N   UNL A   1      27.894  31.238  20.854  1.00  0.00    -0.112 NA
ATOM     83  C   UNL A   1      28.018  32.258  21.723  1.00  0.00     0.230 A 
BRANCH  83  84
ATOM     84  O   UNL A   1      27.676  33.482  21.245  1.00  0.00    -0.492 OA
ATOM     85  H   UNL A   1      28.169  33.867  20.548  1.00  0.00     0.295 HD
ENDBRANCH  83  84
ENDBRANCH  75  78
ENDBRANCH  73  74
ENDBRANCH  72  73
ENDBRANCH  65  68
ENDBRANCH   1  64
TORSDOF 14
ENDMDL
MODEL 3
REMARK VINA RESULT:      -9.8      5.975     11.750
REMARK SMILES O=C(NCCCNC(=O)[C@@H]1CC[C@@H](CNC(=O)c2ccc(O)nn2)O1)c1ccc(-c2c3nc(c(-c4c(F)cccc4F)c4ccc([nH]4)c(-c4c(F)cccc4F)c4nc(c(-c5c(F)cccc5F)c5ccc2[nH]5)C=C4)C=C3)cc1
REMARK SMILES IDX 6 1 5 2 4 3 3 4 1 5 2 6 26 8 27 9 79 10 28 11 78 12 29 13
REMARK SMILES IDX 30 14 31 15 72 16 32 17 77 18 71 19 73 20 33 21 76 22 70 23
REMARK SMILES IDX 69 24 34 26 60 27 43 28 59 29 44 30 47 31 58 32 74 33 45 34
REMARK SMILES IDX 46 35 57 37 75 38 48 39 35 40 36 41 41 42 37 43 38 44 40 45
REMARK SMILES IDX 42 46 39 47 61 48 62 49 67 50 63 51 64 52 66 53 68 54 65 55
REMARK SMILES IDX 49 56 50 57 55 58 51 59 52 60 54 61 56 62 53 63 7 64 8 65
REMARK SMILES IDX 9 67 10 68 11 69 25 70 12 71 13 72 14 73 15 74 16 75 17 77
REMARK SMILES IDX 18 78 19 79 24 80 20 81 23 82 21 83 22 84
REMARK H PARENT 3 7 73 25 47 36 7 66 15 76 22 85
REMARK Flexibility Score: inf
ROOT
ATOM      1  C   UNL A   1      36.377  20.511  25.000  1.00  0.00     0.117 C 
ENDROOT
BRANCH   1   2
ATOM      2  C   UNL A   1      37.635  19.658  24.888  1.00  0.00     0.042 C 
BRANCH   2   3
ATOM      3  C   UNL A   1      38.799  20.191  25.720  1.00  0.00     0.118 C 
BRANCH   3   4
ATOM      4  N   UNL A   1      39.868  19.206  25.837  1.00  0.00    -0.352 N 
ATOM      5  O   UNL A   1      41.978  18.441  25.751  1.00  0.00    -0.269 OA
ATOM      6  C   UNL A   1      41.218  19.382  25.977  1.00  0.00     0.251 C 
ATOM      7  H   UNL A   1      39.572  18.268  25.813  1.00  0.00     0.163 HD
BRANCH   6   8
ATOM      8  C   UNL A   1      41.771  20.678  26.419  1.00  0.00     0.039 A 
ATOM      9  C   UNL A   1      42.069  21.679  25.490  1.00  0.00     0.014 A 
ATOM     10  C   UNL A   1      41.888  20.935  27.790  1.00  0.00     0.014 A 
ATOM     11  C   UNL A   1      42.554  22.909  25.927  1.00  0.00     0.010 A 
ATOM     12  C   UNL A   1      42.328  22.186  28.229  1.00  0.00     0.010 A 
ATOM     13  C   UNL A   1      42.674  23.176  27.299  1.00  0.00    -0.014 A 
BRANCH  13  14
ATOM     14  C   UNL A   1      43.099  24.527  27.731  1.00  0.00     0.031 A 
ATOM     15  C   UNL A   1      44.541  24.935  27.671  1.00  0.00     0.074 A 
ATOM     16  C   UNL A   1      42.158  25.406  28.122  1.00  0.00     0.049 A 
ATOM     17  N   UNL A   1      45.073  26.111  27.887  1.00  0.00    -0.248 NA
ATOM     18  C   UNL A   1      45.513  23.888  27.322  1.00  0.00     0.031 C 
ATOM     19  C   UNL A   1      40.726  25.114  28.232  1.00  0.00     0.029 A 
ATOM     20  N   UNL A   1      42.259  26.726  28.475  1.00  0.00    -0.354 N 
ATOM     21  C   UNL A   1      46.435  25.955  27.673  1.00  0.00     0.074 A 
ATOM     22  C   UNL A   1      46.656  24.557  27.364  1.00  0.00     0.031 C 
ATOM     23  C   UNL A   1      40.078  26.234  28.590  1.00  0.00     0.029 A 
ATOM     24  C   UNL A   1      41.048  27.312  28.754  1.00  0.00     0.049 A 
ATOM     25  H   UNL A   1      43.116  27.208  28.522  1.00  0.00     0.167 HD
ATOM     26  C   UNL A   1      47.408  26.897  27.709  1.00  0.00     0.037 A 
ATOM     27  C   UNL A   1      40.756  28.579  29.095  1.00  0.00     0.037 A 
ATOM     28  C   UNL A   1      47.190  28.280  28.044  1.00  0.00     0.049 A 
ATOM     29  C   UNL A   1      41.866  29.587  29.181  1.00  0.00     0.074 A 
ATOM     30  C   UNL A   1      48.113  29.309  28.120  1.00  0.00     0.029 A 
ATOM     31  N   UNL A   1      45.957  28.828  28.366  1.00  0.00    -0.354 N 
ATOM     32  N   UNL A   1      43.143  29.436  28.932  1.00  0.00    -0.248 NA
ATOM     33  C   UNL A   1      41.487  30.946  29.591  1.00  0.00     0.031 C 
ATOM     34  C   UNL A   1      47.443  30.473  28.516  1.00  0.00     0.029 A 
ATOM     35  C   UNL A   1      46.097  30.175  28.652  1.00  0.00     0.049 A 
ATOM     36  H   UNL A   1      45.107  28.331  28.387  1.00  0.00     0.167 HD
ATOM     37  C   UNL A   1      43.717  30.684  29.130  1.00  0.00     0.074 A 
ATOM     38  C   UNL A   1      42.644  31.584  29.501  1.00  0.00     0.031 C 
ATOM     39  C   UNL A   1      45.017  31.054  29.020  1.00  0.00     0.037 A 
BRANCH  26  40
ATOM     40  C   UNL A   1      48.799  26.457  27.365  1.00  0.00     0.057 A 
ATOM     41  C   UNL A   1      49.250  26.451  26.040  1.00  0.00     0.134 A 
ATOM     42  C   UNL A   1      49.685  26.006  28.353  1.00  0.00     0.134 A 
ATOM     43  F   UNL A   1      48.452  26.868  25.046  1.00  0.00    -0.206 F 
ATOM     44  C   UNL A   1      50.533  26.008  25.709  1.00  0.00     0.040 A 
ATOM     45  C   UNL A   1      50.975  25.579  28.037  1.00  0.00     0.040 A 
ATOM     46  F   UNL A   1      49.317  26.000  29.643  1.00  0.00    -0.206 F 
ATOM     47  C   UNL A   1      51.400  25.574  26.710  1.00  0.00     0.006 A 
ENDBRANCH  26  40
BRANCH  27  48
ATOM     48  C   UNL A   1      39.353  28.980  29.358  1.00  0.00     0.057 A 
ATOM     49  C   UNL A   1      38.543  29.499  28.342  1.00  0.00     0.134 A 
ATOM     50  C   UNL A   1      38.780  28.814  30.623  1.00  0.00     0.134 A 
ATOM     51  F   UNL A   1      39.037  29.683  27.109  1.00  0.00    -0.206 F 
ATOM     52  C   UNL A   1      37.209  29.837  28.574  1.00  0.00     0.040 A 
ATOM     53  C   UNL A   1      37.442  29.126  30.864  1.00  0.00     0.040 A 
ATOM     54  F   UNL A   1      39.504  28.302  31.630  1.00  0.00    -0.206 F 
ATOM     55  C   UNL A   1      36.653  29.640  29.837  1.00  0.00     0.006 A 
ENDBRANCH  27  48
BRANCH  39  56
ATOM     56  C   UNL A   1      45.327  32.497  29.281  1.00  0.00     0.057 A 
ATOM     57  C   UNL A   1      45.702  32.926  30.559  1.00  0.00     0.134 A 
ATOM     58  C   UNL A   1      45.268  33.456  28.262  1.00  0.00     0.134 A 
ATOM     59  F   UNL A   1      45.772  32.057  31.578  1.00  0.00    -0.206 F 
ATOM     60  C   UNL A   1      46.019  34.261  30.814  1.00  0.00     0.040 A 
ATOM     61  C   UNL A   1      45.606  34.789  28.500  1.00  0.00     0.040 A 
ATOM     62  F   UNL A   1      44.934  33.102  27.012  1.00  0.00    -0.206 F 
ATOM     63  C   UNL A   1      45.982  35.195  29.780  1.00  0.00     0.006 A 
ENDBRANCH  39  56
ENDBRANCH  13  14
ENDBRANCH   6   8
ENDBRANCH   3   4
ENDBRANCH   2   3
ENDBRANCH   1   2
BRANCH   1  64
ATOM     64  N   UNL A   1      35.168  19.711  25.045  1.00  0.00    -0.354 N 
ATOM     65  C   UNL A   1      33.871  20.107  24.893  1.00  0.00     0.249 C 
ATOM     66  H   UNL A   1      35.303  18.750  25.207  1.00  0.00     0.163 HD
ATOM     67  O   UNL A   1      32.989  19.247  24.976  1.00  0.00    -0.272 OA
BRANCH  65  68
ATOM     68  C   UNL A   1      33.529  21.565  24.553  1.00  0.00     0.207 C 
ATOM     69  C   UNL A   1      33.589  22.465  25.776  1.00  0.00     0.045 C 
ATOM     70  O   UNL A   1      32.245  21.774  23.953  1.00  0.00    -0.363 OA
ATOM     71  C   UNL A   1      32.762  23.643  25.329  1.00  0.00     0.037 C 
ATOM     72  C   UNL A   1      31.681  22.995  24.473  1.00  0.00     0.138 C 
BRANCH  72  73
ATOM     73  C   UNL A   1      31.175  23.863  23.312  1.00  0.00     0.148 C 
BRANCH  73  74
ATOM     74  N   UNL A   1      32.230  24.226  22.376  1.00  0.00    -0.348 N 
ATOM     75  C   UNL A   1      32.541  25.475  21.884  1.00  0.00     0.271 C 
ATOM     76  H   UNL A   1      32.793  23.484  22.055  1.00  0.00     0.163 HD
ATOM     77  O   UNL A   1      33.278  25.576  20.905  1.00  0.00    -0.267 OA
BRANCH  75  78
ATOM     78  C   UNL A   1      31.939  26.691  22.484  1.00  0.00     0.151 A 
ATOM     79  C   UNL A   1      32.539  27.294  23.581  1.00  0.00     0.042 A 
ATOM     80  N   UNL A   1      30.819  27.184  21.900  1.00  0.00    -0.142 NA
ATOM     81  C   UNL A   1      31.983  28.473  24.058  1.00  0.00     0.072 A 
ATOM     82  N   UNL A   1      30.273  28.338  22.375  1.00  0.00    -0.112 NA
ATOM     83  C   UNL A   1      30.859  28.950  23.421  1.00  0.00     0.230 A 
BRANCH  83  84
ATOM     84  O   UNL A   1      30.278  30.110  23.822  1.00  0.00    -0.492 OA
ATOM     85  H   UNL A   1      29.637  30.101  24.505  1.00  0.00     0.295 HD
ENDBRANCH  83  84
ENDBRANCH  75  78
ENDBRANCH  73  74
ENDBRANCH  72  73
ENDBRANCH  65  68
ENDBRANCH   1  64
TORSDOF 14
ENDMDL
