MODEL 1
REMARK VINA RESULT:     -12.6      0.000      0.000
REMARK SMILES Cc1nc(-c2ccccc2Cl)nc2sc(C(=O)NCCCNC(=O)c3ccc(-c4c5nc(c(-c6c(F)cccc6F)c6ccc([nH]6)c(-c6c(F)cccc6F)c6nc(c(-c7c(F)cccc7F)c7ccc4[nH]7)C=C6)C=C5)cc3)c(N)c12
REMARK SMILES IDX 20 1 19 2 18 3 16 4 17 5 15 7 1 8 2 9 3 10 81 11 4 12 13 13
REMARK SMILES IDX 79 14 12 15 14 16 5 17 6 18 10 19 7 20 9 21 11 22 8 23 80 24
REMARK SMILES IDX 21 27 22 28 23 29 24 31 25 32 26 33 78 34 27 35 77 36 28 37
REMARK SMILES IDX 29 38 30 39 71 40 31 41 76 42 70 43 72 44 32 45 75 46 69 47
REMARK SMILES IDX 68 48 33 50 59 51 42 52 58 53 43 54 46 55 57 56 73 57 44 58
REMARK SMILES IDX 45 59 56 61 74 62 47 63 34 64 35 65 40 66 36 67 37 68 39 69
REMARK SMILES IDX 41 70 38 71 60 72 61 73 66 74 62 75 63 76 65 77 67 78 64 79
REMARK SMILES IDX 48 80 49 81 54 82 50 83 51 84 53 85 55 86 52 87
REMARK H PARENT 18 6 80 25 80 26 22 30 72 49 46 60
REMARK Flexibility Score: inf
ROOT
ATOM      1  C   UNL A   1      33.670  29.059  27.312  1.00  0.00     0.042 C 
ENDROOT
BRANCH   1   2
ATOM      2  C   UNL A   1      32.207  29.526  27.240  1.00  0.00     0.118 C 
BRANCH   2   3
ATOM      3  N   UNL A   1      31.696  29.592  25.873  1.00  0.00    -0.351 N 
ATOM      4  C   UNL A   1      31.562  28.615  24.900  1.00  0.00     0.263 C 
ATOM      5  O   UNL A   1      30.899  28.937  23.909  1.00  0.00    -0.268 OA
ATOM      6  H   UNL A   1      31.395  30.487  25.595  1.00  0.00     0.163 HD
BRANCH   4   7
ATOM      7  C   UNL A   1      32.121  27.279  25.061  1.00  0.00     0.118 A 
ATOM      8  C   UNL A   1      31.362  23.129  27.053  1.00  0.00     0.067 C 
ATOM      9  C   UNL A   1      32.553  23.810  26.455  1.00  0.00     0.052 A 
ATOM     10  N   UNL A   1      33.735  23.114  26.477  1.00  0.00    -0.233 NA
ATOM     11  C   UNL A   1      32.531  25.084  25.848  1.00  0.00     0.056 A 
ATOM     12  C   UNL A   1      34.817  23.634  25.868  1.00  0.00     0.162 A 
ATOM     13  C   UNL A   1      33.700  25.428  25.201  1.00  0.00     0.130 A 
ATOM     14  C   UNL A   1      31.584  26.173  25.721  1.00  0.00     0.067 A 
ATOM     15  N   UNL A   1      34.857  24.774  25.188  1.00  0.00    -0.217 NA
ATOM     16  S   UNL A   1      33.550  26.807  24.264  1.00  0.00    -0.108 S 
BRANCH  12  17
ATOM     17  C   UNL A   1      36.093  22.931  25.893  1.00  0.00     0.038 A 
ATOM     18  C   UNL A   1      37.258  23.638  26.265  1.00  0.00     0.013 A 
ATOM     19  C   UNL A   1      36.242  21.636  25.376  1.00  0.00     0.052 A 
ATOM     20  C   UNL A   1      38.527  23.078  26.111  1.00  0.00     0.001 A 
ATOM     21  C   UNL A   1      37.516  21.077  25.223  1.00  0.00     0.021 A 
ATOM     22  Cl  UNL A   1      34.891  20.709  24.820  1.00  0.00    -0.084 Cl
ATOM     23  C   UNL A   1      38.655  21.798  25.582  1.00  0.00     0.002 A 
ENDBRANCH  12  17
BRANCH  14  24
ATOM     24  N   UNL A   1      30.339  26.177  26.247  1.00  0.00    -0.397 N 
ATOM     25  H   UNL A   1      29.676  26.835  25.937  1.00  0.00     0.156 HD
ATOM     26  H   UNL A   1      30.096  25.522  26.940  1.00  0.00     0.156 HD
ENDBRANCH  14  24
ENDBRANCH   4   7
ENDBRANCH   2   3
ENDBRANCH   1   2
BRANCH   1  27
ATOM     27  C   UNL A   1      34.635  30.192  27.044  1.00  0.00     0.118 C 
BRANCH  27  28
ATOM     28  N   UNL A   1      34.403  31.343  27.920  1.00  0.00    -0.352 N 
ATOM     29  C   UNL A   1      35.002  31.623  29.136  1.00  0.00     0.251 C 
ATOM     30  H   UNL A   1      33.738  31.998  27.605  1.00  0.00     0.163 HD
ATOM     31  O   UNL A   1      34.523  32.430  29.910  1.00  0.00    -0.269 OA
BRANCH  29  32
ATOM     32  C   UNL A   1      36.255  30.919  29.461  1.00  0.00     0.039 A 
ATOM     33  C   UNL A   1      36.266  29.607  29.942  1.00  0.00     0.014 A 
ATOM     34  C   UNL A   1      37.440  31.605  29.223  1.00  0.00     0.014 A 
ATOM     35  C   UNL A   1      37.494  28.976  30.123  1.00  0.00     0.010 A 
ATOM     36  C   UNL A   1      38.616  30.921  29.189  1.00  0.00     0.010 A 
ATOM     37  C   UNL A   1      38.662  29.646  29.732  1.00  0.00    -0.014 A 
BRANCH  37  38
ATOM     38  C   UNL A   1      39.974  29.025  29.788  1.00  0.00     0.031 A 
ATOM     39  C   UNL A   1      40.527  28.896  31.163  1.00  0.00     0.074 A 
ATOM     40  C   UNL A   1      40.472  28.368  28.716  1.00  0.00     0.049 A 
ATOM     41  N   UNL A   1      41.599  29.434  31.640  1.00  0.00    -0.248 NA
ATOM     42  C   UNL A   1      39.713  28.198  32.176  1.00  0.00     0.031 C 
ATOM     43  C   UNL A   1      39.844  28.149  27.403  1.00  0.00     0.029 A 
ATOM     44  N   UNL A   1      41.615  27.642  28.612  1.00  0.00    -0.354 N 
ATOM     45  C   UNL A   1      41.709  28.968  32.948  1.00  0.00     0.074 A 
ATOM     46  C   UNL A   1      40.436  28.385  33.282  1.00  0.00     0.031 C 
ATOM     47  C   UNL A   1      40.495  27.168  26.740  1.00  0.00     0.029 A 
ATOM     48  C   UNL A   1      41.680  26.813  27.494  1.00  0.00     0.049 A 
ATOM     49  H   UNL A   1      42.341  27.698  29.275  1.00  0.00     0.167 HD
ATOM     50  C   UNL A   1      42.918  28.870  33.565  1.00  0.00     0.037 A 
ATOM     51  C   UNL A   1      42.637  25.880  27.250  1.00  0.00     0.037 A 
ATOM     52  C   UNL A   1      43.922  29.634  32.872  1.00  0.00     0.049 A 
ATOM     53  C   UNL A   1      43.791  26.214  28.123  1.00  0.00     0.074 A 
ATOM     54  C   UNL A   1      44.073  30.973  32.566  1.00  0.00     0.029 A 
ATOM     55  N   UNL A   1      44.757  28.959  32.014  1.00  0.00    -0.354 N 
ATOM     56  N   UNL A   1      44.517  27.288  27.979  1.00  0.00    -0.248 NA
ATOM     57  C   UNL A   1      43.818  25.609  29.445  1.00  0.00     0.031 C 
ATOM     58  C   UNL A   1      44.585  30.988  31.234  1.00  0.00     0.029 A 
ATOM     59  C   UNL A   1      44.800  29.668  30.838  1.00  0.00     0.049 A 
ATOM     60  H   UNL A   1      45.235  28.121  32.207  1.00  0.00     0.167 HD
ATOM     61  C   UNL A   1      44.746  27.735  29.272  1.00  0.00     0.074 A 
ATOM     62  C   UNL A   1      44.341  26.626  30.136  1.00  0.00     0.031 C 
ATOM     63  C   UNL A   1      44.952  29.059  29.536  1.00  0.00     0.037 A 
BRANCH  50  64
ATOM     64  C   UNL A   1      43.259  27.809  34.578  1.00  0.00     0.057 A 
ATOM     65  C   UNL A   1      43.441  26.479  34.162  1.00  0.00     0.134 A 
ATOM     66  C   UNL A   1      43.160  27.991  35.973  1.00  0.00     0.134 A 
ATOM     67  F   UNL A   1      43.510  26.172  32.858  1.00  0.00    -0.206 F 
ATOM     68  C   UNL A   1      43.490  25.411  35.066  1.00  0.00     0.040 A 
ATOM     69  C   UNL A   1      43.262  26.940  36.888  1.00  0.00     0.040 A 
ATOM     70  F   UNL A   1      42.858  29.176  36.521  1.00  0.00    -0.206 F 
ATOM     71  C   UNL A   1      43.402  25.639  36.435  1.00  0.00     0.006 A 
ENDBRANCH  50  64
BRANCH  51  72
ATOM     72  C   UNL A   1      42.511  24.553  26.602  1.00  0.00     0.057 A 
ATOM     73  C   UNL A   1      43.223  24.258  25.429  1.00  0.00     0.134 A 
ATOM     74  C   UNL A   1      41.950  23.454  27.275  1.00  0.00     0.134 A 
ATOM     75  F   UNL A   1      43.820  25.235  24.733  1.00  0.00    -0.206 F 
ATOM     76  C   UNL A   1      43.405  22.944  24.977  1.00  0.00     0.040 A 
ATOM     77  C   UNL A   1      42.122  22.137  26.831  1.00  0.00     0.040 A 
ATOM     78  F   UNL A   1      41.298  23.612  28.435  1.00  0.00    -0.206 F 
ATOM     79  C   UNL A   1      42.869  21.876  25.688  1.00  0.00     0.006 A 
ENDBRANCH  51  72
BRANCH  63  80
ATOM     80  C   UNL A   1      45.125  29.994  28.365  1.00  0.00     0.057 A 
ATOM     81  C   UNL A   1      44.079  30.714  27.762  1.00  0.00     0.134 A 
ATOM     82  C   UNL A   1      46.419  30.302  27.935  1.00  0.00     0.134 A 
ATOM     83  F   UNL A   1      42.812  30.564  28.165  1.00  0.00    -0.206 F 
ATOM     84  C   UNL A   1      44.307  31.664  26.761  1.00  0.00     0.040 A 
ATOM     85  C   UNL A   1      46.665  31.272  26.960  1.00  0.00     0.040 A 
ATOM     86  F   UNL A   1      47.477  29.698  28.499  1.00  0.00    -0.206 F 
ATOM     87  C   UNL A   1      45.607  31.952  26.363  1.00  0.00     0.006 A 
ENDBRANCH  63  80
ENDBRANCH  37  38
ENDBRANCH  29  32
ENDBRANCH  27  28
ENDBRANCH   1  27
TORSDOF 12
ENDMDL
MODEL 2
REMARK VINA RESULT:     -12.3      3.173      7.466
REMARK SMILES Cc1nc(-c2ccccc2Cl)nc2sc(C(=O)NCCCNC(=O)c3ccc(-c4c5nc(c(-c6c(F)cccc6F)c6ccc([nH]6)c(-c6c(F)cccc6F)c6nc(c(-c7c(F)cccc7F)c7ccc4[nH]7)C=C6)C=C5)cc3)c(N)c12
REMARK SMILES IDX 20 1 19 2 18 3 16 4 17 5 15 7 1 8 2 9 3 10 81 11 4 12 13 13
REMARK SMILES IDX 79 14 12 15 14 16 5 17 6 18 10 19 7 20 9 21 11 22 8 23 80 24
REMARK SMILES IDX 21 27 22 28 23 29 24 31 25 32 26 33 78 34 27 35 77 36 28 37
REMARK SMILES IDX 29 38 30 39 71 40 31 41 76 42 70 43 72 44 32 45 75 46 69 47
REMARK SMILES IDX 68 48 33 50 59 51 42 52 58 53 43 54 46 55 57 56 73 57 44 58
REMARK SMILES IDX 45 59 56 61 74 62 47 63 34 64 35 65 40 66 36 67 37 68 39 69
REMARK SMILES IDX 41 70 38 71 60 72 61 73 66 74 62 75 63 76 65 77 67 78 64 79
REMARK SMILES IDX 48 80 49 81 54 82 50 83 51 84 53 85 55 86 52 87
REMARK H PARENT 18 6 80 25 80 26 22 30 72 49 46 60
REMARK Flexibility Score: inf
ROOT
ATOM      1  C   UNL A   1      37.331  20.103  24.815  1.00  0.00     0.042 C 
ENDROOT
BRANCH   1   2
ATOM      2  C   UNL A   1      36.196  21.092  25.125  1.00  0.00     0.118 C 
BRANCH   2   3
ATOM      3  N   UNL A   1      34.954  20.431  25.517  1.00  0.00    -0.351 N 
ATOM      4  C   UNL A   1      33.638  20.862  25.476  1.00  0.00     0.263 C 
ATOM      5  O   UNL A   1      32.785  19.993  25.682  1.00  0.00    -0.268 OA
ATOM      6  H   UNL A   1      35.072  19.521  25.872  1.00  0.00     0.163 HD
BRANCH   4   7
ATOM      7  C   UNL A   1      33.283  22.239  25.157  1.00  0.00     0.118 A 
ATOM      8  C   UNL A   1      32.752  25.236  21.622  1.00  0.00     0.067 C 
ATOM      9  C   UNL A   1      32.901  25.370  23.105  1.00  0.00     0.052 A 
ATOM     10  N   UNL A   1      32.905  26.646  23.609  1.00  0.00    -0.233 NA
ATOM     11  C   UNL A   1      32.999  24.287  24.005  1.00  0.00     0.056 A 
ATOM     12  C   UNL A   1      32.939  26.827  24.942  1.00  0.00     0.162 A 
ATOM     13  C   UNL A   1      32.940  24.645  25.336  1.00  0.00     0.130 A 
ATOM     14  C   UNL A   1      33.159  22.851  23.909  1.00  0.00     0.067 A 
ATOM     15  N   UNL A   1      32.928  25.867  25.861  1.00  0.00    -0.217 NA
ATOM     16  S   UNL A   1      32.777  23.333  26.361  1.00  0.00    -0.108 S 
BRANCH  12  17
ATOM     17  C   UNL A   1      32.967  28.169  25.510  1.00  0.00     0.038 A 
ATOM     18  C   UNL A   1      33.953  28.485  26.471  1.00  0.00     0.013 A 
ATOM     19  C   UNL A   1      31.940  29.096  25.287  1.00  0.00     0.052 A 
ATOM     20  C   UNL A   1      33.905  29.677  27.194  1.00  0.00     0.001 A 
ATOM     21  C   UNL A   1      31.894  30.291  26.013  1.00  0.00     0.021 A 
ATOM     22  Cl  UNL A   1      30.642  28.778  24.187  1.00  0.00    -0.084 Cl
ATOM     23  C   UNL A   1      32.869  30.578  26.969  1.00  0.00     0.002 A 
ENDBRANCH  12  17
BRANCH  14  24
ATOM     24  N   UNL A   1      33.263  22.162  22.751  1.00  0.00    -0.397 N 
ATOM     25  H   UNL A   1      32.995  21.216  22.716  1.00  0.00     0.156 HD
ATOM     26  H   UNL A   1      33.608  22.607  21.943  1.00  0.00     0.156 HD
ENDBRANCH  14  24
ENDBRANCH   4   7
ENDBRANCH   2   3
ENDBRANCH   1   2
BRANCH   1  27
ATOM     27  C   UNL A   1      38.632  20.519  25.464  1.00  0.00     0.118 C 
BRANCH  27  28
ATOM     28  N   UNL A   1      39.571  19.403  25.601  1.00  0.00    -0.352 N 
ATOM     29  C   UNL A   1      40.922  19.457  25.899  1.00  0.00     0.251 C 
ATOM     30  H   UNL A   1      39.196  18.503  25.462  1.00  0.00     0.163 HD
ATOM     31  O   UNL A   1      41.659  18.513  25.689  1.00  0.00    -0.269 OA
BRANCH  29  32
ATOM     32  C   UNL A   1      41.442  20.700  26.496  1.00  0.00     0.039 A 
ATOM     33  C   UNL A   1      42.075  21.683  25.730  1.00  0.00     0.014 A 
ATOM     34  C   UNL A   1      41.235  20.876  27.858  1.00  0.00     0.014 A 
ATOM     35  C   UNL A   1      42.441  22.875  26.350  1.00  0.00     0.010 A 
ATOM     36  C   UNL A   1      41.390  22.112  28.407  1.00  0.00     0.010 A 
ATOM     37  C   UNL A   1      42.083  23.077  27.690  1.00  0.00    -0.014 A 
BRANCH  37  38
ATOM     38  C   UNL A   1      42.333  24.329  28.385  1.00  0.00     0.031 A 
ATOM     39  C   UNL A   1      41.247  25.334  28.238  1.00  0.00     0.074 A 
ATOM     40  C   UNL A   1      43.317  24.418  29.309  1.00  0.00     0.049 A 
ATOM     41  N   UNL A   1      41.317  26.501  27.692  1.00  0.00    -0.248 NA
ATOM     42  C   UNL A   1      39.878  24.937  28.615  1.00  0.00     0.031 C 
ATOM     43  C   UNL A   1      44.236  23.367  29.773  1.00  0.00     0.029 A 
ATOM     44  N   UNL A   1      43.629  25.455  30.129  1.00  0.00    -0.354 N 
ATOM     45  C   UNL A   1      40.056  27.071  27.851  1.00  0.00     0.074 A 
ATOM     46  C   UNL A   1      39.171  26.004  28.238  1.00  0.00     0.031 C 
ATOM     47  C   UNL A   1      44.823  23.747  30.930  1.00  0.00     0.029 A 
ATOM     48  C   UNL A   1      44.463  25.125  31.196  1.00  0.00     0.049 A 
ATOM     49  H   UNL A   1      43.292  26.368  29.980  1.00  0.00     0.167 HD
ATOM     50  C   UNL A   1      39.890  28.421  27.902  1.00  0.00     0.037 A 
ATOM     51  C   UNL A   1      44.786  25.939  32.233  1.00  0.00     0.037 A 
ATOM     52  C   UNL A   1      41.052  29.109  27.401  1.00  0.00     0.049 A 
ATOM     53  C   UNL A   1      44.475  27.325  31.801  1.00  0.00     0.074 A 
ATOM     54  C   UNL A   1      41.708  29.133  26.185  1.00  0.00     0.029 A 
ATOM     55  N   UNL A   1      41.953  29.590  28.320  1.00  0.00    -0.354 N 
ATOM     56  N   UNL A   1      45.119  27.946  30.851  1.00  0.00    -0.248 NA
ATOM     57  C   UNL A   1      43.139  27.823  32.086  1.00  0.00     0.031 C 
ATOM     58  C   UNL A   1      43.095  29.139  26.518  1.00  0.00     0.029 A 
ATOM     59  C   UNL A   1      43.206  29.208  27.907  1.00  0.00     0.049 A 
ATOM     60  H   UNL A   1      41.740  30.111  29.127  1.00  0.00     0.167 HD
ATOM     61  C   UNL A   1      44.136  28.615  30.139  1.00  0.00     0.074 A 
ATOM     62  C   UNL A   1      42.942  28.551  30.982  1.00  0.00     0.031 C 
ATOM     63  C   UNL A   1      44.290  28.893  28.810  1.00  0.00     0.037 A 
BRANCH  50  64
ATOM     64  C   UNL A   1      38.831  29.107  28.724  1.00  0.00     0.057 A 
ATOM     65  C   UNL A   1      38.772  28.885  30.110  1.00  0.00     0.134 A 
ATOM     66  C   UNL A   1      37.713  29.768  28.175  1.00  0.00     0.134 A 
ATOM     67  F   UNL A   1      39.757  28.230  30.743  1.00  0.00    -0.206 F 
ATOM     68  C   UNL A   1      37.668  29.265  30.883  1.00  0.00     0.040 A 
ATOM     69  C   UNL A   1      36.631  30.201  28.945  1.00  0.00     0.040 A 
ATOM     70  F   UNL A   1      37.560  29.940  26.856  1.00  0.00    -0.206 F 
ATOM     71  C   UNL A   1      36.593  29.928  30.302  1.00  0.00     0.006 A 
ENDBRANCH  50  64
BRANCH  51  72
ATOM     72  C   UNL A   1      45.006  25.600  33.660  1.00  0.00     0.057 A 
ATOM     73  C   UNL A   1      43.929  25.243  34.486  1.00  0.00     0.134 A 
ATOM     74  C   UNL A   1      46.287  25.314  34.161  1.00  0.00     0.134 A 
ATOM     75  F   UNL A   1      42.667  25.447  34.083  1.00  0.00    -0.206 F 
ATOM     76  C   UNL A   1      44.113  24.598  35.716  1.00  0.00     0.040 A 
ATOM     77  C   UNL A   1      46.485  24.674  35.390  1.00  0.00     0.040 A 
ATOM     78  F   UNL A   1      47.386  25.559  33.433  1.00  0.00    -0.206 F 
ATOM     79  C   UNL A   1      45.394  24.295  36.164  1.00  0.00     0.006 A 
ENDBRANCH  51  72
BRANCH  63  80
ATOM     80  C   UNL A   1      45.640  28.633  28.187  1.00  0.00     0.057 A 
ATOM     81  C   UNL A   1      46.003  27.432  27.553  1.00  0.00     0.134 A 
ATOM     82  C   UNL A   1      46.547  29.691  28.082  1.00  0.00     0.134 A 
ATOM     83  F   UNL A   1      45.168  26.388  27.514  1.00  0.00    -0.206 F 
ATOM     84  C   UNL A   1      47.221  27.283  26.881  1.00  0.00     0.040 A 
ATOM     85  C   UNL A   1      47.752  29.567  27.384  1.00  0.00     0.040 A 
ATOM     86  F   UNL A   1      46.250  30.888  28.613  1.00  0.00    -0.206 F 
ATOM     87  C   UNL A   1      48.097  28.358  26.787  1.00  0.00     0.006 A 
ENDBRANCH  63  80
ENDBRANCH  37  38
ENDBRANCH  29  32
ENDBRANCH  27  28
ENDBRANCH   1  27
TORSDOF 12
ENDMDL
MODEL 3
REMARK VINA RESULT:     -12.3      1.809      6.045
REMARK SMILES Cc1nc(-c2ccccc2Cl)nc2sc(C(=O)NCCCNC(=O)c3ccc(-c4c5nc(c(-c6c(F)cccc6F)c6ccc([nH]6)c(-c6c(F)cccc6F)c6nc(c(-c7c(F)cccc7F)c7ccc4[nH]7)C=C6)C=C5)cc3)c(N)c12
REMARK SMILES IDX 20 1 19 2 18 3 16 4 17 5 15 7 1 8 2 9 3 10 81 11 4 12 13 13
REMARK SMILES IDX 79 14 12 15 14 16 5 17 6 18 10 19 7 20 9 21 11 22 8 23 80 24
REMARK SMILES IDX 21 27 22 28 23 29 24 31 25 32 26 33 78 34 27 35 77 36 28 37
REMARK SMILES IDX 29 38 30 39 71 40 31 41 76 42 70 43 72 44 32 45 75 46 69 47
REMARK SMILES IDX 68 48 33 50 59 51 42 52 58 53 43 54 46 55 57 56 73 57 44 58
REMARK SMILES IDX 45 59 56 61 74 62 47 63 34 64 35 65 40 66 36 67 37 68 39 69
REMARK SMILES IDX 41 70 38 71 60 72 61 73 66 74 62 75 63 76 65 77 67 78 64 79
REMARK SMILES IDX 48 80 49 81 54 82 50 83 51 84 53 85 55 86 52 87
REMARK H PARENT 18 6 80 25 80 26 22 30 72 49 46 60
REMARK Flexibility Score: inf
ROOT
ATOM      1  C   UNL A   1      34.377  30.182  26.916  1.00  0.00     0.042 C 
ENDROOT
BRANCH   1   2
ATOM      2  C   UNL A   1      32.944  29.712  27.213  1.00  0.00     0.118 C 
BRANCH   2   3
ATOM      3  N   UNL A   1      32.083  29.726  26.032  1.00  0.00    -0.351 N 
ATOM      4  C   UNL A   1      31.663  28.705  25.196  1.00  0.00     0.263 C 
ATOM      5  O   UNL A   1      30.765  29.001  24.402  1.00  0.00    -0.268 OA
ATOM      6  H   UNL A   1      31.743  30.617  25.788  1.00  0.00     0.163 HD
BRANCH   4   7
ATOM      7  C   UNL A   1      32.207  27.356  25.287  1.00  0.00     0.118 A 
ATOM      8  C   UNL A   1      31.380  23.103  27.015  1.00  0.00     0.067 C 
ATOM      9  C   UNL A   1      32.587  23.807  26.478  1.00  0.00     0.052 A 
ATOM     10  N   UNL A   1      33.762  23.099  26.478  1.00  0.00    -0.233 NA
ATOM     11  C   UNL A   1      32.586  25.115  25.948  1.00  0.00     0.056 A 
ATOM     12  C   UNL A   1      34.858  23.644  25.920  1.00  0.00     0.162 A 
ATOM     13  C   UNL A   1      33.769  25.485  25.342  1.00  0.00     0.130 A 
ATOM     14  C   UNL A   1      31.650  26.218  25.871  1.00  0.00     0.067 A 
ATOM     15  N   UNL A   1      34.920  24.822  25.309  1.00  0.00    -0.217 NA
ATOM     16  S   UNL A   1      33.646  26.918  24.486  1.00  0.00    -0.108 S 
BRANCH  12  17
ATOM     17  C   UNL A   1      36.128  22.928  25.923  1.00  0.00     0.038 A 
ATOM     18  C   UNL A   1      37.300  23.615  26.310  1.00  0.00     0.013 A 
ATOM     19  C   UNL A   1      36.264  21.646  25.374  1.00  0.00     0.052 A 
ATOM     20  C   UNL A   1      38.564  23.047  26.138  1.00  0.00     0.001 A 
ATOM     21  C   UNL A   1      37.532  21.078  25.204  1.00  0.00     0.021 A 
ATOM     22  Cl  UNL A   1      34.902  20.745  24.799  1.00  0.00    -0.084 Cl
ATOM     23  C   UNL A   1      38.678  21.780  25.578  1.00  0.00     0.002 A 
ENDBRANCH  12  17
BRANCH  14  24
ATOM     24  N   UNL A   1      30.396  26.203  26.375  1.00  0.00    -0.397 N 
ATOM     25  H   UNL A   1      30.137  25.512  27.027  1.00  0.00     0.156 HD
ATOM     26  H   UNL A   1      29.743  26.881  26.089  1.00  0.00     0.156 HD
ENDBRANCH  14  24
ENDBRANCH   4   7
ENDBRANCH   2   3
ENDBRANCH   1   2
BRANCH   1  27
ATOM     27  C   UNL A   1      35.396  29.436  27.748  1.00  0.00     0.118 C 
BRANCH  27  28
ATOM     28  N   UNL A   1      35.400  29.868  29.148  1.00  0.00    -0.352 N 
ATOM     29  C   UNL A   1      36.347  29.598  30.120  1.00  0.00     0.251 C 
ATOM     30  H   UNL A   1      34.633  30.417  29.433  1.00  0.00     0.163 HD
ATOM     31  O   UNL A   1      36.104  29.743  31.304  1.00  0.00    -0.269 OA
BRANCH  29  32
ATOM     32  C   UNL A   1      37.674  29.138  29.675  1.00  0.00     0.039 A 
ATOM     33  C   UNL A   1      38.344  29.729  28.600  1.00  0.00     0.014 A 
ATOM     34  C   UNL A   1      38.259  28.110  30.405  1.00  0.00     0.014 A 
ATOM     35  C   UNL A   1      39.639  29.308  28.311  1.00  0.00     0.010 A 
ATOM     36  C   UNL A   1      39.589  27.858  30.264  1.00  0.00     0.010 A 
ATOM     37  C   UNL A   1      40.252  28.376  29.160  1.00  0.00    -0.014 A 
BRANCH  37  38
ATOM     38  C   UNL A   1      41.633  27.958  28.994  1.00  0.00     0.031 A 
ATOM     39  C   UNL A   1      41.797  26.681  28.250  1.00  0.00     0.074 A 
ATOM     40  C   UNL A   1      42.647  28.822  29.234  1.00  0.00     0.049 A 
ATOM     41  N   UNL A   1      42.310  25.576  28.677  1.00  0.00    -0.248 NA
ATOM     42  C   UNL A   1      41.186  26.573  26.912  1.00  0.00     0.031 C 
ATOM     43  C   UNL A   1      42.571  30.230  29.652  1.00  0.00     0.029 A 
ATOM     44  N   UNL A   1      43.979  28.652  29.033  1.00  0.00    -0.354 N 
ATOM     45  C   UNL A   1      42.283  24.701  27.594  1.00  0.00     0.074 A 
ATOM     46  C   UNL A   1      41.411  25.292  26.613  1.00  0.00     0.031 C 
ATOM     47  C   UNL A   1      43.761  30.836  29.446  1.00  0.00     0.029 A 
ATOM     48  C   UNL A   1      44.726  29.830  29.051  1.00  0.00     0.049 A 
ATOM     49  H   UNL A   1      44.386  27.768  28.888  1.00  0.00     0.167 HD
ATOM     50  C   UNL A   1      43.180  23.684  27.482  1.00  0.00     0.037 A 
ATOM     51  C   UNL A   1      46.038  29.944  28.722  1.00  0.00     0.037 A 
ATOM     52  C   UNL A   1      43.835  23.425  28.738  1.00  0.00     0.049 A 
ATOM     53  C   UNL A   1      46.614  28.576  28.784  1.00  0.00     0.074 A 
ATOM     54  C   UNL A   1      43.399  23.039  29.991  1.00  0.00     0.029 A 
ATOM     55  N   UNL A   1      45.083  23.968  28.930  1.00  0.00    -0.354 N 
ATOM     56  N   UNL A   1      46.744  27.898  29.891  1.00  0.00    -0.248 NA
ATOM     57  C   UNL A   1      46.581  27.788  27.563  1.00  0.00     0.031 C 
ATOM     58  C   UNL A   1      44.169  23.820  30.904  1.00  0.00     0.029 A 
ATOM     59  C   UNL A   1      45.087  24.567  30.166  1.00  0.00     0.049 A 
ATOM     60  H   UNL A   1      45.836  23.934  28.297  1.00  0.00     0.167 HD
ATOM     61  C   UNL A   1      46.382  26.603  29.555  1.00  0.00     0.074 A 
ATOM     62  C   UNL A   1      46.349  26.583  28.092  1.00  0.00     0.031 C 
ATOM     63  C   UNL A   1      45.848  25.754  30.483  1.00  0.00     0.037 A 
BRANCH  50  64
ATOM     64  C   UNL A   1      43.710  23.171  26.169  1.00  0.00     0.057 A 
ATOM     65  C   UNL A   1      43.631  21.800  25.872  1.00  0.00     0.134 A 
ATOM     66  C   UNL A   1      44.526  23.926  25.301  1.00  0.00     0.134 A 
ATOM     67  F   UNL A   1      42.918  20.970  26.648  1.00  0.00    -0.206 F 
ATOM     68  C   UNL A   1      44.336  21.221  24.809  1.00  0.00     0.040 A 
ATOM     69  C   UNL A   1      45.190  23.369  24.205  1.00  0.00     0.040 A 
ATOM     70  F   UNL A   1      44.806  25.216  25.523  1.00  0.00    -0.206 F 
ATOM     71  C   UNL A   1      45.117  22.007  23.970  1.00  0.00     0.006 A 
ENDBRANCH  50  64
BRANCH  51  72
ATOM     72  C   UNL A   1      46.741  31.053  28.033  1.00  0.00     0.057 A 
ATOM     73  C   UNL A   1      46.172  31.673  26.910  1.00  0.00     0.134 A 
ATOM     74  C   UNL A   1      47.814  31.732  28.634  1.00  0.00     0.134 A 
ATOM     75  F   UNL A   1      45.124  31.119  26.285  1.00  0.00    -0.206 F 
ATOM     76  C   UNL A   1      46.615  32.917  26.440  1.00  0.00     0.040 A 
ATOM     77  C   UNL A   1      48.268  32.973  28.172  1.00  0.00     0.040 A 
ATOM     78  F   UNL A   1      48.395  31.261  29.747  1.00  0.00    -0.206 F 
ATOM     79  C   UNL A   1      47.654  33.580  27.082  1.00  0.00     0.006 A 
ENDBRANCH  51  72
BRANCH  63  80
ATOM     80  C   UNL A   1      45.851  26.194  31.926  1.00  0.00     0.057 A 
ATOM     81  C   UNL A   1      44.757  26.791  32.576  1.00  0.00     0.134 A 
ATOM     82  C   UNL A   1      46.943  25.855  32.730  1.00  0.00     0.134 A 
ATOM     83  F   UNL A   1      43.626  27.069  31.917  1.00  0.00    -0.206 F 
ATOM     84  C   UNL A   1      44.764  27.067  33.947  1.00  0.00     0.040 A 
ATOM     85  C   UNL A   1      46.951  26.095  34.107  1.00  0.00     0.040 A 
ATOM     86  F   UNL A   1      48.006  25.233  32.196  1.00  0.00    -0.206 F 
ATOM     87  C   UNL A   1      45.863  26.709  34.720  1.00  0.00     0.006 A 
ENDBRANCH  63  80
ENDBRANCH  37  38
ENDBRANCH  29  32
ENDBRANCH  27  28
ENDBRANCH   1  27
TORSDOF 12
ENDMDL
