MODEL 1
REMARK VINA RESULT:     -10.9      0.000      0.000
REMARK SMILES CC(C)C[C@@H](C[C@H](O)c1ccccc1)C(=O)NCCCNC(=O)c1ccc(-c2c3nc(c(-c4c(F)cccc4F)c4ccc([nH]4)c(-c4c(F)cccc4F)c4nc(c(-c5c(F)cccc5F)c5ccc2[nH]5)C=C4)C=C3)cc1
REMARK SMILES IDX 18 1 17 2 15 3 16 4 5 6 4 7 2 8 1 9 3 10 6 11 7 12 9 13
REMARK SMILES IDX 10 14 14 15 11 16 13 17 12 18 8 19 19 21 20 22 21 23 22 24
REMARK SMILES IDX 23 26 24 27 25 28 77 29 26 30 76 31 27 32 28 33 29 34 70 35
REMARK SMILES IDX 30 36 75 37 69 38 71 39 31 40 74 41 68 42 67 43 32 45 58 46
REMARK SMILES IDX 41 47 57 48 42 49 45 50 56 51 72 52 43 53 44 54 55 56 73 57
REMARK SMILES IDX 46 58 33 59 34 60 39 61 35 62 36 63 38 64 40 65 37 66 59 67
REMARK SMILES IDX 60 68 65 69 61 70 62 71 64 72 66 73 63 74 47 75 48 76 53 77
REMARK SMILES IDX 49 78 50 79 52 80 54 81 51 82
REMARK H PARENT 17 5 8 20 21 25 71 44 45 55
REMARK Flexibility Score: inf
ROOT
ATOM      1  C   UNL A   1      32.612  26.368  25.608  1.00  0.00     0.117 C 
ENDROOT
BRANCH   1   2
ATOM      2  N   UNL A   1      32.401  25.138  26.367  1.00  0.00    -0.356 N 
ATOM      3  C   UNL A   1      32.731  23.830  26.245  1.00  0.00     0.223 C 
ATOM      4  O   UNL A   1      32.303  23.117  27.167  1.00  0.00    -0.275 OA
ATOM      5  H   UNL A   1      31.878  25.304  27.185  1.00  0.00     0.163 HD
BRANCH   3   6
ATOM      6  C   UNL A   1      33.536  23.146  25.112  1.00  0.00     0.081 C 
BRANCH   6   7
ATOM      7  C   UNL A   1      34.977  22.802  25.596  1.00  0.00     0.016 C 
BRANCH   7   8
ATOM      8  C   UNL A   1      36.163  23.455  24.851  1.00  0.00    -0.017 C 
ATOM      9  C   UNL A   1      37.355  23.631  25.796  1.00  0.00     0.007 C 
ATOM     10  C   UNL A   1      36.614  22.600  23.658  1.00  0.00     0.007 C 
ENDBRANCH   7   8
ENDBRANCH   6   7
BRANCH   6  11
ATOM     11  C   UNL A   1      32.793  22.241  24.121  1.00  0.00     0.050 C 
BRANCH  11  12
ATOM     12  C   UNL A   1      32.238  20.815  24.375  1.00  0.00     0.145 C 
BRANCH  12  13
ATOM     13  C   UNL A   1      32.941  19.502  24.096  1.00  0.00    -0.020 A 
ATOM     14  C   UNL A   1      32.374  18.606  23.171  1.00  0.00     0.006 A 
ATOM     15  C   UNL A   1      34.137  19.103  24.688  1.00  0.00     0.006 A 
ATOM     16  C   UNL A   1      32.995  17.393  22.850  1.00  0.00     0.000 A 
ATOM     17  C   UNL A   1      34.786  17.913  24.352  1.00  0.00     0.000 A 
ATOM     18  C   UNL A   1      34.213  17.054  23.429  1.00  0.00     0.000 A 
ENDBRANCH  12  13
BRANCH  12  19
ATOM     19  O   UNL A   1      31.775  20.825  25.743  1.00  0.00    -0.388 OA
ATOM     20  H   UNL A   1      31.993  19.979  26.165  1.00  0.00     0.211 HD
ENDBRANCH  12  19
ENDBRANCH  11  12
ENDBRANCH   6  11
ENDBRANCH   3   6
ENDBRANCH   1   2
BRANCH   1  21
ATOM     21  C   UNL A   1      32.630  27.604  26.509  1.00  0.00     0.042 C 
BRANCH  21  22
ATOM     22  C   UNL A   1      33.937  28.378  26.553  1.00  0.00     0.118 C 
BRANCH  22  23
ATOM     23  N   UNL A   1      33.791  29.705  27.135  1.00  0.00    -0.352 N 
ATOM     24  C   UNL A   1      34.631  30.447  27.939  1.00  0.00     0.251 C 
ATOM     25  H   UNL A   1      32.943  30.152  26.915  1.00  0.00     0.163 HD
ATOM     26  O   UNL A   1      34.203  31.481  28.443  1.00  0.00    -0.269 OA
BRANCH  24  27
ATOM     27  C   UNL A   1      36.027  30.024  28.230  1.00  0.00     0.039 A 
ATOM     28  C   UNL A   1      36.322  29.459  29.480  1.00  0.00     0.014 A 
ATOM     29  C   UNL A   1      37.064  30.222  27.321  1.00  0.00     0.014 A 
ATOM     30  C   UNL A   1      37.626  29.039  29.779  1.00  0.00     0.010 A 
ATOM     31  C   UNL A   1      38.327  29.690  27.567  1.00  0.00     0.010 A 
ATOM     32  C   UNL A   1      38.635  29.114  28.808  1.00  0.00    -0.014 A 
BRANCH  32  33
ATOM     33  C   UNL A   1      40.035  28.670  29.061  1.00  0.00     0.031 A 
ATOM     34  C   UNL A   1      41.020  29.637  29.674  1.00  0.00     0.074 A 
ATOM     35  C   UNL A   1      40.454  27.453  28.661  1.00  0.00     0.049 A 
ATOM     36  N   UNL A   1      42.318  29.535  29.801  1.00  0.00    -0.248 NA
ATOM     37  C   UNL A   1      40.471  30.913  30.165  1.00  0.00     0.031 C 
ATOM     38  C   UNL A   1      39.620  26.432  28.026  1.00  0.00     0.029 A 
ATOM     39  N   UNL A   1      41.701  26.878  28.707  1.00  0.00    -0.354 N 
ATOM     40  C   UNL A   1      42.741  30.745  30.342  1.00  0.00     0.074 A 
ATOM     41  C   UNL A   1      41.571  31.586  30.462  1.00  0.00     0.031 C 
ATOM     42  C   UNL A   1      40.372  25.351  27.761  1.00  0.00     0.029 A 
ATOM     43  C   UNL A   1      41.750  25.620  28.156  1.00  0.00     0.049 A 
ATOM     44  H   UNL A   1      42.486  27.326  29.098  1.00  0.00     0.167 HD
ATOM     45  C   UNL A   1      43.984  31.115  30.729  1.00  0.00     0.037 A 
ATOM     46  C   UNL A   1      42.792  24.785  27.975  1.00  0.00     0.037 A 
ATOM     47  C   UNL A   1      45.136  30.256  30.659  1.00  0.00     0.049 A 
ATOM     48  C   UNL A   1      44.165  25.214  28.420  1.00  0.00     0.074 A 
ATOM     49  C   UNL A   1      46.428  30.510  31.086  1.00  0.00     0.029 A 
ATOM     50  N   UNL A   1      45.132  28.973  30.135  1.00  0.00    -0.354 N 
ATOM     51  N   UNL A   1      44.542  26.342  28.970  1.00  0.00    -0.248 NA
ATOM     52  C   UNL A   1      45.258  24.250  28.222  1.00  0.00     0.031 C 
ATOM     53  C   UNL A   1      47.215  29.396  30.780  1.00  0.00     0.029 A 
ATOM     54  C   UNL A   1      46.401  28.427  30.214  1.00  0.00     0.049 A 
ATOM     55  H   UNL A   1      44.342  28.518  29.761  1.00  0.00     0.167 HD
ATOM     56  C   UNL A   1      45.902  26.210  29.221  1.00  0.00     0.074 A 
ATOM     57  C   UNL A   1      46.284  24.890  28.766  1.00  0.00     0.031 C 
ATOM     58  C   UNL A   1      46.757  27.101  29.779  1.00  0.00     0.037 A 
BRANCH  45  59
ATOM     59  C   UNL A   1      44.159  32.507  31.271  1.00  0.00     0.057 A 
ATOM     60  C   UNL A   1      44.459  33.596  30.440  1.00  0.00     0.134 A 
ATOM     61  C   UNL A   1      44.002  32.766  32.639  1.00  0.00     0.134 A 
ATOM     62  F   UNL A   1      44.633  33.418  29.122  1.00  0.00    -0.206 F 
ATOM     63  C   UNL A   1      44.632  34.882  30.954  1.00  0.00     0.040 A 
ATOM     64  C   UNL A   1      44.139  34.054  33.160  1.00  0.00     0.040 A 
ATOM     65  F   UNL A   1      43.706  31.774  33.492  1.00  0.00    -0.206 F 
ATOM     66  C   UNL A   1      44.465  35.115  32.318  1.00  0.00     0.006 A 
ENDBRANCH  45  59
BRANCH  46  67
ATOM     67  C   UNL A   1      42.579  23.447  27.362  1.00  0.00     0.057 A 
ATOM     68  C   UNL A   1      42.210  22.346  28.145  1.00  0.00     0.134 A 
ATOM     69  C   UNL A   1      42.748  23.232  25.989  1.00  0.00     0.134 A 
ATOM     70  F   UNL A   1      42.052  22.484  29.470  1.00  0.00    -0.206 F 
ATOM     71  C   UNL A   1      42.039  21.077  27.590  1.00  0.00     0.040 A 
ATOM     72  C   UNL A   1      42.553  21.972  25.417  1.00  0.00     0.040 A 
ATOM     73  F   UNL A   1      43.092  24.245  25.181  1.00  0.00    -0.206 F 
ATOM     74  C   UNL A   1      42.205  20.888  26.221  1.00  0.00     0.006 A 
ENDBRANCH  46  67
BRANCH  58  75
ATOM     75  C   UNL A   1      48.177  26.660  29.990  1.00  0.00     0.057 A 
ATOM     76  C   UNL A   1      48.565  25.907  31.104  1.00  0.00     0.134 A 
ATOM     77  C   UNL A   1      49.154  26.945  29.028  1.00  0.00     0.134 A 
ATOM     78  F   UNL A   1      47.678  25.610  32.067  1.00  0.00    -0.206 F 
ATOM     79  C   UNL A   1      49.882  25.469  31.264  1.00  0.00     0.040 A 
ATOM     80  C   UNL A   1      50.466  26.489  29.162  1.00  0.00     0.040 A 
ATOM     81  F   UNL A   1      48.846  27.654  27.931  1.00  0.00    -0.206 F 
ATOM     82  C   UNL A   1      50.833  25.751  30.286  1.00  0.00     0.006 A 
ENDBRANCH  58  75
ENDBRANCH  32  33
ENDBRANCH  24  27
ENDBRANCH  22  23
ENDBRANCH  21  22
ENDBRANCH   1  21
TORSDOF 16
ENDMDL
MODEL 2
REMARK VINA RESULT:     -10.8      1.087      2.394
REMARK SMILES CC(C)C[C@@H](C[C@H](O)c1ccccc1)C(=O)NCCCNC(=O)c1ccc(-c2c3nc(c(-c4c(F)cccc4F)c4ccc([nH]4)c(-c4c(F)cccc4F)c4nc(c(-c5c(F)cccc5F)c5ccc2[nH]5)C=C4)C=C3)cc1
REMARK SMILES IDX 18 1 17 2 15 3 16 4 5 6 4 7 2 8 1 9 3 10 6 11 7 12 9 13
REMARK SMILES IDX 10 14 14 15 11 16 13 17 12 18 8 19 19 21 20 22 21 23 22 24
REMARK SMILES IDX 23 26 24 27 25 28 77 29 26 30 76 31 27 32 28 33 29 34 70 35
REMARK SMILES IDX 30 36 75 37 69 38 71 39 31 40 74 41 68 42 67 43 32 45 58 46
REMARK SMILES IDX 41 47 57 48 42 49 45 50 56 51 72 52 43 53 44 54 55 56 73 57
REMARK SMILES IDX 46 58 33 59 34 60 39 61 35 62 36 63 38 64 40 65 37 66 59 67
REMARK SMILES IDX 60 68 65 69 61 70 62 71 64 72 66 73 63 74 47 75 48 76 53 77
REMARK SMILES IDX 49 78 50 79 52 80 54 81 51 82
REMARK H PARENT 17 5 8 20 21 25 71 44 45 55
REMARK Flexibility Score: inf
ROOT
ATOM      1  C   UNL A   1      31.634  27.151  25.730  1.00  0.00     0.117 C 
ENDROOT
BRANCH   1   2
ATOM      2  N   UNL A   1      31.477  25.973  26.580  1.00  0.00    -0.356 N 
ATOM      3  C   UNL A   1      31.723  24.644  26.487  1.00  0.00     0.223 C 
ATOM      4  O   UNL A   1      31.402  24.001  27.499  1.00  0.00    -0.275 OA
ATOM      5  H   UNL A   1      31.090  26.207  27.455  1.00  0.00     0.163 HD
BRANCH   3   6
ATOM      6  C   UNL A   1      32.318  23.862  25.290  1.00  0.00     0.081 C 
BRANCH   6   7
ATOM      7  C   UNL A   1      31.467  22.591  24.989  1.00  0.00     0.016 C 
BRANCH   7   8
ATOM      8  C   UNL A   1      32.174  21.218  25.047  1.00  0.00    -0.017 C 
ATOM      9  C   UNL A   1      32.590  20.773  23.643  1.00  0.00     0.007 C 
ATOM     10  C   UNL A   1      33.429  21.272  25.930  1.00  0.00     0.007 C 
ENDBRANCH   7   8
ENDBRANCH   6   7
BRANCH   6  11
ATOM     11  C   UNL A   1      33.004  24.645  24.163  1.00  0.00     0.050 C 
BRANCH  11  12
ATOM     12  C   UNL A   1      34.385  24.359  23.517  1.00  0.00     0.145 C 
BRANCH  12  13
ATOM     13  C   UNL A   1      35.561  23.652  24.158  1.00  0.00    -0.020 A 
ATOM     14  C   UNL A   1      36.052  24.123  25.391  1.00  0.00     0.006 A 
ATOM     15  C   UNL A   1      36.206  22.542  23.621  1.00  0.00     0.006 A 
ATOM     16  C   UNL A   1      37.116  23.490  26.046  1.00  0.00     0.000 A 
ATOM     17  C   UNL A   1      37.245  21.878  24.279  1.00  0.00     0.000 A 
ATOM     18  C   UNL A   1      37.701  22.354  25.497  1.00  0.00     0.000 A 
ENDBRANCH  12  13
BRANCH  12  19
ATOM     19  O   UNL A   1      34.089  23.736  22.248  1.00  0.00    -0.388 OA
ATOM     20  H   UNL A   1      34.890  23.313  21.901  1.00  0.00     0.211 HD
ENDBRANCH  12  19
ENDBRANCH  11  12
ENDBRANCH   6  11
ENDBRANCH   3   6
ENDBRANCH   1   2
BRANCH   1  21
ATOM     21  C   UNL A   1      33.020  27.782  25.872  1.00  0.00     0.042 C 
BRANCH  21  22
ATOM     22  C   UNL A   1      33.422  28.199  27.276  1.00  0.00     0.118 C 
BRANCH  22  23
ATOM     23  N   UNL A   1      33.401  29.643  27.467  1.00  0.00    -0.352 N 
ATOM     24  C   UNL A   1      34.357  30.515  27.945  1.00  0.00     0.251 C 
ATOM     25  H   UNL A   1      32.555  30.073  27.209  1.00  0.00     0.163 HD
ATOM     26  O   UNL A   1      34.034  31.677  28.171  1.00  0.00    -0.269 OA
BRANCH  24  27
ATOM     27  C   UNL A   1      35.756  30.087  28.215  1.00  0.00     0.039 A 
ATOM     28  C   UNL A   1      36.094  29.625  29.495  1.00  0.00     0.014 A 
ATOM     29  C   UNL A   1      36.757  30.182  27.250  1.00  0.00     0.014 A 
ATOM     30  C   UNL A   1      37.402  29.203  29.775  1.00  0.00     0.010 A 
ATOM     31  C   UNL A   1      38.018  29.645  27.488  1.00  0.00     0.010 A 
ATOM     32  C   UNL A   1      38.369  29.171  28.761  1.00  0.00    -0.014 A 
BRANCH  32  33
ATOM     33  C   UNL A   1      39.769  28.719  28.994  1.00  0.00     0.031 A 
ATOM     34  C   UNL A   1      40.775  29.687  29.569  1.00  0.00     0.074 A 
ATOM     35  C   UNL A   1      40.170  27.492  28.606  1.00  0.00     0.049 A 
ATOM     36  N   UNL A   1      42.075  29.576  29.672  1.00  0.00    -0.248 NA
ATOM     37  C   UNL A   1      40.247  30.977  30.049  1.00  0.00     0.031 C 
ATOM     38  C   UNL A   1      39.314  26.467  28.007  1.00  0.00     0.029 A 
ATOM     39  N   UNL A   1      41.413  26.906  28.638  1.00  0.00    -0.354 N 
ATOM     40  C   UNL A   1      42.518  30.792  30.182  1.00  0.00     0.074 A 
ATOM     41  C   UNL A   1      41.359  31.645  30.311  1.00  0.00     0.031 C 
ATOM     42  C   UNL A   1      40.051  25.375  27.746  1.00  0.00     0.029 A 
ATOM     43  C   UNL A   1      41.440  25.638  28.109  1.00  0.00     0.049 A 
ATOM     44  H   UNL A   1      42.209  27.354  29.005  1.00  0.00     0.167 HD
ATOM     45  C   UNL A   1      43.773  31.158  30.538  1.00  0.00     0.037 A 
ATOM     46  C   UNL A   1      42.470  24.791  27.921  1.00  0.00     0.037 A 
ATOM     47  C   UNL A   1      44.916  30.287  30.460  1.00  0.00     0.049 A 
ATOM     48  C   UNL A   1      43.856  25.215  28.331  1.00  0.00     0.074 A 
ATOM     49  C   UNL A   1      46.218  30.537  30.856  1.00  0.00     0.029 A 
ATOM     50  N   UNL A   1      44.890  28.995  29.959  1.00  0.00    -0.354 N 
ATOM     51  N   UNL A   1      44.253  26.350  28.853  1.00  0.00    -0.248 NA
ATOM     52  C   UNL A   1      44.936  24.238  28.128  1.00  0.00     0.031 C 
ATOM     53  C   UNL A   1      46.989  29.410  30.554  1.00  0.00     0.029 A 
ATOM     54  C   UNL A   1      46.155  28.439  30.022  1.00  0.00     0.049 A 
ATOM     55  H   UNL A   1      44.089  28.541  29.609  1.00  0.00     0.167 HD
ATOM     56  C   UNL A   1      45.617  26.210  29.079  1.00  0.00     0.074 A 
ATOM     57  C   UNL A   1      45.978  24.878  28.640  1.00  0.00     0.031 C 
ATOM     58  C   UNL A   1      46.491  27.103  29.604  1.00  0.00     0.037 A 
BRANCH  45  59
ATOM     59  C   UNL A   1      43.971  32.557  31.052  1.00  0.00     0.057 A 
ATOM     60  C   UNL A   1      44.246  33.631  30.194  1.00  0.00     0.134 A 
ATOM     61  C   UNL A   1      43.860  32.839  32.420  1.00  0.00     0.134 A 
ATOM     62  F   UNL A   1      44.376  33.432  28.874  1.00  0.00    -0.206 F 
ATOM     63  C   UNL A   1      44.441  34.925  30.682  1.00  0.00     0.040 A 
ATOM     64  C   UNL A   1      44.019  34.134  32.915  1.00  0.00     0.040 A 
ATOM     65  F   UNL A   1      43.590  31.861  33.298  1.00  0.00    -0.206 F 
ATOM     66  C   UNL A   1      44.321  35.180  32.047  1.00  0.00     0.006 A 
ENDBRANCH  45  59
BRANCH  46  67
ATOM     67  C   UNL A   1      42.233  23.445  27.336  1.00  0.00     0.057 A 
ATOM     68  C   UNL A   1      41.935  22.347  28.153  1.00  0.00     0.134 A 
ATOM     69  C   UNL A   1      42.310  23.218  25.957  1.00  0.00     0.134 A 
ATOM     70  F   UNL A   1      41.867  22.495  29.484  1.00  0.00    -0.206 F 
ATOM     71  C   UNL A   1      41.743  21.069  27.623  1.00  0.00     0.040 A 
ATOM     72  C   UNL A   1      42.092  21.950  25.411  1.00  0.00     0.040 A 
ATOM     73  F   UNL A   1      42.583  24.228  25.118  1.00  0.00    -0.206 F 
ATOM     74  C   UNL A   1      41.816  20.870  26.246  1.00  0.00     0.006 A 
ENDBRANCH  46  67
BRANCH  58  75
ATOM     75  C   UNL A   1      47.911  26.653  29.794  1.00  0.00     0.057 A 
ATOM     76  C   UNL A   1      48.911  26.922  28.854  1.00  0.00     0.134 A 
ATOM     77  C   UNL A   1      48.289  25.992  30.971  1.00  0.00     0.134 A 
ATOM     78  F   UNL A   1      48.612  27.543  27.702  1.00  0.00    -0.206 F 
ATOM     79  C   UNL A   1      50.235  26.533  29.067  1.00  0.00     0.040 A 
ATOM     80  C   UNL A   1      49.613  25.623  31.209  1.00  0.00     0.040 A 
ATOM     81  F   UNL A   1      47.380  25.712  31.918  1.00  0.00    -0.206 F 
ATOM     82  C   UNL A   1      50.590  25.891  30.252  1.00  0.00     0.006 A 
ENDBRANCH  58  75
ENDBRANCH  32  33
ENDBRANCH  24  27
ENDBRANCH  22  23
ENDBRANCH  21  22
ENDBRANCH   1  21
TORSDOF 16
ENDMDL
MODEL 3
REMARK VINA RESULT:     -10.8      2.348      7.335
REMARK SMILES CC(C)C[C@@H](C[C@H](O)c1ccccc1)C(=O)NCCCNC(=O)c1ccc(-c2c3nc(c(-c4c(F)cccc4F)c4ccc([nH]4)c(-c4c(F)cccc4F)c4nc(c(-c5c(F)cccc5F)c5ccc2[nH]5)C=C4)C=C3)cc1
REMARK SMILES IDX 18 1 17 2 15 3 16 4 5 6 4 7 2 8 1 9 3 10 6 11 7 12 9 13
REMARK SMILES IDX 10 14 14 15 11 16 13 17 12 18 8 19 19 21 20 22 21 23 22 24
REMARK SMILES IDX 23 26 24 27 25 28 77 29 26 30 76 31 27 32 28 33 29 34 70 35
REMARK SMILES IDX 30 36 75 37 69 38 71 39 31 40 74 41 68 42 67 43 32 45 58 46
REMARK SMILES IDX 41 47 57 48 42 49 45 50 56 51 72 52 43 53 44 54 55 56 73 57
REMARK SMILES IDX 46 58 33 59 34 60 39 61 35 62 36 63 38 64 40 65 37 66 59 67
REMARK SMILES IDX 60 68 65 69 61 70 62 71 64 72 66 73 63 74 47 75 48 76 53 77
REMARK SMILES IDX 49 78 50 79 52 80 54 81 51 82
REMARK H PARENT 17 5 8 20 21 25 71 44 45 55
REMARK Flexibility Score: inf
ROOT
ATOM      1  C   UNL A   1      35.994  20.546  24.972  1.00  0.00     0.117 C 
ENDROOT
BRANCH   1   2
ATOM      2  N   UNL A   1      34.761  19.763  25.019  1.00  0.00    -0.356 N 
ATOM      3  C   UNL A   1      33.431  20.004  24.934  1.00  0.00     0.223 C 
ATOM      4  O   UNL A   1      32.728  18.988  25.047  1.00  0.00    -0.275 OA
ATOM      5  H   UNL A   1      34.947  18.804  25.147  1.00  0.00     0.163 HD
BRANCH   3   6
ATOM      6  C   UNL A   1      32.714  21.363  24.740  1.00  0.00     0.081 C 
BRANCH   6   7
ATOM      7  C   UNL A   1      32.541  21.679  23.223  1.00  0.00     0.016 C 
BRANCH   7   8
ATOM      8  C   UNL A   1      33.214  22.955  22.670  1.00  0.00    -0.017 C 
ATOM      9  C   UNL A   1      32.227  24.125  22.678  1.00  0.00     0.007 C 
ATOM     10  C   UNL A   1      34.439  23.350  23.507  1.00  0.00     0.007 C 
ENDBRANCH   7   8
ENDBRANCH   6   7
BRANCH   6  11
ATOM     11  C   UNL A   1      31.660  21.796  25.767  1.00  0.00     0.050 C 
BRANCH  11  12
ATOM     12  C   UNL A   1      31.703  23.033  26.702  1.00  0.00     0.145 C 
BRANCH  12  13
ATOM     13  C   UNL A   1      31.727  24.489  26.285  1.00  0.00    -0.020 A 
ATOM     14  C   UNL A   1      32.961  25.163  26.226  1.00  0.00     0.006 A 
ATOM     15  C   UNL A   1      30.602  25.231  25.938  1.00  0.00     0.006 A 
ATOM     16  C   UNL A   1      33.049  26.499  25.817  1.00  0.00     0.000 A 
ATOM     17  C   UNL A   1      30.676  26.554  25.494  1.00  0.00     0.000 A 
ATOM     18  C   UNL A   1      31.905  27.190  25.433  1.00  0.00     0.000 A 
ENDBRANCH  12  13
BRANCH  12  19
ATOM     19  O   UNL A   1      30.634  22.828  27.652  1.00  0.00    -0.388 OA
ATOM     20  H   UNL A   1      29.791  23.090  27.251  1.00  0.00     0.211 HD
ENDBRANCH  12  19
ENDBRANCH  11  12
ENDBRANCH   6  11
ENDBRANCH   3   6
ENDBRANCH   1   2
BRANCH   1  21
ATOM     21  C   UNL A   1      37.239  19.657  24.956  1.00  0.00     0.042 C 
BRANCH  21  22
ATOM     22  C   UNL A   1      38.533  20.314  25.406  1.00  0.00     0.118 C 
BRANCH  22  23
ATOM     23  N   UNL A   1      39.616  19.359  25.598  1.00  0.00    -0.352 N 
ATOM     24  C   UNL A   1      40.914  19.527  26.033  1.00  0.00     0.251 C 
ATOM     25  H   UNL A   1      39.380  18.430  25.380  1.00  0.00     0.163 HD
ATOM     26  O   UNL A   1      41.692  18.581  25.946  1.00  0.00    -0.269 OA
BRANCH  24  27
ATOM     27  C   UNL A   1      41.406  20.819  26.580  1.00  0.00     0.039 A 
ATOM     28  C   UNL A   1      41.821  21.823  25.693  1.00  0.00     0.014 A 
ATOM     29  C   UNL A   1      41.520  21.046  27.951  1.00  0.00     0.014 A 
ATOM     30  C   UNL A   1      42.277  23.057  26.180  1.00  0.00     0.010 A 
ATOM     31  C   UNL A   1      41.849  22.311  28.430  1.00  0.00     0.010 A 
ATOM     32  C   UNL A   1      42.258  23.327  27.555  1.00  0.00    -0.014 A 
BRANCH  32  33
ATOM     33  C   UNL A   1      42.715  24.623  28.130  1.00  0.00     0.031 A 
ATOM     34  C   UNL A   1      41.702  25.702  28.427  1.00  0.00     0.074 A 
ATOM     35  C   UNL A   1      44.029  24.877  28.295  1.00  0.00     0.049 A 
ATOM     36  N   UNL A   1      41.890  26.959  28.739  1.00  0.00    -0.248 NA
ATOM     37  C   UNL A   1      40.283  25.324  28.305  1.00  0.00     0.031 C 
ATOM     38  C   UNL A   1      45.119  23.940  28.019  1.00  0.00     0.029 A 
ATOM     39  N   UNL A   1      44.673  26.017  28.715  1.00  0.00    -0.354 N 
ATOM     40  C   UNL A   1      40.621  27.525  28.807  1.00  0.00     0.074 A 
ATOM     41  C   UNL A   1      39.677  26.492  28.443  1.00  0.00     0.031 C 
ATOM     42  C   UNL A   1      46.292  24.534  28.294  1.00  0.00     0.029 A 
ATOM     43  C   UNL A   1      46.043  25.909  28.715  1.00  0.00     0.049 A 
ATOM     44  H   UNL A   1      44.197  26.833  28.990  1.00  0.00     0.167 HD
ATOM     45  C   UNL A   1      40.268  28.783  29.164  1.00  0.00     0.037 A 
ATOM     46  C   UNL A   1      46.992  26.820  29.004  1.00  0.00     0.037 A 
ATOM     47  C   UNL A   1      41.206  29.793  29.578  1.00  0.00     0.049 A 
ATOM     48  C   UNL A   1      46.577  28.212  29.407  1.00  0.00     0.074 A 
ATOM     49  C   UNL A   1      40.949  31.078  30.023  1.00  0.00     0.029 A 
ATOM     50  N   UNL A   1      42.582  29.626  29.605  1.00  0.00    -0.354 N 
ATOM     51  N   UNL A   1      45.373  28.719  29.509  1.00  0.00    -0.248 NA
ATOM     52  C   UNL A   1      47.656  29.155  29.738  1.00  0.00     0.031 C 
ATOM     53  C   UNL A   1      42.172  31.703  30.278  1.00  0.00     0.029 A 
ATOM     54  C   UNL A   1      43.188  30.790  30.046  1.00  0.00     0.049 A 
ATOM     55  H   UNL A   1      43.057  28.803  29.349  1.00  0.00     0.167 HD
ATOM     56  C   UNL A   1      45.545  30.024  29.954  1.00  0.00     0.074 A 
ATOM     57  C   UNL A   1      46.971  30.229  30.106  1.00  0.00     0.031 C 
ATOM     58  C   UNL A   1      44.607  30.967  30.215  1.00  0.00     0.037 A 
BRANCH  45  59
ATOM     59  C   UNL A   1      38.806  29.132  29.131  1.00  0.00     0.057 A 
ATOM     60  C   UNL A   1      37.992  29.033  30.269  1.00  0.00     0.134 A 
ATOM     61  C   UNL A   1      38.208  29.597  27.953  1.00  0.00     0.134 A 
ATOM     62  F   UNL A   1      38.497  28.586  31.429  1.00  0.00    -0.206 F 
ATOM     63  C   UNL A   1      36.633  29.348  30.226  1.00  0.00     0.040 A 
ATOM     64  C   UNL A   1      36.858  29.946  27.906  1.00  0.00     0.040 A 
ATOM     65  F   UNL A   1      38.928  29.725  26.828  1.00  0.00    -0.206 F 
ATOM     66  C   UNL A   1      36.063  29.813  29.042  1.00  0.00     0.006 A 
ENDBRANCH  45  59
BRANCH  46  67
ATOM     67  C   UNL A   1      48.429  26.447  28.947  1.00  0.00     0.057 A 
ATOM     68  C   UNL A   1      49.176  26.632  27.777  1.00  0.00     0.134 A 
ATOM     69  C   UNL A   1      49.089  25.888  30.048  1.00  0.00     0.134 A 
ATOM     70  F   UNL A   1      48.596  27.145  26.681  1.00  0.00    -0.206 F 
ATOM     71  C   UNL A   1      50.518  26.256  27.695  1.00  0.00     0.040 A 
ATOM     72  C   UNL A   1      50.439  25.533  29.989  1.00  0.00     0.040 A 
ATOM     73  F   UNL A   1      48.435  25.692  31.202  1.00  0.00    -0.206 F 
ATOM     74  C   UNL A   1      51.155  25.709  28.807  1.00  0.00     0.006 A 
ENDBRANCH  46  67
BRANCH  58  75
ATOM     75  C   UNL A   1      45.082  32.286  30.753  1.00  0.00     0.057 A 
ATOM     76  C   UNL A   1      45.264  32.510  32.122  1.00  0.00     0.134 A 
ATOM     77  C   UNL A   1      45.419  33.325  29.876  1.00  0.00     0.134 A 
ATOM     78  F   UNL A   1      44.950  31.558  33.015  1.00  0.00    -0.206 F 
ATOM     79  C   UNL A   1      45.747  33.729  32.603  1.00  0.00     0.040 A 
ATOM     80  C   UNL A   1      45.929  34.538  30.341  1.00  0.00     0.040 A 
ATOM     81  F   UNL A   1      45.278  33.172  28.550  1.00  0.00    -0.206 F 
ATOM     82  C   UNL A   1      46.090  34.743  31.710  1.00  0.00     0.006 A 
ENDBRANCH  58  75
ENDBRANCH  32  33
ENDBRANCH  24  27
ENDBRANCH  22  23
ENDBRANCH  21  22
ENDBRANCH   1  21
TORSDOF 16
ENDMDL
