MODEL 1
REMARK VINA RESULT:     -11.9      0.000      0.000
REMARK SMILES Cc1ccc(NC(=O)C[C@@H](C(=O)NCCCNC(=O)c2ccc(-c3c4nc(c(-c5c(F)cccc5F)c5ccc([nH]5)c(-c5c(F)cccc5F)c5nc(c(-c6c(F)cccc6F)c6ccc3[nH]6)C=C5)C=C4)cc2)[C@@H](C)c2ccccc2)cc1Br
REMARK SMILES IDX 14 1 13 2 11 3 12 4 10 6 9 7 7 8 6 9 8 11 5 12 1 13 2 14
REMARK SMILES IDX 3 15 83 16 4 17 82 18 84 19 74 20 75 21 76 22 77 23 81 24
REMARK SMILES IDX 78 25 80 26 79 27 15 28 16 29 17 30 18 31 19 33 20 34 21 35
REMARK SMILES IDX 73 36 22 37 72 38 23 39 24 40 25 41 66 42 26 43 71 44 65 45
REMARK SMILES IDX 67 46 27 47 70 48 64 49 63 50 28 52 54 53 37 54 53 55 38 56
REMARK SMILES IDX 41 57 52 58 68 59 39 60 40 61 51 63 69 64 42 65 29 66 30 67
REMARK SMILES IDX 35 68 31 69 32 70 34 71 36 72 33 73 55 74 56 75 61 76 57 77
REMARK SMILES IDX 58 78 60 79 62 80 59 81 43 82 44 83 49 84 45 85 46 86 48 87
REMARK SMILES IDX 50 88 47 89
REMARK H PARENT 13 5 6 10 17 32 67 51 41 62
REMARK Flexibility Score: inf
ROOT
ATOM      1  C   UNL A   1      35.857  20.590  24.783  1.00  0.00     0.117 C 
ENDROOT
BRANCH   1   2
ATOM      2  N   UNL A   1      35.119  20.741  26.023  1.00  0.00    -0.356 N 
ATOM      3  C   UNL A   1      34.167  21.598  26.467  1.00  0.00     0.224 C 
ATOM      4  O   UNL A   1      33.790  21.383  27.620  1.00  0.00    -0.275 OA
ATOM      5  H   UNL A   1      35.365  20.065  26.696  1.00  0.00     0.163 HD
BRANCH   3   6
ATOM      6  C   UNL A   1      33.613  22.746  25.620  1.00  0.00     0.095 C 
BRANCH   6   7
ATOM      7  C   UNL A   1      33.688  22.511  24.086  1.00  0.00     0.114 C 
BRANCH   7   8
ATOM      8  C   UNL A   1      32.464  22.240  23.244  1.00  0.00     0.225 C 
ATOM      9  N   UNL A   1      31.765  23.199  22.579  1.00  0.00    -0.326 N 
ATOM     10  H   UNL A   1      30.992  22.851  22.078  1.00  0.00     0.169 HD
ATOM     11  O   UNL A   1      32.067  21.072  23.138  1.00  0.00    -0.275 OA
BRANCH   9  12
ATOM     12  C   UNL A   1      31.934  24.586  22.468  1.00  0.00     0.042 A 
ATOM     13  C   UNL A   1      33.019  28.738  22.874  1.00  0.00     0.045 C 
ATOM     14  C   UNL A   1      32.589  27.322  22.616  1.00  0.00    -0.037 A 
ATOM     15  C   UNL A   1      33.547  26.379  22.221  1.00  0.00     0.007 A 
ATOM     16  C   UNL A   1      31.271  26.889  22.806  1.00  0.00     0.022 A 
ATOM     17  C   UNL A   1      33.212  25.028  22.115  1.00  0.00     0.026 A 
ATOM     18  C   UNL A   1      30.945  25.527  22.734  1.00  0.00     0.042 A 
ATOM     19  Br  UNL A   1      29.865  28.105  23.208  1.00  0.00    -0.050 Br
ENDBRANCH   9  12
ENDBRANCH   7   8
ENDBRANCH   6   7
BRANCH   6  20
ATOM     20  C   UNL A   1      34.307  24.142  25.913  1.00  0.00     0.029 C 
ATOM     21  C   UNL A   1      35.471  24.401  24.925  1.00  0.00     0.013 C 
BRANCH  20  22
ATOM     22  C   UNL A   1      33.428  25.391  26.003  1.00  0.00    -0.044 A 
ATOM     23  C   UNL A   1      33.940  26.696  26.033  1.00  0.00     0.004 A 
ATOM     24  C   UNL A   1      32.041  25.234  26.193  1.00  0.00     0.004 A 
ATOM     25  C   UNL A   1      33.099  27.791  26.269  1.00  0.00     0.000 A 
ATOM     26  C   UNL A   1      31.198  26.327  26.395  1.00  0.00     0.000 A 
ATOM     27  C   UNL A   1      31.730  27.607  26.445  1.00  0.00     0.000 A 
ENDBRANCH  20  22
ENDBRANCH   6  20
ENDBRANCH   3   6
ENDBRANCH   1   2
BRANCH   1  28
ATOM     28  C   UNL A   1      37.102  19.696  24.909  1.00  0.00     0.042 C 
BRANCH  28  29
ATOM     29  C   UNL A   1      38.395  20.354  25.395  1.00  0.00     0.118 C 
BRANCH  29  30
ATOM     30  N   UNL A   1      39.509  19.432  25.519  1.00  0.00    -0.352 N 
ATOM     31  C   UNL A   1      40.779  19.646  25.990  1.00  0.00     0.251 C 
ATOM     32  H   UNL A   1      39.323  18.512  25.219  1.00  0.00     0.163 HD
ATOM     33  O   UNL A   1      41.616  18.743  25.893  1.00  0.00    -0.269 OA
BRANCH  31  34
ATOM     34  C   UNL A   1      41.189  20.940  26.587  1.00  0.00     0.039 A 
ATOM     35  C   UNL A   1      41.687  21.933  25.736  1.00  0.00     0.014 A 
ATOM     36  C   UNL A   1      41.161  21.171  27.967  1.00  0.00     0.014 A 
ATOM     37  C   UNL A   1      42.110  23.161  26.254  1.00  0.00     0.010 A 
ATOM     38  C   UNL A   1      41.535  22.420  28.481  1.00  0.00     0.010 A 
ATOM     39  C   UNL A   1      42.020  23.427  27.630  1.00  0.00    -0.014 A 
BRANCH  39  40
ATOM     40  C   UNL A   1      42.438  24.751  28.169  1.00  0.00     0.031 A 
ATOM     41  C   UNL A   1      41.430  25.845  28.400  1.00  0.00     0.074 A 
ATOM     42  C   UNL A   1      43.738  24.984  28.443  1.00  0.00     0.049 A 
ATOM     43  N   UNL A   1      41.615  27.055  28.871  1.00  0.00    -0.248 NA
ATOM     44  C   UNL A   1      40.036  25.550  28.041  1.00  0.00     0.031 C 
ATOM     45  C   UNL A   1      44.828  24.031  28.235  1.00  0.00     0.029 A 
ATOM     46  N   UNL A   1      44.361  26.095  28.957  1.00  0.00    -0.354 N 
ATOM     47  C   UNL A   1      40.367  27.665  28.856  1.00  0.00     0.074 A 
ATOM     48  C   UNL A   1      39.440  26.708  28.289  1.00  0.00     0.031 C 
ATOM     49  C   UNL A   1      45.981  24.589  28.638  1.00  0.00     0.029 A 
ATOM     50  C   UNL A   1      45.718  25.946  29.110  1.00  0.00     0.049 A 
ATOM     51  H   UNL A   1      43.880  26.920  29.195  1.00  0.00     0.167 HD
ATOM     52  C   UNL A   1      40.018  28.900  29.291  1.00  0.00     0.037 A 
ATOM     53  C   UNL A   1      46.649  26.801  29.576  1.00  0.00     0.037 A 
ATOM     54  C   UNL A   1      40.927  29.848  29.882  1.00  0.00     0.049 A 
ATOM     55  C   UNL A   1      46.236  28.164  30.056  1.00  0.00     0.074 A 
ATOM     56  C   UNL A   1      40.645  31.097  30.411  1.00  0.00     0.029 A 
ATOM     57  N   UNL A   1      42.292  29.655  30.022  1.00  0.00    -0.354 N 
ATOM     58  N   UNL A   1      45.041  28.698  30.098  1.00  0.00    -0.248 NA
ATOM     59  C   UNL A   1      47.303  29.041  30.563  1.00  0.00     0.031 C 
ATOM     60  C   UNL A   1      41.846  31.676  30.836  1.00  0.00     0.029 A 
ATOM     61  C   UNL A   1      42.869  30.771  30.609  1.00  0.00     0.049 A 
ATOM     62  H   UNL A   1      42.779  28.846  29.746  1.00  0.00     0.167 HD
ATOM     63  C   UNL A   1      45.207  29.960  30.654  1.00  0.00     0.074 A 
ATOM     64  C   UNL A   1      46.618  30.108  30.946  1.00  0.00     0.031 C 
ATOM     65  C   UNL A   1      44.273  30.910  30.899  1.00  0.00     0.037 A 
BRANCH  52  66
ATOM     66  C   UNL A   1      38.580  29.303  29.148  1.00  0.00     0.057 A 
ATOM     67  C   UNL A   1      37.702  29.302  30.240  1.00  0.00     0.134 A 
ATOM     68  C   UNL A   1      38.078  29.742  27.916  1.00  0.00     0.134 A 
ATOM     69  F   UNL A   1      38.117  28.886  31.445  1.00  0.00    -0.206 F 
ATOM     70  C   UNL A   1      36.371  29.702  30.106  1.00  0.00     0.040 A 
ATOM     71  C   UNL A   1      36.756  30.167  27.775  1.00  0.00     0.040 A 
ATOM     72  F   UNL A   1      38.869  29.776  26.832  1.00  0.00    -0.206 F 
ATOM     73  C   UNL A   1      35.897  30.142  28.872  1.00  0.00     0.006 A 
ENDBRANCH  52  66
BRANCH  53  74
ATOM     74  C   UNL A   1      48.071  26.382  29.635  1.00  0.00     0.057 A 
ATOM     75  C   UNL A   1      48.594  25.762  30.776  1.00  0.00     0.134 A 
ATOM     76  C   UNL A   1      48.941  26.598  28.559  1.00  0.00     0.134 A 
ATOM     77  F   UNL A   1      47.815  25.550  31.846  1.00  0.00    -0.206 F 
ATOM     78  C   UNL A   1      49.935  25.382  30.850  1.00  0.00     0.040 A 
ATOM     79  C   UNL A   1      50.278  26.203  28.611  1.00  0.00     0.040 A 
ATOM     80  F   UNL A   1      48.498  27.186  27.438  1.00  0.00    -0.206 F 
ATOM     81  C   UNL A   1      50.780  25.598  29.763  1.00  0.00     0.006 A 
ENDBRANCH  53  74
BRANCH  65  82
ATOM     82  C   UNL A   1      44.738  32.186  31.537  1.00  0.00     0.057 A 
ATOM     83  C   UNL A   1      45.127  33.293  30.773  1.00  0.00     0.134 A 
ATOM     84  C   UNL A   1      44.760  32.321  32.932  1.00  0.00     0.134 A 
ATOM     85  F   UNL A   1      45.141  33.223  29.434  1.00  0.00    -0.206 F 
ATOM     86  C   UNL A   1      45.540  34.484  31.373  1.00  0.00     0.040 A 
ATOM     87  C   UNL A   1      45.150  33.514  33.543  1.00  0.00     0.040 A 
ATOM     88  F   UNL A   1      44.393  31.301  33.721  1.00  0.00    -0.206 F 
ATOM     89  C   UNL A   1      45.546  34.598  32.763  1.00  0.00     0.006 A 
ENDBRANCH  65  82
ENDBRANCH  39  40
ENDBRANCH  31  34
ENDBRANCH  29  30
ENDBRANCH  28  29
ENDBRANCH   1  28
TORSDOF 15
ENDMDL
MODEL 2
REMARK VINA RESULT:     -11.9      1.116      2.336
REMARK SMILES Cc1ccc(NC(=O)C[C@@H](C(=O)NCCCNC(=O)c2ccc(-c3c4nc(c(-c5c(F)cccc5F)c5ccc([nH]5)c(-c5c(F)cccc5F)c5nc(c(-c6c(F)cccc6F)c6ccc3[nH]6)C=C5)C=C4)cc2)[C@@H](C)c2ccccc2)cc1Br
REMARK SMILES IDX 14 1 13 2 11 3 12 4 10 6 9 7 7 8 6 9 8 11 5 12 1 13 2 14
REMARK SMILES IDX 3 15 83 16 4 17 82 18 84 19 74 20 75 21 76 22 77 23 81 24
REMARK SMILES IDX 78 25 80 26 79 27 15 28 16 29 17 30 18 31 19 33 20 34 21 35
REMARK SMILES IDX 73 36 22 37 72 38 23 39 24 40 25 41 66 42 26 43 71 44 65 45
REMARK SMILES IDX 67 46 27 47 70 48 64 49 63 50 28 52 54 53 37 54 53 55 38 56
REMARK SMILES IDX 41 57 52 58 68 59 39 60 40 61 51 63 69 64 42 65 29 66 30 67
REMARK SMILES IDX 35 68 31 69 32 70 34 71 36 72 33 73 55 74 56 75 61 76 57 77
REMARK SMILES IDX 58 78 60 79 62 80 59 81 43 82 44 83 49 84 45 85 46 86 48 87
REMARK SMILES IDX 50 88 47 89
REMARK H PARENT 13 5 6 10 17 32 67 51 41 62
REMARK Flexibility Score: inf
ROOT
ATOM      1  C   UNL A   1      36.221  20.443  24.653  1.00  0.00     0.117 C 
ENDROOT
BRANCH   1   2
ATOM      2  N   UNL A   1      34.929  19.926  25.064  1.00  0.00    -0.356 N 
ATOM      3  C   UNL A   1      33.696  20.466  25.231  1.00  0.00     0.224 C 
ATOM      4  O   UNL A   1      32.840  19.664  25.607  1.00  0.00    -0.275 OA
ATOM      5  H   UNL A   1      34.953  18.963  25.268  1.00  0.00     0.163 HD
BRANCH   3   6
ATOM      6  C   UNL A   1      33.390  21.946  24.988  1.00  0.00     0.095 C 
BRANCH   6   7
ATOM      7  C   UNL A   1      32.062  22.443  25.623  1.00  0.00     0.114 C 
BRANCH   7   8
ATOM      8  C   UNL A   1      32.020  23.201  26.928  1.00  0.00     0.225 C 
ATOM      9  N   UNL A   1      31.581  24.483  27.055  1.00  0.00    -0.326 N 
ATOM     10  H   UNL A   1      31.622  24.827  27.976  1.00  0.00     0.169 HD
ATOM     11  O   UNL A   1      32.397  22.627  27.958  1.00  0.00    -0.275 OA
BRANCH   9  12
ATOM     12  C   UNL A   1      31.083  25.408  26.126  1.00  0.00     0.042 A 
ATOM     13  C   UNL A   1      30.099  27.781  22.665  1.00  0.00     0.045 C 
ATOM     14  C   UNL A   1      30.342  27.012  23.932  1.00  0.00    -0.037 A 
ATOM     15  C   UNL A   1      29.931  25.675  24.009  1.00  0.00     0.007 A 
ATOM     16  C   UNL A   1      31.015  27.564  25.030  1.00  0.00     0.022 A 
ATOM     17  C   UNL A   1      30.270  24.891  25.113  1.00  0.00     0.026 A 
ATOM     18  C   UNL A   1      31.385  26.765  26.122  1.00  0.00     0.042 A 
ATOM     19  Br  UNL A   1      31.496  29.403  25.089  1.00  0.00    -0.050 Br
ENDBRANCH   9  12
ENDBRANCH   7   8
ENDBRANCH   6   7
BRANCH   6  20
ATOM     20  C   UNL A   1      33.349  22.340  23.452  1.00  0.00     0.029 C 
ATOM     21  C   UNL A   1      32.097  21.746  22.760  1.00  0.00     0.013 C 
BRANCH  20  22
ATOM     22  C   UNL A   1      33.490  23.816  23.072  1.00  0.00    -0.044 A 
ATOM     23  C   UNL A   1      34.066  24.778  23.913  1.00  0.00     0.004 A 
ATOM     24  C   UNL A   1      32.906  24.268  21.873  1.00  0.00     0.004 A 
ATOM     25  C   UNL A   1      34.032  26.137  23.577  1.00  0.00     0.000 A 
ATOM     26  C   UNL A   1      32.900  25.618  21.521  1.00  0.00     0.000 A 
ATOM     27  C   UNL A   1      33.453  26.556  22.381  1.00  0.00     0.000 A 
ENDBRANCH  20  22
ENDBRANCH   6  20
ENDBRANCH   3   6
ENDBRANCH   1   2
BRANCH   1  28
ATOM     28  C   UNL A   1      37.396  19.510  24.991  1.00  0.00     0.042 C 
BRANCH  28  29
ATOM     29  C   UNL A   1      38.621  20.134  25.664  1.00  0.00     0.118 C 
BRANCH  29  30
ATOM     30  N   UNL A   1      39.768  19.247  25.724  1.00  0.00    -0.352 N 
ATOM     31  C   UNL A   1      41.064  19.510  26.088  1.00  0.00     0.251 C 
ATOM     32  H   UNL A   1      39.588  18.314  25.464  1.00  0.00     0.163 HD
ATOM     33  O   UNL A   1      41.919  18.629  25.950  1.00  0.00    -0.269 OA
BRANCH  31  34
ATOM     34  C   UNL A   1      41.479  20.832  26.617  1.00  0.00     0.039 A 
ATOM     35  C   UNL A   1      41.938  21.793  25.709  1.00  0.00     0.014 A 
ATOM     36  C   UNL A   1      41.496  21.120  27.987  1.00  0.00     0.014 A 
ATOM     37  C   UNL A   1      42.364  23.046  26.162  1.00  0.00     0.010 A 
ATOM     38  C   UNL A   1      41.872  22.393  28.435  1.00  0.00     0.010 A 
ATOM     39  C   UNL A   1      42.317  23.368  27.528  1.00  0.00    -0.014 A 
BRANCH  39  40
ATOM     40  C   UNL A   1      42.739  24.718  27.998  1.00  0.00     0.031 A 
ATOM     41  C   UNL A   1      41.722  25.795  28.268  1.00  0.00     0.074 A 
ATOM     42  C   UNL A   1      44.048  24.989  28.172  1.00  0.00     0.049 A 
ATOM     43  N   UNL A   1      41.909  27.022  28.689  1.00  0.00    -0.248 NA
ATOM     44  C   UNL A   1      40.314  25.456  28.017  1.00  0.00     0.031 C 
ATOM     45  C   UNL A   1      45.145  24.055  27.915  1.00  0.00     0.029 A 
ATOM     46  N   UNL A   1      44.678  26.129  28.609  1.00  0.00    -0.354 N 
ATOM     47  C   UNL A   1      40.647  27.602  28.745  1.00  0.00     0.074 A 
ATOM     48  C   UNL A   1      39.708  26.607  28.273  1.00  0.00     0.031 C 
ATOM     49  C   UNL A   1      46.309  24.652  28.218  1.00  0.00     0.029 A 
ATOM     50  C   UNL A   1      46.045  26.016  28.668  1.00  0.00     0.049 A 
ATOM     51  H   UNL A   1      44.194  26.950  28.856  1.00  0.00     0.167 HD
ATOM     52  C   UNL A   1      40.299  28.841  29.167  1.00  0.00     0.037 A 
ATOM     53  C   UNL A   1      46.984  26.907  29.043  1.00  0.00     0.037 A 
ATOM     54  C   UNL A   1      41.223  29.828  29.665  1.00  0.00     0.049 A 
ATOM     55  C   UNL A   1      46.572  28.274  29.511  1.00  0.00     0.074 A 
ATOM     56  C   UNL A   1      40.946  31.086  30.176  1.00  0.00     0.029 A 
ATOM     57  N   UNL A   1      42.598  29.671  29.713  1.00  0.00    -0.354 N 
ATOM     58  N   UNL A   1      45.369  28.781  29.622  1.00  0.00    -0.248 NA
ATOM     59  C   UNL A   1      47.649  29.190  29.916  1.00  0.00     0.031 C 
ATOM     60  C   UNL A   1      42.159  31.705  30.498  1.00  0.00     0.029 A 
ATOM     61  C   UNL A   1      43.187  30.817  30.225  1.00  0.00     0.049 A 
ATOM     62  H   UNL A   1      43.085  28.866  29.427  1.00  0.00     0.167 HD
ATOM     63  C   UNL A   1      45.542  30.063  30.128  1.00  0.00     0.074 A 
ATOM     64  C   UNL A   1      46.965  30.253  30.316  1.00  0.00     0.031 C 
ATOM     65  C   UNL A   1      44.604  30.998  30.412  1.00  0.00     0.037 A 
BRANCH  52  66
ATOM     66  C   UNL A   1      38.844  29.206  29.115  1.00  0.00     0.057 A 
ATOM     67  C   UNL A   1      38.229  29.612  27.924  1.00  0.00     0.134 A 
ATOM     68  C   UNL A   1      38.039  29.106  30.257  1.00  0.00     0.134 A 
ATOM     69  F   UNL A   1      38.944  29.736  26.797  1.00  0.00    -0.206 F 
ATOM     70  C   UNL A   1      36.869  29.927  27.876  1.00  0.00     0.040 A 
ATOM     71  C   UNL A   1      36.674  29.396  30.217  1.00  0.00     0.040 A 
ATOM     72  F   UNL A   1      38.565  28.714  31.428  1.00  0.00    -0.206 F 
ATOM     73  C   UNL A   1      36.087  29.813  29.024  1.00  0.00     0.006 A 
ENDBRANCH  52  66
BRANCH  53  74
ATOM     74  C   UNL A   1      48.418  26.523  29.013  1.00  0.00     0.057 A 
ATOM     75  C   UNL A   1      49.218  26.807  27.901  1.00  0.00     0.134 A 
ATOM     76  C   UNL A   1      49.017  25.859  30.091  1.00  0.00     0.134 A 
ATOM     77  F   UNL A   1      48.693  27.420  26.830  1.00  0.00    -0.206 F 
ATOM     78  C   UNL A   1      50.562  26.433  27.854  1.00  0.00     0.040 A 
ATOM     79  C   UNL A   1      50.365  25.499  30.066  1.00  0.00     0.040 A 
ATOM     80  F   UNL A   1      48.302  25.562  31.185  1.00  0.00    -0.206 F 
ATOM     81  C   UNL A   1      51.140  25.781  28.942  1.00  0.00     0.006 A 
ENDBRANCH  53  74
BRANCH  65  82
ATOM     82  C   UNL A   1      45.079  32.303  30.978  1.00  0.00     0.057 A 
ATOM     83  C   UNL A   1      45.383  33.397  30.157  1.00  0.00     0.134 A 
ATOM     84  C   UNL A   1      45.200  32.480  32.363  1.00  0.00     0.134 A 
ATOM     85  F   UNL A   1      45.300  33.288  28.823  1.00  0.00    -0.206 F 
ATOM     86  C   UNL A   1      45.805  34.615  30.692  1.00  0.00     0.040 A 
ATOM     87  C   UNL A   1      45.601  33.700  32.910  1.00  0.00     0.040 A 
ATOM     88  F   UNL A   1      44.918  31.475  33.205  1.00  0.00    -0.206 F 
ATOM     89  C   UNL A   1      45.910  34.770  32.073  1.00  0.00     0.006 A 
ENDBRANCH  65  82
ENDBRANCH  39  40
ENDBRANCH  31  34
ENDBRANCH  29  30
ENDBRANCH  28  29
ENDBRANCH   1  28
TORSDOF 15
ENDMDL
MODEL 3
REMARK VINA RESULT:     -11.8      1.306      6.363
REMARK SMILES Cc1ccc(NC(=O)C[C@@H](C(=O)NCCCNC(=O)c2ccc(-c3c4nc(c(-c5c(F)cccc5F)c5ccc([nH]5)c(-c5c(F)cccc5F)c5nc(c(-c6c(F)cccc6F)c6ccc3[nH]6)C=C5)C=C4)cc2)[C@@H](C)c2ccccc2)cc1Br
REMARK SMILES IDX 14 1 13 2 11 3 12 4 10 6 9 7 7 8 6 9 8 11 5 12 1 13 2 14
REMARK SMILES IDX 3 15 83 16 4 17 82 18 84 19 74 20 75 21 76 22 77 23 81 24
REMARK SMILES IDX 78 25 80 26 79 27 15 28 16 29 17 30 18 31 19 33 20 34 21 35
REMARK SMILES IDX 73 36 22 37 72 38 23 39 24 40 25 41 66 42 26 43 71 44 65 45
REMARK SMILES IDX 67 46 27 47 70 48 64 49 63 50 28 52 54 53 37 54 53 55 38 56
REMARK SMILES IDX 41 57 52 58 68 59 39 60 40 61 51 63 69 64 42 65 29 66 30 67
REMARK SMILES IDX 35 68 31 69 32 70 34 71 36 72 33 73 55 74 56 75 61 76 57 77
REMARK SMILES IDX 58 78 60 79 62 80 59 81 43 82 44 83 49 84 45 85 46 86 48 87
REMARK SMILES IDX 50 88 47 89
REMARK H PARENT 13 5 6 10 17 32 67 51 41 62
REMARK Flexibility Score: inf
ROOT
ATOM      1  C   UNL A   1      36.218  20.474  24.652  1.00  0.00     0.117 C 
ENDROOT
BRANCH   1   2
ATOM      2  N   UNL A   1      34.934  19.943  25.070  1.00  0.00    -0.356 N 
ATOM      3  C   UNL A   1      33.696  20.469  25.246  1.00  0.00     0.224 C 
ATOM      4  O   UNL A   1      32.851  19.657  25.626  1.00  0.00    -0.275 OA
ATOM      5  H   UNL A   1      34.969  18.980  25.270  1.00  0.00     0.163 HD
BRANCH   3   6
ATOM      6  C   UNL A   1      33.373  21.946  25.010  1.00  0.00     0.095 C 
BRANCH   6   7
ATOM      7  C   UNL A   1      32.047  22.429  25.660  1.00  0.00     0.114 C 
BRANCH   7   8
ATOM      8  C   UNL A   1      32.008  23.171  26.974  1.00  0.00     0.225 C 
ATOM      9  N   UNL A   1      31.587  24.457  27.115  1.00  0.00    -0.326 N 
ATOM     10  H   UNL A   1      31.627  24.789  28.041  1.00  0.00     0.169 HD
ATOM     11  O   UNL A   1      32.373  22.578  27.998  1.00  0.00    -0.275 OA
BRANCH   9  12
ATOM     12  C   UNL A   1      31.105  25.400  26.196  1.00  0.00     0.042 A 
ATOM     13  C   UNL A   1      30.132  27.801  22.751  1.00  0.00     0.045 C 
ATOM     14  C   UNL A   1      30.375  27.028  24.016  1.00  0.00    -0.037 A 
ATOM     15  C   UNL A   1      29.904  25.712  24.113  1.00  0.00     0.007 A 
ATOM     16  C   UNL A   1      31.106  27.552  25.090  1.00  0.00     0.022 A 
ATOM     17  C   UNL A   1      30.238  24.918  25.211  1.00  0.00     0.026 A 
ATOM     18  C   UNL A   1      31.470  26.741  26.175  1.00  0.00     0.042 A 
ATOM     19  Br  UNL A   1      31.676  29.366  25.123  1.00  0.00    -0.050 Br
ENDBRANCH   9  12
ENDBRANCH   7   8
ENDBRANCH   6   7
BRANCH   6  20
ATOM     20  C   UNL A   1      33.313  22.344  23.476  1.00  0.00     0.029 C 
ATOM     21  C   UNL A   1      32.152  21.614  22.758  1.00  0.00     0.013 C 
BRANCH  20  22
ATOM     22  C   UNL A   1      33.288  23.829  23.106  1.00  0.00    -0.044 A 
ATOM     23  C   UNL A   1      32.762  24.316  21.902  1.00  0.00     0.004 A 
ATOM     24  C   UNL A   1      33.935  24.751  23.952  1.00  0.00     0.004 A 
ATOM     25  C   UNL A   1      32.902  25.665  21.552  1.00  0.00     0.000 A 
ATOM     26  C   UNL A   1      34.047  26.101  23.619  1.00  0.00     0.000 A 
ATOM     27  C   UNL A   1      33.540  26.556  22.411  1.00  0.00     0.000 A 
ENDBRANCH  20  22
ENDBRANCH   6  20
ENDBRANCH   3   6
ENDBRANCH   1   2
BRANCH   1  28
ATOM     28  C   UNL A   1      37.401  19.538  24.950  1.00  0.00     0.042 C 
BRANCH  28  29
ATOM     29  C   UNL A   1      38.572  20.114  25.749  1.00  0.00     0.118 C 
BRANCH  29  30
ATOM     30  N   UNL A   1      39.733  19.246  25.790  1.00  0.00    -0.352 N 
ATOM     31  C   UNL A   1      41.035  19.533  26.116  1.00  0.00     0.251 C 
ATOM     32  H   UNL A   1      39.561  18.307  25.548  1.00  0.00     0.163 HD
ATOM     33  O   UNL A   1      41.898  18.663  25.966  1.00  0.00    -0.269 OA
BRANCH  31  34
ATOM     34  C   UNL A   1      41.444  20.868  26.616  1.00  0.00     0.039 A 
ATOM     35  C   UNL A   1      41.787  21.849  25.679  1.00  0.00     0.014 A 
ATOM     36  C   UNL A   1      41.566  21.152  27.982  1.00  0.00     0.014 A 
ATOM     37  C   UNL A   1      42.203  23.115  26.102  1.00  0.00     0.010 A 
ATOM     38  C   UNL A   1      41.931  22.437  28.404  1.00  0.00     0.010 A 
ATOM     39  C   UNL A   1      42.260  23.431  27.469  1.00  0.00    -0.014 A 
BRANCH  39  40
ATOM     40  C   UNL A   1      42.669  24.794  27.910  1.00  0.00     0.031 A 
ATOM     41  C   UNL A   1      44.123  25.178  27.983  1.00  0.00     0.074 A 
ATOM     42  C   UNL A   1      41.731  25.695  28.263  1.00  0.00     0.049 A 
ATOM     43  N   UNL A   1      44.660  26.321  28.335  1.00  0.00    -0.248 NA
ATOM     44  C   UNL A   1      45.103  24.141  27.630  1.00  0.00     0.031 C 
ATOM     45  C   UNL A   1      40.289  25.451  28.277  1.00  0.00     0.029 A 
ATOM     46  N   UNL A   1      41.851  27.000  28.677  1.00  0.00    -0.354 N 
ATOM     47  C   UNL A   1      46.035  26.137  28.255  1.00  0.00     0.074 A 
ATOM     48  C   UNL A   1      46.251  24.761  27.863  1.00  0.00     0.031 C 
ATOM     49  C   UNL A   1      39.657  26.574  28.657  1.00  0.00     0.029 A 
ATOM     50  C   UNL A   1      40.648  27.609  28.937  1.00  0.00     0.049 A 
ATOM     51  H   UNL A   1      42.718  27.455  28.777  1.00  0.00     0.167 HD
ATOM     52  C   UNL A   1      47.027  27.035  28.469  1.00  0.00     0.037 A 
ATOM     53  C   UNL A   1      40.368  28.860  29.353  1.00  0.00     0.037 A 
ATOM     54  C   UNL A   1      46.822  28.414  28.832  1.00  0.00     0.049 A 
ATOM     55  C   UNL A   1      41.487  29.838  29.580  1.00  0.00     0.074 A 
ATOM     56  C   UNL A   1      47.770  29.410  29.004  1.00  0.00     0.029 A 
ATOM     57  N   UNL A   1      45.588  28.991  29.080  1.00  0.00    -0.354 N 
ATOM     58  N   UNL A   1      42.777  29.667  29.433  1.00  0.00    -0.248 NA
ATOM     59  C   UNL A   1      41.108  31.189  30.023  1.00  0.00     0.031 C 
ATOM     60  C   UNL A   1      47.111  30.581  29.394  1.00  0.00     0.029 A 
ATOM     61  C   UNL A   1      45.750  30.324  29.425  1.00  0.00     0.049 A 
ATOM     62  H   UNL A   1      44.723  28.525  29.021  1.00  0.00     0.167 HD
ATOM     63  C   UNL A   1      43.361  30.888  29.742  1.00  0.00     0.074 A 
ATOM     64  C   UNL A   1      42.284  31.798  30.072  1.00  0.00     0.031 C 
ATOM     65  C   UNL A   1      44.673  31.224  29.750  1.00  0.00     0.037 A 
BRANCH  52  66
ATOM     66  C   UNL A   1      48.441  26.555  28.312  1.00  0.00     0.057 A 
ATOM     67  C   UNL A   1      49.158  26.012  29.385  1.00  0.00     0.134 A 
ATOM     68  C   UNL A   1      49.074  26.591  27.063  1.00  0.00     0.134 A 
ATOM     69  F   UNL A   1      48.612  25.955  30.609  1.00  0.00    -0.206 F 
ATOM     70  C   UNL A   1      50.464  25.544  29.227  1.00  0.00     0.040 A 
ATOM     71  C   UNL A   1      50.371  26.105  26.887  1.00  0.00     0.040 A 
ATOM     72  F   UNL A   1      48.439  27.090  25.991  1.00  0.00    -0.206 F 
ATOM     73  C   UNL A   1      51.072  25.585  27.973  1.00  0.00     0.006 A 
ENDBRANCH  52  66
BRANCH  53  74
ATOM     74  C   UNL A   1      38.958  29.270  29.561  1.00  0.00     0.057 A 
ATOM     75  C   UNL A   1      38.158  29.676  28.486  1.00  0.00     0.134 A 
ATOM     76  C   UNL A   1      38.379  29.273  30.836  1.00  0.00     0.134 A 
ATOM     77  F   UNL A   1      38.665  29.716  27.245  1.00  0.00    -0.206 F 
ATOM     78  C   UNL A   1      36.836  30.083  28.673  1.00  0.00     0.040 A 
ATOM     79  C   UNL A   1      37.052  29.656  31.034  1.00  0.00     0.040 A 
ATOM     80  F   UNL A   1      39.094  28.892  31.904  1.00  0.00    -0.206 F 
ATOM     81  C   UNL A   1      36.278  30.069  29.951  1.00  0.00     0.006 A 
ENDBRANCH  53  74
BRANCH  65  82
ATOM     82  C   UNL A   1      45.020  32.640  30.104  1.00  0.00     0.057 A 
ATOM     83  C   UNL A   1      45.064  33.652  29.138  1.00  0.00     0.134 A 
ATOM     84  C   UNL A   1      45.277  33.002  31.434  1.00  0.00     0.134 A 
ATOM     85  F   UNL A   1      44.841  33.368  27.846  1.00  0.00    -0.206 F 
ATOM     86  C   UNL A   1      45.368  34.972  29.477  1.00  0.00     0.040 A 
ATOM     87  C   UNL A   1      45.561  34.322  31.789  1.00  0.00     0.040 A 
ATOM     88  F   UNL A   1      45.244  32.082  32.409  1.00  0.00    -0.206 F 
ATOM     89  C   UNL A   1      45.612  35.310  30.808  1.00  0.00     0.006 A 
ENDBRANCH  65  82
ENDBRANCH  39  40
ENDBRANCH  31  34
ENDBRANCH  29  30
ENDBRANCH  28  29
ENDBRANCH   1  28
TORSDOF 15
ENDMDL
