MODEL 1
REMARK VINA RESULT:     -10.9      0.000      0.000
REMARK SMILES C[C@H]1[C@@H](C(=O)NCCCNC(=O)c2ccc(-c3c4nc(c(-c5c(F)cccc5F)c5ccc([nH]5)c(-c5c(F)cccc5F)c5nc(c(-c6c(F)cccc6F)c6ccc3[nH]6)C=C5)C=C4)cc2)CC[N@@H+]1CC1(O)CCCC1
REMARK SMILES IDX 7 1 6 2 4 3 5 4 3 6 1 7 2 8 69 9 67 10 68 11 70 13 71 14
REMARK SMILES IDX 73 15 76 16 74 17 75 18 72 19 8 21 9 22 10 23 11 24 12 26
REMARK SMILES IDX 13 27 14 28 66 29 15 30 65 31 16 32 17 33 18 34 59 35 19 36
REMARK SMILES IDX 64 37 58 38 60 39 20 40 63 41 57 42 56 43 21 45 47 46 30 47
REMARK SMILES IDX 46 48 31 49 34 50 45 51 61 52 32 53 33 54 44 56 62 57 35 58
REMARK SMILES IDX 22 59 23 60 28 61 24 62 25 63 27 64 29 65 26 66 48 67 49 68
REMARK SMILES IDX 54 69 50 70 51 71 53 72 55 73 52 74 36 75 37 76 42 77 38 78
REMARK SMILES IDX 39 79 41 80 43 81 40 82
REMARK H PARENT 6 5 69 12 72 20 10 25 60 44 34 55
REMARK Flexibility Score: inf
ROOT
ATOM      1  C   UNL A   1      36.541  20.538  24.741  1.00  0.00     0.117 C 
ENDROOT
BRANCH   1   2
ATOM      2  N   UNL A   1      35.292  19.840  24.979  1.00  0.00    -0.356 N 
ATOM      3  C   UNL A   1      34.032  20.321  25.166  1.00  0.00     0.229 C 
ATOM      4  O   UNL A   1      33.243  19.568  25.739  1.00  0.00    -0.275 OA
ATOM      5  H   UNL A   1      35.368  18.859  25.010  1.00  0.00     0.163 HD
BRANCH   3   6
ATOM      6  C   UNL A   1      33.613  21.656  24.558  1.00  0.00     0.142 C 
ATOM      7  C   UNL A   1      34.375  22.915  26.751  1.00  0.00     0.076 C 
ATOM      8  C   UNL A   1      33.777  22.968  25.354  1.00  0.00     0.193 C 
ATOM      9  N   UNL A   1      32.440  23.546  25.512  1.00  0.00    -0.330 N 
ATOM     10  C   UNL A   1      32.118  21.623  24.196  1.00  0.00     0.081 C 
ATOM     11  C   UNL A   1      31.460  22.509  25.233  1.00  0.00     0.263 C 
ATOM     12  H   UNL A   1      32.326  23.833  26.485  1.00  0.00     0.348 HD
BRANCH   9  13
ATOM     13  C   UNL A   1      32.215  24.861  24.901  1.00  0.00     0.297 C 
BRANCH  13  14
ATOM     14  C   UNL A   1      32.074  26.146  25.762  1.00  0.00     0.113 C 
ATOM     15  C   UNL A   1      31.468  27.364  25.059  1.00  0.00     0.041 C 
ATOM     16  C   UNL A   1      33.456  26.687  26.156  1.00  0.00     0.041 C 
ATOM     17  C   UNL A   1      31.933  28.568  25.881  1.00  0.00     0.003 C 
ATOM     18  C   UNL A   1      33.184  28.113  26.627  1.00  0.00     0.003 C 
BRANCH  14  19
ATOM     19  O   UNL A   1      31.364  25.837  26.966  1.00  0.00    -0.384 OA
ATOM     20  H   UNL A   1      31.893  26.109  27.732  1.00  0.00     0.211 HD
ENDBRANCH  14  19
ENDBRANCH  13  14
ENDBRANCH   9  13
ENDBRANCH   3   6
ENDBRANCH   1   2
BRANCH   1  21
ATOM     21  C   UNL A   1      37.715  19.588  24.980  1.00  0.00     0.042 C 
BRANCH  21  22
ATOM     22  C   UNL A   1      38.892  20.221  25.708  1.00  0.00     0.118 C 
BRANCH  22  23
ATOM     23  N   UNL A   1      40.025  19.322  25.803  1.00  0.00    -0.352 N 
ATOM     24  C   UNL A   1      41.342  19.592  26.072  1.00  0.00     0.251 C 
ATOM     25  H   UNL A   1      39.817  18.372  25.650  1.00  0.00     0.163 HD
ATOM     26  O   UNL A   1      42.180  18.708  25.880  1.00  0.00    -0.269 OA
BRANCH  24  27
ATOM     27  C   UNL A   1      41.786  20.919  26.568  1.00  0.00     0.039 A 
ATOM     28  C   UNL A   1      41.723  21.169  27.943  1.00  0.00     0.014 A 
ATOM     29  C   UNL A   1      42.189  21.943  25.707  1.00  0.00     0.014 A 
ATOM     30  C   UNL A   1      42.088  22.420  28.449  1.00  0.00     0.010 A 
ATOM     31  C   UNL A   1      42.651  23.156  26.220  1.00  0.00     0.010 A 
ATOM     32  C   UNL A   1      42.575  23.422  27.593  1.00  0.00    -0.014 A 
BRANCH  32  33
ATOM     33  C   UNL A   1      42.947  24.763  28.117  1.00  0.00     0.031 A 
ATOM     34  C   UNL A   1      41.887  25.812  28.341  1.00  0.00     0.074 A 
ATOM     35  C   UNL A   1      44.237  25.055  28.370  1.00  0.00     0.049 A 
ATOM     36  N   UNL A   1      42.017  27.044  28.767  1.00  0.00    -0.248 NA
ATOM     37  C   UNL A   1      40.502  25.438  28.013  1.00  0.00     0.031 C 
ATOM     38  C   UNL A   1      45.369  24.153  28.146  1.00  0.00     0.029 A 
ATOM     39  N   UNL A   1      44.816  26.195  28.869  1.00  0.00    -0.354 N 
ATOM     40  C   UNL A   1      40.739  27.591  28.740  1.00  0.00     0.074 A 
ATOM     41  C   UNL A   1      39.857  26.579  28.201  1.00  0.00     0.031 C 
ATOM     42  C   UNL A   1      46.500  24.764  28.534  1.00  0.00     0.029 A 
ATOM     43  C   UNL A   1      46.179  26.107  29.006  1.00  0.00     0.049 A 
ATOM     44  H   UNL A   1      44.301  27.000  29.107  1.00  0.00     0.167 HD
ATOM     45  C   UNL A   1      40.328  28.814  29.154  1.00  0.00     0.037 A 
ATOM     46  C   UNL A   1      47.072  27.006  29.464  1.00  0.00     0.037 A 
ATOM     47  C   UNL A   1      41.194  29.810  29.726  1.00  0.00     0.049 A 
ATOM     48  C   UNL A   1      46.589  28.345  29.945  1.00  0.00     0.074 A 
ATOM     49  C   UNL A   1      40.864  31.057  30.227  1.00  0.00     0.029 A 
ATOM     50  N   UNL A   1      42.565  29.669  29.874  1.00  0.00    -0.354 N 
ATOM     51  N   UNL A   1      45.369  28.824  29.972  1.00  0.00    -0.248 NA
ATOM     52  C   UNL A   1      47.607  29.265  30.471  1.00  0.00     0.031 C 
ATOM     53  C   UNL A   1      42.041  31.683  30.653  1.00  0.00     0.029 A 
ATOM     54  C   UNL A   1      43.098  30.810  30.450  1.00  0.00     0.049 A 
ATOM     55  H   UNL A   1      43.083  28.875  29.609  1.00  0.00     0.167 HD
ATOM     56  C   UNL A   1      45.468  30.090  30.533  1.00  0.00     0.074 A 
ATOM     57  C   UNL A   1      46.866  30.298  30.852  1.00  0.00     0.031 C 
ATOM     58  C   UNL A   1      44.491  31.002  30.760  1.00  0.00     0.037 A 
BRANCH  45  59
ATOM     59  C   UNL A   1      38.867  29.133  29.014  1.00  0.00     0.057 A 
ATOM     60  C   UNL A   1      38.314  29.533  27.789  1.00  0.00     0.134 A 
ATOM     61  C   UNL A   1      37.999  29.020  30.107  1.00  0.00     0.134 A 
ATOM     62  F   UNL A   1      39.092  29.675  26.706  1.00  0.00    -0.206 F 
ATOM     63  C   UNL A   1      36.957  29.838  27.665  1.00  0.00     0.040 A 
ATOM     64  C   UNL A   1      36.636  29.297  29.989  1.00  0.00     0.040 A 
ATOM     65  F   UNL A   1      38.460  28.635  31.307  1.00  0.00    -0.206 F 
ATOM     66  C   UNL A   1      36.113  29.715  28.767  1.00  0.00     0.006 A 
ENDBRANCH  45  59
BRANCH  46  67
ATOM     67  C   UNL A   1      48.512  26.655  29.517  1.00  0.00     0.057 A 
ATOM     68  C   UNL A   1      49.043  25.944  30.601  1.00  0.00     0.134 A 
ATOM     69  C   UNL A   1      49.391  27.016  28.490  1.00  0.00     0.134 A 
ATOM     70  F   UNL A   1      48.253  25.588  31.625  1.00  0.00    -0.206 F 
ATOM     71  C   UNL A   1      50.397  25.619  30.669  1.00  0.00     0.040 A 
ATOM     72  C   UNL A   1      50.744  26.677  28.533  1.00  0.00     0.040 A 
ATOM     73  F   UNL A   1      48.942  27.691  27.422  1.00  0.00    -0.206 F 
ATOM     74  C   UNL A   1      51.252  25.981  29.629  1.00  0.00     0.006 A 
ENDBRANCH  46  67
BRANCH  58  75
ATOM     75  C   UNL A   1      44.900  32.294  31.401  1.00  0.00     0.057 A 
ATOM     76  C   UNL A   1      45.260  33.413  30.639  1.00  0.00     0.134 A 
ATOM     77  C   UNL A   1      44.906  32.429  32.795  1.00  0.00     0.134 A 
ATOM     78  F   UNL A   1      45.285  33.343  29.299  1.00  0.00    -0.206 F 
ATOM     79  C   UNL A   1      45.637  34.613  31.242  1.00  0.00     0.040 A 
ATOM     80  C   UNL A   1      45.259  33.631  33.409  1.00  0.00     0.040 A 
ATOM     81  F   UNL A   1      44.563  31.398  33.581  1.00  0.00    -0.206 F 
ATOM     82  C   UNL A   1      45.632  34.726  32.632  1.00  0.00     0.006 A 
ENDBRANCH  58  75
ENDBRANCH  32  33
ENDBRANCH  24  27
ENDBRANCH  22  23
ENDBRANCH  21  22
ENDBRANCH   1  21
TORSDOF 13
ENDMDL
MODEL 2
REMARK VINA RESULT:     -10.9      2.949      7.563
REMARK SMILES C[C@H]1[C@@H](C(=O)NCCCNC(=O)c2ccc(-c3c4nc(c(-c5c(F)cccc5F)c5ccc([nH]5)c(-c5c(F)cccc5F)c5nc(c(-c6c(F)cccc6F)c6ccc3[nH]6)C=C5)C=C4)cc2)CC[N@@H+]1CC1(O)CCCC1
REMARK SMILES IDX 7 1 6 2 4 3 5 4 3 6 1 7 2 8 69 9 67 10 68 11 70 13 71 14
REMARK SMILES IDX 73 15 76 16 74 17 75 18 72 19 8 21 9 22 10 23 11 24 12 26
REMARK SMILES IDX 13 27 14 28 66 29 15 30 65 31 16 32 17 33 18 34 59 35 19 36
REMARK SMILES IDX 64 37 58 38 60 39 20 40 63 41 57 42 56 43 21 45 47 46 30 47
REMARK SMILES IDX 46 48 31 49 34 50 45 51 61 52 32 53 33 54 44 56 62 57 35 58
REMARK SMILES IDX 22 59 23 60 28 61 24 62 25 63 27 64 29 65 26 66 48 67 49 68
REMARK SMILES IDX 54 69 50 70 51 71 53 72 55 73 52 74 36 75 37 76 42 77 38 78
REMARK SMILES IDX 39 79 41 80 43 81 40 82
REMARK H PARENT 6 5 69 12 72 20 10 25 60 44 34 55
REMARK Flexibility Score: inf
ROOT
ATOM      1  C   UNL A   1      32.872  26.723  24.926  1.00  0.00     0.117 C 
ENDROOT
BRANCH   1   2
ATOM      2  N   UNL A   1      32.317  26.098  26.111  1.00  0.00    -0.356 N 
ATOM      3  C   UNL A   1      32.151  24.782  26.421  1.00  0.00     0.229 C 
ATOM      4  O   UNL A   1      31.307  24.530  27.283  1.00  0.00    -0.275 OA
ATOM      5  H   UNL A   1      32.009  26.726  26.803  1.00  0.00     0.163 HD
BRANCH   3   6
ATOM      6  C   UNL A   1      33.076  23.723  25.829  1.00  0.00     0.142 C 
ATOM      7  C   UNL A   1      30.995  22.205  25.248  1.00  0.00     0.076 C 
ATOM      8  C   UNL A   1      32.500  22.418  25.241  1.00  0.00     0.193 C 
ATOM      9  N   UNL A   1      33.064  21.310  26.017  1.00  0.00    -0.330 N 
ATOM     10  C   UNL A   1      34.077  23.244  26.895  1.00  0.00     0.081 C 
ATOM     11  C   UNL A   1      33.606  21.850  27.254  1.00  0.00     0.263 C 
ATOM     12  H   UNL A   1      32.309  20.668  26.258  1.00  0.00     0.348 HD
BRANCH   9  13
ATOM     13  C   UNL A   1      33.900  20.352  25.284  1.00  0.00     0.297 C 
BRANCH  13  14
ATOM     14  C   UNL A   1      33.323  19.012  24.749  1.00  0.00     0.113 C 
ATOM     15  C   UNL A   1      34.350  17.939  24.375  1.00  0.00     0.041 C 
ATOM     16  C   UNL A   1      32.614  19.227  23.404  1.00  0.00     0.041 C 
ATOM     17  C   UNL A   1      33.615  17.006  23.411  1.00  0.00     0.003 C 
ATOM     18  C   UNL A   1      32.466  17.823  22.825  1.00  0.00     0.003 C 
BRANCH  14  19
ATOM     19  O   UNL A   1      32.359  18.504  25.677  1.00  0.00    -0.384 OA
ATOM     20  H   UNL A   1      32.052  19.223  26.251  1.00  0.00     0.211 HD
ENDBRANCH  14  19
ENDBRANCH  13  14
ENDBRANCH   9  13
ENDBRANCH   3   6
ENDBRANCH   1   2
BRANCH   1  21
ATOM     21  C   UNL A   1      33.756  27.902  25.333  1.00  0.00     0.042 C 
BRANCH  21  22
ATOM     22  C   UNL A   1      33.583  28.341  26.780  1.00  0.00     0.118 C 
BRANCH  22  23
ATOM     23  N   UNL A   1      33.540  29.784  26.914  1.00  0.00    -0.352 N 
ATOM     24  C   UNL A   1      34.367  30.629  27.609  1.00  0.00     0.251 C 
ATOM     25  H   UNL A   1      32.803  30.224  26.433  1.00  0.00     0.163 HD
ATOM     26  O   UNL A   1      34.016  31.799  27.775  1.00  0.00    -0.269 OA
BRANCH  24  27
ATOM     27  C   UNL A   1      35.658  30.168  28.179  1.00  0.00     0.039 A 
ATOM     28  C   UNL A   1      36.797  30.215  27.367  1.00  0.00     0.014 A 
ATOM     29  C   UNL A   1      35.758  29.625  29.463  1.00  0.00     0.014 A 
ATOM     30  C   UNL A   1      38.024  29.750  27.849  1.00  0.00     0.010 A 
ATOM     31  C   UNL A   1      37.002  29.257  29.979  1.00  0.00     0.010 A 
ATOM     32  C   UNL A   1      38.144  29.284  29.168  1.00  0.00    -0.014 A 
BRANCH  32  33
ATOM     33  C   UNL A   1      39.440  28.767  29.684  1.00  0.00     0.031 A 
ATOM     34  C   UNL A   1      40.060  29.369  30.918  1.00  0.00     0.074 A 
ATOM     35  C   UNL A   1      40.076  27.774  29.033  1.00  0.00     0.049 A 
ATOM     36  N   UNL A   1      41.193  29.072  31.507  1.00  0.00    -0.248 NA
ATOM     37  C   UNL A   1      39.328  30.472  31.561  1.00  0.00     0.031 C 
ATOM     38  C   UNL A   1      39.616  27.139  27.797  1.00  0.00     0.029 A 
ATOM     39  N   UNL A   1      41.252  27.126  29.321  1.00  0.00    -0.354 N 
ATOM     40  C   UNL A   1      41.313  29.959  32.569  1.00  0.00     0.074 A 
ATOM     41  C   UNL A   1      40.170  30.844  32.512  1.00  0.00     0.031 C 
ATOM     42  C   UNL A   1      40.483  26.175  27.450  1.00  0.00     0.029 A 
ATOM     43  C   UNL A   1      41.573  26.141  28.420  1.00  0.00     0.049 A 
ATOM     44  H   UNL A   1      41.811  27.346  30.101  1.00  0.00     0.167 HD
ATOM     45  C   UNL A   1      42.270  30.017  33.526  1.00  0.00     0.037 A 
ATOM     46  C   UNL A   1      42.625  25.301  28.381  1.00  0.00     0.037 A 
ATOM     47  C   UNL A   1      43.388  29.116  33.609  1.00  0.00     0.049 A 
ATOM     48  C   UNL A   1      43.659  25.363  29.469  1.00  0.00     0.074 A 
ATOM     49  C   UNL A   1      44.381  29.057  34.573  1.00  0.00     0.029 A 
ATOM     50  N   UNL A   1      43.660  28.113  32.692  1.00  0.00    -0.354 N 
ATOM     51  N   UNL A   1      43.725  26.167  30.503  1.00  0.00    -0.248 NA
ATOM     52  C   UNL A   1      44.760  24.392  29.392  1.00  0.00     0.031 C 
ATOM     53  C   UNL A   1      45.270  28.035  34.222  1.00  0.00     0.029 A 
ATOM     54  C   UNL A   1      44.810  27.435  33.061  1.00  0.00     0.049 A 
ATOM     55  H   UNL A   1      43.117  27.911  31.897  1.00  0.00     0.167 HD
ATOM     56  C   UNL A   1      44.859  25.789  31.208  1.00  0.00     0.074 A 
ATOM     57  C   UNL A   1      45.441  24.669  30.496  1.00  0.00     0.031 C 
ATOM     58  C   UNL A   1      45.377  26.323  32.341  1.00  0.00     0.037 A 
BRANCH  45  59
ATOM     59  C   UNL A   1      42.136  31.088  34.571  1.00  0.00     0.057 A 
ATOM     60  C   UNL A   1      42.725  32.350  34.412  1.00  0.00     0.134 A 
ATOM     61  C   UNL A   1      41.395  30.863  35.738  1.00  0.00     0.134 A 
ATOM     62  F   UNL A   1      43.459  32.625  33.324  1.00  0.00    -0.206 F 
ATOM     63  C   UNL A   1      42.606  33.340  35.390  1.00  0.00     0.040 A 
ATOM     64  C   UNL A   1      41.247  31.854  36.711  1.00  0.00     0.040 A 
ATOM     65  F   UNL A   1      40.800  29.681  35.951  1.00  0.00    -0.206 F 
ATOM     66  C   UNL A   1      41.861  33.094  36.541  1.00  0.00     0.006 A 
ENDBRANCH  45  59
BRANCH  46  67
ATOM     67  C   UNL A   1      42.735  24.306  27.285  1.00  0.00     0.057 A 
ATOM     68  C   UNL A   1      42.266  22.997  27.449  1.00  0.00     0.134 A 
ATOM     69  C   UNL A   1      43.307  24.638  26.052  1.00  0.00     0.134 A 
ATOM     70  F   UNL A   1      41.726  22.615  28.616  1.00  0.00    -0.206 F 
ATOM     71  C   UNL A   1      42.375  22.050  26.431  1.00  0.00     0.040 A 
ATOM     72  C   UNL A   1      43.402  23.707  25.017  1.00  0.00     0.040 A 
ATOM     73  F   UNL A   1      43.769  25.877  25.832  1.00  0.00    -0.206 F 
ATOM     74  C   UNL A   1      42.940  22.406  25.207  1.00  0.00     0.006 A 
ENDBRANCH  46  67
BRANCH  58  75
ATOM     75  C   UNL A   1      46.620  25.689  32.888  1.00  0.00     0.057 A 
ATOM     76  C   UNL A   1      47.897  26.107  32.491  1.00  0.00     0.134 A 
ATOM     77  C   UNL A   1      46.540  24.668  33.844  1.00  0.00     0.134 A 
ATOM     78  F   UNL A   1      48.039  27.072  31.570  1.00  0.00    -0.206 F 
ATOM     79  C   UNL A   1      49.050  25.513  33.006  1.00  0.00     0.040 A 
ATOM     80  C   UNL A   1      47.686  24.083  34.383  1.00  0.00     0.040 A 
ATOM     81  F   UNL A   1      45.348  24.228  34.273  1.00  0.00    -0.206 F 
ATOM     82  C   UNL A   1      48.946  24.501  33.959  1.00  0.00     0.006 A 
ENDBRANCH  58  75
ENDBRANCH  32  33
ENDBRANCH  24  27
ENDBRANCH  22  23
ENDBRANCH  21  22
ENDBRANCH   1  21
TORSDOF 13
ENDMDL
MODEL 3
REMARK VINA RESULT:     -10.9      3.567      8.910
REMARK SMILES C[C@H]1[C@@H](C(=O)NCCCNC(=O)c2ccc(-c3c4nc(c(-c5c(F)cccc5F)c5ccc([nH]5)c(-c5c(F)cccc5F)c5nc(c(-c6c(F)cccc6F)c6ccc3[nH]6)C=C5)C=C4)cc2)CC[N@@H+]1CC1(O)CCCC1
REMARK SMILES IDX 7 1 6 2 4 3 5 4 3 6 1 7 2 8 69 9 67 10 68 11 70 13 71 14
REMARK SMILES IDX 73 15 76 16 74 17 75 18 72 19 8 21 9 22 10 23 11 24 12 26
REMARK SMILES IDX 13 27 14 28 66 29 15 30 65 31 16 32 17 33 18 34 59 35 19 36
REMARK SMILES IDX 64 37 58 38 60 39 20 40 63 41 57 42 56 43 21 45 47 46 30 47
REMARK SMILES IDX 46 48 31 49 34 50 45 51 61 52 32 53 33 54 44 56 62 57 35 58
REMARK SMILES IDX 22 59 23 60 28 61 24 62 25 63 27 64 29 65 26 66 48 67 49 68
REMARK SMILES IDX 54 69 50 70 51 71 53 72 55 73 52 74 36 75 37 76 42 77 38 78
REMARK SMILES IDX 39 79 41 80 43 81 40 82
REMARK H PARENT 6 5 69 12 72 20 10 25 60 44 34 55
REMARK Flexibility Score: inf
ROOT
ATOM      1  C   UNL A   1      31.575  30.399  26.095  1.00  0.00     0.117 C 
ENDROOT
BRANCH   1   2
ATOM      2  N   UNL A   1      30.996  30.224  24.776  1.00  0.00    -0.356 N 
ATOM      3  C   UNL A   1      30.982  29.139  23.954  1.00  0.00     0.229 C 
ATOM      4  O   UNL A   1      30.789  29.367  22.758  1.00  0.00    -0.275 OA
ATOM      5  H   UNL A   1      30.539  31.019  24.418  1.00  0.00     0.163 HD
BRANCH   3   6
ATOM      6  C   UNL A   1      31.052  27.728  24.530  1.00  0.00     0.142 C 
ATOM      7  C   UNL A   1      33.688  27.778  24.380  1.00  0.00     0.076 C 
ATOM      8  C   UNL A   1      32.413  27.033  24.741  1.00  0.00     0.193 C 
ATOM      9  N   UNL A   1      32.410  25.821  23.918  1.00  0.00    -0.330 N 
ATOM     10  C   UNL A   1      30.270  26.753  23.631  1.00  0.00     0.081 C 
ATOM     11  C   UNL A   1      31.341  25.937  22.939  1.00  0.00     0.263 C 
ATOM     12  H   UNL A   1      33.295  25.772  23.413  1.00  0.00     0.348 HD
BRANCH   9  13
ATOM     13  C   UNL A   1      32.529  24.542  24.629  1.00  0.00     0.297 C 
BRANCH  13  14
ATOM     14  C   UNL A   1      33.872  23.763  24.684  1.00  0.00     0.113 C 
ATOM     15  C   UNL A   1      35.013  24.441  25.447  1.00  0.00     0.041 C 
ATOM     16  C   UNL A   1      34.483  23.640  23.281  1.00  0.00     0.041 C 
ATOM     17  C   UNL A   1      36.290  23.794  24.908  1.00  0.00     0.003 C 
ATOM     18  C   UNL A   1      35.933  23.234  23.534  1.00  0.00     0.003 C 
BRANCH  14  19
ATOM     19  O   UNL A   1      33.635  22.440  25.177  1.00  0.00    -0.384 OA
ATOM     20  H   UNL A   1      33.298  21.883  24.458  1.00  0.00     0.211 HD
ENDBRANCH  14  19
ENDBRANCH  13  14
ENDBRANCH   9  13
ENDBRANCH   3   6
ENDBRANCH   1   2
BRANCH   1  21
ATOM     21  C   UNL A   1      31.418  31.854  26.536  1.00  0.00     0.042 C 
BRANCH  21  22
ATOM     22  C   UNL A   1      32.725  32.537  26.910  1.00  0.00     0.118 C 
BRANCH  22  23
ATOM     23  N   UNL A   1      32.510  33.823  27.545  1.00  0.00    -0.352 N 
ATOM     24  C   UNL A   1      33.168  34.407  28.596  1.00  0.00     0.251 C 
ATOM     25  H   UNL A   1      31.778  34.359  27.162  1.00  0.00     0.163 HD
ATOM     26  O   UNL A   1      32.675  35.407  29.123  1.00  0.00    -0.269 OA
BRANCH  24  27
ATOM     27  C   UNL A   1      34.441  33.858  29.127  1.00  0.00     0.039 A 
ATOM     28  C   UNL A   1      35.633  34.201  28.480  1.00  0.00     0.014 A 
ATOM     29  C   UNL A   1      34.481  32.958  30.196  1.00  0.00     0.014 A 
ATOM     30  C   UNL A   1      36.850  33.671  28.918  1.00  0.00     0.010 A 
ATOM     31  C   UNL A   1      35.704  32.511  30.698  1.00  0.00     0.010 A 
ATOM     32  C   UNL A   1      36.901  32.835  30.045  1.00  0.00    -0.014 A 
BRANCH  32  33
ATOM     33  C   UNL A   1      38.187  32.248  30.508  1.00  0.00     0.031 A 
ATOM     34  C   UNL A   1      38.687  30.954  29.919  1.00  0.00     0.074 A 
ATOM     35  C   UNL A   1      38.897  32.860  31.475  1.00  0.00     0.049 A 
ATOM     36  N   UNL A   1      39.770  30.275  30.209  1.00  0.00    -0.248 NA
ATOM     37  C   UNL A   1      37.846  30.322  28.890  1.00  0.00     0.031 C 
ATOM     38  C   UNL A   1      38.502  34.086  32.170  1.00  0.00     0.029 A 
ATOM     39  N   UNL A   1      40.103  32.530  32.044  1.00  0.00    -0.354 N 
ATOM     40  C   UNL A   1      39.727  29.135  29.415  1.00  0.00     0.074 A 
ATOM     41  C   UNL A   1      38.485  29.183  28.674  1.00  0.00     0.031 C 
ATOM     42  C   UNL A   1      39.460  34.421  33.049  1.00  0.00     0.029 A 
ATOM     43  C   UNL A   1      40.521  33.421  33.002  1.00  0.00     0.049 A 
ATOM     44  H   UNL A   1      40.617  31.731  31.789  1.00  0.00     0.167 HD
ATOM     45  C   UNL A   1      40.649  28.151  29.287  1.00  0.00     0.037 A 
ATOM     46  C   UNL A   1      41.638  33.433  33.756  1.00  0.00     0.037 A 
ATOM     47  C   UNL A   1      41.902  28.118  29.993  1.00  0.00     0.049 A 
ATOM     48  C   UNL A   1      42.661  32.347  33.576  1.00  0.00     0.074 A 
ATOM     49  C   UNL A   1      42.928  27.194  29.890  1.00  0.00     0.029 A 
ATOM     50  N   UNL A   1      42.301  29.056  30.932  1.00  0.00    -0.354 N 
ATOM     51  N   UNL A   1      42.634  31.309  32.775  1.00  0.00    -0.248 NA
ATOM     52  C   UNL A   1      43.876  32.440  34.398  1.00  0.00     0.031 C 
ATOM     53  C   UNL A   1      43.936  27.558  30.790  1.00  0.00     0.029 A 
ATOM     54  C   UNL A   1      43.553  28.728  31.425  1.00  0.00     0.049 A 
ATOM     55  H   UNL A   1      41.773  29.839  31.208  1.00  0.00     0.167 HD
ATOM     56  C   UNL A   1      43.831  30.637  32.980  1.00  0.00     0.074 A 
ATOM     57  C   UNL A   1      44.572  31.396  33.968  1.00  0.00     0.031 C 
ATOM     58  C   UNL A   1      44.277  29.493  32.408  1.00  0.00     0.037 A 
BRANCH  45  59
ATOM     59  C   UNL A   1      40.336  27.033  28.333  1.00  0.00     0.057 A 
ATOM     60  C   UNL A   1      40.876  26.994  27.040  1.00  0.00     0.134 A 
ATOM     61  C   UNL A   1      39.501  25.976  28.716  1.00  0.00     0.134 A 
ATOM     62  F   UNL A   1      41.672  27.983  26.606  1.00  0.00    -0.206 F 
ATOM     63  C   UNL A   1      40.575  25.959  26.154  1.00  0.00     0.040 A 
ATOM     64  C   UNL A   1      39.214  24.922  27.847  1.00  0.00     0.040 A 
ATOM     65  F   UNL A   1      38.956  25.947  29.941  1.00  0.00    -0.206 F 
ATOM     66  C   UNL A   1      39.745  24.916  26.559  1.00  0.00     0.006 A 
ENDBRANCH  45  59
BRANCH  46  67
ATOM     67  C   UNL A   1      41.860  34.531  34.728  1.00  0.00     0.057 A 
ATOM     68  C   UNL A   1      41.481  34.395  36.070  1.00  0.00     0.134 A 
ATOM     69  C   UNL A   1      42.457  35.737  34.345  1.00  0.00     0.134 A 
ATOM     70  F   UNL A   1      40.887  33.268  36.491  1.00  0.00    -0.206 F 
ATOM     71  C   UNL A   1      41.673  35.424  36.991  1.00  0.00     0.040 A 
ATOM     72  C   UNL A   1      42.677  36.766  35.261  1.00  0.00     0.040 A 
ATOM     73  F   UNL A   1      42.848  35.926  33.077  1.00  0.00    -0.206 F 
ATOM     74  C   UNL A   1      42.279  36.613  36.589  1.00  0.00     0.006 A 
ENDBRANCH  46  67
BRANCH  58  75
ATOM     75  C   UNL A   1      45.633  29.006  32.821  1.00  0.00     0.057 A 
ATOM     76  C   UNL A   1      45.803  28.111  33.885  1.00  0.00     0.134 A 
ATOM     77  C   UNL A   1      46.780  29.416  32.128  1.00  0.00     0.134 A 
ATOM     78  F   UNL A   1      44.744  27.692  34.594  1.00  0.00    -0.206 F 
ATOM     79  C   UNL A   1      47.069  27.661  34.262  1.00  0.00     0.040 A 
ATOM     80  C   UNL A   1      48.048  28.955  32.482  1.00  0.00     0.040 A 
ATOM     81  F   UNL A   1      46.685  30.265  31.094  1.00  0.00    -0.206 F 
ATOM     82  C   UNL A   1      48.196  28.079  33.556  1.00  0.00     0.006 A 
ENDBRANCH  58  75
ENDBRANCH  32  33
ENDBRANCH  24  27
ENDBRANCH  22  23
ENDBRANCH  21  22
ENDBRANCH   1  21
TORSDOF 13
ENDMDL
