MODEL 1
REMARK VINA RESULT:     -11.5      0.000      0.000
REMARK SMILES COc1ncnc(N2CCCC[C@H]2CC(=O)NCCCNC(=O)c2ccc(-c3c4nc(c(-c5c(F)cccc5F)c5ccc([nH]5)c(-c5c(F)cccc5F)c5nc(c(-c6c(F)cccc6F)c6ccc3[nH]6)C=C5)C=C4)cc2)c1[N+](=O)[O-]
REMARK SMILES IDX 18 1 17 2 15 3 16 4 14 6 13 7 8 8 9 9 10 10 12 11 11 12 7 13
REMARK SMILES IDX 3 14 4 15 78 16 5 17 6 18 2 19 1 20 79 21 80 22 81 23 19 24
REMARK SMILES IDX 20 25 21 26 22 27 23 29 24 30 25 31 77 32 26 33 76 34 27 35
REMARK SMILES IDX 28 36 29 37 70 38 30 39 75 40 69 41 71 42 31 43 74 44 68 45
REMARK SMILES IDX 67 46 32 48 58 49 41 50 57 51 42 52 45 53 56 54 72 55 43 56
REMARK SMILES IDX 44 57 55 59 73 60 46 61 33 62 34 63 39 64 35 65 36 66 38 67
REMARK SMILES IDX 40 68 37 69 59 70 60 71 65 72 61 73 62 74 64 75 66 76 63 77
REMARK SMILES IDX 47 78 48 79 53 80 49 81 50 82 52 83 54 84 51 85
REMARK H PARENT 17 5 21 28 71 47 45 58
REMARK Flexibility Score: inf
ROOT
ATOM      1  C   UNL A   1      36.326  20.315  24.965  1.00  0.00     0.117 C 
ENDROOT
BRANCH   1   2
ATOM      2  N   UNL A   1      36.459  21.583  25.661  1.00  0.00    -0.356 N 
ATOM      3  C   UNL A   1      36.005  22.837  25.391  1.00  0.00     0.222 C 
ATOM      4  O   UNL A   1      36.258  23.705  26.230  1.00  0.00    -0.275 OA
ATOM      5  H   UNL A   1      36.981  21.524  26.493  1.00  0.00     0.163 HD
BRANCH   3   6
ATOM      6  C   UNL A   1      35.205  23.144  24.146  1.00  0.00     0.125 C 
BRANCH   6   7
ATOM      7  C   UNL A   1      33.671  23.233  24.252  1.00  0.00     0.093 C 
ATOM      8  N   UNL A   1      33.004  23.589  22.981  1.00  0.00    -0.347 N 
ATOM      9  C   UNL A   1      32.741  22.502  22.024  1.00  0.00     0.118 C 
ATOM     10  C   UNL A   1      32.046  21.308  22.679  1.00  0.00     0.022 C 
ATOM     11  C   UNL A   1      32.950  22.049  24.899  1.00  0.00     0.026 C 
ATOM     12  C   UNL A   1      32.746  20.867  23.958  1.00  0.00     0.004 C 
BRANCH   8  13
ATOM     13  C   UNL A   1      32.009  24.569  23.074  1.00  0.00     0.215 A 
ATOM     14  C   UNL A   1      31.022  26.652  22.529  1.00  0.00     0.299 A 
ATOM     15  N   UNL A   1      30.021  26.468  23.407  1.00  0.00    -0.196 NA
ATOM     16  C   UNL A   1      32.037  25.744  22.349  1.00  0.00     0.372 A 
ATOM     17  C   UNL A   1      30.059  25.309  24.074  1.00  0.00     0.228 A 
ATOM     18  N   UNL A   1      30.993  24.352  23.939  1.00  0.00    -0.212 NA
BRANCH  14  19
ATOM     19  O   UNL A   1      31.005  27.858  21.878  1.00  0.00    -0.476 OA
ATOM     20  C   UNL A   1      30.432  28.863  22.713  1.00  0.00     0.280 C 
ENDBRANCH  14  19
BRANCH  16  21
ATOM     21  N   UNL A   1      33.037  25.995  21.369  1.00  0.00     0.072 N 
ATOM     22  O   UNL A   1      34.033  26.638  21.728  1.00  0.00    -0.258 OA
ATOM     23  O   UNL A   1      32.853  25.524  20.236  1.00  0.00    -0.258 OA
ENDBRANCH  16  21
ENDBRANCH   8  13
ENDBRANCH   6   7
ENDBRANCH   3   6
ENDBRANCH   1   2
BRANCH   1  24
ATOM     24  C   UNL A   1      37.616  19.494  24.928  1.00  0.00     0.042 C 
BRANCH  24  25
ATOM     25  C   UNL A   1      38.869  20.199  25.442  1.00  0.00     0.118 C 
BRANCH  25  26
ATOM     26  N   UNL A   1      39.961  19.276  25.674  1.00  0.00    -0.352 N 
ATOM     27  C   UNL A   1      41.243  19.540  26.090  1.00  0.00     0.251 C 
ATOM     28  H   UNL A   1      39.756  18.327  25.512  1.00  0.00     0.163 HD
ATOM     29  O   UNL A   1      42.096  18.660  26.027  1.00  0.00    -0.269 OA
BRANCH  27  30
ATOM     30  C   UNL A   1      41.616  20.882  26.601  1.00  0.00     0.039 A 
ATOM     31  C   UNL A   1      41.412  21.159  27.957  1.00  0.00     0.014 A 
ATOM     32  C   UNL A   1      42.095  21.884  25.751  1.00  0.00     0.014 A 
ATOM     33  C   UNL A   1      41.715  22.426  28.465  1.00  0.00     0.010 A 
ATOM     34  C   UNL A   1      42.442  23.135  26.269  1.00  0.00     0.010 A 
ATOM     35  C   UNL A   1      42.241  23.422  27.628  1.00  0.00    -0.014 A 
BRANCH  35  36
ATOM     36  C   UNL A   1      42.554  24.773  28.162  1.00  0.00     0.031 A 
ATOM     37  C   UNL A   1      43.960  25.125  28.564  1.00  0.00     0.074 A 
ATOM     38  C   UNL A   1      41.571  25.683  28.310  1.00  0.00     0.049 A 
ATOM     39  N   UNL A   1      44.422  26.245  29.063  1.00  0.00    -0.248 NA
ATOM     40  C   UNL A   1      44.978  24.075  28.400  1.00  0.00     0.031 C 
ATOM     41  C   UNL A   1      40.161  25.462  27.991  1.00  0.00     0.029 A 
ATOM     42  N   UNL A   1      41.611  26.973  28.776  1.00  0.00    -0.354 N 
ATOM     43  C   UNL A   1      45.777  26.032  29.281  1.00  0.00     0.074 A 
ATOM     44  C   UNL A   1      46.056  24.665  28.896  1.00  0.00     0.031 C 
ATOM     45  C   UNL A   1      39.471  26.584  28.257  1.00  0.00     0.029 A 
ATOM     46  C   UNL A   1      40.386  27.592  28.788  1.00  0.00     0.049 A 
ATOM     47  H   UNL A   1      42.440  27.413  29.074  1.00  0.00     0.167 HD
ATOM     48  C   UNL A   1      46.710  26.901  29.742  1.00  0.00     0.037 A 
ATOM     49  C   UNL A   1      40.036  28.831  29.183  1.00  0.00     0.037 A 
ATOM     50  C   UNL A   1      46.445  28.269  30.099  1.00  0.00     0.049 A 
ATOM     51  C   UNL A   1      41.087  29.775  29.694  1.00  0.00     0.074 A 
ATOM     52  C   UNL A   1      47.342  29.243  30.507  1.00  0.00     0.029 A 
ATOM     53  N   UNL A   1      45.191  28.859  30.094  1.00  0.00    -0.354 N 
ATOM     54  N   UNL A   1      42.376  29.580  29.830  1.00  0.00    -0.248 NA
ATOM     55  C   UNL A   1      40.636  31.114  30.100  1.00  0.00     0.031 C 
ATOM     56  C   UNL A   1      46.625  30.412  30.782  1.00  0.00     0.029 A 
ATOM     57  C   UNL A   1      45.286  30.175  30.514  1.00  0.00     0.049 A 
ATOM     58  H   UNL A   1      44.356  28.408  29.831  1.00  0.00     0.167 HD
ATOM     59  C   UNL A   1      42.891  30.774  30.319  1.00  0.00     0.074 A 
ATOM     60  C   UNL A   1      41.778  31.692  30.443  1.00  0.00     0.031 C 
ATOM     61  C   UNL A   1      44.172  31.079  30.635  1.00  0.00     0.037 A 
BRANCH  48  62
ATOM     62  C   UNL A   1      48.114  26.395  29.882  1.00  0.00     0.057 A 
ATOM     63  C   UNL A   1      48.556  25.765  31.052  1.00  0.00     0.134 A 
ATOM     64  C   UNL A   1      49.021  26.502  28.820  1.00  0.00     0.134 A 
ATOM     65  F   UNL A   1      47.737  25.641  32.107  1.00  0.00    -0.206 F 
ATOM     66  C   UNL A   1      49.858  25.277  31.169  1.00  0.00     0.040 A 
ATOM     67  C   UNL A   1      50.319  25.999  28.918  1.00  0.00     0.040 A 
ATOM     68  F   UNL A   1      48.658  27.089  27.670  1.00  0.00    -0.206 F 
ATOM     69  C   UNL A   1      50.742  25.388  30.097  1.00  0.00     0.006 A 
ENDBRANCH  48  62
BRANCH  49  70
ATOM     70  C   UNL A   1      38.619  29.260  29.096  1.00  0.00     0.057 A 
ATOM     71  C   UNL A   1      37.789  29.237  30.222  1.00  0.00     0.134 A 
ATOM     72  C   UNL A   1      38.062  29.696  27.888  1.00  0.00     0.134 A 
ATOM     73  F   UNL A   1      38.262  28.807  31.400  1.00  0.00    -0.206 F 
ATOM     74  C   UNL A   1      36.450  29.622  30.148  1.00  0.00     0.040 A 
ATOM     75  C   UNL A   1      36.730  30.102  27.805  1.00  0.00     0.040 A 
ATOM     76  F   UNL A   1      38.810  29.742  26.775  1.00  0.00    -0.206 F 
ATOM     77  C   UNL A   1      35.918  30.061  28.936  1.00  0.00     0.006 A 
ENDBRANCH  49  70
BRANCH  61  78
ATOM     78  C   UNL A   1      44.443  32.468  31.133  1.00  0.00     0.057 A 
ATOM     79  C   UNL A   1      44.439  32.772  32.500  1.00  0.00     0.134 A 
ATOM     80  C   UNL A   1      44.743  33.503  30.239  1.00  0.00     0.134 A 
ATOM     81  F   UNL A   1      44.144  31.827  33.405  1.00  0.00    -0.206 F 
ATOM     82  C   UNL A   1      44.708  34.061  32.959  1.00  0.00     0.040 A 
ATOM     83  C   UNL A   1      45.034  34.791  30.687  1.00  0.00     0.040 A 
ATOM     84  F   UNL A   1      44.768  33.274  28.916  1.00  0.00    -0.206 F 
ATOM     85  C   UNL A   1      45.012  35.074  32.051  1.00  0.00     0.006 A 
ENDBRANCH  61  78
ENDBRANCH  35  36
ENDBRANCH  27  30
ENDBRANCH  25  26
ENDBRANCH  24  25
ENDBRANCH   1  24
TORSDOF 14
ENDMDL
MODEL 2
REMARK VINA RESULT:     -11.4      0.640      6.243
REMARK SMILES COc1ncnc(N2CCCC[C@H]2CC(=O)NCCCNC(=O)c2ccc(-c3c4nc(c(-c5c(F)cccc5F)c5ccc([nH]5)c(-c5c(F)cccc5F)c5nc(c(-c6c(F)cccc6F)c6ccc3[nH]6)C=C5)C=C4)cc2)c1[N+](=O)[O-]
REMARK SMILES IDX 18 1 17 2 15 3 16 4 14 6 13 7 8 8 9 9 10 10 12 11 11 12 7 13
REMARK SMILES IDX 3 14 4 15 78 16 5 17 6 18 2 19 1 20 79 21 80 22 81 23 19 24
REMARK SMILES IDX 20 25 21 26 22 27 23 29 24 30 25 31 77 32 26 33 76 34 27 35
REMARK SMILES IDX 28 36 29 37 70 38 30 39 75 40 69 41 71 42 31 43 74 44 68 45
REMARK SMILES IDX 67 46 32 48 58 49 41 50 57 51 42 52 45 53 56 54 72 55 43 56
REMARK SMILES IDX 44 57 55 59 73 60 46 61 33 62 34 63 39 64 35 65 36 66 38 67
REMARK SMILES IDX 40 68 37 69 59 70 60 71 65 72 61 73 62 74 64 75 66 76 63 77
REMARK SMILES IDX 47 78 48 79 53 80 49 81 50 82 52 83 54 84 51 85
REMARK H PARENT 17 5 21 28 71 47 45 58
REMARK Flexibility Score: inf
ROOT
ATOM      1  C   UNL A   1      36.918  20.701  24.595  1.00  0.00     0.117 C 
ENDROOT
BRANCH   1   2
ATOM      2  N   UNL A   1      37.098  21.970  25.280  1.00  0.00    -0.356 N 
ATOM      3  C   UNL A   1      36.562  23.206  25.091  1.00  0.00     0.222 C 
ATOM      4  O   UNL A   1      36.897  24.078  25.895  1.00  0.00    -0.275 OA
ATOM      5  H   UNL A   1      37.735  21.926  26.028  1.00  0.00     0.163 HD
BRANCH   3   6
ATOM      6  C   UNL A   1      35.582  23.488  23.975  1.00  0.00     0.125 C 
BRANCH   6   7
ATOM      7  C   UNL A   1      34.078  23.527  24.301  1.00  0.00     0.093 C 
ATOM      8  N   UNL A   1      33.211  23.647  23.109  1.00  0.00    -0.347 N 
ATOM      9  C   UNL A   1      32.884  22.411  22.379  1.00  0.00     0.118 C 
ATOM     10  C   UNL A   1      32.373  21.307  23.305  1.00  0.00     0.022 C 
ATOM     11  C   UNL A   1      33.537  22.431  25.222  1.00  0.00     0.026 C 
ATOM     12  C   UNL A   1      33.279  21.106  24.514  1.00  0.00     0.004 C 
BRANCH   8  13
ATOM     13  C   UNL A   1      32.177  24.585  23.204  1.00  0.00     0.215 A 
ATOM     14  C   UNL A   1      31.058  26.582  22.594  1.00  0.00     0.299 A 
ATOM     15  N   UNL A   1      30.124  26.411  23.546  1.00  0.00    -0.196 NA
ATOM     16  C   UNL A   1      32.103  25.710  22.406  1.00  0.00     0.372 A 
ATOM     17  C   UNL A   1      30.259  25.302  24.280  1.00  0.00     0.228 A 
ATOM     18  N   UNL A   1      31.228  24.381  24.145  1.00  0.00    -0.212 NA
BRANCH  14  19
ATOM     19  O   UNL A   1      30.941  27.740  21.871  1.00  0.00    -0.476 OA
ATOM     20  C   UNL A   1      30.405  28.781  22.687  1.00  0.00     0.280 C 
ENDBRANCH  14  19
BRANCH  16  21
ATOM     21  N   UNL A   1      33.027  25.941  21.349  1.00  0.00     0.072 N 
ATOM     22  O   UNL A   1      32.785  25.404  20.259  1.00  0.00    -0.258 OA
ATOM     23  O   UNL A   1      33.987  26.688  21.588  1.00  0.00    -0.258 OA
ENDBRANCH  16  21
ENDBRANCH   8  13
ENDBRANCH   6   7
ENDBRANCH   3   6
ENDBRANCH   1   2
BRANCH   1  24
ATOM     24  C   UNL A   1      37.977  19.655  24.944  1.00  0.00     0.042 C 
BRANCH  24  25
ATOM     25  C   UNL A   1      39.073  20.113  25.903  1.00  0.00     0.118 C 
BRANCH  25  26
ATOM     26  N   UNL A   1      40.215  19.220  25.897  1.00  0.00    -0.352 N 
ATOM     27  C   UNL A   1      41.545  19.517  26.065  1.00  0.00     0.251 C 
ATOM     28  H   UNL A   1      40.008  18.269  25.753  1.00  0.00     0.163 HD
ATOM     29  O   UNL A   1      42.394  18.666  25.816  1.00  0.00    -0.269 OA
BRANCH  27  30
ATOM     30  C   UNL A   1      41.972  20.859  26.530  1.00  0.00     0.039 A 
ATOM     31  C   UNL A   1      41.983  21.117  27.905  1.00  0.00     0.014 A 
ATOM     32  C   UNL A   1      42.293  21.880  25.628  1.00  0.00     0.014 A 
ATOM     33  C   UNL A   1      42.342  22.383  28.376  1.00  0.00     0.010 A 
ATOM     34  C   UNL A   1      42.698  23.131  26.103  1.00  0.00     0.010 A 
ATOM     35  C   UNL A   1      42.712  23.399  27.480  1.00  0.00    -0.014 A 
BRANCH  35  36
ATOM     36  C   UNL A   1      43.084  24.749  27.977  1.00  0.00     0.031 A 
ATOM     37  C   UNL A   1      42.022  25.779  28.249  1.00  0.00     0.074 A 
ATOM     38  C   UNL A   1      44.381  25.064  28.161  1.00  0.00     0.049 A 
ATOM     39  N   UNL A   1      42.154  27.013  28.669  1.00  0.00    -0.248 NA
ATOM     40  C   UNL A   1      40.629  25.375  28.000  1.00  0.00     0.031 C 
ATOM     41  C   UNL A   1      45.512  24.173  27.905  1.00  0.00     0.029 A 
ATOM     42  N   UNL A   1      44.964  26.227  28.601  1.00  0.00    -0.354 N 
ATOM     43  C   UNL A   1      40.868  27.534  28.726  1.00  0.00     0.074 A 
ATOM     44  C   UNL A   1      39.972  26.497  28.260  1.00  0.00     0.031 C 
ATOM     45  C   UNL A   1      46.653  24.816  28.205  1.00  0.00     0.029 A 
ATOM     46  C   UNL A   1      46.334  26.170  28.651  1.00  0.00     0.049 A 
ATOM     47  H   UNL A   1      44.447  27.025  28.857  1.00  0.00     0.167 HD
ATOM     48  C   UNL A   1      40.466  28.758  29.145  1.00  0.00     0.037 A 
ATOM     49  C   UNL A   1      47.235  27.104  29.013  1.00  0.00     0.037 A 
ATOM     50  C   UNL A   1      41.348  29.784  29.636  1.00  0.00     0.049 A 
ATOM     51  C   UNL A   1      46.765  28.455  29.470  1.00  0.00     0.074 A 
ATOM     52  C   UNL A   1      41.022  31.029  30.149  1.00  0.00     0.029 A 
ATOM     53  N   UNL A   1      42.730  29.687  29.673  1.00  0.00    -0.354 N 
ATOM     54  N   UNL A   1      45.541  28.909  29.582  1.00  0.00    -0.248 NA
ATOM     55  C   UNL A   1      47.802  29.422  29.858  1.00  0.00     0.031 C 
ATOM     56  C   UNL A   1      42.209  31.698  30.463  1.00  0.00     0.029 A 
ATOM     57  C   UNL A   1      43.272  30.857  30.178  1.00  0.00     0.049 A 
ATOM     58  H   UNL A   1      43.249  28.901  29.383  1.00  0.00     0.167 HD
ATOM     59  C   UNL A   1      45.659  30.205  30.068  1.00  0.00     0.074 A 
ATOM     60  C   UNL A   1      47.074  30.461  30.244  1.00  0.00     0.031 C 
ATOM     61  C   UNL A   1      44.681  31.101  30.346  1.00  0.00     0.037 A 
BRANCH  48  62
ATOM     62  C   UNL A   1      38.997  29.056  29.096  1.00  0.00     0.057 A 
ATOM     63  C   UNL A   1      38.182  28.929  30.228  1.00  0.00     0.134 A 
ATOM     64  C   UNL A   1      38.400  29.514  27.915  1.00  0.00     0.134 A 
ATOM     65  F   UNL A   1      38.693  28.485  31.386  1.00  0.00    -0.206 F 
ATOM     66  C   UNL A   1      36.821  29.228  30.182  1.00  0.00     0.040 A 
ATOM     67  C   UNL A   1      37.044  29.836  27.862  1.00  0.00     0.040 A 
ATOM     68  F   UNL A   1      39.127  29.663  26.797  1.00  0.00    -0.206 F 
ATOM     69  C   UNL A   1      36.248  29.689  28.997  1.00  0.00     0.006 A 
ENDBRANCH  48  62
BRANCH  49  70
ATOM     70  C   UNL A   1      48.683  26.785  28.973  1.00  0.00     0.057 A 
ATOM     71  C   UNL A   1      49.450  27.060  27.835  1.00  0.00     0.134 A 
ATOM     72  C   UNL A   1      49.331  26.197  30.065  1.00  0.00     0.134 A 
ATOM     73  F   UNL A   1      48.877  27.603  26.751  1.00  0.00    -0.206 F 
ATOM     74  C   UNL A   1      50.808  26.750  27.779  1.00  0.00     0.040 A 
ATOM     75  C   UNL A   1      50.693  25.899  30.030  1.00  0.00     0.040 A 
ATOM     76  F   UNL A   1      48.648  25.913  31.184  1.00  0.00    -0.206 F 
ATOM     77  C   UNL A   1      51.435  26.171  28.882  1.00  0.00     0.006 A 
ENDBRANCH  49  70
BRANCH  61  78
ATOM     78  C   UNL A   1      45.106  32.436  30.881  1.00  0.00     0.057 A 
ATOM     79  C   UNL A   1      45.354  33.522  30.032  1.00  0.00     0.134 A 
ATOM     80  C   UNL A   1      45.236  32.646  32.259  1.00  0.00     0.134 A 
ATOM     81  F   UNL A   1      45.261  33.379  28.702  1.00  0.00    -0.206 F 
ATOM     82  C   UNL A   1      45.733  34.766  30.536  1.00  0.00     0.040 A 
ATOM     83  C   UNL A   1      45.594  33.892  32.775  1.00  0.00     0.040 A 
ATOM     84  F   UNL A   1      45.007  31.646  33.125  1.00  0.00    -0.206 F 
ATOM     85  C   UNL A   1      45.848  34.955  31.912  1.00  0.00     0.006 A 
ENDBRANCH  61  78
ENDBRANCH  35  36
ENDBRANCH  27  30
ENDBRANCH  25  26
ENDBRANCH  24  25
ENDBRANCH   1  24
TORSDOF 14
ENDMDL
MODEL 3
REMARK VINA RESULT:     -11.3      0.578      1.175
REMARK SMILES COc1ncnc(N2CCCC[C@H]2CC(=O)NCCCNC(=O)c2ccc(-c3c4nc(c(-c5c(F)cccc5F)c5ccc([nH]5)c(-c5c(F)cccc5F)c5nc(c(-c6c(F)cccc6F)c6ccc3[nH]6)C=C5)C=C4)cc2)c1[N+](=O)[O-]
REMARK SMILES IDX 18 1 17 2 15 3 16 4 14 6 13 7 8 8 9 9 10 10 12 11 11 12 7 13
REMARK SMILES IDX 3 14 4 15 78 16 5 17 6 18 2 19 1 20 79 21 80 22 81 23 19 24
REMARK SMILES IDX 20 25 21 26 22 27 23 29 24 30 25 31 77 32 26 33 76 34 27 35
REMARK SMILES IDX 28 36 29 37 70 38 30 39 75 40 69 41 71 42 31 43 74 44 68 45
REMARK SMILES IDX 67 46 32 48 58 49 41 50 57 51 42 52 45 53 56 54 72 55 43 56
REMARK SMILES IDX 44 57 55 59 73 60 46 61 33 62 34 63 39 64 35 65 36 66 38 67
REMARK SMILES IDX 40 68 37 69 59 70 60 71 65 72 61 73 62 74 64 75 66 76 63 77
REMARK SMILES IDX 47 78 48 79 53 80 49 81 50 82 52 83 54 84 51 85
REMARK H PARENT 17 5 21 28 71 47 45 58
REMARK Flexibility Score: inf
ROOT
ATOM      1  C   UNL A   1      37.263  20.838  24.555  1.00  0.00     0.117 C 
ENDROOT
BRANCH   1   2
ATOM      2  N   UNL A   1      37.524  22.036  25.333  1.00  0.00    -0.356 N 
ATOM      3  C   UNL A   1      36.986  23.286  25.314  1.00  0.00     0.222 C 
ATOM      4  O   UNL A   1      37.409  24.078  26.160  1.00  0.00    -0.275 OA
ATOM      5  H   UNL A   1      38.231  21.922  26.008  1.00  0.00     0.163 HD
BRANCH   3   6
ATOM      6  C   UNL A   1      35.905  23.674  24.333  1.00  0.00     0.125 C 
BRANCH   6   7
ATOM      7  C   UNL A   1      34.445  23.733  24.821  1.00  0.00     0.093 C 
ATOM      8  N   UNL A   1      33.449  23.486  23.756  1.00  0.00    -0.347 N 
ATOM      9  C   UNL A   1      33.140  22.085  23.425  1.00  0.00     0.118 C 
ATOM     10  C   UNL A   1      32.817  21.253  24.666  1.00  0.00     0.022 C 
ATOM     11  C   UNL A   1      34.092  22.905  26.059  1.00  0.00     0.026 C 
ATOM     12  C   UNL A   1      33.860  21.428  25.763  1.00  0.00     0.004 C 
BRANCH   8  13
ATOM     13  C   UNL A   1      32.363  24.368  23.728  1.00  0.00     0.215 A 
ATOM     14  C   UNL A   1      31.133  26.196  22.857  1.00  0.00     0.299 A 
ATOM     15  N   UNL A   1      30.208  26.104  23.828  1.00  0.00    -0.196 NA
ATOM     16  C   UNL A   1      32.226  25.367  22.785  1.00  0.00     0.372 A 
ATOM     17  C   UNL A   1      30.404  25.116  24.706  1.00  0.00     0.228 A 
ATOM     18  N   UNL A   1      31.425  24.241  24.693  1.00  0.00    -0.212 NA
BRANCH  14  19
ATOM     19  O   UNL A   1      30.952  27.236  21.983  1.00  0.00    -0.476 OA
ATOM     20  C   UNL A   1      31.213  28.480  22.633  1.00  0.00     0.280 C 
ENDBRANCH  14  19
BRANCH  16  21
ATOM     21  N   UNL A   1      33.138  25.504  21.701  1.00  0.00     0.072 N 
ATOM     22  O   UNL A   1      32.949  24.787  20.709  1.00  0.00    -0.258 OA
ATOM     23  O   UNL A   1      34.035  26.353  21.817  1.00  0.00    -0.258 OA
ENDBRANCH  16  21
ENDBRANCH   8  13
ENDBRANCH   6   7
ENDBRANCH   3   6
ENDBRANCH   1   2
BRANCH   1  24
ATOM     24  C   UNL A   1      38.202  19.675  24.878  1.00  0.00     0.042 C 
BRANCH  24  25
ATOM     25  C   UNL A   1      39.171  19.905  26.034  1.00  0.00     0.118 C 
BRANCH  25  26
ATOM     26  N   UNL A   1      40.396  19.145  25.882  1.00  0.00    -0.352 N 
ATOM     27  C   UNL A   1      41.698  19.576  25.968  1.00  0.00     0.251 C 
ATOM     28  H   UNL A   1      40.279  18.186  25.690  1.00  0.00     0.163 HD
ATOM     29  O   UNL A   1      42.607  18.839  25.599  1.00  0.00    -0.269 OA
BRANCH  27  30
ATOM     30  C   UNL A   1      42.018  20.927  26.488  1.00  0.00     0.039 A 
ATOM     31  C   UNL A   1      41.941  21.147  27.868  1.00  0.00     0.014 A 
ATOM     32  C   UNL A   1      42.325  21.989  25.631  1.00  0.00     0.014 A 
ATOM     33  C   UNL A   1      42.198  22.418  28.389  1.00  0.00     0.010 A 
ATOM     34  C   UNL A   1      42.629  23.248  26.158  1.00  0.00     0.010 A 
ATOM     35  C   UNL A   1      42.553  23.478  27.540  1.00  0.00    -0.014 A 
BRANCH  35  36
ATOM     36  C   UNL A   1      42.817  24.834  28.089  1.00  0.00     0.031 A 
ATOM     37  C   UNL A   1      44.210  25.233  28.491  1.00  0.00     0.074 A 
ATOM     38  C   UNL A   1      41.801  25.703  28.251  1.00  0.00     0.049 A 
ATOM     39  N   UNL A   1      44.632  26.363  29.003  1.00  0.00    -0.248 NA
ATOM     40  C   UNL A   1      45.266  24.224  28.311  1.00  0.00     0.031 C 
ATOM     41  C   UNL A   1      40.399  25.433  27.933  1.00  0.00     0.029 A 
ATOM     42  N   UNL A   1      41.794  26.989  28.732  1.00  0.00    -0.354 N 
ATOM     43  C   UNL A   1      45.994  26.199  29.214  1.00  0.00     0.074 A 
ATOM     44  C   UNL A   1      46.324  24.848  28.812  1.00  0.00     0.031 C 
ATOM     45  C   UNL A   1      39.669  26.525  28.215  1.00  0.00     0.029 A 
ATOM     46  C   UNL A   1      40.547  27.561  28.755  1.00  0.00     0.049 A 
ATOM     47  H   UNL A   1      42.607  27.456  29.033  1.00  0.00     0.167 HD
ATOM     48  C   UNL A   1      46.895  27.097  29.682  1.00  0.00     0.037 A 
ATOM     49  C   UNL A   1      40.152  28.781  29.166  1.00  0.00     0.037 A 
ATOM     50  C   UNL A   1      46.580  28.450  30.056  1.00  0.00     0.049 A 
ATOM     51  C   UNL A   1      41.169  29.758  29.685  1.00  0.00     0.074 A 
ATOM     52  C   UNL A   1      47.442  29.452  30.474  1.00  0.00     0.029 A 
ATOM     53  N   UNL A   1      45.305  28.993  30.063  1.00  0.00    -0.354 N 
ATOM     54  N   UNL A   1      42.464  29.610  29.816  1.00  0.00    -0.248 NA
ATOM     55  C   UNL A   1      40.668  31.074  30.108  1.00  0.00     0.031 C 
ATOM     56  C   UNL A   1      46.682  30.589  30.765  1.00  0.00     0.029 A 
ATOM     57  C   UNL A   1      45.352  30.306  30.498  1.00  0.00     0.049 A 
ATOM     58  H   UNL A   1      44.487  28.513  29.796  1.00  0.00     0.167 HD
ATOM     59  C   UNL A   1      42.935  30.816  30.317  1.00  0.00     0.074 A 
ATOM     60  C   UNL A   1      41.789  31.691  30.456  1.00  0.00     0.031 C 
ATOM     61  C   UNL A   1      44.205  31.166  30.634  1.00  0.00     0.037 A 
BRANCH  48  62
ATOM     62  C   UNL A   1      48.318  26.642  29.812  1.00  0.00     0.057 A 
ATOM     63  C   UNL A   1      48.766  25.939  30.938  1.00  0.00     0.134 A 
ATOM     64  C   UNL A   1      49.239  26.874  28.783  1.00  0.00     0.134 A 
ATOM     65  F   UNL A   1      47.935  25.694  31.961  1.00  0.00    -0.206 F 
ATOM     66  C   UNL A   1      50.086  25.500  31.043  1.00  0.00     0.040 A 
ATOM     67  C   UNL A   1      50.556  26.422  28.869  1.00  0.00     0.040 A 
ATOM     68  F   UNL A   1      48.871  27.537  27.676  1.00  0.00    -0.206 F 
ATOM     69  C   UNL A   1      50.985  25.736  30.004  1.00  0.00     0.006 A 
ENDBRANCH  48  62
BRANCH  49  70
ATOM     70  C   UNL A   1      38.720  29.157  29.088  1.00  0.00     0.057 A 
ATOM     71  C   UNL A   1      37.886  29.058  30.208  1.00  0.00     0.134 A 
ATOM     72  C   UNL A   1      38.151  29.619  27.895  1.00  0.00     0.134 A 
ATOM     73  F   UNL A   1      38.372  28.601  31.371  1.00  0.00    -0.206 F 
ATOM     74  C   UNL A   1      36.534  29.393  30.142  1.00  0.00     0.040 A 
ATOM     75  C   UNL A   1      36.804  29.975  27.821  1.00  0.00     0.040 A 
ATOM     76  F   UNL A   1      38.901  29.738  26.789  1.00  0.00    -0.206 F 
ATOM     77  C   UNL A   1      35.990  29.859  28.946  1.00  0.00     0.006 A 
ENDBRANCH  49  70
BRANCH  61  78
ATOM     78  C   UNL A   1      44.425  32.558  31.147  1.00  0.00     0.057 A 
ATOM     79  C   UNL A   1      44.660  33.632  30.279  1.00  0.00     0.134 A 
ATOM     80  C   UNL A   1      44.368  32.832  32.519  1.00  0.00     0.134 A 
ATOM     81  F   UNL A   1      44.741  33.431  28.956  1.00  0.00    -0.206 F 
ATOM     82  C   UNL A   1      44.848  34.927  30.761  1.00  0.00     0.040 A 
ATOM     83  C   UNL A   1      44.533  34.127  33.010  1.00  0.00     0.040 A 
ATOM     84  F   UNL A   1      44.141  31.846  33.401  1.00  0.00    -0.206 F 
ATOM     85  C   UNL A   1      44.778  35.178  32.130  1.00  0.00     0.006 A 
ENDBRANCH  61  78
ENDBRANCH  35  36
ENDBRANCH  27  30
ENDBRANCH  25  26
ENDBRANCH  24  25
ENDBRANCH   1  24
TORSDOF 14
ENDMDL
