MODEL 1
REMARK VINA RESULT:     -13.2      0.000      0.000
REMARK SMILES Cc1cccc(O[C@H](C)C(=O)NNC(=O)[C@H]2[C@@H]3CC[C@@H](C3)[C@@H]2C(=O)NCCCNC(=O)c2ccc(-c3c4nc(c(-c5c(F)cccc5F)c5ccc([nH]5)c(-c5c(F)cccc5F)c5nc(c(-c6c(F)cccc6F)c6ccc3[nH]6)C=C5)C=C4)cc2)c1
REMARK SMILES IDX 23 1 24 2 25 3 22 5 16 6 17 7 18 8 21 9 20 10 19 11 14 12
REMARK SMILES IDX 13 13 15 15 12 16 10 17 11 18 8 20 9 21 7 22 6 23 1 24 2 25
REMARK SMILES IDX 3 26 86 27 4 28 5 29 26 30 27 31 28 32 29 33 30 34 31 36
REMARK SMILES IDX 32 37 33 38 85 39 34 40 84 41 35 42 36 43 37 44 78 45 38 46
REMARK SMILES IDX 83 47 77 48 79 49 39 50 82 51 76 52 75 53 40 55 66 56 49 57
REMARK SMILES IDX 65 58 50 59 53 60 64 61 80 62 51 63 52 64 63 66 81 67 54 68
REMARK SMILES IDX 41 69 42 70 47 71 43 72 44 73 46 74 48 75 45 76 67 77 68 78
REMARK SMILES IDX 73 79 69 80 70 81 72 82 74 83 71 84 55 85 56 86 61 87 57 88
REMARK SMILES IDX 58 89 60 90 62 91 59 92
REMARK H PARENT 25 4 13 14 12 19 29 35 79 54 53 65
REMARK Flexibility Score: inf
ROOT
ATOM      1  C   UNL A   1      33.564  26.115  25.492  1.00  0.00     0.224 C 
ATOM      2  O   UNL A   1      34.328  25.632  24.662  1.00  0.00    -0.275 OA
ATOM      3  N   UNL A   1      33.672  27.446  25.802  1.00  0.00    -0.356 N 
ATOM      4  H   UNL A   1      34.358  27.945  25.302  1.00  0.00     0.163 HD
ENDROOT
BRANCH   1   5
ATOM      5  C   UNL A   1      32.503  25.304  26.221  1.00  0.00     0.094 C 
ATOM      6  C   UNL A   1      32.658  23.777  26.115  1.00  0.00     0.096 C 
ATOM      7  C   UNL A   1      31.235  23.298  25.719  1.00  0.00     0.002 C 
ATOM      8  C   UNL A   1      31.043  23.597  24.218  1.00  0.00     0.005 C 
ATOM      9  C   UNL A   1      30.310  24.353  26.320  1.00  0.00     0.009 C 
ATOM     10  C   UNL A   1      31.065  25.518  25.677  1.00  0.00     0.002 C 
ATOM     11  C   UNL A   1      30.971  25.132  24.187  1.00  0.00     0.005 C 
BRANCH   6  12
ATOM     12  C   UNL A   1      33.256  23.003  27.285  1.00  0.00     0.242 C 
ATOM     13  N   UNL A   1      34.585  22.817  27.527  1.00  0.00    -0.267 N 
ATOM     14  H   UNL A   1      34.795  22.210  28.273  1.00  0.00     0.191 HD
ATOM     15  O   UNL A   1      32.483  22.529  28.129  1.00  0.00    -0.273 OA
BRANCH  13  16
ATOM     16  N   UNL A   1      35.670  23.349  26.882  1.00  0.00    -0.264 N 
ATOM     17  C   UNL A   1      36.256  22.925  25.730  1.00  0.00     0.279 C 
ATOM     18  O   UNL A   1      37.008  23.755  25.190  1.00  0.00    -0.269 OA
ATOM     19  H   UNL A   1      36.076  24.140  27.306  1.00  0.00     0.191 HD
BRANCH  17  20
ATOM     20  C   UNL A   1      36.159  21.490  25.136  1.00  0.00     0.260 C 
ATOM     21  C   UNL A   1      37.529  21.029  24.620  1.00  0.00     0.064 C 
BRANCH  20  22
ATOM     22  O   UNL A   1      35.283  20.464  25.548  1.00  0.00    -0.481 OA
BRANCH  22  23
ATOM     23  C   UNL A   1      34.289  19.915  24.810  1.00  0.00     0.120 A 
ATOM     24  C   UNL A   1      33.861  16.400  23.383  1.00  0.00     0.044 C 
ATOM     25  C   UNL A   1      33.616  17.844  23.705  1.00  0.00    -0.047 A 
ATOM     26  C   UNL A   1      32.531  18.514  23.135  1.00  0.00     0.003 A 
ATOM     27  C   UNL A   1      34.480  18.552  24.548  1.00  0.00     0.049 A 
ATOM     28  C   UNL A   1      32.306  19.857  23.428  1.00  0.00     0.004 A 
ATOM     29  C   UNL A   1      33.174  20.554  24.276  1.00  0.00     0.046 A 
ENDBRANCH  22  23
ENDBRANCH  20  22
ENDBRANCH  17  20
ENDBRANCH  13  16
ENDBRANCH   6  12
ENDBRANCH   1   5
BRANCH   3  30
ATOM     30  C   UNL A   1      32.909  28.221  26.770  1.00  0.00     0.117 C 
BRANCH  30  31
ATOM     31  C   UNL A   1      33.798  29.075  27.670  1.00  0.00     0.042 C 
BRANCH  31  32
ATOM     32  C   UNL A   1      34.395  30.264  26.932  1.00  0.00     0.118 C 
BRANCH  32  33
ATOM     33  N   UNL A   1      35.030  31.243  27.805  1.00  0.00    -0.352 N 
ATOM     34  C   UNL A   1      36.175  31.142  28.594  1.00  0.00     0.251 C 
ATOM     35  H   UNL A   1      34.577  32.117  27.845  1.00  0.00     0.163 HD
ATOM     36  O   UNL A   1      36.531  32.082  29.264  1.00  0.00    -0.269 OA
BRANCH  34  37
ATOM     37  C   UNL A   1      37.028  29.928  28.488  1.00  0.00     0.039 A 
ATOM     38  C   UNL A   1      37.042  29.049  29.580  1.00  0.00     0.014 A 
ATOM     39  C   UNL A   1      37.951  29.778  27.462  1.00  0.00     0.014 A 
ATOM     40  C   UNL A   1      38.147  28.224  29.777  1.00  0.00     0.010 A 
ATOM     41  C   UNL A   1      39.097  29.055  27.710  1.00  0.00     0.010 A 
ATOM     42  C   UNL A   1      39.226  28.344  28.908  1.00  0.00    -0.014 A 
BRANCH  42  43
ATOM     43  C   UNL A   1      40.577  27.895  29.214  1.00  0.00     0.031 A 
ATOM     44  C   UNL A   1      41.067  26.605  28.693  1.00  0.00     0.074 A 
ATOM     45  C   UNL A   1      41.433  28.764  29.798  1.00  0.00     0.049 A 
ATOM     46  N   UNL A   1      42.205  26.095  29.010  1.00  0.00    -0.248 NA
ATOM     47  C   UNL A   1      40.275  25.739  27.823  1.00  0.00     0.031 C 
ATOM     48  C   UNL A   1      42.893  28.710  29.812  1.00  0.00     0.029 A 
ATOM     49  N   UNL A   1      41.119  29.783  30.711  1.00  0.00    -0.354 N 
ATOM     50  C   UNL A   1      42.431  25.025  28.182  1.00  0.00     0.074 A 
ATOM     51  C   UNL A   1      41.152  24.763  27.571  1.00  0.00     0.031 C 
ATOM     52  C   UNL A   1      43.342  29.408  30.865  1.00  0.00     0.029 A 
ATOM     53  C   UNL A   1      42.182  29.783  31.650  1.00  0.00     0.049 A 
ATOM     54  H   UNL A   1      40.330  30.373  30.702  1.00  0.00     0.167 HD
ATOM     55  C   UNL A   1      43.712  24.584  28.038  1.00  0.00     0.037 A 
ATOM     56  C   UNL A   1      41.966  29.416  32.948  1.00  0.00     0.037 A 
ATOM     57  C   UNL A   1      44.570  25.126  29.098  1.00  0.00     0.049 A 
ATOM     58  C   UNL A   1      42.749  28.199  33.408  1.00  0.00     0.074 A 
ATOM     59  C   UNL A   1      45.592  26.057  29.179  1.00  0.00     0.029 A 
ATOM     60  N   UNL A   1      44.228  24.833  30.407  1.00  0.00    -0.354 N 
ATOM     61  N   UNL A   1      43.525  27.483  32.641  1.00  0.00    -0.248 NA
ATOM     62  C   UNL A   1      42.640  27.638  34.756  1.00  0.00     0.031 C 
ATOM     63  C   UNL A   1      45.833  26.331  30.563  1.00  0.00     0.029 A 
ATOM     64  C   UNL A   1      44.975  25.550  31.316  1.00  0.00     0.049 A 
ATOM     65  H   UNL A   1      43.530  24.186  30.660  1.00  0.00     0.167 HD
ATOM     66  C   UNL A   1      43.944  26.370  33.321  1.00  0.00     0.074 A 
ATOM     67  C   UNL A   1      43.373  26.516  34.646  1.00  0.00     0.031 C 
ATOM     68  C   UNL A   1      44.678  25.381  32.730  1.00  0.00     0.037 A 
BRANCH  55  69
ATOM     69  C   UNL A   1      44.242  23.755  26.885  1.00  0.00     0.057 A 
ATOM     70  C   UNL A   1      45.064  24.352  25.908  1.00  0.00     0.134 A 
ATOM     71  C   UNL A   1      43.900  22.417  26.600  1.00  0.00     0.134 A 
ATOM     72  F   UNL A   1      45.485  25.619  26.021  1.00  0.00    -0.206 F 
ATOM     73  C   UNL A   1      45.484  23.686  24.745  1.00  0.00     0.040 A 
ATOM     74  C   UNL A   1      44.349  21.727  25.464  1.00  0.00     0.040 A 
ATOM     75  F   UNL A   1      43.074  21.700  27.365  1.00  0.00    -0.206 F 
ATOM     76  C   UNL A   1      45.131  22.366  24.520  1.00  0.00     0.006 A 
ENDBRANCH  55  69
BRANCH  56  77
ATOM     77  C   UNL A   1      40.608  29.792  33.426  1.00  0.00     0.057 A 
ATOM     78  C   UNL A   1      40.374  31.128  33.797  1.00  0.00     0.134 A 
ATOM     79  C   UNL A   1      39.490  29.003  33.147  1.00  0.00     0.134 A 
ATOM     80  F   UNL A   1      41.405  31.942  34.076  1.00  0.00    -0.206 F 
ATOM     81  C   UNL A   1      39.095  31.689  33.768  1.00  0.00     0.040 A 
ATOM     82  C   UNL A   1      38.201  29.549  33.135  1.00  0.00     0.040 A 
ATOM     83  F   UNL A   1      39.633  27.727  32.761  1.00  0.00    -0.206 F 
ATOM     84  C   UNL A   1      38.007  30.904  33.402  1.00  0.00     0.006 A 
ENDBRANCH  56  77
BRANCH  68  85
ATOM     85  C   UNL A   1      45.130  24.133  33.443  1.00  0.00     0.057 A 
ATOM     86  C   UNL A   1      44.292  23.030  33.646  1.00  0.00     0.134 A 
ATOM     87  C   UNL A   1      46.399  24.050  34.053  1.00  0.00     0.134 A 
ATOM     88  F   UNL A   1      43.038  23.017  33.168  1.00  0.00    -0.206 F 
ATOM     89  C   UNL A   1      44.702  21.902  34.370  1.00  0.00     0.040 A 
ATOM     90  C   UNL A   1      46.801  22.954  34.821  1.00  0.00     0.040 A 
ATOM     91  F   UNL A   1      47.318  25.015  33.911  1.00  0.00    -0.206 F 
ATOM     92  C   UNL A   1      45.955  21.866  34.973  1.00  0.00     0.006 A 
ENDBRANCH  68  85
ENDBRANCH  42  43
ENDBRANCH  34  37
ENDBRANCH  32  33
ENDBRANCH  31  32
ENDBRANCH  30  31
ENDBRANCH   3  30
TORSDOF 15
ENDMDL
MODEL 2
REMARK VINA RESULT:     -13.0      1.219      1.870
REMARK SMILES Cc1cccc(O[C@H](C)C(=O)NNC(=O)[C@H]2[C@@H]3CC[C@@H](C3)[C@@H]2C(=O)NCCCNC(=O)c2ccc(-c3c4nc(c(-c5c(F)cccc5F)c5ccc([nH]5)c(-c5c(F)cccc5F)c5nc(c(-c6c(F)cccc6F)c6ccc3[nH]6)C=C5)C=C4)cc2)c1
REMARK SMILES IDX 23 1 24 2 25 3 22 5 16 6 17 7 18 8 21 9 20 10 19 11 14 12
REMARK SMILES IDX 13 13 15 15 12 16 10 17 11 18 8 20 9 21 7 22 6 23 1 24 2 25
REMARK SMILES IDX 3 26 86 27 4 28 5 29 26 30 27 31 28 32 29 33 30 34 31 36
REMARK SMILES IDX 32 37 33 38 85 39 34 40 84 41 35 42 36 43 37 44 78 45 38 46
REMARK SMILES IDX 83 47 77 48 79 49 39 50 82 51 76 52 75 53 40 55 66 56 49 57
REMARK SMILES IDX 65 58 50 59 53 60 64 61 80 62 51 63 52 64 63 66 81 67 54 68
REMARK SMILES IDX 41 69 42 70 47 71 43 72 44 73 46 74 48 75 45 76 67 77 68 78
REMARK SMILES IDX 73 79 69 80 70 81 72 82 74 83 71 84 55 85 56 86 61 87 57 88
REMARK SMILES IDX 58 89 60 90 62 91 59 92
REMARK H PARENT 25 4 13 14 12 19 29 35 79 54 53 65
REMARK Flexibility Score: inf
ROOT
ATOM      1  C   UNL A   1      32.933  26.675  26.006  1.00  0.00     0.224 C 
ATOM      2  O   UNL A   1      33.952  26.001  25.886  1.00  0.00    -0.275 OA
ATOM      3  N   UNL A   1      33.029  27.938  26.530  1.00  0.00    -0.356 N 
ATOM      4  H   UNL A   1      33.938  28.238  26.757  1.00  0.00     0.163 HD
ENDROOT
BRANCH   1   5
ATOM      5  C   UNL A   1      31.551  26.172  25.619  1.00  0.00     0.094 C 
ATOM      6  C   UNL A   1      31.438  24.651  25.421  1.00  0.00     0.096 C 
ATOM      7  C   UNL A   1      30.704  24.518  24.060  1.00  0.00     0.002 C 
ATOM      8  C   UNL A   1      31.732  24.801  22.946  1.00  0.00     0.005 C 
ATOM      9  C   UNL A   1      29.860  25.787  23.971  1.00  0.00     0.009 C 
ATOM     10  C   UNL A   1      31.047  26.710  24.253  1.00  0.00     0.002 C 
ATOM     11  C   UNL A   1      32.002  26.306  23.110  1.00  0.00     0.005 C 
BRANCH   6  12
ATOM     12  C   UNL A   1      30.827  23.796  26.528  1.00  0.00     0.242 C 
ATOM     13  N   UNL A   1      31.404  22.707  27.110  1.00  0.00    -0.267 N 
ATOM     14  H   UNL A   1      30.830  22.215  27.741  1.00  0.00     0.191 HD
ATOM     15  O   UNL A   1      29.725  24.131  26.983  1.00  0.00    -0.273 OA
BRANCH  13  16
ATOM     16  N   UNL A   1      32.664  22.197  26.944  1.00  0.00    -0.264 N 
ATOM     17  C   UNL A   1      33.152  21.484  25.894  1.00  0.00     0.279 C 
ATOM     18  O   UNL A   1      34.392  21.418  25.838  1.00  0.00    -0.269 OA
ATOM     19  H   UNL A   1      33.297  22.369  27.679  1.00  0.00     0.191 HD
BRANCH  17  20
ATOM     20  C   UNL A   1      32.303  20.669  24.875  1.00  0.00     0.260 C 
ATOM     21  C   UNL A   1      32.451  21.255  23.464  1.00  0.00     0.064 C 
BRANCH  20  22
ATOM     22  O   UNL A   1      32.002  19.293  24.937  1.00  0.00    -0.481 OA
BRANCH  22  23
ATOM     23  C   UNL A   1      32.884  18.274  24.807  1.00  0.00     0.120 A 
ATOM     24  C   UNL A   1      32.566  14.553  25.602  1.00  0.00     0.044 C 
ATOM     25  C   UNL A   1      33.139  15.874  25.183  1.00  0.00    -0.047 A 
ATOM     26  C   UNL A   1      34.492  15.978  24.854  1.00  0.00     0.003 A 
ATOM     27  C   UNL A   1      32.344  17.026  25.146  1.00  0.00     0.049 A 
ATOM     28  C   UNL A   1      35.027  17.205  24.471  1.00  0.00     0.004 A 
ATOM     29  C   UNL A   1      34.223  18.349  24.433  1.00  0.00     0.046 A 
ENDBRANCH  22  23
ENDBRANCH  20  22
ENDBRANCH  17  20
ENDBRANCH  13  16
ENDBRANCH   6  12
ENDBRANCH   1   5
BRANCH   3  30
ATOM     30  C   UNL A   1      31.964  28.896  26.797  1.00  0.00     0.117 C 
BRANCH  30  31
ATOM     31  C   UNL A   1      32.495  30.242  27.282  1.00  0.00     0.042 C 
BRANCH  31  32
ATOM     32  C   UNL A   1      33.986  30.400  27.032  1.00  0.00     0.118 C 
BRANCH  32  33
ATOM     33  N   UNL A   1      34.625  31.399  27.880  1.00  0.00    -0.352 N 
ATOM     34  C   UNL A   1      35.754  31.307  28.692  1.00  0.00     0.251 C 
ATOM     35  H   UNL A   1      34.189  32.282  27.878  1.00  0.00     0.163 HD
ATOM     36  O   UNL A   1      36.117  32.264  29.333  1.00  0.00    -0.269 OA
BRANCH  34  37
ATOM     37  C   UNL A   1      36.585  30.074  28.647  1.00  0.00     0.039 A 
ATOM     38  C   UNL A   1      36.734  29.349  29.837  1.00  0.00     0.014 A 
ATOM     39  C   UNL A   1      37.372  29.770  27.545  1.00  0.00     0.014 A 
ATOM     40  C   UNL A   1      37.854  28.537  30.006  1.00  0.00     0.010 A 
ATOM     41  C   UNL A   1      38.538  29.066  27.744  1.00  0.00     0.010 A 
ATOM     42  C   UNL A   1      38.815  28.520  29.002  1.00  0.00    -0.014 A 
BRANCH  42  43
ATOM     43  C   UNL A   1      40.193  28.091  29.196  1.00  0.00     0.031 A 
ATOM     44  C   UNL A   1      40.641  26.780  28.690  1.00  0.00     0.074 A 
ATOM     45  C   UNL A   1      41.094  28.989  29.655  1.00  0.00     0.049 A 
ATOM     46  N   UNL A   1      41.809  26.290  28.918  1.00  0.00    -0.248 NA
ATOM     47  C   UNL A   1      39.777  25.872  27.940  1.00  0.00     0.031 C 
ATOM     48  C   UNL A   1      42.549  28.941  29.530  1.00  0.00     0.029 A 
ATOM     49  N   UNL A   1      40.861  30.048  30.547  1.00  0.00    -0.354 N 
ATOM     50  C   UNL A   1      41.963  25.184  28.121  1.00  0.00     0.074 A 
ATOM     51  C   UNL A   1      40.634  24.888  27.649  1.00  0.00     0.031 C 
ATOM     52  C   UNL A   1      43.091  29.689  30.502  1.00  0.00     0.029 A 
ATOM     53  C   UNL A   1      42.009  30.095  31.378  1.00  0.00     0.049 A 
ATOM     54  H   UNL A   1      40.070  30.633  30.587  1.00  0.00     0.167 HD
ATOM     55  C   UNL A   1      43.228  24.741  27.875  1.00  0.00     0.037 A 
ATOM     56  C   UNL A   1      41.922  29.787  32.706  1.00  0.00     0.037 A 
ATOM     57  C   UNL A   1      44.180  25.336  28.821  1.00  0.00     0.049 A 
ATOM     58  C   UNL A   1      42.756  28.596  33.143  1.00  0.00     0.074 A 
ATOM     59  C   UNL A   1      45.196  26.273  28.761  1.00  0.00     0.029 A 
ATOM     60  N   UNL A   1      43.967  25.102  30.170  1.00  0.00    -0.354 N 
ATOM     61  N   UNL A   1      43.461  27.849  32.338  1.00  0.00    -0.248 NA
ATOM     62  C   UNL A   1      42.782  28.097  34.519  1.00  0.00     0.031 C 
ATOM     63  C   UNL A   1      45.567  26.612  30.102  1.00  0.00     0.029 A 
ATOM     64  C   UNL A   1      44.792  25.862  30.968  1.00  0.00     0.049 A 
ATOM     65  H   UNL A   1      43.303  24.464  30.517  1.00  0.00     0.167 HD
ATOM     66  C   UNL A   1      43.952  26.769  33.024  1.00  0.00     0.074 A 
ATOM     67  C   UNL A   1      43.511  26.974  34.390  1.00  0.00     0.031 C 
ATOM     68  C   UNL A   1      44.634  25.758  32.411  1.00  0.00     0.037 A 
BRANCH  55  69
ATOM     69  C   UNL A   1      43.651  23.862  26.715  1.00  0.00     0.057 A 
ATOM     70  C   UNL A   1      43.404  22.475  26.756  1.00  0.00     0.134 A 
ATOM     71  C   UNL A   1      44.400  24.273  25.593  1.00  0.00     0.134 A 
ATOM     72  F   UNL A   1      42.704  21.913  27.752  1.00  0.00    -0.206 F 
ATOM     73  C   UNL A   1      43.880  21.580  25.785  1.00  0.00     0.040 A 
ATOM     74  C   UNL A   1      44.844  23.395  24.594  1.00  0.00     0.040 A 
ATOM     75  F   UNL A   1      44.799  25.534  25.408  1.00  0.00    -0.206 F 
ATOM     76  C   UNL A   1      44.599  22.038  24.694  1.00  0.00     0.006 A 
ENDBRANCH  55  69
BRANCH  56  77
ATOM     77  C   UNL A   1      40.614  30.180  33.294  1.00  0.00     0.057 A 
ATOM     78  C   UNL A   1      40.398  31.534  33.608  1.00  0.00     0.134 A 
ATOM     79  C   UNL A   1      39.485  29.365  33.177  1.00  0.00     0.134 A 
ATOM     80  F   UNL A   1      41.439  32.372  33.732  1.00  0.00    -0.206 F 
ATOM     81  C   UNL A   1      39.114  32.080  33.675  1.00  0.00     0.040 A 
ATOM     82  C   UNL A   1      38.193  29.898  33.263  1.00  0.00     0.040 A 
ATOM     83  F   UNL A   1      39.607  28.069  32.856  1.00  0.00    -0.206 F 
ATOM     84  C   UNL A   1      38.006  31.265  33.467  1.00  0.00     0.006 A 
ENDBRANCH  56  77
BRANCH  68  85
ATOM     85  C   UNL A   1      45.163  24.546  33.133  1.00  0.00     0.057 A 
ATOM     86  C   UNL A   1      44.402  23.386  33.327  1.00  0.00     0.134 A 
ATOM     87  C   UNL A   1      46.427  24.553  33.760  1.00  0.00     0.134 A 
ATOM     88  F   UNL A   1      43.158  23.285  32.833  1.00  0.00    -0.206 F 
ATOM     89  C   UNL A   1      44.881  22.291  34.060  1.00  0.00     0.040 A 
ATOM     90  C   UNL A   1      46.895  23.488  34.535  1.00  0.00     0.040 A 
ATOM     91  F   UNL A   1      47.278  25.579  33.627  1.00  0.00    -0.206 F 
ATOM     92  C   UNL A   1      46.125  22.345  34.679  1.00  0.00     0.006 A 
ENDBRANCH  68  85
ENDBRANCH  42  43
ENDBRANCH  34  37
ENDBRANCH  32  33
ENDBRANCH  31  32
ENDBRANCH  30  31
ENDBRANCH   3  30
TORSDOF 15
ENDMDL
MODEL 3
REMARK VINA RESULT:     -12.9      1.642      2.559
REMARK SMILES Cc1cccc(O[C@H](C)C(=O)NNC(=O)[C@H]2[C@@H]3CC[C@@H](C3)[C@@H]2C(=O)NCCCNC(=O)c2ccc(-c3c4nc(c(-c5c(F)cccc5F)c5ccc([nH]5)c(-c5c(F)cccc5F)c5nc(c(-c6c(F)cccc6F)c6ccc3[nH]6)C=C5)C=C4)cc2)c1
REMARK SMILES IDX 23 1 24 2 25 3 22 5 16 6 17 7 18 8 21 9 20 10 19 11 14 12
REMARK SMILES IDX 13 13 15 15 12 16 10 17 11 18 8 20 9 21 7 22 6 23 1 24 2 25
REMARK SMILES IDX 3 26 86 27 4 28 5 29 26 30 27 31 28 32 29 33 30 34 31 36
REMARK SMILES IDX 32 37 33 38 85 39 34 40 84 41 35 42 36 43 37 44 78 45 38 46
REMARK SMILES IDX 83 47 77 48 79 49 39 50 82 51 76 52 75 53 40 55 66 56 49 57
REMARK SMILES IDX 65 58 50 59 53 60 64 61 80 62 51 63 52 64 63 66 81 67 54 68
REMARK SMILES IDX 41 69 42 70 47 71 43 72 44 73 46 74 48 75 45 76 67 77 68 78
REMARK SMILES IDX 73 79 69 80 70 81 72 82 74 83 71 84 55 85 56 86 61 87 57 88
REMARK SMILES IDX 58 89 60 90 62 91 59 92
REMARK H PARENT 25 4 13 14 12 19 29 35 79 54 53 65
REMARK Flexibility Score: inf
ROOT
ATOM      1  C   UNL A   1      33.581  28.358  24.184  1.00  0.00     0.224 C 
ATOM      2  O   UNL A   1      33.955  28.773  23.091  1.00  0.00    -0.275 OA
ATOM      3  N   UNL A   1      34.276  28.723  25.308  1.00  0.00    -0.356 N 
ATOM      4  H   UNL A   1      35.034  29.332  25.160  1.00  0.00     0.163 HD
ENDROOT
BRANCH   1   5
ATOM      5  C   UNL A   1      32.385  27.434  24.360  1.00  0.00     0.094 C 
ATOM      6  C   UNL A   1      31.928  26.703  23.086  1.00  0.00     0.096 C 
ATOM      7  C   UNL A   1      30.394  26.941  23.065  1.00  0.00     0.002 C 
ATOM      8  C   UNL A   1      30.154  28.385  22.578  1.00  0.00     0.005 C 
ATOM      9  C   UNL A   1      30.024  27.093  24.538  1.00  0.00     0.009 C 
ATOM     10  C   UNL A   1      31.086  28.165  24.793  1.00  0.00     0.002 C 
ATOM     11  C   UNL A   1      30.674  29.229  23.754  1.00  0.00     0.005 C 
BRANCH   6  12
ATOM     12  C   UNL A   1      32.319  25.242  22.882  1.00  0.00     0.242 C 
ATOM     13  N   UNL A   1      32.166  24.238  23.791  1.00  0.00    -0.267 N 
ATOM     14  H   UNL A   1      32.560  23.373  23.532  1.00  0.00     0.191 HD
ATOM     15  O   UNL A   1      32.780  24.909  21.782  1.00  0.00    -0.273 OA
BRANCH  13  16
ATOM     16  N   UNL A   1      31.545  24.256  25.011  1.00  0.00    -0.264 N 
ATOM     17  C   UNL A   1      32.079  23.982  26.232  1.00  0.00     0.279 C 
ATOM     18  O   UNL A   1      31.405  24.377  27.198  1.00  0.00    -0.269 OA
ATOM     19  H   UNL A   1      30.590  24.498  25.004  1.00  0.00     0.191 HD
BRANCH  17  20
ATOM     20  C   UNL A   1      33.355  23.130  26.495  1.00  0.00     0.260 C 
ATOM     21  C   UNL A   1      33.224  22.362  27.818  1.00  0.00     0.064 C 
BRANCH  20  22
ATOM     22  O   UNL A   1      34.188  22.537  25.524  1.00  0.00    -0.481 OA
BRANCH  22  23
ATOM     23  C   UNL A   1      35.542  22.527  25.529  1.00  0.00     0.120 A 
ATOM     24  C   UNL A   1      38.041  19.715  24.873  1.00  0.00     0.044 C 
ATOM     25  C   UNL A   1      37.469  21.058  25.216  1.00  0.00    -0.047 A 
ATOM     26  C   UNL A   1      38.309  22.092  25.634  1.00  0.00     0.003 A 
ATOM     27  C   UNL A   1      36.089  21.292  25.158  1.00  0.00     0.049 A 
ATOM     28  C   UNL A   1      37.779  23.338  25.959  1.00  0.00     0.004 A 
ATOM     29  C   UNL A   1      36.399  23.561  25.893  1.00  0.00     0.046 A 
ENDBRANCH  22  23
ENDBRANCH  20  22
ENDBRANCH  17  20
ENDBRANCH  13  16
ENDBRANCH   6  12
ENDBRANCH   1   5
BRANCH   3  30
ATOM     30  C   UNL A   1      34.043  28.329  26.691  1.00  0.00     0.117 C 
BRANCH  30  31
ATOM     31  C   UNL A   1      33.663  29.509  27.580  1.00  0.00     0.042 C 
BRANCH  31  32
ATOM     32  C   UNL A   1      34.255  30.820  27.087  1.00  0.00     0.118 C 
BRANCH  32  33
ATOM     33  N   UNL A   1      34.807  31.655  28.146  1.00  0.00    -0.352 N 
ATOM     34  C   UNL A   1      35.857  31.414  29.031  1.00  0.00     0.251 C 
ATOM     35  H   UNL A   1      34.369  32.530  28.254  1.00  0.00     0.163 HD
ATOM     36  O   UNL A   1      36.154  32.246  29.855  1.00  0.00    -0.269 OA
BRANCH  34  37
ATOM     37  C   UNL A   1      36.695  30.198  28.855  1.00  0.00     0.039 A 
ATOM     38  C   UNL A   1      36.749  29.289  29.920  1.00  0.00     0.014 A 
ATOM     39  C   UNL A   1      37.570  30.070  27.786  1.00  0.00     0.014 A 
ATOM     40  C   UNL A   1      37.855  28.451  30.046  1.00  0.00     0.010 A 
ATOM     41  C   UNL A   1      38.720  29.332  27.963  1.00  0.00     0.010 A 
ATOM     42  C   UNL A   1      38.896  28.588  29.134  1.00  0.00    -0.014 A 
BRANCH  42  43
ATOM     43  C   UNL A   1      40.255  28.121  29.367  1.00  0.00     0.031 A 
ATOM     44  C   UNL A   1      40.690  26.811  28.849  1.00  0.00     0.074 A 
ATOM     45  C   UNL A   1      41.159  28.987  29.878  1.00  0.00     0.049 A 
ATOM     46  N   UNL A   1      41.837  26.288  29.107  1.00  0.00    -0.248 NA
ATOM     47  C   UNL A   1      39.833  25.941  28.048  1.00  0.00     0.031 C 
ATOM     48  C   UNL A   1      42.617  28.907  29.804  1.00  0.00     0.029 A 
ATOM     49  N   UNL A   1      40.920  30.032  30.785  1.00  0.00    -0.354 N 
ATOM     50  C   UNL A   1      41.993  25.196  28.292  1.00  0.00     0.074 A 
ATOM     51  C   UNL A   1      40.676  24.943  27.766  1.00  0.00     0.031 C 
ATOM     52  C   UNL A   1      43.141  29.620  30.811  1.00  0.00     0.029 A 
ATOM     53  C   UNL A   1      42.038  30.033  31.657  1.00  0.00     0.049 A 
ATOM     54  H   UNL A   1      40.142  30.635  30.809  1.00  0.00     0.167 HD
ATOM     55  C   UNL A   1      43.256  24.728  28.081  1.00  0.00     0.037 A 
ATOM     56  C   UNL A   1      41.896  29.699  32.974  1.00  0.00     0.037 A 
ATOM     57  C   UNL A   1      44.187  25.278  29.074  1.00  0.00     0.049 A 
ATOM     58  C   UNL A   1      42.684  28.479  33.413  1.00  0.00     0.074 A 
ATOM     59  C   UNL A   1      45.226  26.191  29.070  1.00  0.00     0.029 A 
ATOM     60  N   UNL A   1      43.920  25.021  30.408  1.00  0.00    -0.354 N 
ATOM     61  N   UNL A   1      43.400  27.732  32.617  1.00  0.00    -0.248 NA
ATOM     62  C   UNL A   1      42.649  27.950  34.778  1.00  0.00     0.031 C 
ATOM     63  C   UNL A   1      45.556  26.492  30.431  1.00  0.00     0.029 A 
ATOM     64  C   UNL A   1      44.733  25.744  31.252  1.00  0.00     0.049 A 
ATOM     65  H   UNL A   1      43.229  24.392  30.717  1.00  0.00     0.167 HD
ATOM     66  C   UNL A   1      43.841  26.626  33.296  1.00  0.00     0.074 A 
ATOM     67  C   UNL A   1      43.356  26.813  34.650  1.00  0.00     0.031 C 
ATOM     68  C   UNL A   1      44.521  25.612  32.686  1.00  0.00     0.037 A 
BRANCH  55  69
ATOM     69  C   UNL A   1      43.700  23.864  26.917  1.00  0.00     0.057 A 
ATOM     70  C   UNL A   1      44.315  24.455  25.795  1.00  0.00     0.134 A 
ATOM     71  C   UNL A   1      43.456  22.483  26.769  1.00  0.00     0.134 A 
ATOM     72  F   UNL A   1      44.620  25.761  25.766  1.00  0.00    -0.206 F 
ATOM     73  C   UNL A   1      44.633  23.743  24.627  1.00  0.00     0.040 A 
ATOM     74  C   UNL A   1      43.809  21.752  25.626  1.00  0.00     0.040 A 
ATOM     75  F   UNL A   1      42.820  21.755  27.690  1.00  0.00    -0.206 F 
ATOM     76  C   UNL A   1      44.386  22.383  24.540  1.00  0.00     0.006 A 
ENDBRANCH  55  69
BRANCH  56  77
ATOM     77  C   UNL A   1      40.576  30.111  33.524  1.00  0.00     0.057 A 
ATOM     78  C   UNL A   1      40.394  31.455  33.895  1.00  0.00     0.134 A 
ATOM     79  C   UNL A   1      39.426  29.344  33.318  1.00  0.00     0.134 A 
ATOM     80  F   UNL A   1      41.457  32.248  34.106  1.00  0.00    -0.206 F 
ATOM     81  C   UNL A   1      39.128  32.044  33.933  1.00  0.00     0.040 A 
ATOM     82  C   UNL A   1      38.152  29.920  33.374  1.00  0.00     0.040 A 
ATOM     83  F   UNL A   1      39.518  28.062  32.937  1.00  0.00    -0.206 F 
ATOM     84  C   UNL A   1      38.003  31.281  33.638  1.00  0.00     0.006 A 
ENDBRANCH  56  77
BRANCH  68  85
ATOM     85  C   UNL A   1      44.995  24.372  33.399  1.00  0.00     0.057 A 
ATOM     86  C   UNL A   1      44.127  23.347  33.796  1.00  0.00     0.134 A 
ATOM     87  C   UNL A   1      46.335  24.225  33.812  1.00  0.00     0.134 A 
ATOM     88  F   UNL A   1      42.815  23.405  33.517  1.00  0.00    -0.206 F 
ATOM     89  C   UNL A   1      44.570  22.231  34.520  1.00  0.00     0.040 A 
ATOM     90  C   UNL A   1      46.779  23.142  34.577  1.00  0.00     0.040 A 
ATOM     91  F   UNL A   1      47.283  25.108  33.470  1.00  0.00    -0.206 F 
ATOM     92  C   UNL A   1      45.897  22.132  34.925  1.00  0.00     0.006 A 
ENDBRANCH  68  85
ENDBRANCH  42  43
ENDBRANCH  34  37
ENDBRANCH  32  33
ENDBRANCH  31  32
ENDBRANCH  30  31
ENDBRANCH   3  30
TORSDOF 15
ENDMDL
