MODEL 1
REMARK VINA RESULT:     -12.5      0.000      0.000
REMARK SMILES C/C(=C\C(=O)c1c(O)n(C)c2ccccc2c1=O)Nc1ccc(C(=O)NCCCNC(=O)c2ccc(-c3c4nc(c(-c5c(F)cccc5F)c5ccc([nH]5)c(-c5c(F)cccc5F)c5nc(c(-c6c(F)cccc6F)c6ccc3[nH]6)C=C5)C=C4)cc2)cc1
REMARK SMILES IDX 24 1 25 2 26 3 23 5 20 6 21 7 88 8 22 9 87 10 19 11 2 13
REMARK SMILES IDX 1 14 3 15 4 16 5 17 6 18 7 19 17 20 9 21 16 22 18 23 10 24
REMARK SMILES IDX 11 25 15 26 12 27 14 28 13 29 8 30 27 32 28 33 29 34 30 35
REMARK SMILES IDX 31 36 32 38 33 39 34 40 86 41 35 42 85 43 36 44 37 45 38 46
REMARK SMILES IDX 79 47 39 48 84 49 78 50 80 51 40 52 83 53 77 54 76 55 41 57
REMARK SMILES IDX 67 58 50 59 66 60 51 61 54 62 65 63 81 64 52 65 53 66 64 68
REMARK SMILES IDX 82 69 55 70 42 71 43 72 48 73 44 74 45 75 47 76 49 77 46 78
REMARK SMILES IDX 68 79 69 80 74 81 70 82 71 83 73 84 75 85 72 86 56 87 57 88
REMARK SMILES IDX 62 89 58 90 59 91 61 92 63 93 60 94
REMARK H PARENT 26 4 19 12 8 31 30 37 80 56 54 67
REMARK Flexibility Score: inf
ROOT
ATOM      1  C   UNL A   1      41.882  21.525  27.843  1.00  0.00     0.251 C 
ATOM      2  O   UNL A   1      42.574  22.443  28.296  1.00  0.00    -0.269 OA
ATOM      3  N   UNL A   1      42.419  20.278  27.991  1.00  0.00    -0.352 N 
ATOM      4  H   UNL A   1      43.296  20.310  28.436  1.00  0.00     0.163 HD
ENDROOT
BRANCH   1   5
ATOM      5  C   UNL A   1      40.597  21.869  27.164  1.00  0.00     0.039 A 
ATOM      6  C   UNL A   1      38.333  22.896  25.763  1.00  0.00     0.038 A 
ATOM      7  C   UNL A   1      39.004  23.662  26.712  1.00  0.00     0.027 A 
ATOM      8  C   UNL A   1      38.727  21.561  25.635  1.00  0.00     0.027 A 
ATOM      9  C   UNL A   1      40.133  23.173  27.376  1.00  0.00     0.016 A 
ATOM     10  C   UNL A   1      39.822  21.046  26.349  1.00  0.00     0.016 A 
BRANCH   6  11
ATOM     11  N   UNL A   1      37.391  23.422  24.852  1.00  0.00    -0.359 N 
ATOM     12  H   UNL A   1      37.757  23.831  24.034  1.00  0.00     0.166 HD
BRANCH  11  13
ATOM     13  C   UNL A   1      35.991  23.431  24.980  1.00  0.00     0.016 C 
ATOM     14  C   UNL A   1      35.414  23.031  26.317  1.00  0.00     0.064 C 
ATOM     15  C   UNL A   1      35.231  23.826  23.931  1.00  0.00     0.074 C 
BRANCH  15  16
ATOM     16  C   UNL A   1      33.764  24.118  23.772  1.00  0.00     0.196 C 
ATOM     17  O   UNL A   1      33.040  23.277  23.243  1.00  0.00    -0.289 OA
BRANCH  16  18
ATOM     18  C   UNL A   1      33.252  25.468  24.070  1.00  0.00     0.130 A 
ATOM     19  C   UNL A   1      33.422  26.463  23.176  1.00  0.00     0.206 A 
ATOM     20  C   UNL A   1      32.727  25.786  25.414  1.00  0.00     0.204 A 
ATOM     21  N   UNL A   1      33.255  27.808  23.492  1.00  0.00    -0.315 N 
ATOM     22  C   UNL A   1      32.432  27.205  25.715  1.00  0.00     0.047 A 
ATOM     23  O   UNL A   1      32.592  24.920  26.273  1.00  0.00    -0.288 OA
ATOM     24  C   UNL A   1      33.803  28.874  22.645  1.00  0.00     0.153 C 
ATOM     25  C   UNL A   1      32.730  28.190  24.752  1.00  0.00     0.055 A 
ATOM     26  C   UNL A   1      31.924  27.539  26.979  1.00  0.00     0.014 A 
ATOM     27  C   UNL A   1      32.486  29.526  25.114  1.00  0.00     0.027 A 
ATOM     28  C   UNL A   1      31.697  28.871  27.308  1.00  0.00     0.001 A 
ATOM     29  C   UNL A   1      31.979  29.864  26.376  1.00  0.00     0.002 A 
BRANCH  19  30
ATOM     30  O   UNL A   1      33.860  26.207  21.887  1.00  0.00    -0.494 OA
ATOM     31  H   UNL A   1      34.651  26.600  21.573  1.00  0.00     0.295 HD
ENDBRANCH  19  30
ENDBRANCH  16  18
ENDBRANCH  15  16
ENDBRANCH  11  13
ENDBRANCH   6  11
ENDBRANCH   1   5
BRANCH   3  32
ATOM     32  C   UNL A   1      42.033  18.919  27.660  1.00  0.00     0.118 C 
BRANCH  32  33
ATOM     33  C   UNL A   1      42.983  18.269  26.666  1.00  0.00     0.042 C 
BRANCH  33  34
ATOM     34  C   UNL A   1      43.032  18.970  25.316  1.00  0.00     0.118 C 
BRANCH  34  35
ATOM     35  N   UNL A   1      44.306  18.783  24.628  1.00  0.00    -0.352 N 
ATOM     36  C   UNL A   1      45.278  19.683  24.252  1.00  0.00     0.251 C 
ATOM     37  H   UNL A   1      44.506  17.848  24.391  1.00  0.00     0.163 HD
ATOM     38  O   UNL A   1      46.168  19.332  23.489  1.00  0.00    -0.269 OA
BRANCH  36  39
ATOM     39  C   UNL A   1      45.233  21.083  24.734  1.00  0.00     0.039 A 
ATOM     40  C   UNL A   1      44.896  22.122  23.871  1.00  0.00     0.014 A 
ATOM     41  C   UNL A   1      45.522  21.361  26.073  1.00  0.00     0.014 A 
ATOM     42  C   UNL A   1      45.077  23.438  24.274  1.00  0.00     0.010 A 
ATOM     43  C   UNL A   1      45.576  22.689  26.514  1.00  0.00     0.010 A 
ATOM     44  C   UNL A   1      45.416  23.741  25.602  1.00  0.00    -0.014 A 
BRANCH  44  45
ATOM     45  C   UNL A   1      45.601  25.166  25.990  1.00  0.00     0.031 A 
ATOM     46  C   UNL A   1      44.465  25.959  26.584  1.00  0.00     0.074 A 
ATOM     47  C   UNL A   1      46.824  25.722  25.886  1.00  0.00     0.049 A 
ATOM     48  N   UNL A   1      44.456  27.199  27.007  1.00  0.00    -0.248 NA
ATOM     49  C   UNL A   1      43.168  25.276  26.716  1.00  0.00     0.031 C 
ATOM     50  C   UNL A   1      48.010  25.056  25.341  1.00  0.00     0.029 A 
ATOM     51  N   UNL A   1      47.285  26.955  26.269  1.00  0.00    -0.354 N 
ATOM     52  C   UNL A   1      43.157  27.450  27.431  1.00  0.00     0.074 A 
ATOM     53  C   UNL A   1      42.394  26.245  27.186  1.00  0.00     0.031 C 
ATOM     54  C   UNL A   1      49.076  25.856  25.496  1.00  0.00     0.029 A 
ATOM     55  C   UNL A   1      48.635  27.120  26.073  1.00  0.00     0.049 A 
ATOM     56  H   UNL A   1      46.705  27.655  26.647  1.00  0.00     0.167 HD
ATOM     57  C   UNL A   1      42.645  28.577  27.984  1.00  0.00     0.037 A 
ATOM     58  C   UNL A   1      49.432  28.176  26.315  1.00  0.00     0.037 A 
ATOM     59  C   UNL A   1      43.408  29.769  28.248  1.00  0.00     0.049 A 
ATOM     60  C   UNL A   1      48.829  29.428  26.881  1.00  0.00     0.074 A 
ATOM     61  C   UNL A   1      42.985  30.959  28.814  1.00  0.00     0.029 A 
ATOM     62  N   UNL A   1      44.758  29.921  27.967  1.00  0.00    -0.354 N 
ATOM     63  N   UNL A   1      47.595  29.651  27.266  1.00  0.00    -0.248 NA
ATOM     64  C   UNL A   1      49.726  30.581  27.030  1.00  0.00     0.031 C 
ATOM     65  C   UNL A   1      44.070  31.844  28.840  1.00  0.00     0.029 A 
ATOM     66  C   UNL A   1      45.179  31.190  28.330  1.00  0.00     0.049 A 
ATOM     67  H   UNL A   1      45.333  29.228  27.568  1.00  0.00     0.167 HD
ATOM     68  C   UNL A   1      47.570  30.964  27.710  1.00  0.00     0.074 A 
ATOM     69  C   UNL A   1      48.918  31.479  27.574  1.00  0.00     0.031 C 
ATOM     70  C   UNL A   1      46.523  31.686  28.180  1.00  0.00     0.037 A 
BRANCH  57  71
ATOM     71  C   UNL A   1      41.182  28.577  28.323  1.00  0.00     0.057 A 
ATOM     72  C   UNL A   1      40.228  28.938  27.362  1.00  0.00     0.134 A 
ATOM     73  C   UNL A   1      40.716  28.244  29.601  1.00  0.00     0.134 A 
ATOM     74  F   UNL A   1      40.605  29.273  26.119  1.00  0.00    -0.206 F 
ATOM     75  C   UNL A   1      38.865  28.965  27.660  1.00  0.00     0.040 A 
ATOM     76  C   UNL A   1      39.353  28.243  29.904  1.00  0.00     0.040 A 
ATOM     77  F   UNL A   1      41.575  27.874  30.563  1.00  0.00    -0.206 F 
ATOM     78  C   UNL A   1      38.423  28.611  28.933  1.00  0.00     0.006 A 
ENDBRANCH  57  71
BRANCH  58  79
ATOM     79  C   UNL A   1      50.881  28.105  26.001  1.00  0.00     0.057 A 
ATOM     80  C   UNL A   1      51.352  28.260  24.692  1.00  0.00     0.134 A 
ATOM     81  C   UNL A   1      51.830  27.893  27.008  1.00  0.00     0.134 A 
ATOM     82  F   UNL A   1      50.492  28.462  23.682  1.00  0.00    -0.206 F 
ATOM     83  C   UNL A   1      52.712  28.190  24.391  1.00  0.00     0.040 A 
ATOM     84  C   UNL A   1      53.195  27.851  26.726  1.00  0.00     0.040 A 
ATOM     85  F   UNL A   1      51.440  27.759  28.285  1.00  0.00    -0.206 F 
ATOM     86  C   UNL A   1      53.639  27.993  25.413  1.00  0.00     0.006 A 
ENDBRANCH  58  79
BRANCH  70  87
ATOM     87  C   UNL A   1      46.811  33.097  28.597  1.00  0.00     0.057 A 
ATOM     88  C   UNL A   1      46.684  34.151  27.684  1.00  0.00     0.134 A 
ATOM     89  C   UNL A   1      47.210  33.412  29.902  1.00  0.00     0.134 A 
ATOM     90  F   UNL A   1      46.309  33.915  26.417  1.00  0.00    -0.206 F 
ATOM     91  C   UNL A   1      46.941  35.471  28.056  1.00  0.00     0.040 A 
ATOM     92  C   UNL A   1      47.445  34.731  30.292  1.00  0.00     0.040 A 
ATOM     93  F   UNL A   1      47.331  32.448  30.827  1.00  0.00    -0.206 F 
ATOM     94  C   UNL A   1      47.314  35.764  29.367  1.00  0.00     0.006 A 
ENDBRANCH  70  87
ENDBRANCH  44  45
ENDBRANCH  36  39
ENDBRANCH  34  35
ENDBRANCH  33  34
ENDBRANCH  32  33
ENDBRANCH   3  32
TORSDOF 15
ENDMDL
MODEL 2
REMARK VINA RESULT:     -12.2      5.960      8.583
REMARK SMILES C/C(=C\C(=O)c1c(O)n(C)c2ccccc2c1=O)Nc1ccc(C(=O)NCCCNC(=O)c2ccc(-c3c4nc(c(-c5c(F)cccc5F)c5ccc([nH]5)c(-c5c(F)cccc5F)c5nc(c(-c6c(F)cccc6F)c6ccc3[nH]6)C=C5)C=C4)cc2)cc1
REMARK SMILES IDX 24 1 25 2 26 3 23 5 20 6 21 7 88 8 22 9 87 10 19 11 2 13
REMARK SMILES IDX 1 14 3 15 4 16 5 17 6 18 7 19 17 20 9 21 16 22 18 23 10 24
REMARK SMILES IDX 11 25 15 26 12 27 14 28 13 29 8 30 27 32 28 33 29 34 30 35
REMARK SMILES IDX 31 36 32 38 33 39 34 40 86 41 35 42 85 43 36 44 37 45 38 46
REMARK SMILES IDX 79 47 39 48 84 49 78 50 80 51 40 52 83 53 77 54 76 55 41 57
REMARK SMILES IDX 67 58 50 59 66 60 51 61 54 62 65 63 81 64 52 65 53 66 64 68
REMARK SMILES IDX 82 69 55 70 42 71 43 72 48 73 44 74 45 75 47 76 49 77 46 78
REMARK SMILES IDX 68 79 69 80 74 81 70 82 71 83 73 84 75 85 72 86 56 87 57 88
REMARK SMILES IDX 62 89 58 90 59 91 61 92 63 93 60 94
REMARK H PARENT 26 4 19 12 8 31 30 37 80 56 54 67
REMARK Flexibility Score: inf
ROOT
ATOM      1  C   UNL A   1      34.522  20.822  24.866  1.00  0.00     0.251 C 
ATOM      2  O   UNL A   1      34.544  19.590  24.769  1.00  0.00    -0.269 OA
ATOM      3  N   UNL A   1      35.638  21.371  25.429  1.00  0.00    -0.352 N 
ATOM      4  H   UNL A   1      36.295  20.683  25.683  1.00  0.00     0.163 HD
ENDROOT
BRANCH   1   5
ATOM      5  C   UNL A   1      33.299  21.551  24.416  1.00  0.00     0.039 A 
ATOM      6  C   UNL A   1      31.034  23.205  23.890  1.00  0.00     0.038 A 
ATOM      7  C   UNL A   1      31.283  22.706  25.165  1.00  0.00     0.027 A 
ATOM      8  C   UNL A   1      31.856  22.743  22.857  1.00  0.00     0.027 A 
ATOM      9  C   UNL A   1      32.409  21.923  25.432  1.00  0.00     0.016 A 
ATOM     10  C   UNL A   1      32.952  21.902  23.112  1.00  0.00     0.016 A 
BRANCH   6  11
ATOM     11  N   UNL A   1      30.103  24.231  23.616  1.00  0.00    -0.359 N 
ATOM     12  H   UNL A   1      29.258  23.951  23.193  1.00  0.00     0.166 HD
BRANCH  11  13
ATOM     13  C   UNL A   1      30.244  25.605  23.876  1.00  0.00     0.016 C 
ATOM     14  C   UNL A   1      29.926  26.084  25.272  1.00  0.00     0.064 C 
ATOM     15  C   UNL A   1      30.685  26.425  22.892  1.00  0.00     0.074 C 
BRANCH  15  16
ATOM     16  C   UNL A   1      31.109  27.868  22.865  1.00  0.00     0.196 C 
ATOM     17  O   UNL A   1      31.226  28.437  21.781  1.00  0.00    -0.289 OA
BRANCH  16  18
ATOM     18  C   UNL A   1      31.560  28.521  24.107  1.00  0.00     0.130 A 
ATOM     19  C   UNL A   1      30.911  29.611  24.565  1.00  0.00     0.206 A 
ATOM     20  C   UNL A   1      32.827  28.112  24.747  1.00  0.00     0.204 A 
ATOM     21  N   UNL A   1      31.438  30.460  25.534  1.00  0.00    -0.315 N 
ATOM     22  C   UNL A   1      33.331  28.946  25.861  1.00  0.00     0.047 A 
ATOM     23  O   UNL A   1      33.472  27.151  24.340  1.00  0.00    -0.288 OA
ATOM     24  C   UNL A   1      30.915  31.815  25.740  1.00  0.00     0.153 C 
ATOM     25  C   UNL A   1      32.636  30.121  26.211  1.00  0.00     0.055 A 
ATOM     26  C   UNL A   1      34.527  28.578  26.496  1.00  0.00     0.014 A 
ATOM     27  C   UNL A   1      33.194  30.907  27.236  1.00  0.00     0.027 A 
ATOM     28  C   UNL A   1      35.054  29.379  27.503  1.00  0.00     0.001 A 
ATOM     29  C   UNL A   1      34.388  30.543  27.872  1.00  0.00     0.002 A 
BRANCH  19  30
ATOM     30  O   UNL A   1      29.694  30.003  24.033  1.00  0.00    -0.494 OA
ATOM     31  H   UNL A   1      28.895  29.659  24.384  1.00  0.00     0.295 HD
ENDBRANCH  19  30
ENDBRANCH  16  18
ENDBRANCH  15  16
ENDBRANCH  11  13
ENDBRANCH   6  11
ENDBRANCH   1   5
BRANCH   3  32
ATOM     32  C   UNL A   1      36.107  22.706  25.751  1.00  0.00     0.118 C 
BRANCH  32  33
ATOM     33  C   UNL A   1      37.562  22.922  25.362  1.00  0.00     0.042 C 
BRANCH  33  34
ATOM     34  C   UNL A   1      38.343  23.772  26.355  1.00  0.00     0.118 C 
BRANCH  34  35
ATOM     35  N   UNL A   1      39.788  23.657  26.184  1.00  0.00    -0.352 N 
ATOM     36  C   UNL A   1      40.818  24.483  26.572  1.00  0.00     0.251 C 
ATOM     37  H   UNL A   1      40.077  22.844  25.709  1.00  0.00     0.163 HD
ATOM     38  O   UNL A   1      41.945  24.296  26.132  1.00  0.00    -0.269 OA
BRANCH  36  39
ATOM     39  C   UNL A   1      40.567  25.619  27.488  1.00  0.00     0.039 A 
ATOM     40  C   UNL A   1      41.263  26.816  27.346  1.00  0.00     0.014 A 
ATOM     41  C   UNL A   1      39.611  25.490  28.501  1.00  0.00     0.014 A 
ATOM     42  C   UNL A   1      41.182  27.782  28.340  1.00  0.00     0.010 A 
ATOM     43  C   UNL A   1      39.435  26.523  29.429  1.00  0.00     0.010 A 
ATOM     44  C   UNL A   1      40.265  27.652  29.394  1.00  0.00    -0.014 A 
BRANCH  44  45
ATOM     45  C   UNL A   1      40.213  28.711  30.438  1.00  0.00     0.031 A 
ATOM     46  C   UNL A   1      39.182  29.808  30.375  1.00  0.00     0.074 A 
ATOM     47  C   UNL A   1      41.047  28.634  31.494  1.00  0.00     0.049 A 
ATOM     48  N   UNL A   1      38.972  30.792  31.214  1.00  0.00    -0.248 NA
ATOM     49  C   UNL A   1      38.270  29.805  29.220  1.00  0.00     0.031 C 
ATOM     50  C   UNL A   1      42.081  27.613  31.681  1.00  0.00     0.029 A 
ATOM     51  N   UNL A   1      41.132  29.400  32.628  1.00  0.00    -0.354 N 
ATOM     52  C   UNL A   1      37.926  31.535  30.678  1.00  0.00     0.074 A 
ATOM     53  C   UNL A   1      37.562  30.907  29.426  1.00  0.00     0.031 C 
ATOM     54  C   UNL A   1      42.641  27.768  32.889  1.00  0.00     0.029 A 
ATOM     55  C   UNL A   1      42.066  28.945  33.528  1.00  0.00     0.049 A 
ATOM     56  H   UNL A   1      40.577  30.198  32.784  1.00  0.00     0.167 HD
ATOM     57  C   UNL A   1      37.315  32.634  31.187  1.00  0.00     0.037 A 
ATOM     58  C   UNL A   1      42.434  29.430  34.727  1.00  0.00     0.037 A 
ATOM     59  C   UNL A   1      37.662  33.246  32.443  1.00  0.00     0.049 A 
ATOM     60  C   UNL A   1      41.776  30.675  35.242  1.00  0.00     0.074 A 
ATOM     61  C   UNL A   1      37.097  34.354  33.050  1.00  0.00     0.029 A 
ATOM     62  N   UNL A   1      38.665  32.797  33.289  1.00  0.00    -0.354 N 
ATOM     63  N   UNL A   1      40.796  31.371  34.717  1.00  0.00    -0.248 NA
ATOM     64  C   UNL A   1      42.288  31.214  36.508  1.00  0.00     0.031 C 
ATOM     65  C   UNL A   1      37.784  34.598  34.245  1.00  0.00     0.029 A 
ATOM     66  C   UNL A   1      38.747  33.617  34.404  1.00  0.00     0.049 A 
ATOM     67  H   UNL A   1      39.235  32.011  33.123  1.00  0.00     0.167 HD
ATOM     68  C   UNL A   1      40.568  32.422  35.591  1.00  0.00     0.074 A 
ATOM     69  C   UNL A   1      41.492  32.257  36.695  1.00  0.00     0.031 C 
ATOM     70  C   UNL A   1      39.679  33.440  35.488  1.00  0.00     0.037 A 
BRANCH  57  71
ATOM     71  C   UNL A   1      36.219  33.254  30.369  1.00  0.00     0.057 A 
ATOM     72  C   UNL A   1      36.523  34.042  29.251  1.00  0.00     0.134 A 
ATOM     73  C   UNL A   1      34.866  33.095  30.697  1.00  0.00     0.134 A 
ATOM     74  F   UNL A   1      37.797  34.241  28.883  1.00  0.00    -0.206 F 
ATOM     75  C   UNL A   1      35.521  34.645  28.488  1.00  0.00     0.040 A 
ATOM     76  C   UNL A   1      33.855  33.673  29.928  1.00  0.00     0.040 A 
ATOM     77  F   UNL A   1      34.506  32.340  31.747  1.00  0.00    -0.206 F 
ATOM     78  C   UNL A   1      34.182  34.456  28.822  1.00  0.00     0.006 A 
ENDBRANCH  57  71
BRANCH  58  79
ATOM     79  C   UNL A   1      43.494  28.750  35.512  1.00  0.00     0.057 A 
ATOM     80  C   UNL A   1      43.184  27.769  36.462  1.00  0.00     0.134 A 
ATOM     81  C   UNL A   1      44.846  29.057  35.321  1.00  0.00     0.134 A 
ATOM     82  F   UNL A   1      41.906  27.432  36.695  1.00  0.00    -0.206 F 
ATOM     83  C   UNL A   1      44.176  27.129  37.205  1.00  0.00     0.040 A 
ATOM     84  C   UNL A   1      45.851  28.405  36.035  1.00  0.00     0.040 A 
ATOM     85  F   UNL A   1      45.207  29.973  34.410  1.00  0.00    -0.206 F 
ATOM     86  C   UNL A   1      45.516  27.442  36.985  1.00  0.00     0.006 A 
ENDBRANCH  58  79
BRANCH  70  87
ATOM     87  C   UNL A   1      39.660  34.434  36.611  1.00  0.00     0.057 A 
ATOM     88  C   UNL A   1      38.919  34.187  37.772  1.00  0.00     0.134 A 
ATOM     89  C   UNL A   1      40.381  35.633  36.543  1.00  0.00     0.134 A 
ATOM     90  F   UNL A   1      38.203  33.058  37.897  1.00  0.00    -0.206 F 
ATOM     91  C   UNL A   1      38.896  35.097  38.829  1.00  0.00     0.040 A 
ATOM     92  C   UNL A   1      40.387  36.539  37.605  1.00  0.00     0.040 A 
ATOM     93  F   UNL A   1      41.127  35.919  35.465  1.00  0.00    -0.206 F 
ATOM     94  C   UNL A   1      39.640  36.273  38.750  1.00  0.00     0.006 A 
ENDBRANCH  70  87
ENDBRANCH  44  45
ENDBRANCH  36  39
ENDBRANCH  34  35
ENDBRANCH  33  34
ENDBRANCH  32  33
ENDBRANCH   3  32
TORSDOF 15
ENDMDL
MODEL 3
REMARK VINA RESULT:     -12.1      3.533      9.635
REMARK SMILES C/C(=C\C(=O)c1c(O)n(C)c2ccccc2c1=O)Nc1ccc(C(=O)NCCCNC(=O)c2ccc(-c3c4nc(c(-c5c(F)cccc5F)c5ccc([nH]5)c(-c5c(F)cccc5F)c5nc(c(-c6c(F)cccc6F)c6ccc3[nH]6)C=C5)C=C4)cc2)cc1
REMARK SMILES IDX 24 1 25 2 26 3 23 5 20 6 21 7 88 8 22 9 87 10 19 11 2 13
REMARK SMILES IDX 1 14 3 15 4 16 5 17 6 18 7 19 17 20 9 21 16 22 18 23 10 24
REMARK SMILES IDX 11 25 15 26 12 27 14 28 13 29 8 30 27 32 28 33 29 34 30 35
REMARK SMILES IDX 31 36 32 38 33 39 34 40 86 41 35 42 85 43 36 44 37 45 38 46
REMARK SMILES IDX 79 47 39 48 84 49 78 50 80 51 40 52 83 53 77 54 76 55 41 57
REMARK SMILES IDX 67 58 50 59 66 60 51 61 54 62 65 63 81 64 52 65 53 66 64 68
REMARK SMILES IDX 82 69 55 70 42 71 43 72 48 73 44 74 45 75 47 76 49 77 46 78
REMARK SMILES IDX 68 79 69 80 74 81 70 82 71 83 73 84 75 85 72 86 56 87 57 88
REMARK SMILES IDX 62 89 58 90 59 91 61 92 63 93 60 94
REMARK H PARENT 26 4 19 12 8 31 30 37 80 56 54 67
REMARK Flexibility Score: inf
ROOT
ATOM      1  C   UNL A   1      32.934  33.164  27.770  1.00  0.00     0.251 C 
ATOM      2  O   UNL A   1      31.916  33.511  27.162  1.00  0.00    -0.269 OA
ATOM      3  N   UNL A   1      33.544  34.160  28.478  1.00  0.00    -0.352 N 
ATOM      4  H   UNL A   1      33.070  35.017  28.384  1.00  0.00     0.163 HD
ENDROOT
BRANCH   1   5
ATOM      5  C   UNL A   1      33.402  31.753  27.632  1.00  0.00     0.039 A 
ATOM      6  C   UNL A   1      34.060  29.047  27.006  1.00  0.00     0.038 A 
ATOM      7  C   UNL A   1      32.742  29.494  26.983  1.00  0.00     0.027 A 
ATOM      8  C   UNL A   1      35.022  29.939  27.489  1.00  0.00     0.027 A 
ATOM      9  C   UNL A   1      32.420  30.826  27.256  1.00  0.00     0.016 A 
ATOM     10  C   UNL A   1      34.691  31.263  27.827  1.00  0.00     0.016 A 
BRANCH   6  11
ATOM     11  N   UNL A   1      34.482  27.817  26.457  1.00  0.00    -0.359 N 
ATOM     12  H   UNL A   1      35.170  27.327  26.963  1.00  0.00     0.166 HD
BRANCH  11  13
ATOM     13  C   UNL A   1      34.034  27.212  25.269  1.00  0.00     0.016 C 
ATOM     14  C   UNL A   1      33.994  25.703  25.230  1.00  0.00     0.064 C 
ATOM     15  C   UNL A   1      33.628  27.993  24.239  1.00  0.00     0.074 C 
BRANCH  15  16
ATOM     16  C   UNL A   1      32.946  27.701  22.930  1.00  0.00     0.196 C 
ATOM     17  O   UNL A   1      33.632  27.447  21.941  1.00  0.00    -0.289 OA
BRANCH  16  18
ATOM     18  C   UNL A   1      31.493  27.910  22.801  1.00  0.00     0.130 A 
ATOM     19  C   UNL A   1      31.025  29.057  22.269  1.00  0.00     0.206 A 
ATOM     20  C   UNL A   1      30.545  26.963  23.424  1.00  0.00     0.204 A 
ATOM     21  N   UNL A   1      29.700  29.468  22.389  1.00  0.00    -0.315 N 
ATOM     22  C   UNL A   1      29.114  27.342  23.445  1.00  0.00     0.047 A 
ATOM     23  O   UNL A   1      30.929  25.925  23.954  1.00  0.00    -0.288 OA
ATOM     24  C   UNL A   1      29.299  30.859  22.150  1.00  0.00     0.153 C 
ATOM     25  C   UNL A   1      28.728  28.603  22.950  1.00  0.00     0.055 A 
ATOM     26  C   UNL A   1      28.187  26.459  24.020  1.00  0.00     0.014 A 
ATOM     27  C   UNL A   1      27.365  28.935  23.052  1.00  0.00     0.027 A 
ATOM     28  C   UNL A   1      26.848  26.818  24.109  1.00  0.00     0.001 A 
ATOM     29  C   UNL A   1      26.437  28.056  23.626  1.00  0.00     0.002 A 
BRANCH  19  30
ATOM     30  O   UNL A   1      31.867  29.952  21.628  1.00  0.00    -0.494 OA
ATOM     31  H   UNL A   1      32.724  30.116  21.969  1.00  0.00     0.295 HD
ENDBRANCH  19  30
ENDBRANCH  16  18
ENDBRANCH  15  16
ENDBRANCH  11  13
ENDBRANCH   6  11
ENDBRANCH   1   5
BRANCH   3  32
ATOM     32  C   UNL A   1      34.709  34.281  29.334  1.00  0.00     0.118 C 
BRANCH  32  33
ATOM     33  C   UNL A   1      34.371  34.101  30.807  1.00  0.00     0.042 C 
BRANCH  33  34
ATOM     34  C   UNL A   1      34.711  32.719  31.349  1.00  0.00     0.118 C 
BRANCH  34  35
ATOM     35  N   UNL A   1      35.270  32.762  32.696  1.00  0.00    -0.352 N 
ATOM     36  C   UNL A   1      36.406  32.196  33.228  1.00  0.00     0.251 C 
ATOM     37  H   UNL A   1      34.742  33.290  33.338  1.00  0.00     0.163 HD
ATOM     38  O   UNL A   1      36.568  32.183  34.442  1.00  0.00    -0.269 OA
BRANCH  36  39
ATOM     39  C   UNL A   1      37.417  31.567  32.347  1.00  0.00     0.039 A 
ATOM     40  C   UNL A   1      38.410  30.747  32.873  1.00  0.00     0.014 A 
ATOM     41  C   UNL A   1      37.364  31.792  30.967  1.00  0.00     0.014 A 
ATOM     42  C   UNL A   1      39.474  30.353  32.074  1.00  0.00     0.010 A 
ATOM     43  C   UNL A   1      38.370  31.281  30.139  1.00  0.00     0.010 A 
ATOM     44  C   UNL A   1      39.468  30.610  30.694  1.00  0.00    -0.014 A 
BRANCH  44  45
ATOM     45  C   UNL A   1      40.630  30.170  29.874  1.00  0.00     0.031 A 
ATOM     46  C   UNL A   1      41.815  31.076  29.665  1.00  0.00     0.074 A 
ATOM     47  C   UNL A   1      40.651  28.913  29.387  1.00  0.00     0.049 A 
ATOM     48  N   UNL A   1      42.924  30.845  29.007  1.00  0.00    -0.248 NA
ATOM     49  C   UNL A   1      41.748  32.417  30.267  1.00  0.00     0.031 C 
ATOM     50  C   UNL A   1      39.573  27.932  29.533  1.00  0.00     0.029 A 
ATOM     51  N   UNL A   1      41.628  28.231  28.709  1.00  0.00    -0.354 N 
ATOM     52  C   UNL A   1      43.672  32.013  29.094  1.00  0.00     0.074 A 
ATOM     53  C   UNL A   1      42.879  32.965  29.843  1.00  0.00     0.031 C 
ATOM     54  C   UNL A   1      39.975  26.756  29.032  1.00  0.00     0.029 A 
ATOM     55  C   UNL A   1      41.305  26.919  28.456  1.00  0.00     0.049 A 
ATOM     56  H   UNL A   1      42.478  28.641  28.428  1.00  0.00     0.167 HD
ATOM     57  C   UNL A   1      44.911  32.269  28.607  1.00  0.00     0.037 A 
ATOM     58  C   UNL A   1      41.993  25.955  27.819  1.00  0.00     0.037 A 
ATOM     59  C   UNL A   1      45.710  31.316  27.881  1.00  0.00     0.049 A 
ATOM     60  C   UNL A   1      43.340  26.282  27.245  1.00  0.00     0.074 A 
ATOM     61  C   UNL A   1      46.979  31.475  27.354  1.00  0.00     0.029 A 
ATOM     62  N   UNL A   1      45.315  30.020  27.583  1.00  0.00    -0.354 N 
ATOM     63  N   UNL A   1      44.027  27.396  27.329  1.00  0.00    -0.248 NA
ATOM     64  C   UNL A   1      44.000  25.221  26.473  1.00  0.00     0.031 C 
ATOM     65  C   UNL A   1      47.337  30.288  26.705  1.00  0.00     0.029 A 
ATOM     66  C   UNL A   1      46.309  29.375  26.864  1.00  0.00     0.049 A 
ATOM     67  H   UNL A   1      44.455  29.618  27.844  1.00  0.00     0.167 HD
ATOM     68  C   UNL A   1      45.202  27.168  26.629  1.00  0.00     0.074 A 
ATOM     69  C   UNL A   1      45.148  25.800  26.152  1.00  0.00     0.031 C 
ATOM     70  C   UNL A   1      46.232  28.017  26.393  1.00  0.00     0.037 A 
BRANCH  57  71
ATOM     71  C   UNL A   1      45.469  33.646  28.828  1.00  0.00     0.057 A 
ATOM     72  C   UNL A   1      46.215  33.936  29.979  1.00  0.00     0.134 A 
ATOM     73  C   UNL A   1      45.253  34.691  27.920  1.00  0.00     0.134 A 
ATOM     74  F   UNL A   1      46.455  32.984  30.893  1.00  0.00    -0.206 F 
ATOM     75  C   UNL A   1      46.726  35.213  30.216  1.00  0.00     0.040 A 
ATOM     76  C   UNL A   1      45.780  35.966  28.135  1.00  0.00     0.040 A 
ATOM     77  F   UNL A   1      44.560  34.477  26.791  1.00  0.00    -0.206 F 
ATOM     78  C   UNL A   1      46.514  36.231  29.289  1.00  0.00     0.006 A 
ENDBRANCH  57  71
BRANCH  58  79
ATOM     79  C   UNL A   1      41.410  24.599  27.667  1.00  0.00     0.057 A 
ATOM     80  C   UNL A   1      41.836  23.528  28.462  1.00  0.00     0.134 A 
ATOM     81  C   UNL A   1      40.402  24.346  26.730  1.00  0.00     0.134 A 
ATOM     82  F   UNL A   1      42.802  23.706  29.376  1.00  0.00    -0.206 F 
ATOM     83  C   UNL A   1      41.294  22.251  28.322  1.00  0.00     0.040 A 
ATOM     84  C   UNL A   1      39.830  23.080  26.598  1.00  0.00     0.040 A 
ATOM     85  F   UNL A   1      39.938  25.336  25.954  1.00  0.00    -0.206 F 
ATOM     86  C   UNL A   1      40.280  22.027  27.392  1.00  0.00     0.006 A 
ENDBRANCH  58  79
BRANCH  70  87
ATOM     87  C   UNL A   1      47.384  27.473  25.601  1.00  0.00     0.057 A 
ATOM     88  C   UNL A   1      48.442  26.814  26.238  1.00  0.00     0.134 A 
ATOM     89  C   UNL A   1      47.442  27.598  24.207  1.00  0.00     0.134 A 
ATOM     90  F   UNL A   1      48.448  26.665  27.572  1.00  0.00    -0.206 F 
ATOM     91  C   UNL A   1      49.517  26.296  25.516  1.00  0.00     0.040 A 
ATOM     92  C   UNL A   1      48.500  27.061  23.472  1.00  0.00     0.040 A 
ATOM     93  F   UNL A   1      46.449  28.202  23.536  1.00  0.00    -0.206 F 
ATOM     94  C   UNL A   1      49.543  26.411  24.127  1.00  0.00     0.006 A 
ENDBRANCH  70  87
ENDBRANCH  44  45
ENDBRANCH  36  39
ENDBRANCH  34  35
ENDBRANCH  33  34
ENDBRANCH  32  33
ENDBRANCH   3  32
TORSDOF 15
ENDMDL
