MODEL 1
REMARK VINA RESULT:     -14.8      0.000      0.000
REMARK SMILES C[C@]1(C(=O)NCCCNC(=O)c2ccc(-c3c4nc(c(-c5c(F)cccc5F)c5ccc([nH]5)c(-c5c(F)cccc5F)c5nc(c(-c6c(F)cccc6F)c6ccc3[nH]6)C=C5)C=C4)cc2)[NH2+]C2(C(=O)c3ccccc3C2=O)[C@@H]2C(=O)N(c3ccccc3)C(=O)[C@H]21
REMARK SMILES IDX 7 1 6 2 5 3 3 4 4 5 2 7 1 8 66 9 90 10 67 11 78 14 88 15
REMARK SMILES IDX 68 16 76 17 79 18 81 19 89 20 69 21 70 22 75 23 77 24 80 25
REMARK SMILES IDX 71 26 74 27 72 28 73 29 82 30 83 31 87 32 84 33 86 34 85 35
REMARK SMILES IDX 8 36 9 37 10 38 11 40 12 41 13 42 65 43 14 44 64 45 15 46
REMARK SMILES IDX 16 47 17 48 58 49 18 50 63 51 57 52 59 53 19 54 62 55 56 56
REMARK SMILES IDX 55 57 20 59 46 60 29 61 45 62 30 63 33 64 44 65 60 66 31 67
REMARK SMILES IDX 32 68 43 70 61 71 34 72 21 73 22 74 27 75 23 76 24 77 26 78
REMARK SMILES IDX 28 79 25 80 47 81 48 82 53 83 49 84 50 85 52 86 54 87 51 88
REMARK SMILES IDX 35 89 36 90 41 91 37 92 38 93 40 94 42 95 39 96
REMARK H PARENT 5 6 66 12 66 13 9 39 59 58 33 69
REMARK Flexibility Score: inf
ROOT
ATOM      1  C   UNL A   1      34.016  31.840  27.967  1.00  0.00     0.042 C 
ENDROOT
BRANCH   1   2
ATOM      2  C   UNL A   1      33.408  30.752  27.106  1.00  0.00     0.118 C 
BRANCH   2   3
ATOM      3  N   UNL A   1      32.615  29.739  27.734  1.00  0.00    -0.351 N 
ATOM      4  C   UNL A   1      32.414  28.439  27.361  1.00  0.00     0.281 C 
ATOM      5  O   UNL A   1      31.617  27.828  28.088  1.00  0.00    -0.268 OA
ATOM      6  H   UNL A   1      32.147  30.018  28.553  1.00  0.00     0.163 HD
BRANCH   4   7
ATOM      7  C   UNL A   1      33.089  27.707  26.114  1.00  0.00     0.186 C 
ATOM      8  C   UNL A   1      34.524  28.294  26.022  1.00  0.00     0.091 C 
ATOM      9  N   UNL A   1      33.211  26.207  26.298  1.00  0.00    -0.314 N 
ATOM     10  C   UNL A   1      32.464  27.805  24.747  1.00  0.00     0.170 C 
ATOM     11  C   UNL A   1      32.433  25.496  25.197  1.00  0.00     0.236 C 
ATOM     12  H   UNL A   1      32.832  25.944  27.208  1.00  0.00     0.348 HD
ATOM     13  H   UNL A   1      34.193  25.937  26.249  1.00  0.00     0.348 HD
ATOM     14  C   UNL A   1      31.587  26.578  24.602  1.00  0.00     0.177 C 
ATOM     15  C   UNL A   1      31.531  28.864  24.288  1.00  0.00     0.244 C 
ATOM     16  C   UNL A   1      33.324  24.735  24.220  1.00  0.00     0.232 C 
ATOM     17  C   UNL A   1      31.636  24.357  25.867  1.00  0.00     0.232 C 
ATOM     18  C   UNL A   1      30.995  26.854  23.262  1.00  0.00     0.245 C 
ATOM     19  N   UNL A   1      30.786  28.239  23.286  1.00  0.00    -0.250 N 
ATOM     20  O   UNL A   1      31.476  29.998  24.722  1.00  0.00    -0.273 OA
ATOM     21  O   UNL A   1      34.178  25.212  23.495  1.00  0.00    -0.286 OA
ATOM     22  C   UNL A   1      33.023  23.296  24.332  1.00  0.00     0.036 A 
ATOM     23  C   UNL A   1      32.072  23.089  25.317  1.00  0.00     0.036 A 
ATOM     24  O   UNL A   1      30.774  24.406  26.725  1.00  0.00    -0.286 OA
ATOM     25  O   UNL A   1      30.613  26.003  22.478  1.00  0.00    -0.273 OA
ATOM     26  C   UNL A   1      33.551  22.224  23.638  1.00  0.00     0.013 A 
ATOM     27  C   UNL A   1      31.625  21.831  25.687  1.00  0.00     0.013 A 
ATOM     28  C   UNL A   1      33.099  20.938  23.977  1.00  0.00     0.001 A 
ATOM     29  C   UNL A   1      32.153  20.742  25.001  1.00  0.00     0.001 A 
BRANCH  19  30
ATOM     30  C   UNL A   1      29.719  28.916  22.665  1.00  0.00     0.052 A 
ATOM     31  C   UNL A   1      29.981  29.925  21.730  1.00  0.00     0.027 A 
ATOM     32  C   UNL A   1      28.410  28.725  23.124  1.00  0.00     0.027 A 
ATOM     33  C   UNL A   1      28.947  30.728  21.251  1.00  0.00     0.002 A 
ATOM     34  C   UNL A   1      27.386  29.567  22.683  1.00  0.00     0.002 A 
ATOM     35  C   UNL A   1      27.653  30.562  21.742  1.00  0.00     0.000 A 
ENDBRANCH  19  30
ENDBRANCH   4   7
ENDBRANCH   2   3
ENDBRANCH   1   2
BRANCH   1  36
ATOM     36  C   UNL A   1      35.396  31.503  28.487  1.00  0.00     0.118 C 
BRANCH  36  37
ATOM     37  N   UNL A   1      35.424  31.203  29.920  1.00  0.00    -0.352 N 
ATOM     38  C   UNL A   1      36.279  30.484  30.727  1.00  0.00     0.251 C 
ATOM     39  H   UNL A   1      34.670  31.601  30.413  1.00  0.00     0.163 HD
ATOM     40  O   UNL A   1      35.963  30.311  31.904  1.00  0.00    -0.269 OA
BRANCH  38  41
ATOM     41  C   UNL A   1      37.531  29.859  30.222  1.00  0.00     0.039 A 
ATOM     42  C   UNL A   1      38.384  29.144  31.051  1.00  0.00     0.014 A 
ATOM     43  C   UNL A   1      37.865  29.971  28.864  1.00  0.00     0.014 A 
ATOM     44  C   UNL A   1      39.658  28.800  30.619  1.00  0.00     0.010 A 
ATOM     45  C   UNL A   1      39.088  29.470  28.386  1.00  0.00     0.010 A 
ATOM     46  C   UNL A   1      40.033  28.942  29.277  1.00  0.00    -0.014 A 
BRANCH  46  47
ATOM     47  C   UNL A   1      41.408  28.538  28.860  1.00  0.00     0.031 A 
ATOM     48  C   UNL A   1      41.698  27.130  28.398  1.00  0.00     0.074 A 
ATOM     49  C   UNL A   1      42.388  29.466  28.808  1.00  0.00     0.049 A 
ATOM     50  N   UNL A   1      42.833  26.606  28.006  1.00  0.00    -0.248 NA
ATOM     51  C   UNL A   1      40.571  26.183  28.382  1.00  0.00     0.031 C 
ATOM     52  C   UNL A   1      42.249  30.870  29.209  1.00  0.00     0.029 A 
ATOM     53  N   UNL A   1      43.683  29.385  28.359  1.00  0.00    -0.354 N 
ATOM     54  C   UNL A   1      42.565  25.270  27.728  1.00  0.00     0.074 A 
ATOM     55  C   UNL A   1      41.166  25.053  28.026  1.00  0.00     0.031 C 
ATOM     56  C   UNL A   1      43.375  31.532  28.911  1.00  0.00     0.029 A 
ATOM     57  C   UNL A   1      44.355  30.585  28.396  1.00  0.00     0.049 A 
ATOM     58  H   UNL A   1      44.092  28.548  28.041  1.00  0.00     0.167 HD
ATOM     59  C   UNL A   1      43.402  24.312  27.258  1.00  0.00     0.037 A 
ATOM     60  C   UNL A   1      45.627  30.890  28.082  1.00  0.00     0.037 A 
ATOM     61  C   UNL A   1      44.787  24.533  26.929  1.00  0.00     0.049 A 
ATOM     62  C   UNL A   1      46.543  29.799  27.612  1.00  0.00     0.074 A 
ATOM     63  C   UNL A   1      45.714  23.626  26.442  1.00  0.00     0.029 A 
ATOM     64  N   UNL A   1      45.442  25.750  27.043  1.00  0.00    -0.354 N 
ATOM     65  N   UNL A   1      46.275  28.537  27.380  1.00  0.00    -0.248 NA
ATOM     66  C   UNL A   1      47.945  30.171  27.380  1.00  0.00     0.031 C 
ATOM     67  C   UNL A   1      46.940  24.286  26.298  1.00  0.00     0.029 A 
ATOM     68  C   UNL A   1      46.764  25.614  26.651  1.00  0.00     0.049 A 
ATOM     69  H   UNL A   1      45.029  26.587  27.356  1.00  0.00     0.167 HD
ATOM     70  C   UNL A   1      47.471  27.968  26.965  1.00  0.00     0.074 A 
ATOM     71  C   UNL A   1      48.456  29.029  26.947  1.00  0.00     0.031 C 
ATOM     72  C   UNL A   1      47.733  26.679  26.638  1.00  0.00     0.037 A 
BRANCH  59  73
ATOM     73  C   UNL A   1      42.846  22.927  27.084  1.00  0.00     0.057 A 
ATOM     74  C   UNL A   1      42.522  22.445  25.809  1.00  0.00     0.134 A 
ATOM     75  C   UNL A   1      42.593  22.085  28.174  1.00  0.00     0.134 A 
ATOM     76  F   UNL A   1      42.732  23.201  24.720  1.00  0.00    -0.206 F 
ATOM     77  C   UNL A   1      41.963  21.179  25.626  1.00  0.00     0.040 A 
ATOM     78  C   UNL A   1      42.055  20.807  28.001  1.00  0.00     0.040 A 
ATOM     79  F   UNL A   1      42.894  22.477  29.421  1.00  0.00    -0.206 F 
ATOM     80  C   UNL A   1      41.732  20.353  26.724  1.00  0.00     0.006 A 
ENDBRANCH  59  73
BRANCH  60  81
ATOM     81  C   UNL A   1      46.129  32.279  28.248  1.00  0.00     0.057 A 
ATOM     82  C   UNL A   1      46.028  33.219  27.215  1.00  0.00     0.134 A 
ATOM     83  C   UNL A   1      46.690  32.710  29.457  1.00  0.00     0.134 A 
ATOM     84  F   UNL A   1      45.503  32.869  26.030  1.00  0.00    -0.206 F 
ATOM     85  C   UNL A   1      46.474  34.531  27.370  1.00  0.00     0.040 A 
ATOM     86  C   UNL A   1      47.110  34.029  29.638  1.00  0.00     0.040 A 
ATOM     87  F   UNL A   1      46.794  31.865  30.493  1.00  0.00    -0.206 F 
ATOM     88  C   UNL A   1      47.007  34.943  28.590  1.00  0.00     0.006 A 
ENDBRANCH  60  81
BRANCH  72  89
ATOM     89  C   UNL A   1      49.133  26.366  26.204  1.00  0.00     0.057 A 
ATOM     90  C   UNL A   1      49.542  26.604  24.886  1.00  0.00     0.134 A 
ATOM     91  C   UNL A   1      50.078  25.833  27.091  1.00  0.00     0.134 A 
ATOM     92  F   UNL A   1      48.684  27.109  23.987  1.00  0.00    -0.206 F 
ATOM     93  C   UNL A   1      50.844  26.329  24.466  1.00  0.00     0.040 A 
ATOM     94  C   UNL A   1      51.390  25.578  26.690  1.00  0.00     0.040 A 
ATOM     95  F   UNL A   1      49.753  25.599  28.371  1.00  0.00    -0.206 F 
ATOM     96  C   UNL A   1      51.774  25.823  25.373  1.00  0.00     0.006 A 
ENDBRANCH  72  89
ENDBRANCH  46  47
ENDBRANCH  38  41
ENDBRANCH  36  37
ENDBRANCH   1  36
TORSDOF 11
ENDMDL
MODEL 2
REMARK VINA RESULT:     -14.8      4.583      8.239
REMARK SMILES C[C@]1(C(=O)NCCCNC(=O)c2ccc(-c3c4nc(c(-c5c(F)cccc5F)c5ccc([nH]5)c(-c5c(F)cccc5F)c5nc(c(-c6c(F)cccc6F)c6ccc3[nH]6)C=C5)C=C4)cc2)[NH2+]C2(C(=O)c3ccccc3C2=O)[C@@H]2C(=O)N(c3ccccc3)C(=O)[C@H]21
REMARK SMILES IDX 7 1 6 2 5 3 3 4 4 5 2 7 1 8 66 9 90 10 67 11 78 14 88 15
REMARK SMILES IDX 68 16 76 17 79 18 81 19 89 20 69 21 70 22 75 23 77 24 80 25
REMARK SMILES IDX 71 26 74 27 72 28 73 29 82 30 83 31 87 32 84 33 86 34 85 35
REMARK SMILES IDX 8 36 9 37 10 38 11 40 12 41 13 42 65 43 14 44 64 45 15 46
REMARK SMILES IDX 16 47 17 48 58 49 18 50 63 51 57 52 59 53 19 54 62 55 56 56
REMARK SMILES IDX 55 57 20 59 46 60 29 61 45 62 30 63 33 64 44 65 60 66 31 67
REMARK SMILES IDX 32 68 43 70 61 71 34 72 21 73 22 74 27 75 23 76 24 77 26 78
REMARK SMILES IDX 28 79 25 80 47 81 48 82 53 83 49 84 50 85 52 86 54 87 51 88
REMARK SMILES IDX 35 89 36 90 41 91 37 92 38 93 40 94 42 95 39 96
REMARK H PARENT 5 6 66 12 66 13 9 39 59 58 33 69
REMARK Flexibility Score: inf
ROOT
ATOM      1  C   UNL A   1      33.653  32.070  27.657  1.00  0.00     0.042 C 
ENDROOT
BRANCH   1   2
ATOM      2  C   UNL A   1      33.782  30.613  27.265  1.00  0.00     0.118 C 
BRANCH   2   3
ATOM      3  N   UNL A   1      32.860  29.667  27.818  1.00  0.00    -0.351 N 
ATOM      4  C   UNL A   1      32.535  28.414  27.379  1.00  0.00     0.281 C 
ATOM      5  O   UNL A   1      31.649  27.863  28.049  1.00  0.00    -0.268 OA
ATOM      6  H   UNL A   1      32.392  29.962  28.631  1.00  0.00     0.163 HD
BRANCH   4   7
ATOM      7  C   UNL A   1      33.178  27.665  26.125  1.00  0.00     0.186 C 
ATOM      8  C   UNL A   1      34.620  28.230  26.004  1.00  0.00     0.091 C 
ATOM      9  N   UNL A   1      33.281  26.164  26.316  1.00  0.00    -0.314 N 
ATOM     10  C   UNL A   1      32.531  27.764  24.769  1.00  0.00     0.170 C 
ATOM     11  C   UNL A   1      32.474  25.458  25.233  1.00  0.00     0.236 C 
ATOM     12  H   UNL A   1      32.914  25.912  27.234  1.00  0.00     0.348 HD
ATOM     13  H   UNL A   1      34.258  25.878  26.251  1.00  0.00     0.348 HD
ATOM     14  C   UNL A   1      31.634  26.549  24.646  1.00  0.00     0.177 C 
ATOM     15  C   UNL A   1      31.606  28.834  24.319  1.00  0.00     0.244 C 
ATOM     16  C   UNL A   1      33.336  24.678  24.245  1.00  0.00     0.232 C 
ATOM     17  C   UNL A   1      31.672  24.335  25.923  1.00  0.00     0.232 C 
ATOM     18  C   UNL A   1      31.023  26.826  23.315  1.00  0.00     0.245 C 
ATOM     19  N   UNL A   1      30.834  28.214  23.334  1.00  0.00    -0.250 N 
ATOM     20  O   UNL A   1      31.575  29.970  24.748  1.00  0.00    -0.273 OA
ATOM     21  O   UNL A   1      34.184  25.138  23.502  1.00  0.00    -0.286 OA
ATOM     22  C   UNL A   1      33.016  23.244  24.371  1.00  0.00     0.036 A 
ATOM     23  C   UNL A   1      32.079  23.057  25.374  1.00  0.00     0.036 A 
ATOM     24  O   UNL A   1      30.826  24.401  26.796  1.00  0.00    -0.286 OA
ATOM     25  O   UNL A   1      30.614  25.976  22.543  1.00  0.00    -0.273 OA
ATOM     26  C   UNL A   1      33.516  22.161  23.674  1.00  0.00     0.013 A 
ATOM     27  C   UNL A   1      31.621  21.808  25.758  1.00  0.00     0.013 A 
ATOM     28  C   UNL A   1      33.051  20.884  24.028  1.00  0.00     0.001 A 
ATOM     29  C   UNL A   1      32.120  20.708  25.070  1.00  0.00     0.001 A 
BRANCH  19  30
ATOM     30  C   UNL A   1      29.766  28.903  22.728  1.00  0.00     0.052 A 
ATOM     31  C   UNL A   1      30.028  29.939  21.823  1.00  0.00     0.027 A 
ATOM     32  C   UNL A   1      28.456  28.693  23.175  1.00  0.00     0.027 A 
ATOM     33  C   UNL A   1      28.991  30.751  21.362  1.00  0.00     0.002 A 
ATOM     34  C   UNL A   1      27.430  29.543  22.754  1.00  0.00     0.002 A 
ATOM     35  C   UNL A   1      27.697  30.565  21.842  1.00  0.00     0.000 A 
ENDBRANCH  19  30
ENDBRANCH   4   7
ENDBRANCH   2   3
ENDBRANCH   1   2
BRANCH   1  36
ATOM     36  C   UNL A   1      32.329  32.689  27.271  1.00  0.00     0.118 C 
BRANCH  36  37
ATOM     37  N   UNL A   1      32.205  34.096  27.659  1.00  0.00    -0.352 N 
ATOM     38  C   UNL A   1      32.920  34.919  28.504  1.00  0.00     0.251 C 
ATOM     39  H   UNL A   1      31.450  34.552  27.221  1.00  0.00     0.163 HD
ATOM     40  O   UNL A   1      32.488  36.051  28.716  1.00  0.00    -0.269 OA
BRANCH  38  41
ATOM     41  C   UNL A   1      34.150  34.475  29.212  1.00  0.00     0.039 A 
ATOM     42  C   UNL A   1      35.415  34.642  28.668  1.00  0.00     0.014 A 
ATOM     43  C   UNL A   1      34.047  33.883  30.481  1.00  0.00     0.014 A 
ATOM     44  C   UNL A   1      36.510  33.992  29.222  1.00  0.00     0.010 A 
ATOM     45  C   UNL A   1      35.186  33.372  31.125  1.00  0.00     0.010 A 
ATOM     46  C   UNL A   1      36.423  33.356  30.467  1.00  0.00    -0.014 A 
BRANCH  46  47
ATOM     47  C   UNL A   1      37.635  32.690  31.028  1.00  0.00     0.031 A 
ATOM     48  C   UNL A   1      38.219  33.124  32.351  1.00  0.00     0.074 A 
ATOM     49  C   UNL A   1      38.166  31.624  30.389  1.00  0.00     0.049 A 
ATOM     50  N   UNL A   1      39.269  32.660  32.984  1.00  0.00    -0.248 NA
ATOM     51  C   UNL A   1      37.544  34.227  33.053  1.00  0.00     0.031 C 
ATOM     52  C   UNL A   1      37.697  31.083  29.109  1.00  0.00     0.029 A 
ATOM     53  N   UNL A   1      39.187  30.778  30.743  1.00  0.00    -0.354 N 
ATOM     54  C   UNL A   1      39.397  33.431  34.134  1.00  0.00     0.074 A 
ATOM     55  C   UNL A   1      38.336  34.414  34.100  1.00  0.00     0.031 C 
ATOM     56  C   UNL A   1      38.366  29.956  28.830  1.00  0.00     0.029 A 
ATOM     57  C   UNL A   1      39.382  29.748  29.852  1.00  0.00     0.049 A 
ATOM     58  H   UNL A   1      39.728  30.896  31.557  1.00  0.00     0.167 HD
ATOM     59  C   UNL A   1      40.306  33.324  35.135  1.00  0.00     0.037 A 
ATOM     60  C   UNL A   1      40.295  28.760  29.837  1.00  0.00     0.037 A 
ATOM     61  C   UNL A   1      41.343  32.326  35.188  1.00  0.00     0.049 A 
ATOM     62  C   UNL A   1      41.320  28.698  30.931  1.00  0.00     0.074 A 
ATOM     63  C   UNL A   1      42.309  32.136  36.163  1.00  0.00     0.029 A 
ATOM     64  N   UNL A   1      41.543  31.342  34.232  1.00  0.00    -0.354 N 
ATOM     65  N   UNL A   1      41.438  29.452  31.997  1.00  0.00    -0.248 NA
ATOM     66  C   UNL A   1      42.352  27.661  30.809  1.00  0.00     0.031 C 
ATOM     67  C   UNL A   1      43.117  31.060  35.776  1.00  0.00     0.029 A 
ATOM     68  C   UNL A   1      42.625  30.552  34.585  1.00  0.00     0.049 A 
ATOM     69  H   UNL A   1      40.996  31.222  33.422  1.00  0.00     0.167 HD
ATOM     70  C   UNL A   1      42.549  28.973  32.677  1.00  0.00     0.074 A 
ATOM     71  C   UNL A   1      43.050  27.845  31.919  1.00  0.00     0.031 C 
ATOM     72  C   UNL A   1      43.111  29.433  33.821  1.00  0.00     0.037 A 
BRANCH  59  73
ATOM     73  C   UNL A   1      40.231  34.326  36.252  1.00  0.00     0.057 A 
ATOM     74  C   UNL A   1      39.466  34.062  37.396  1.00  0.00     0.134 A 
ATOM     75  C   UNL A   1      40.879  35.567  36.183  1.00  0.00     0.134 A 
ATOM     76  F   UNL A   1      38.814  32.897  37.525  1.00  0.00    -0.206 F 
ATOM     77  C   UNL A   1      39.345  34.996  38.427  1.00  0.00     0.040 A 
ATOM     78  C   UNL A   1      40.783  36.499  37.219  1.00  0.00     0.040 A 
ATOM     79  F   UNL A   1      41.640  35.879  35.124  1.00  0.00    -0.206 F 
ATOM     80  C   UNL A   1      40.009  36.218  38.342  1.00  0.00     0.006 A 
ENDBRANCH  59  73
BRANCH  60  81
ATOM     81  C   UNL A   1      40.320  27.776  28.724  1.00  0.00     0.057 A 
ATOM     82  C   UNL A   1      39.606  26.573  28.799  1.00  0.00     0.134 A 
ATOM     83  C   UNL A   1      41.028  28.031  27.543  1.00  0.00     0.134 A 
ATOM     84  F   UNL A   1      38.909  26.268  29.904  1.00  0.00    -0.206 F 
ATOM     85  C   UNL A   1      39.602  25.656  27.749  1.00  0.00     0.040 A 
ATOM     86  C   UNL A   1      41.006  27.136  26.470  1.00  0.00     0.040 A 
ATOM     87  F   UNL A   1      41.712  29.176  27.399  1.00  0.00    -0.206 F 
ATOM     88  C   UNL A   1      40.295  25.942  26.575  1.00  0.00     0.006 A 
ENDBRANCH  60  81
BRANCH  72  89
ATOM     89  C   UNL A   1      44.309  28.688  34.329  1.00  0.00     0.057 A 
ATOM     90  C   UNL A   1      44.157  27.582  35.174  1.00  0.00     0.134 A 
ATOM     91  C   UNL A   1      45.613  29.062  33.978  1.00  0.00     0.134 A 
ATOM     92  F   UNL A   1      42.935  27.176  35.552  1.00  0.00    -0.206 F 
ATOM     93  C   UNL A   1      45.259  26.871  35.649  1.00  0.00     0.040 A 
ATOM     94  C   UNL A   1      46.722  28.342  34.424  1.00  0.00     0.040 A 
ATOM     95  F   UNL A   1      45.825  30.101  33.156  1.00  0.00    -0.206 F 
ATOM     96  C   UNL A   1      46.546  27.245  35.265  1.00  0.00     0.006 A 
ENDBRANCH  72  89
ENDBRANCH  46  47
ENDBRANCH  38  41
ENDBRANCH  36  37
ENDBRANCH   1  36
TORSDOF 11
ENDMDL
MODEL 3
REMARK VINA RESULT:     -14.8      5.067     10.597
REMARK SMILES C[C@]1(C(=O)NCCCNC(=O)c2ccc(-c3c4nc(c(-c5c(F)cccc5F)c5ccc([nH]5)c(-c5c(F)cccc5F)c5nc(c(-c6c(F)cccc6F)c6ccc3[nH]6)C=C5)C=C4)cc2)[NH2+]C2(C(=O)c3ccccc3C2=O)[C@@H]2C(=O)N(c3ccccc3)C(=O)[C@H]21
REMARK SMILES IDX 7 1 6 2 5 3 3 4 4 5 2 7 1 8 66 9 90 10 67 11 78 14 88 15
REMARK SMILES IDX 68 16 76 17 79 18 81 19 89 20 69 21 70 22 75 23 77 24 80 25
REMARK SMILES IDX 71 26 74 27 72 28 73 29 82 30 83 31 87 32 84 33 86 34 85 35
REMARK SMILES IDX 8 36 9 37 10 38 11 40 12 41 13 42 65 43 14 44 64 45 15 46
REMARK SMILES IDX 16 47 17 48 58 49 18 50 63 51 57 52 59 53 19 54 62 55 56 56
REMARK SMILES IDX 55 57 20 59 46 60 29 61 45 62 30 63 33 64 44 65 60 66 31 67
REMARK SMILES IDX 32 68 43 70 61 71 34 72 21 73 22 74 27 75 23 76 24 77 26 78
REMARK SMILES IDX 28 79 25 80 47 81 48 82 53 83 49 84 50 85 52 86 54 87 51 88
REMARK SMILES IDX 35 89 36 90 41 91 37 92 38 93 40 94 42 95 39 96
REMARK H PARENT 5 6 66 12 66 13 9 39 59 58 33 69
REMARK Flexibility Score: inf
ROOT
ATOM      1  C   UNL A   1      39.770  21.778  26.434  1.00  0.00     0.042 C 
ENDROOT
BRANCH   1   2
ATOM      2  C   UNL A   1      38.366  21.650  25.881  1.00  0.00     0.118 C 
BRANCH   2   3
ATOM      3  N   UNL A   1      38.073  22.226  24.603  1.00  0.00    -0.351 N 
ATOM      4  C   UNL A   1      36.978  22.939  24.203  1.00  0.00     0.281 C 
ATOM      5  O   UNL A   1      36.995  23.253  23.004  1.00  0.00    -0.268 OA
ATOM      6  H   UNL A   1      38.760  22.089  23.913  1.00  0.00     0.163 HD
BRANCH   4   7
ATOM      7  C   UNL A   1      35.744  23.357  25.126  1.00  0.00     0.186 C 
ATOM      8  C   UNL A   1      36.367  23.731  26.499  1.00  0.00     0.091 C 
ATOM      9  N   UNL A   1      34.997  24.570  24.608  1.00  0.00    -0.314 N 
ATOM     10  C   UNL A   1      34.623  22.383  25.380  1.00  0.00     0.170 C 
ATOM     11  C   UNL A   1      33.548  24.192  24.326  1.00  0.00     0.236 C 
ATOM     12  H   UNL A   1      35.437  24.900  23.749  1.00  0.00     0.348 HD
ATOM     13  H   UNL A   1      35.023  25.311  25.309  1.00  0.00     0.348 HD
ATOM     14  C   UNL A   1      33.560  22.695  24.346  1.00  0.00     0.177 C 
ATOM     15  C   UNL A   1      34.704  20.907  25.254  1.00  0.00     0.244 C 
ATOM     16  C   UNL A   1      32.551  24.861  25.267  1.00  0.00     0.232 C 
ATOM     17  C   UNL A   1      33.174  24.809  22.962  1.00  0.00     0.232 C 
ATOM     18  C   UNL A   1      32.575  21.624  24.674  1.00  0.00     0.245 C 
ATOM     19  N   UNL A   1      33.390  20.525  24.975  1.00  0.00    -0.250 N 
ATOM     20  O   UNL A   1      35.712  20.239  25.377  1.00  0.00    -0.273 OA
ATOM     21  O   UNL A   1      32.492  24.727  26.475  1.00  0.00    -0.286 OA
ATOM     22  C   UNL A   1      31.688  25.758  24.476  1.00  0.00     0.036 A 
ATOM     23  C   UNL A   1      32.086  25.747  23.150  1.00  0.00     0.036 A 
ATOM     24  O   UNL A   1      33.653  24.616  21.859  1.00  0.00    -0.286 OA
ATOM     25  O   UNL A   1      31.374  21.700  24.488  1.00  0.00    -0.273 OA
ATOM     26  C   UNL A   1      30.631  26.552  24.880  1.00  0.00     0.013 A 
ATOM     27  C   UNL A   1      31.494  26.533  22.175  1.00  0.00     0.013 A 
ATOM     28  C   UNL A   1      29.998  27.343  23.907  1.00  0.00     0.001 A 
ATOM     29  C   UNL A   1      30.433  27.342  22.568  1.00  0.00     0.001 A 
BRANCH  19  30
ATOM     30  C   UNL A   1      33.084  19.179  24.696  1.00  0.00     0.052 A 
ATOM     31  C   UNL A   1      32.890  18.275  25.748  1.00  0.00     0.027 A 
ATOM     32  C   UNL A   1      33.172  18.701  23.383  1.00  0.00     0.027 A 
ATOM     33  C   UNL A   1      32.774  16.909  25.490  1.00  0.00     0.002 A 
ATOM     34  C   UNL A   1      33.110  17.327  23.135  1.00  0.00     0.002 A 
ATOM     35  C   UNL A   1      32.904  16.434  24.187  1.00  0.00     0.000 A 
ENDBRANCH  19  30
ENDBRANCH   4   7
ENDBRANCH   2   3
ENDBRANCH   1   2
BRANCH   1  36
ATOM     36  C   UNL A   1      40.103  23.167  26.931  1.00  0.00     0.118 C 
BRANCH  36  37
ATOM     37  N   UNL A   1      40.981  23.916  26.030  1.00  0.00    -0.352 N 
ATOM     38  C   UNL A   1      41.389  25.232  25.972  1.00  0.00     0.251 C 
ATOM     39  H   UNL A   1      41.364  23.360  25.313  1.00  0.00     0.163 HD
ATOM     40  O   UNL A   1      42.055  25.593  25.002  1.00  0.00    -0.269 OA
BRANCH  38  41
ATOM     41  C   UNL A   1      41.007  26.241  26.995  1.00  0.00     0.039 A 
ATOM     42  C   UNL A   1      41.436  27.559  26.926  1.00  0.00     0.014 A 
ATOM     43  C   UNL A   1      40.171  25.871  28.060  1.00  0.00     0.014 A 
ATOM     44  C   UNL A   1      41.285  28.405  28.017  1.00  0.00     0.010 A 
ATOM     45  C   UNL A   1      39.875  26.783  29.087  1.00  0.00     0.010 A 
ATOM     46  C   UNL A   1      40.492  28.042  29.113  1.00  0.00    -0.014 A 
BRANCH  46  47
ATOM     47  C   UNL A   1      40.345  28.996  30.251  1.00  0.00     0.031 A 
ATOM     48  C   UNL A   1      39.261  30.048  30.249  1.00  0.00     0.074 A 
ATOM     49  C   UNL A   1      41.133  28.861  31.340  1.00  0.00     0.049 A 
ATOM     50  N   UNL A   1      38.993  30.960  31.151  1.00  0.00    -0.248 NA
ATOM     51  C   UNL A   1      38.367  30.089  29.081  1.00  0.00     0.031 C 
ATOM     52  C   UNL A   1      42.213  27.880  31.489  1.00  0.00     0.029 A 
ATOM     53  N   UNL A   1      41.126  29.519  32.545  1.00  0.00    -0.354 N 
ATOM     54  C   UNL A   1      37.926  31.697  30.647  1.00  0.00     0.074 A 
ATOM     55  C   UNL A   1      37.614  31.147  29.346  1.00  0.00     0.031 C 
ATOM     56  C   UNL A   1      42.703  27.943  32.734  1.00  0.00     0.029 A 
ATOM     57  C   UNL A   1      42.050  29.035  33.442  1.00  0.00     0.049 A 
ATOM     58  H   UNL A   1      40.519  30.267  32.747  1.00  0.00     0.167 HD
ATOM     59  C   UNL A   1      37.259  32.730  31.218  1.00  0.00     0.037 A 
ATOM     60  C   UNL A   1      42.363  29.440  34.686  1.00  0.00     0.037 A 
ATOM     61  C   UNL A   1      37.546  33.258  32.528  1.00  0.00     0.049 A 
ATOM     62  C   UNL A   1      41.642  30.618  35.272  1.00  0.00     0.074 A 
ATOM     63  C   UNL A   1      36.921  34.300  33.194  1.00  0.00     0.029 A 
ATOM     64  N   UNL A   1      38.532  32.778  33.375  1.00  0.00    -0.354 N 
ATOM     65  N   UNL A   1      40.653  31.316  34.769  1.00  0.00    -0.248 NA
ATOM     66  C   UNL A   1      42.094  31.077  36.591  1.00  0.00     0.031 C 
ATOM     67  C   UNL A   1      37.556  34.475  34.429  1.00  0.00     0.029 A 
ATOM     68  C   UNL A   1      38.544  33.512  34.551  1.00  0.00     0.049 A 
ATOM     69  H   UNL A   1      39.134  32.026  33.173  1.00  0.00     0.167 HD
ATOM     70  C   UNL A   1      40.359  32.288  35.714  1.00  0.00     0.074 A 
ATOM     71  C   UNL A   1      41.252  32.070  36.832  1.00  0.00     0.031 C 
ATOM     72  C   UNL A   1      39.438  33.282  35.656  1.00  0.00     0.037 A 
BRANCH  59  73
ATOM     73  C   UNL A   1      36.158  33.372  30.423  1.00  0.00     0.057 A 
ATOM     74  C   UNL A   1      34.815  33.121  30.733  1.00  0.00     0.134 A 
ATOM     75  C   UNL A   1      36.421  34.204  29.326  1.00  0.00     0.134 A 
ATOM     76  F   UNL A   1      34.491  32.328  31.766  1.00  0.00    -0.206 F 
ATOM     77  C   UNL A   1      33.775  33.670  29.980  1.00  0.00     0.040 A 
ATOM     78  C   UNL A   1      35.388  34.777  28.580  1.00  0.00     0.040 A 
ATOM     79  F   UNL A   1      37.683  34.499  28.983  1.00  0.00    -0.206 F 
ATOM     80  C   UNL A   1      34.061  34.505  28.902  1.00  0.00     0.006 A 
ENDBRANCH  59  73
BRANCH  60  81
ATOM     81  C   UNL A   1      43.444  28.762  35.447  1.00  0.00     0.057 A 
ATOM     82  C   UNL A   1      44.785  29.138  35.299  1.00  0.00     0.134 A 
ATOM     83  C   UNL A   1      43.159  27.746  36.367  1.00  0.00     0.134 A 
ATOM     84  F   UNL A   1      45.126  30.103  34.430  1.00  0.00    -0.206 F 
ATOM     85  C   UNL A   1      45.804  28.524  36.027  1.00  0.00     0.040 A 
ATOM     86  C   UNL A   1      44.165  27.145  37.128  1.00  0.00     0.040 A 
ATOM     87  F   UNL A   1      41.892  27.356  36.574  1.00  0.00    -0.206 F 
ATOM     88  C   UNL A   1      45.494  27.532  36.954  1.00  0.00     0.006 A 
ENDBRANCH  60  81
BRANCH  72  89
ATOM     89  C   UNL A   1      39.339  34.178  36.853  1.00  0.00     0.057 A 
ATOM     90  C   UNL A   1      38.625  33.775  37.989  1.00  0.00     0.134 A 
ATOM     91  C   UNL A   1      39.953  35.437  36.886  1.00  0.00     0.134 A 
ATOM     92  F   UNL A   1      38.009  32.583  38.020  1.00  0.00    -0.206 F 
ATOM     93  C   UNL A   1      38.529  34.591  39.116  1.00  0.00     0.040 A 
ATOM     94  C   UNL A   1      39.887  36.250  38.017  1.00  0.00     0.040 A 
ATOM     95  F   UNL A   1      40.667  35.872  35.837  1.00  0.00    -0.206 F 
ATOM     96  C   UNL A   1      39.170  35.829  39.136  1.00  0.00     0.006 A 
ENDBRANCH  72  89
ENDBRANCH  46  47
ENDBRANCH  38  41
ENDBRANCH  36  37
ENDBRANCH   1  36
TORSDOF 11
ENDMDL
