MODEL 1
REMARK VINA RESULT:     -12.7      0.000      0.000
REMARK SMILES Cc1[nH]cnc1C[NH+]1CCC(Oc2cccc(F)c2)(C(=O)NCCCNC(=O)c2ccc(-c3c4nc(c(-c5c(F)cccc5F)c5ccc([nH]5)c(-c5c(F)cccc5F)c5nc(c(-c6c(F)cccc6F)c6ccc3[nH]6)C=C5)C=C4)cc2)CC1
REMARK SMILES IDX 24 1 23 2 22 3 20 4 21 5 11 7 8 8 9 9 84 10 10 12 83 13 7 14
REMARK SMILES IDX 6 15 1 16 2 17 3 18 4 19 5 21 12 22 13 23 14 24 19 25 15 26
REMARK SMILES IDX 17 27 16 28 18 29 25 30 26 31 27 32 28 34 29 35 30 36 82 37
REMARK SMILES IDX 31 38 81 39 32 40 33 41 34 42 75 43 35 44 80 45 74 46 76 47
REMARK SMILES IDX 36 48 79 49 73 50 72 51 37 53 63 54 46 55 62 56 47 57 50 58
REMARK SMILES IDX 61 59 77 60 48 61 49 62 60 64 78 65 51 66 38 67 39 68 44 69
REMARK SMILES IDX 40 70 41 71 43 72 45 73 42 74 64 75 65 76 70 77 66 78 67 79
REMARK SMILES IDX 69 80 71 81 68 82 52 83 53 84 58 85 54 86 55 87 57 88 59 89
REMARK SMILES IDX 56 90
REMARK H PARENT 22 6 8 11 3 20 26 33 76 52 50 63
REMARK Flexibility Score: inf
ROOT
ATOM      1  C   UNL A   1      37.641  19.680  25.038  1.00  0.00     0.042 C 
ENDROOT
BRANCH   1   2
ATOM      2  C   UNL A   1      36.570  20.736  24.798  1.00  0.00     0.118 C 
BRANCH   2   3
ATOM      3  N   UNL A   1      36.000  21.234  26.038  1.00  0.00    -0.353 N 
ATOM      4  C   UNL A   1      34.700  21.396  26.430  1.00  0.00     0.264 C 
ATOM      5  O   UNL A   1      34.544  21.681  27.622  1.00  0.00    -0.270 OA
ATOM      6  H   UNL A   1      36.665  21.500  26.713  1.00  0.00     0.163 HD
BRANCH   4   7
ATOM      7  C   UNL A   1      33.509  21.229  25.441  1.00  0.00     0.197 C 
ATOM      8  N   UNL A   1      33.126  23.811  24.110  1.00  0.00    -0.330 N 
ATOM      9  C   UNL A   1      34.300  22.998  23.800  1.00  0.00     0.267 C 
ATOM     10  C   UNL A   1      32.715  23.663  25.511  1.00  0.00     0.267 C 
ATOM     11  H   UNL A   1      32.368  23.447  23.533  1.00  0.00     0.348 HD
ATOM     12  C   UNL A   1      33.955  21.523  23.998  1.00  0.00     0.120 C 
ATOM     13  C   UNL A   1      32.372  22.201  25.828  1.00  0.00     0.120 C 
BRANCH   8  14
ATOM     14  C   UNL A   1      33.278  25.227  23.715  1.00  0.00     0.321 C 
BRANCH  14  15
ATOM     15  C   UNL A   1      32.685  25.573  22.378  1.00  0.00     0.115 A 
ATOM     16  C   UNL A   1      30.605  27.088  22.916  1.00  0.00     0.066 C 
ATOM     17  C   UNL A   1      31.571  26.343  22.079  1.00  0.00     0.040 A 
ATOM     18  N   UNL A   1      31.482  26.318  20.708  1.00  0.00    -0.348 N 
ATOM     19  C   UNL A   1      32.523  25.576  20.235  1.00  0.00     0.197 A 
ATOM     20  H   UNL A   1      30.789  26.756  20.165  1.00  0.00     0.167 HD
ATOM     21  N   UNL A   1      33.278  25.134  21.211  1.00  0.00    -0.236 NA
ENDBRANCH  14  15
ENDBRANCH   8  14
BRANCH   7  22
ATOM     22  O   UNL A   1      33.148  19.842  25.683  1.00  0.00    -0.477 OA
BRANCH  22  23
ATOM     23  C   UNL A   1      33.373  18.929  24.700  1.00  0.00     0.123 A 
ATOM     24  C   UNL A   1      34.358  17.950  24.832  1.00  0.00     0.046 A 
ATOM     25  C   UNL A   1      32.481  18.885  23.631  1.00  0.00     0.085 A 
ATOM     26  C   UNL A   1      34.513  16.976  23.844  1.00  0.00     0.007 A 
ATOM     27  C   UNL A   1      32.634  17.903  22.660  1.00  0.00     0.126 A 
ATOM     28  C   UNL A   1      33.650  16.956  22.750  1.00  0.00     0.039 A 
ATOM     29  F   UNL A   1      31.782  17.858  21.628  1.00  0.00    -0.207 F 
ENDBRANCH  22  23
ENDBRANCH   7  22
ENDBRANCH   4   7
ENDBRANCH   2   3
ENDBRANCH   1   2
BRANCH   1  30
ATOM     30  C   UNL A   1      38.928  20.216  25.654  1.00  0.00     0.118 C 
BRANCH  30  31
ATOM     31  N   UNL A   1      39.959  19.197  25.785  1.00  0.00    -0.352 N 
ATOM     32  C   UNL A   1      41.303  19.321  26.031  1.00  0.00     0.251 C 
ATOM     33  H   UNL A   1      39.641  18.271  25.679  1.00  0.00     0.163 HD
ATOM     34  O   UNL A   1      42.032  18.335  25.929  1.00  0.00    -0.269 OA
BRANCH  32  35
ATOM     35  C   UNL A   1      41.893  20.627  26.398  1.00  0.00     0.039 A 
ATOM     36  C   UNL A   1      42.241  21.515  25.374  1.00  0.00     0.014 A 
ATOM     37  C   UNL A   1      42.139  20.971  27.729  1.00  0.00     0.014 A 
ATOM     38  C   UNL A   1      42.772  22.768  25.690  1.00  0.00     0.010 A 
ATOM     39  C   UNL A   1      42.599  22.247  28.045  1.00  0.00     0.010 A 
ATOM     40  C   UNL A   1      42.922  23.159  27.029  1.00  0.00    -0.014 A 
BRANCH  40  41
ATOM     41  C   UNL A   1      43.411  24.514  27.387  1.00  0.00     0.031 A 
ATOM     42  C   UNL A   1      42.448  25.575  27.840  1.00  0.00     0.074 A 
ATOM     43  C   UNL A   1      44.719  24.809  27.246  1.00  0.00     0.049 A 
ATOM     44  N   UNL A   1      42.675  26.835  28.111  1.00  0.00    -0.248 NA
ATOM     45  C   UNL A   1      41.040  25.174  27.987  1.00  0.00     0.031 C 
ATOM     46  C   UNL A   1      45.750  23.878  26.783  1.00  0.00     0.029 A 
ATOM     47  N   UNL A   1      45.403  25.978  27.473  1.00  0.00    -0.354 N 
ATOM     48  C   UNL A   1      41.441  27.379  28.445  1.00  0.00     0.074 A 
ATOM     49  C   UNL A   1      40.462  26.324  28.300  1.00  0.00     0.031 C 
ATOM     50  C   UNL A   1      46.939  24.504  26.787  1.00  0.00     0.029 A 
ATOM     51  C   UNL A   1      46.749  25.888  27.213  1.00  0.00     0.049 A 
ATOM     52  H   UNL A   1      44.969  26.801  27.791  1.00  0.00     0.167 HD
ATOM     53  C   UNL A   1      41.155  28.637  28.855  1.00  0.00     0.037 A 
ATOM     54  C   UNL A   1      47.721  26.815  27.302  1.00  0.00     0.037 A 
ATOM     55  C   UNL A   1      42.134  29.676  29.034  1.00  0.00     0.049 A 
ATOM     56  C   UNL A   1      47.377  28.205  27.757  1.00  0.00     0.074 A 
ATOM     57  C   UNL A   1      41.944  30.965  29.498  1.00  0.00     0.029 A 
ATOM     58  N   UNL A   1      43.487  29.540  28.765  1.00  0.00    -0.354 N 
ATOM     59  N   UNL A   1      46.211  28.694  28.100  1.00  0.00    -0.248 NA
ATOM     60  C   UNL A   1      48.482  29.172  27.836  1.00  0.00     0.031 C 
ATOM     61  C   UNL A   1      43.177  31.623  29.476  1.00  0.00     0.029 A 
ATOM     62  C   UNL A   1      44.142  30.730  29.037  1.00  0.00     0.049 A 
ATOM     63  H   UNL A   1      43.919  28.722  28.430  1.00  0.00     0.167 HD
ATOM     64  C   UNL A   1      46.442  30.015  28.456  1.00  0.00     0.074 A 
ATOM     65  C   UNL A   1      47.862  30.251  28.294  1.00  0.00     0.031 C 
ATOM     66  C   UNL A   1      45.556  30.949  28.877  1.00  0.00     0.037 A 
BRANCH  53  67
ATOM     67  C   UNL A   1      39.722  28.961  29.156  1.00  0.00     0.057 A 
ATOM     68  C   UNL A   1      39.219  28.842  30.457  1.00  0.00     0.134 A 
ATOM     69  C   UNL A   1      38.825  29.331  28.146  1.00  0.00     0.134 A 
ATOM     70  F   UNL A   1      40.025  28.485  31.469  1.00  0.00    -0.206 F 
ATOM     71  C   UNL A   1      37.872  29.071  30.742  1.00  0.00     0.040 A 
ATOM     72  C   UNL A   1      37.481  29.586  28.422  1.00  0.00     0.040 A 
ATOM     73  F   UNL A   1      39.248  29.473  26.881  1.00  0.00    -0.206 F 
ATOM     74  C   UNL A   1      36.999  29.447  29.722  1.00  0.00     0.006 A 
ENDBRANCH  53  67
BRANCH  54  75
ATOM     75  C   UNL A   1      49.121  26.443  26.982  1.00  0.00     0.057 A 
ATOM     76  C   UNL A   1      49.625  26.537  25.680  1.00  0.00     0.134 A 
ATOM     77  C   UNL A   1      49.978  25.956  27.975  1.00  0.00     0.134 A 
ATOM     78  F   UNL A   1      48.849  26.990  24.683  1.00  0.00    -0.206 F 
ATOM     79  C   UNL A   1      50.930  26.148  25.373  1.00  0.00     0.040 A 
ATOM     80  C   UNL A   1      51.291  25.582  27.686  1.00  0.00     0.040 A 
ATOM     81  F   UNL A   1      49.555  25.861  29.244  1.00  0.00    -0.206 F 
ATOM     82  C   UNL A   1      51.768  25.671  26.380  1.00  0.00     0.006 A 
ENDBRANCH  54  75
BRANCH  66  83
ATOM     83  C   UNL A   1      46.088  32.309  29.214  1.00  0.00     0.057 A 
ATOM     84  C   UNL A   1      46.498  32.611  30.519  1.00  0.00     0.134 A 
ATOM     85  C   UNL A   1      46.123  33.339  28.268  1.00  0.00     0.134 A 
ATOM     86  F   UNL A   1      46.479  31.669  31.475  1.00  0.00    -0.206 F 
ATOM     87  C   UNL A   1      46.910  33.896  30.875  1.00  0.00     0.040 A 
ATOM     88  C   UNL A   1      46.552  34.623  28.606  1.00  0.00     0.040 A 
ATOM     89  F   UNL A   1      45.753  33.109  26.998  1.00  0.00    -0.206 F 
ATOM     90  C   UNL A   1      46.938  34.906  29.915  1.00  0.00     0.006 A 
ENDBRANCH  66  83
ENDBRANCH  40  41
ENDBRANCH  32  35
ENDBRANCH  30  31
ENDBRANCH   1  30
TORSDOF 14
ENDMDL
MODEL 2
REMARK VINA RESULT:     -12.5      1.398      6.209
REMARK SMILES Cc1[nH]cnc1C[NH+]1CCC(Oc2cccc(F)c2)(C(=O)NCCCNC(=O)c2ccc(-c3c4nc(c(-c5c(F)cccc5F)c5ccc([nH]5)c(-c5c(F)cccc5F)c5nc(c(-c6c(F)cccc6F)c6ccc3[nH]6)C=C5)C=C4)cc2)CC1
REMARK SMILES IDX 24 1 23 2 22 3 20 4 21 5 11 7 8 8 9 9 84 10 10 12 83 13 7 14
REMARK SMILES IDX 6 15 1 16 2 17 3 18 4 19 5 21 12 22 13 23 14 24 19 25 15 26
REMARK SMILES IDX 17 27 16 28 18 29 25 30 26 31 27 32 28 34 29 35 30 36 82 37
REMARK SMILES IDX 31 38 81 39 32 40 33 41 34 42 75 43 35 44 80 45 74 46 76 47
REMARK SMILES IDX 36 48 79 49 73 50 72 51 37 53 63 54 46 55 62 56 47 57 50 58
REMARK SMILES IDX 61 59 77 60 48 61 49 62 60 64 78 65 51 66 38 67 39 68 44 69
REMARK SMILES IDX 40 70 41 71 43 72 45 73 42 74 64 75 65 76 70 77 66 78 67 79
REMARK SMILES IDX 69 80 71 81 68 82 52 83 53 84 58 85 54 86 55 87 57 88 59 89
REMARK SMILES IDX 56 90
REMARK H PARENT 22 6 8 11 3 20 26 33 76 52 50 63
REMARK Flexibility Score: inf
ROOT
ATOM      1  C   UNL A   1      37.697  19.556  25.009  1.00  0.00     0.042 C 
ENDROOT
BRANCH   1   2
ATOM      2  C   UNL A   1      36.543  20.518  24.760  1.00  0.00     0.118 C 
BRANCH   2   3
ATOM      3  N   UNL A   1      36.039  21.105  25.990  1.00  0.00    -0.353 N 
ATOM      4  C   UNL A   1      34.763  21.350  26.414  1.00  0.00     0.264 C 
ATOM      5  O   UNL A   1      34.661  21.702  27.594  1.00  0.00    -0.270 OA
ATOM      6  H   UNL A   1      36.739  21.372  26.628  1.00  0.00     0.163 HD
BRANCH   4   7
ATOM      7  C   UNL A   1      33.532  21.191  25.473  1.00  0.00     0.197 C 
ATOM      8  N   UNL A   1      33.130  23.769  24.139  1.00  0.00    -0.330 N 
ATOM      9  C   UNL A   1      34.280  22.939  23.790  1.00  0.00     0.267 C 
ATOM     10  C   UNL A   1      32.771  23.636  25.556  1.00  0.00     0.267 C 
ATOM     11  H   UNL A   1      32.345  23.410  23.595  1.00  0.00     0.348 HD
ATOM     12  C   UNL A   1      33.925  21.470  24.012  1.00  0.00     0.120 C 
ATOM     13  C   UNL A   1      32.423  22.180  25.896  1.00  0.00     0.120 C 
BRANCH   8  14
ATOM     14  C   UNL A   1      33.284  25.181  23.728  1.00  0.00     0.321 C 
BRANCH  14  15
ATOM     15  C   UNL A   1      32.733  25.502  22.367  1.00  0.00     0.115 A 
ATOM     16  C   UNL A   1      30.610  26.987  22.814  1.00  0.00     0.066 C 
ATOM     17  C   UNL A   1      31.618  26.250  22.021  1.00  0.00     0.040 A 
ATOM     18  N   UNL A   1      31.578  26.208  20.648  1.00  0.00    -0.348 N 
ATOM     19  C   UNL A   1      32.648  25.479  20.220  1.00  0.00     0.197 A 
ATOM     20  H   UNL A   1      30.898  26.629  20.075  1.00  0.00     0.167 HD
ATOM     21  N   UNL A   1      33.374  25.061  21.227  1.00  0.00    -0.236 NA
ENDBRANCH  14  15
ENDBRANCH   8  14
BRANCH   7  22
ATOM     22  O   UNL A   1      33.164  19.811  25.739  1.00  0.00    -0.477 OA
BRANCH  22  23
ATOM     23  C   UNL A   1      33.382  18.880  24.771  1.00  0.00     0.123 A 
ATOM     24  C   UNL A   1      34.302  17.848  24.954  1.00  0.00     0.046 A 
ATOM     25  C   UNL A   1      32.541  18.880  23.662  1.00  0.00     0.085 A 
ATOM     26  C   UNL A   1      34.448  16.860  23.977  1.00  0.00     0.007 A 
ATOM     27  C   UNL A   1      32.683  17.884  22.702  1.00  0.00     0.126 A 
ATOM     28  C   UNL A   1      33.638  16.882  22.844  1.00  0.00     0.039 A 
ATOM     29  F   UNL A   1      31.879  17.881  21.631  1.00  0.00    -0.207 F 
ENDBRANCH  22  23
ENDBRANCH   7  22
ENDBRANCH   4   7
ENDBRANCH   2   3
ENDBRANCH   1   2
BRANCH   1  30
ATOM     30  C   UNL A   1      38.880  20.169  25.749  1.00  0.00     0.118 C 
BRANCH  30  31
ATOM     31  N   UNL A   1      40.023  19.272  25.829  1.00  0.00    -0.352 N 
ATOM     32  C   UNL A   1      41.332  19.529  26.153  1.00  0.00     0.251 C 
ATOM     33  H   UNL A   1      39.826  18.331  25.616  1.00  0.00     0.163 HD
ATOM     34  O   UNL A   1      42.180  18.652  25.989  1.00  0.00    -0.269 OA
BRANCH  32  35
ATOM     35  C   UNL A   1      41.742  20.850  26.677  1.00  0.00     0.039 A 
ATOM     36  C   UNL A   1      42.222  21.807  25.777  1.00  0.00     0.014 A 
ATOM     37  C   UNL A   1      41.693  21.143  28.041  1.00  0.00     0.014 A 
ATOM     38  C   UNL A   1      42.589  23.074  26.236  1.00  0.00     0.010 A 
ATOM     39  C   UNL A   1      41.988  22.429  28.489  1.00  0.00     0.010 A 
ATOM     40  C   UNL A   1      42.440  23.408  27.591  1.00  0.00    -0.014 A 
BRANCH  40  41
ATOM     41  C   UNL A   1      42.750  24.772  28.088  1.00  0.00     0.031 A 
ATOM     42  C   UNL A   1      44.159  25.145  28.455  1.00  0.00     0.074 A 
ATOM     43  C   UNL A   1      41.752  25.660  28.265  1.00  0.00     0.049 A 
ATOM     44  N   UNL A   1      44.609  26.254  28.985  1.00  0.00    -0.248 NA
ATOM     45  C   UNL A   1      45.198  24.130  28.217  1.00  0.00     0.031 C 
ATOM     46  C   UNL A   1      40.338  25.411  27.978  1.00  0.00     0.029 A 
ATOM     47  N   UNL A   1      41.774  26.950  28.735  1.00  0.00    -0.354 N 
ATOM     48  C   UNL A   1      45.974  26.066  29.157  1.00  0.00     0.074 A 
ATOM     49  C   UNL A   1      46.273  24.720  28.717  1.00  0.00     0.031 C 
ATOM     50  C   UNL A   1      39.633  26.521  28.251  1.00  0.00     0.029 A 
ATOM     51  C   UNL A   1      40.536  27.544  28.770  1.00  0.00     0.049 A 
ATOM     52  H   UNL A   1      42.598  27.405  29.020  1.00  0.00     0.167 HD
ATOM     53  C   UNL A   1      46.896  26.941  29.620  1.00  0.00     0.037 A 
ATOM     54  C   UNL A   1      40.166  28.773  29.177  1.00  0.00     0.037 A 
ATOM     55  C   UNL A   1      46.604  28.291  30.024  1.00  0.00     0.049 A 
ATOM     56  C   UNL A   1      41.209  29.726  29.690  1.00  0.00     0.074 A 
ATOM     57  C   UNL A   1      47.483  29.269  30.455  1.00  0.00     0.029 A 
ATOM     58  N   UNL A   1      45.338  28.855  30.038  1.00  0.00    -0.354 N 
ATOM     59  N   UNL A   1      42.500  29.544  29.815  1.00  0.00    -0.248 NA
ATOM     60  C   UNL A   1      40.744  31.054  30.118  1.00  0.00     0.031 C 
ATOM     61  C   UNL A   1      46.745  30.415  30.765  1.00  0.00     0.029 A 
ATOM     62  C   UNL A   1      45.411  30.163  30.487  1.00  0.00     0.049 A 
ATOM     63  H   UNL A   1      44.510  28.395  29.770  1.00  0.00     0.167 HD
ATOM     64  C   UNL A   1      43.006  30.736  30.315  1.00  0.00     0.074 A 
ATOM     65  C   UNL A   1      41.883  31.639  30.463  1.00  0.00     0.031 C 
ATOM     66  C   UNL A   1      44.286  31.052  30.624  1.00  0.00     0.037 A 
BRANCH  53  67
ATOM     67  C   UNL A   1      48.319  26.475  29.702  1.00  0.00     0.057 A 
ATOM     68  C   UNL A   1      48.828  25.932  30.888  1.00  0.00     0.134 A 
ATOM     69  C   UNL A   1      49.203  26.622  28.625  1.00  0.00     0.134 A 
ATOM     70  F   UNL A   1      48.035  25.770  31.958  1.00  0.00    -0.206 F 
ATOM     71  C   UNL A   1      50.168  25.558  31.004  1.00  0.00     0.040 A 
ATOM     72  C   UNL A   1      50.539  26.231  28.720  1.00  0.00     0.040 A 
ATOM     73  F   UNL A   1      48.774  27.125  27.459  1.00  0.00    -0.206 F 
ATOM     74  C   UNL A   1      51.027  25.706  29.916  1.00  0.00     0.006 A 
ENDBRANCH  53  67
BRANCH  54  75
ATOM     75  C   UNL A   1      38.743  29.180  29.084  1.00  0.00     0.057 A 
ATOM     76  C   UNL A   1      37.885  29.104  30.187  1.00  0.00     0.134 A 
ATOM     77  C   UNL A   1      38.203  29.629  27.874  1.00  0.00     0.134 A 
ATOM     78  F   UNL A   1      38.342  28.674  31.373  1.00  0.00    -0.206 F 
ATOM     79  C   UNL A   1      36.536  29.448  30.087  1.00  0.00     0.040 A 
ATOM     80  C   UNL A   1      36.861  29.996  27.764  1.00  0.00     0.040 A 
ATOM     81  F   UNL A   1      38.983  29.739  26.788  1.00  0.00    -0.206 F 
ATOM     82  C   UNL A   1      36.022  29.898  28.872  1.00  0.00     0.006 A 
ENDBRANCH  54  75
BRANCH  66  83
ATOM     83  C   UNL A   1      44.556  32.434  31.137  1.00  0.00     0.057 A 
ATOM     84  C   UNL A   1      44.853  33.477  30.250  1.00  0.00     0.134 A 
ATOM     85  C   UNL A   1      44.596  32.715  32.507  1.00  0.00     0.134 A 
ATOM     86  F   UNL A   1      44.841  33.270  28.924  1.00  0.00    -0.206 F 
ATOM     87  C   UNL A   1      45.197  34.749  30.710  1.00  0.00     0.040 A 
ATOM     88  C   UNL A   1      44.917  33.988  32.979  1.00  0.00     0.040 A 
ATOM     89  F   UNL A   1      44.309  31.760  33.405  1.00  0.00    -0.206 F 
ATOM     90  C   UNL A   1      45.229  35.007  32.080  1.00  0.00     0.006 A 
ENDBRANCH  66  83
ENDBRANCH  40  41
ENDBRANCH  32  35
ENDBRANCH  30  31
ENDBRANCH   1  30
TORSDOF 14
ENDMDL
MODEL 3
REMARK VINA RESULT:     -12.5      2.367      4.462
REMARK SMILES Cc1[nH]cnc1C[NH+]1CCC(Oc2cccc(F)c2)(C(=O)NCCCNC(=O)c2ccc(-c3c4nc(c(-c5c(F)cccc5F)c5ccc([nH]5)c(-c5c(F)cccc5F)c5nc(c(-c6c(F)cccc6F)c6ccc3[nH]6)C=C5)C=C4)cc2)CC1
REMARK SMILES IDX 24 1 23 2 22 3 20 4 21 5 11 7 8 8 9 9 84 10 10 12 83 13 7 14
REMARK SMILES IDX 6 15 1 16 2 17 3 18 4 19 5 21 12 22 13 23 14 24 19 25 15 26
REMARK SMILES IDX 17 27 16 28 18 29 25 30 26 31 27 32 28 34 29 35 30 36 82 37
REMARK SMILES IDX 31 38 81 39 32 40 33 41 34 42 75 43 35 44 80 45 74 46 76 47
REMARK SMILES IDX 36 48 79 49 73 50 72 51 37 53 63 54 46 55 62 56 47 57 50 58
REMARK SMILES IDX 61 59 77 60 48 61 49 62 60 64 78 65 51 66 38 67 39 68 44 69
REMARK SMILES IDX 40 70 41 71 43 72 45 73 42 74 64 75 65 76 70 77 66 78 67 79
REMARK SMILES IDX 69 80 71 81 68 82 52 83 53 84 58 85 54 86 55 87 57 88 59 89
REMARK SMILES IDX 56 90
REMARK H PARENT 22 6 8 11 3 20 26 33 76 52 50 63
REMARK Flexibility Score: inf
ROOT
ATOM      1  C   UNL A   1      38.124  20.917  24.752  1.00  0.00     0.042 C 
ENDROOT
BRANCH   1   2
ATOM      2  C   UNL A   1      37.425  22.261  24.917  1.00  0.00     0.118 C 
BRANCH   2   3
ATOM      3  N   UNL A   1      36.646  22.623  23.746  1.00  0.00    -0.353 N 
ATOM      4  C   UNL A   1      35.323  22.937  23.607  1.00  0.00     0.264 C 
ATOM      5  O   UNL A   1      35.001  23.373  22.496  1.00  0.00    -0.270 OA
ATOM      6  H   UNL A   1      37.161  22.647  22.907  1.00  0.00     0.163 HD
BRANCH   4   7
ATOM      7  C   UNL A   1      34.301  22.757  24.769  1.00  0.00     0.197 C 
ATOM      8  N   UNL A   1      32.799  20.302  24.223  1.00  0.00    -0.330 N 
ATOM      9  C   UNL A   1      34.202  20.224  24.621  1.00  0.00     0.267 C 
ATOM     10  C   UNL A   1      32.526  21.499  23.419  1.00  0.00     0.267 C 
ATOM     11  H   UNL A   1      32.263  20.390  25.086  1.00  0.00     0.348 HD
ATOM     12  C   UNL A   1      34.541  21.426  25.502  1.00  0.00     0.120 C 
ATOM     13  C   UNL A   1      32.864  22.773  24.205  1.00  0.00     0.120 C 
BRANCH   8  14
ATOM     14  C   UNL A   1      32.308  19.066  23.577  1.00  0.00     0.321 C 
BRANCH  14  15
ATOM     15  C   UNL A   1      32.670  17.796  24.295  1.00  0.00     0.115 A 
ATOM     16  C   UNL A   1      34.415  16.596  22.737  1.00  0.00     0.066 C 
ATOM     17  C   UNL A   1      33.544  16.788  23.917  1.00  0.00     0.040 A 
ATOM     18  N   UNL A   1      33.482  15.868  24.936  1.00  0.00    -0.348 N 
ATOM     19  C   UNL A   1      32.618  16.343  25.877  1.00  0.00     0.197 A 
ATOM     20  H   UNL A   1      33.974  15.016  24.978  1.00  0.00     0.167 HD
ATOM     21  N   UNL A   1      32.131  17.510  25.533  1.00  0.00    -0.236 NA
ENDBRANCH  14  15
ENDBRANCH   8  14
BRANCH   7  22
ATOM     22  O   UNL A   1      34.589  23.938  25.567  1.00  0.00    -0.477 OA
BRANCH  22  23
ATOM     23  C   UNL A   1      33.705  24.971  25.542  1.00  0.00     0.123 A 
ATOM     24  C   UNL A   1      32.577  24.979  26.363  1.00  0.00     0.046 A 
ATOM     25  C   UNL A   1      34.041  26.103  24.804  1.00  0.00     0.085 A 
ATOM     26  C   UNL A   1      31.729  26.089  26.377  1.00  0.00     0.007 A 
ATOM     27  C   UNL A   1      33.200  27.208  24.835  1.00  0.00     0.126 A 
ATOM     28  C   UNL A   1      32.041  27.206  25.604  1.00  0.00     0.039 A 
ATOM     29  F   UNL A   1      33.516  28.298  24.124  1.00  0.00    -0.207 F 
ENDBRANCH  22  23
ENDBRANCH   7  22
ENDBRANCH   4   7
ENDBRANCH   2   3
ENDBRANCH   1   2
BRANCH   1  30
ATOM     30  C   UNL A   1      38.616  20.299  26.055  1.00  0.00     0.118 C 
BRANCH  30  31
ATOM     31  N   UNL A   1      39.766  19.425  25.868  1.00  0.00    -0.352 N 
ATOM     32  C   UNL A   1      41.107  19.682  26.005  1.00  0.00     0.251 C 
ATOM     33  H   UNL A   1      39.545  18.504  25.599  1.00  0.00     0.163 HD
ATOM     34  O   UNL A   1      41.925  18.845  25.627  1.00  0.00    -0.269 OA
BRANCH  32  35
ATOM     35  C   UNL A   1      41.583  20.959  26.582  1.00  0.00     0.039 A 
ATOM     36  C   UNL A   1      41.951  21.990  25.712  1.00  0.00     0.014 A 
ATOM     37  C   UNL A   1      41.704  21.137  27.962  1.00  0.00     0.014 A 
ATOM     38  C   UNL A   1      42.377  23.217  26.226  1.00  0.00     0.010 A 
ATOM     39  C   UNL A   1      42.057  22.384  28.474  1.00  0.00     0.010 A 
ATOM     40  C   UNL A   1      42.398  23.436  27.612  1.00  0.00    -0.014 A 
BRANCH  40  41
ATOM     41  C   UNL A   1      42.773  24.757  28.178  1.00  0.00     0.031 A 
ATOM     42  C   UNL A   1      41.728  25.817  28.389  1.00  0.00     0.074 A 
ATOM     43  C   UNL A   1      44.066  25.024  28.447  1.00  0.00     0.049 A 
ATOM     44  N   UNL A   1      41.876  27.054  28.789  1.00  0.00    -0.248 NA
ATOM     45  C   UNL A   1      40.336  25.445  28.090  1.00  0.00     0.031 C 
ATOM     46  C   UNL A   1      45.179  24.093  28.256  1.00  0.00     0.029 A 
ATOM     47  N   UNL A   1      44.662  26.160  28.935  1.00  0.00    -0.354 N 
ATOM     48  C   UNL A   1      40.604  27.611  28.775  1.00  0.00     0.074 A 
ATOM     49  C   UNL A   1      39.702  26.592  28.285  1.00  0.00     0.031 C 
ATOM     50  C   UNL A   1      46.319  24.686  28.647  1.00  0.00     0.029 A 
ATOM     51  C   UNL A   1      46.024  26.049  29.079  1.00  0.00     0.049 A 
ATOM     52  H   UNL A   1      44.162  26.977  29.159  1.00  0.00     0.167 HD
ATOM     53  C   UNL A   1      40.221  28.853  29.156  1.00  0.00     0.037 A 
ATOM     54  C   UNL A   1      46.935  26.944  29.506  1.00  0.00     0.037 A 
ATOM     55  C   UNL A   1      41.113  29.854  29.677  1.00  0.00     0.049 A 
ATOM     56  C   UNL A   1      46.485  28.316  29.920  1.00  0.00     0.074 A 
ATOM     57  C   UNL A   1      40.806  31.121  30.140  1.00  0.00     0.029 A 
ATOM     58  N   UNL A   1      42.483  29.698  29.812  1.00  0.00    -0.354 N 
ATOM     59  N   UNL A   1      45.274  28.816  29.933  1.00  0.00    -0.248 NA
ATOM     60  C   UNL A   1      47.526  29.248  30.379  1.00  0.00     0.031 C 
ATOM     61  C   UNL A   1      41.996  31.747  30.522  1.00  0.00     0.029 A 
ATOM     62  C   UNL A   1      43.039  30.854  30.336  1.00  0.00     0.049 A 
ATOM     63  H   UNL A   1      42.988  28.887  29.572  1.00  0.00     0.167 HD
ATOM     64  C   UNL A   1      45.402  30.111  30.418  1.00  0.00     0.074 A 
ATOM     65  C   UNL A   1      46.808  30.317  30.697  1.00  0.00     0.031 C 
ATOM     66  C   UNL A   1      44.440  31.043  30.614  1.00  0.00     0.037 A 
BRANCH  53  67
ATOM     67  C   UNL A   1      38.767  29.198  29.040  1.00  0.00     0.057 A 
ATOM     68  C   UNL A   1      37.915  29.092  30.145  1.00  0.00     0.134 A 
ATOM     69  C   UNL A   1      38.197  29.576  27.816  1.00  0.00     0.134 A 
ATOM     70  F   UNL A   1      38.396  28.730  31.344  1.00  0.00    -0.206 F 
ATOM     71  C   UNL A   1      36.545  29.341  30.038  1.00  0.00     0.040 A 
ATOM     72  C   UNL A   1      36.834  29.850  27.701  1.00  0.00     0.040 A 
ATOM     73  F   UNL A   1      38.962  29.705  26.723  1.00  0.00    -0.206 F 
ATOM     74  C   UNL A   1      36.002  29.724  28.812  1.00  0.00     0.006 A 
ENDBRANCH  53  67
BRANCH  54  75
ATOM     75  C   UNL A   1      48.363  26.553  29.592  1.00  0.00     0.057 A 
ATOM     76  C   UNL A   1      48.879  25.901  30.717  1.00  0.00     0.134 A 
ATOM     77  C   UNL A   1      49.252  26.852  28.553  1.00  0.00     0.134 A 
ATOM     78  F   UNL A   1      48.078  25.594  31.749  1.00  0.00    -0.206 F 
ATOM     79  C   UNL A   1      50.232  25.571  30.813  1.00  0.00     0.040 A 
ATOM     80  C   UNL A   1      50.603  26.510  28.626  1.00  0.00     0.040 A 
ATOM     81  F   UNL A   1      48.811  27.461  27.442  1.00  0.00    -0.206 F 
ATOM     82  C   UNL A   1      51.097  25.873  29.762  1.00  0.00     0.006 A 
ENDBRANCH  54  75
BRANCH  66  83
ATOM     83  C   UNL A   1      44.860  32.369  31.172  1.00  0.00     0.057 A 
ATOM     84  C   UNL A   1      45.241  33.413  30.320  1.00  0.00     0.134 A 
ATOM     85  C   UNL A   1      44.961  32.586  32.551  1.00  0.00     0.134 A 
ATOM     86  F   UNL A   1      45.176  33.264  28.988  1.00  0.00    -0.206 F 
ATOM     87  C   UNL A   1      45.722  34.624  30.820  1.00  0.00     0.040 A 
ATOM     88  C   UNL A   1      45.421  33.799  33.064  1.00  0.00     0.040 A 
ATOM     89  F   UNL A   1      44.601  31.627  33.418  1.00  0.00    -0.206 F 
ATOM     90  C   UNL A   1      45.813  34.819  32.198  1.00  0.00     0.006 A 
ENDBRANCH  66  83
ENDBRANCH  40  41
ENDBRANCH  32  35
ENDBRANCH  30  31
ENDBRANCH   1  30
TORSDOF 14
ENDMDL
