MODEL 1
REMARK VINA RESULT:     -12.2      0.000      0.000
REMARK SMILES CN(C)C(=O)CCNC(=O)NC[C@H]1CC[C@@H](C(=O)NCCCNC(=O)c2ccc(-c3c4nc(c(-c5c(F)cccc5F)c5ccc([nH]5)c(-c5c(F)cccc5F)c5nc(c(-c6c(F)cccc6F)c6ccc3[nH]6)C=C5)C=C4)cc2)CC1
REMARK SMILES IDX 17 1 18 2 19 3 16 5 13 6 14 7 81 8 15 9 80 10 12 11 11 12
REMARK SMILES IDX 8 13 9 14 10 16 7 18 6 19 4 20 1 21 2 22 3 23 5 24 20 25
REMARK SMILES IDX 21 26 22 27 23 28 24 29 25 31 26 32 27 33 79 34 28 35 78 36
REMARK SMILES IDX 29 37 30 38 31 39 72 40 32 41 77 42 71 43 73 44 33 45 76 46
REMARK SMILES IDX 70 47 69 48 34 50 60 51 43 52 59 53 44 54 47 55 58 56 74 57
REMARK SMILES IDX 45 58 46 59 57 61 75 62 48 63 35 64 36 65 41 66 37 67 38 68
REMARK SMILES IDX 40 69 42 70 39 71 61 72 62 73 67 74 63 75 64 76 66 77 68 78
REMARK SMILES IDX 65 79 49 80 50 81 55 82 51 83 52 84 54 85 56 86 53 87
REMARK H PARENT 19 4 8 15 11 17 23 30 73 49 47 60
REMARK Flexibility Score: inf
ROOT
ATOM      1  C   UNL A   1      37.602  21.301  25.082  1.00  0.00     0.223 C 
ATOM      2  O   UNL A   1      36.773  20.420  24.822  1.00  0.00    -0.275 OA
ATOM      3  N   UNL A   1      38.705  20.890  25.752  1.00  0.00    -0.356 N 
ATOM      4  H   UNL A   1      38.739  19.921  25.921  1.00  0.00     0.163 HD
ENDROOT
BRANCH   1   5
ATOM      5  C   UNL A   1      37.343  22.745  24.625  1.00  0.00     0.078 C 
ATOM      6  C   UNL A   1      34.671  24.153  24.422  1.00  0.00     0.008 C 
ATOM      7  C   UNL A   1      35.361  23.957  25.782  1.00  0.00     0.006 C 
ATOM      8  C   UNL A   1      35.152  23.209  23.307  1.00  0.00     0.006 C 
ATOM      9  C   UNL A   1      36.862  23.704  25.712  1.00  0.00     0.014 C 
ATOM     10  C   UNL A   1      36.652  22.932  23.277  1.00  0.00     0.014 C 
BRANCH   6  11
ATOM     11  C   UNL A   1      33.121  24.202  24.588  1.00  0.00     0.121 C 
BRANCH  11  12
ATOM     12  N   UNL A   1      32.594  23.730  25.860  1.00  0.00    -0.338 N 
ATOM     13  N   UNL A   1      32.424  21.366  25.904  1.00  0.00    -0.338 N 
ATOM     14  C   UNL A   1      32.303  22.572  26.451  1.00  0.00     0.314 C 
ATOM     15  H   UNL A   1      31.987  20.672  26.451  1.00  0.00     0.165 HD
ATOM     16  O   UNL A   1      31.841  22.626  27.595  1.00  0.00    -0.249 OA
ATOM     17  H   UNL A   1      32.393  24.487  26.457  1.00  0.00     0.165 HD
BRANCH  13  18
ATOM     18  C   UNL A   1      33.031  20.808  24.713  1.00  0.00     0.127 C 
BRANCH  18  19
ATOM     19  C   UNL A   1      32.328  19.526  24.275  1.00  0.00     0.121 C 
BRANCH  19  20
ATOM     20  C   UNL A   1      32.780  18.359  25.136  1.00  0.00     0.223 C 
ATOM     21  C   UNL A   1      34.020  16.261  25.376  1.00  0.00     0.146 C 
ATOM     22  N   UNL A   1      33.483  17.325  24.538  1.00  0.00    -0.349 N 
ATOM     23  C   UNL A   1      33.660  17.179  23.103  1.00  0.00     0.146 C 
ATOM     24  O   UNL A   1      32.530  18.384  26.344  1.00  0.00    -0.275 OA
ENDBRANCH  19  20
ENDBRANCH  18  19
ENDBRANCH  13  18
ENDBRANCH  11  12
ENDBRANCH   6  11
ENDBRANCH   1   5
BRANCH   3  25
ATOM     25  C   UNL A   1      39.838  21.619  26.259  1.00  0.00     0.117 C 
BRANCH  25  26
ATOM     26  C   UNL A   1      41.135  20.841  26.124  1.00  0.00     0.042 C 
BRANCH  26  27
ATOM     27  C   UNL A   1      42.357  21.542  26.688  1.00  0.00     0.118 C 
BRANCH  27  28
ATOM     28  N   UNL A   1      43.152  22.242  25.689  1.00  0.00    -0.352 N 
ATOM     29  C   UNL A   1      43.353  23.575  25.451  1.00  0.00     0.251 C 
ATOM     30  H   UNL A   1      43.633  21.648  25.069  1.00  0.00     0.163 HD
ATOM     31  O   UNL A   1      44.007  23.913  24.470  1.00  0.00    -0.269 OA
BRANCH  29  32
ATOM     32  C   UNL A   1      42.782  24.614  26.325  1.00  0.00     0.039 A 
ATOM     33  C   UNL A   1      43.322  25.904  26.262  1.00  0.00     0.014 A 
ATOM     34  C   UNL A   1      41.796  24.317  27.262  1.00  0.00     0.014 A 
ATOM     35  C   UNL A   1      42.857  26.902  27.113  1.00  0.00     0.010 A 
ATOM     36  C   UNL A   1      41.263  25.328  28.047  1.00  0.00     0.010 A 
ATOM     37  C   UNL A   1      41.825  26.613  28.010  1.00  0.00    -0.014 A 
BRANCH  37  38
ATOM     38  C   UNL A   1      41.456  27.565  29.076  1.00  0.00     0.031 A 
ATOM     39  C   UNL A   1      42.243  27.513  30.354  1.00  0.00     0.074 A 
ATOM     40  C   UNL A   1      40.434  28.420  28.911  1.00  0.00     0.049 A 
ATOM     41  N   UNL A   1      41.988  28.052  31.514  1.00  0.00    -0.248 NA
ATOM     42  C   UNL A   1      43.471  26.698  30.326  1.00  0.00     0.031 C 
ATOM     43  C   UNL A   1      39.642  28.575  27.691  1.00  0.00     0.029 A 
ATOM     44  N   UNL A   1      39.881  29.316  29.787  1.00  0.00    -0.354 N 
ATOM     45  C   UNL A   1      42.987  27.592  32.364  1.00  0.00     0.074 A 
ATOM     46  C   UNL A   1      43.828  26.701  31.600  1.00  0.00     0.031 C 
ATOM     47  C   UNL A   1      38.711  29.523  27.893  1.00  0.00     0.029 A 
ATOM     48  C   UNL A   1      38.801  29.989  29.272  1.00  0.00     0.049 A 
ATOM     49  H   UNL A   1      40.225  29.462  30.698  1.00  0.00     0.167 HD
ATOM     50  C   UNL A   1      43.185  27.901  33.666  1.00  0.00     0.037 A 
ATOM     51  C   UNL A   1      37.967  30.857  29.872  1.00  0.00     0.037 A 
ATOM     52  C   UNL A   1      42.356  28.832  34.383  1.00  0.00     0.049 A 
ATOM     53  C   UNL A   1      38.200  31.180  31.325  1.00  0.00     0.074 A 
ATOM     54  C   UNL A   1      42.450  29.243  35.698  1.00  0.00     0.029 A 
ATOM     55  N   UNL A   1      41.283  29.512  33.821  1.00  0.00    -0.354 N 
ATOM     56  N   UNL A   1      39.121  30.716  32.140  1.00  0.00    -0.248 NA
ATOM     57  C   UNL A   1      37.281  32.141  31.942  1.00  0.00     0.031 C 
ATOM     58  C   UNL A   1      41.410  30.145  35.944  1.00  0.00     0.029 A 
ATOM     59  C   UNL A   1      40.704  30.341  34.765  1.00  0.00     0.049 A 
ATOM     60  H   UNL A   1      40.980  29.418  32.890  1.00  0.00     0.167 HD
ATOM     61  C   UNL A   1      38.915  31.357  33.355  1.00  0.00     0.074 A 
ATOM     62  C   UNL A   1      37.787  32.247  33.163  1.00  0.00     0.031 C 
ATOM     63  C   UNL A   1      39.593  31.227  34.523  1.00  0.00     0.037 A 
BRANCH  50  64
ATOM     64  C   UNL A   1      44.310  27.204  34.377  1.00  0.00     0.057 A 
ATOM     65  C   UNL A   1      44.140  25.970  35.021  1.00  0.00     0.134 A 
ATOM     66  C   UNL A   1      45.580  27.791  34.442  1.00  0.00     0.134 A 
ATOM     67  F   UNL A   1      42.945  25.361  35.019  1.00  0.00    -0.206 F 
ATOM     68  C   UNL A   1      45.176  25.369  35.740  1.00  0.00     0.040 A 
ATOM     69  C   UNL A   1      46.634  27.183  35.129  1.00  0.00     0.040 A 
ATOM     70  F   UNL A   1      45.818  28.971  33.850  1.00  0.00    -0.206 F 
ATOM     71  C   UNL A   1      46.430  25.975  35.790  1.00  0.00     0.006 A 
ENDBRANCH  50  64
BRANCH  51  72
ATOM     72  C   UNL A   1      36.849  31.473  29.112  1.00  0.00     0.057 A 
ATOM     73  C   UNL A   1      36.904  32.810  28.700  1.00  0.00     0.134 A 
ATOM     74  C   UNL A   1      35.700  30.746  28.776  1.00  0.00     0.134 A 
ATOM     75  F   UNL A   1      37.969  33.566  29.003  1.00  0.00    -0.206 F 
ATOM     76  C   UNL A   1      35.851  33.406  28.002  1.00  0.00     0.040 A 
ATOM     77  C   UNL A   1      34.652  31.321  28.054  1.00  0.00     0.040 A 
ATOM     78  F   UNL A   1      35.584  29.458  29.133  1.00  0.00    -0.206 F 
ATOM     79  C   UNL A   1      34.723  32.659  27.671  1.00  0.00     0.006 A 
ENDBRANCH  51  72
BRANCH  63  80
ATOM     80  C   UNL A   1      39.172  32.122  35.652  1.00  0.00     0.057 A 
ATOM     81  C   UNL A   1      38.304  31.692  36.661  1.00  0.00     0.134 A 
ATOM     82  C   UNL A   1      39.678  33.426  35.741  1.00  0.00     0.134 A 
ATOM     83  F   UNL A   1      37.777  30.457  36.626  1.00  0.00    -0.206 F 
ATOM     84  C   UNL A   1      37.926  32.537  37.704  1.00  0.00     0.040 A 
ATOM     85  C   UNL A   1      39.334  34.269  36.795  1.00  0.00     0.040 A 
ATOM     86  F   UNL A   1      40.525  33.893  34.811  1.00  0.00    -0.206 F 
ATOM     87  C   UNL A   1      38.448  33.828  37.776  1.00  0.00     0.006 A 
ENDBRANCH  63  80
ENDBRANCH  37  38
ENDBRANCH  29  32
ENDBRANCH  27  28
ENDBRANCH  26  27
ENDBRANCH  25  26
ENDBRANCH   3  25
TORSDOF 15
ENDMDL
MODEL 2
REMARK VINA RESULT:     -12.1      3.622      8.402
REMARK SMILES CN(C)C(=O)CCNC(=O)NC[C@H]1CC[C@@H](C(=O)NCCCNC(=O)c2ccc(-c3c4nc(c(-c5c(F)cccc5F)c5ccc([nH]5)c(-c5c(F)cccc5F)c5nc(c(-c6c(F)cccc6F)c6ccc3[nH]6)C=C5)C=C4)cc2)CC1
REMARK SMILES IDX 17 1 18 2 19 3 16 5 13 6 14 7 81 8 15 9 80 10 12 11 11 12
REMARK SMILES IDX 8 13 9 14 10 16 7 18 6 19 4 20 1 21 2 22 3 23 5 24 20 25
REMARK SMILES IDX 21 26 22 27 23 28 24 29 25 31 26 32 27 33 79 34 28 35 78 36
REMARK SMILES IDX 29 37 30 38 31 39 72 40 32 41 77 42 71 43 73 44 33 45 76 46
REMARK SMILES IDX 70 47 69 48 34 50 60 51 43 52 59 53 44 54 47 55 58 56 74 57
REMARK SMILES IDX 45 58 46 59 57 61 75 62 48 63 35 64 36 65 41 66 37 67 38 68
REMARK SMILES IDX 40 69 42 70 39 71 61 72 62 73 67 74 63 75 64 76 66 77 68 78
REMARK SMILES IDX 65 79 49 80 50 81 55 82 51 83 52 84 54 85 56 86 53 87
REMARK H PARENT 19 4 8 15 11 17 23 30 73 49 47 60
REMARK Flexibility Score: inf
ROOT
ATOM      1  C   UNL A   1      31.563  24.313  26.595  1.00  0.00     0.223 C 
ATOM      2  O   UNL A   1      31.498  23.580  27.590  1.00  0.00    -0.275 OA
ATOM      3  N   UNL A   1      31.402  25.637  26.829  1.00  0.00    -0.356 N 
ATOM      4  H   UNL A   1      31.290  25.870  27.778  1.00  0.00     0.163 HD
ENDROOT
BRANCH   1   5
ATOM      5  C   UNL A   1      31.836  23.695  25.215  1.00  0.00     0.078 C 
ATOM      6  C   UNL A   1      32.007  25.139  22.559  1.00  0.00     0.008 C 
ATOM      7  C   UNL A   1      33.175  25.178  23.558  1.00  0.00     0.006 C 
ATOM      8  C   UNL A   1      30.645  24.763  23.167  1.00  0.00     0.006 C 
ATOM      9  C   UNL A   1      33.181  24.053  24.587  1.00  0.00     0.014 C 
ATOM     10  C   UNL A   1      30.673  23.665  24.226  1.00  0.00     0.014 C 
BRANCH   6  11
ATOM     11  C   UNL A   1      31.979  26.431  21.688  1.00  0.00     0.121 C 
BRANCH  11  12
ATOM     12  N   UNL A   1      32.860  27.511  22.108  1.00  0.00    -0.338 N 
ATOM     13  N   UNL A   1      31.632  29.345  22.975  1.00  0.00    -0.338 N 
ATOM     14  C   UNL A   1      32.763  28.722  22.655  1.00  0.00     0.314 C 
ATOM     15  H   UNL A   1      31.787  30.292  23.197  1.00  0.00     0.165 HD
ATOM     16  O   UNL A   1      33.816  29.339  22.844  1.00  0.00    -0.249 OA
ATOM     17  H   UNL A   1      33.802  27.280  21.936  1.00  0.00     0.165 HD
BRANCH  13  18
ATOM     18  C   UNL A   1      30.231  28.990  23.081  1.00  0.00     0.127 C 
BRANCH  18  19
ATOM     19  C   UNL A   1      29.363  30.216  23.349  1.00  0.00     0.121 C 
BRANCH  19  20
ATOM     20  C   UNL A   1      28.673  30.660  22.071  1.00  0.00     0.223 C 
ATOM     21  C   UNL A   1      27.976  32.452  20.555  1.00  0.00     0.146 C 
ATOM     22  N   UNL A   1      28.531  32.018  21.830  1.00  0.00    -0.349 N 
ATOM     23  C   UNL A   1      28.826  33.056  22.802  1.00  0.00     0.146 C 
ATOM     24  O   UNL A   1      28.287  29.798  21.277  1.00  0.00    -0.275 OA
ENDBRANCH  19  20
ENDBRANCH  18  19
ENDBRANCH  13  18
ENDBRANCH  11  12
ENDBRANCH   6  11
ENDBRANCH   1   5
BRANCH   3  25
ATOM     25  C   UNL A   1      31.367  26.765  25.935  1.00  0.00     0.117 C 
BRANCH  25  26
ATOM     26  C   UNL A   1      31.438  28.091  26.672  1.00  0.00     0.042 C 
BRANCH  26  27
ATOM     27  C   UNL A   1      32.560  29.008  26.222  1.00  0.00     0.118 C 
BRANCH  27  28
ATOM     28  N   UNL A   1      32.298  30.421  26.452  1.00  0.00    -0.352 N 
ATOM     29  C   UNL A   1      33.018  31.392  27.093  1.00  0.00     0.251 C 
ATOM     30  H   UNL A   1      31.444  30.738  26.076  1.00  0.00     0.163 HD
ATOM     31  O   UNL A   1      32.524  32.506  27.233  1.00  0.00    -0.269 OA
BRANCH  29  32
ATOM     32  C   UNL A   1      34.357  31.127  27.647  1.00  0.00     0.039 A 
ATOM     33  C   UNL A   1      34.672  29.817  28.024  1.00  0.00     0.014 A 
ATOM     34  C   UNL A   1      35.264  32.157  27.883  1.00  0.00     0.014 A 
ATOM     35  C   UNL A   1      35.901  29.531  28.609  1.00  0.00     0.010 A 
ATOM     36  C   UNL A   1      36.526  31.865  28.378  1.00  0.00     0.010 A 
ATOM     37  C   UNL A   1      36.831  30.558  28.789  1.00  0.00    -0.014 A 
BRANCH  37  38
ATOM     38  C   UNL A   1      38.047  30.350  29.600  1.00  0.00     0.031 A 
ATOM     39  C   UNL A   1      39.132  29.492  29.014  1.00  0.00     0.074 A 
ATOM     40  C   UNL A   1      38.157  30.887  30.826  1.00  0.00     0.049 A 
ATOM     41  N   UNL A   1      40.175  28.959  29.587  1.00  0.00    -0.248 NA
ATOM     42  C   UNL A   1      38.990  29.153  27.586  1.00  0.00     0.031 C 
ATOM     43  C   UNL A   1      37.178  31.771  31.459  1.00  0.00     0.029 A 
ATOM     44  N   UNL A   1      39.147  30.755  31.763  1.00  0.00    -0.354 N 
ATOM     45  C   UNL A   1      40.776  28.176  28.608  1.00  0.00     0.074 A 
ATOM     46  C   UNL A   1      39.962  28.272  27.419  1.00  0.00     0.031 C 
ATOM     47  C   UNL A   1      37.624  32.113  32.679  1.00  0.00     0.029 A 
ATOM     48  C   UNL A   1      38.883  31.421  32.934  1.00  0.00     0.049 A 
ATOM     49  H   UNL A   1      39.968  30.233  31.610  1.00  0.00     0.167 HD
ATOM     50  C   UNL A   1      41.915  27.453  28.698  1.00  0.00     0.037 A 
ATOM     51  C   UNL A   1      39.575  31.432  34.088  1.00  0.00     0.037 A 
ATOM     52  C   UNL A   1      42.728  27.420  29.883  1.00  0.00     0.049 A 
ATOM     53  C   UNL A   1      40.835  30.611  34.169  1.00  0.00     0.074 A 
ATOM     54  C   UNL A   1      43.908  26.739  30.108  1.00  0.00     0.029 A 
ATOM     55  N   UNL A   1      42.440  28.125  31.045  1.00  0.00    -0.354 N 
ATOM     56  N   UNL A   1      41.384  29.841  33.257  1.00  0.00    -0.248 NA
ATOM     57  C   UNL A   1      41.571  30.659  35.437  1.00  0.00     0.031 C 
ATOM     58  C   UNL A   1      44.316  27.003  31.419  1.00  0.00     0.029 A 
ATOM     59  C   UNL A   1      43.421  27.895  31.992  1.00  0.00     0.049 A 
ATOM     60  H   UNL A   1      41.654  28.703  31.175  1.00  0.00     0.167 HD
ATOM     61  C   UNL A   1      42.548  29.342  33.826  1.00  0.00     0.074 A 
ATOM     62  C   UNL A   1      42.627  29.906  35.160  1.00  0.00     0.031 C 
ATOM     63  C   UNL A   1      43.470  28.497  33.302  1.00  0.00     0.037 A 
BRANCH  50  64
ATOM     64  C   UNL A   1      42.308  26.634  27.502  1.00  0.00     0.057 A 
ATOM     65  C   UNL A   1      41.934  25.290  27.356  1.00  0.00     0.134 A 
ATOM     66  C   UNL A   1      43.100  27.192  26.489  1.00  0.00     0.134 A 
ATOM     67  F   UNL A   1      41.196  24.684  28.298  1.00  0.00    -0.206 F 
ATOM     68  C   UNL A   1      42.369  24.521  26.274  1.00  0.00     0.040 A 
ATOM     69  C   UNL A   1      43.512  26.442  25.385  1.00  0.00     0.040 A 
ATOM     70  F   UNL A   1      43.497  28.471  26.561  1.00  0.00    -0.206 F 
ATOM     71  C   UNL A   1      43.157  25.100  25.281  1.00  0.00     0.006 A 
ENDBRANCH  50  64
BRANCH  51  72
ATOM     72  C   UNL A   1      39.096  32.234  35.243  1.00  0.00     0.057 A 
ATOM     73  C   UNL A   1      38.301  31.659  36.243  1.00  0.00     0.134 A 
ATOM     74  C   UNL A   1      39.419  33.590  35.382  1.00  0.00     0.134 A 
ATOM     75  F   UNL A   1      37.944  30.370  36.162  1.00  0.00    -0.206 F 
ATOM     76  C   UNL A   1      37.829  32.406  37.324  1.00  0.00     0.040 A 
ATOM     77  C   UNL A   1      38.978  34.342  36.472  1.00  0.00     0.040 A 
ATOM     78  F   UNL A   1      40.183  34.202  34.465  1.00  0.00    -0.206 F 
ATOM     79  C   UNL A   1      38.172  33.751  37.444  1.00  0.00     0.006 A 
ENDBRANCH  51  72
BRANCH  63  80
ATOM     80  C   UNL A   1      44.672  28.197  34.149  1.00  0.00     0.057 A 
ATOM     81  C   UNL A   1      44.723  27.096  35.011  1.00  0.00     0.134 A 
ATOM     82  C   UNL A   1      45.810  29.011  34.066  1.00  0.00     0.134 A 
ATOM     83  F   UNL A   1      43.661  26.285  35.142  1.00  0.00    -0.206 F 
ATOM     84  C   UNL A   1      45.851  26.833  35.788  1.00  0.00     0.040 A 
ATOM     85  C   UNL A   1      46.955  28.740  34.813  1.00  0.00     0.040 A 
ATOM     86  F   UNL A   1      45.830  30.075  33.248  1.00  0.00    -0.206 F 
ATOM     87  C   UNL A   1      46.973  27.653  35.685  1.00  0.00     0.006 A 
ENDBRANCH  63  80
ENDBRANCH  37  38
ENDBRANCH  29  32
ENDBRANCH  27  28
ENDBRANCH  26  27
ENDBRANCH  25  26
ENDBRANCH   3  25
TORSDOF 15
ENDMDL
MODEL 3
REMARK VINA RESULT:     -12.1      1.527      3.283
REMARK SMILES CN(C)C(=O)CCNC(=O)NC[C@H]1CC[C@@H](C(=O)NCCCNC(=O)c2ccc(-c3c4nc(c(-c5c(F)cccc5F)c5ccc([nH]5)c(-c5c(F)cccc5F)c5nc(c(-c6c(F)cccc6F)c6ccc3[nH]6)C=C5)C=C4)cc2)CC1
REMARK SMILES IDX 17 1 18 2 19 3 16 5 13 6 14 7 81 8 15 9 80 10 12 11 11 12
REMARK SMILES IDX 8 13 9 14 10 16 7 18 6 19 4 20 1 21 2 22 3 23 5 24 20 25
REMARK SMILES IDX 21 26 22 27 23 28 24 29 25 31 26 32 27 33 79 34 28 35 78 36
REMARK SMILES IDX 29 37 30 38 31 39 72 40 32 41 77 42 71 43 73 44 33 45 76 46
REMARK SMILES IDX 70 47 69 48 34 50 60 51 43 52 59 53 44 54 47 55 58 56 74 57
REMARK SMILES IDX 45 58 46 59 57 61 75 62 48 63 35 64 36 65 41 66 37 67 38 68
REMARK SMILES IDX 40 69 42 70 39 71 61 72 62 73 67 74 63 75 64 76 66 77 68 78
REMARK SMILES IDX 65 79 49 80 50 81 55 82 51 83 52 84 54 85 56 86 53 87
REMARK H PARENT 19 4 8 15 11 17 23 30 73 49 47 60
REMARK Flexibility Score: inf
ROOT
ATOM      1  C   UNL A   1      36.879  22.118  24.733  1.00  0.00     0.223 C 
ATOM      2  O   UNL A   1      36.452  22.521  23.644  1.00  0.00    -0.275 OA
ATOM      3  N   UNL A   1      38.141  22.495  25.046  1.00  0.00    -0.356 N 
ATOM      4  H   UNL A   1      38.564  23.085  24.382  1.00  0.00     0.163 HD
ENDROOT
BRANCH   1   5
ATOM      5  C   UNL A   1      35.970  21.266  25.634  1.00  0.00     0.078 C 
ATOM      6  C   UNL A   1      32.950  21.359  25.805  1.00  0.00     0.008 C 
ATOM      7  C   UNL A   1      33.654  20.647  24.639  1.00  0.00     0.006 C 
ATOM      8  C   UNL A   1      33.814  22.383  26.560  1.00  0.00     0.006 C 
ATOM      9  C   UNL A   1      35.099  20.243  24.910  1.00  0.00     0.014 C 
ATOM     10  C   UNL A   1      35.269  21.981  26.786  1.00  0.00     0.014 C 
BRANCH   6  11
ATOM     11  C   UNL A   1      31.559  21.907  25.362  1.00  0.00     0.121 C 
BRANCH  11  12
ATOM     12  N   UNL A   1      30.599  22.166  26.426  1.00  0.00    -0.338 N 
ATOM     13  N   UNL A   1      29.977  24.453  26.494  1.00  0.00    -0.338 N 
ATOM     14  C   UNL A   1      29.911  23.194  26.919  1.00  0.00     0.314 C 
ATOM     15  H   UNL A   1      29.524  25.071  27.113  1.00  0.00     0.165 HD
ATOM     16  O   UNL A   1      29.177  22.967  27.886  1.00  0.00    -0.249 OA
ATOM     17  H   UNL A   1      30.402  21.341  26.926  1.00  0.00     0.165 HD
BRANCH  13  18
ATOM     18  C   UNL A   1      30.542  25.149  25.356  1.00  0.00     0.127 C 
BRANCH  18  19
ATOM     19  C   UNL A   1      31.887  25.782  25.700  1.00  0.00     0.121 C 
BRANCH  19  20
ATOM     20  C   UNL A   1      31.677  27.126  26.377  1.00  0.00     0.223 C 
ATOM     21  C   UNL A   1      31.893  29.565  26.351  1.00  0.00     0.146 C 
ATOM     22  N   UNL A   1      32.190  28.262  25.770  1.00  0.00    -0.349 N 
ATOM     23  C   UNL A   1      33.082  28.245  24.624  1.00  0.00     0.146 C 
ATOM     24  O   UNL A   1      31.034  27.164  27.428  1.00  0.00    -0.275 OA
ENDBRANCH  19  20
ENDBRANCH  18  19
ENDBRANCH  13  18
ENDBRANCH  11  12
ENDBRANCH   6  11
ENDBRANCH   1   5
BRANCH   3  25
ATOM     25  C   UNL A   1      38.974  22.186  26.179  1.00  0.00     0.117 C 
BRANCH  25  26
ATOM     26  C   UNL A   1      40.071  21.193  25.837  1.00  0.00     0.042 C 
BRANCH  26  27
ATOM     27  C   UNL A   1      41.409  21.476  26.494  1.00  0.00     0.118 C 
BRANCH  27  28
ATOM     28  N   UNL A   1      42.393  22.070  25.601  1.00  0.00    -0.352 N 
ATOM     29  C   UNL A   1      42.828  23.359  25.447  1.00  0.00     0.251 C 
ATOM     30  H   UNL A   1      42.826  21.427  24.994  1.00  0.00     0.163 HD
ATOM     31  O   UNL A   1      43.613  23.620  24.542  1.00  0.00    -0.269 OA
BRANCH  29  32
ATOM     32  C   UNL A   1      42.355  24.447  26.321  1.00  0.00     0.039 A 
ATOM     33  C   UNL A   1      42.845  25.739  26.098  1.00  0.00     0.014 A 
ATOM     34  C   UNL A   1      41.518  24.198  27.406  1.00  0.00     0.014 A 
ATOM     35  C   UNL A   1      42.475  26.785  26.937  1.00  0.00     0.010 A 
ATOM     36  C   UNL A   1      41.070  25.252  28.189  1.00  0.00     0.010 A 
ATOM     37  C   UNL A   1      41.587  26.541  27.987  1.00  0.00    -0.014 A 
BRANCH  37  38
ATOM     38  C   UNL A   1      41.343  27.558  29.029  1.00  0.00     0.031 A 
ATOM     39  C   UNL A   1      42.222  27.527  30.246  1.00  0.00     0.074 A 
ATOM     40  C   UNL A   1      40.351  28.454  28.898  1.00  0.00     0.049 A 
ATOM     41  N   UNL A   1      42.080  28.132  31.394  1.00  0.00    -0.248 NA
ATOM     42  C   UNL A   1      43.406  26.652  30.168  1.00  0.00     0.031 C 
ATOM     43  C   UNL A   1      39.476  28.590  27.733  1.00  0.00     0.029 A 
ATOM     44  N   UNL A   1      39.907  29.415  29.766  1.00  0.00    -0.354 N 
ATOM     45  C   UNL A   1      43.119  27.663  32.190  1.00  0.00     0.074 A 
ATOM     46  C   UNL A   1      43.858  26.698  31.411  1.00  0.00     0.031 C 
ATOM     47  C   UNL A   1      38.607  29.591  27.956  1.00  0.00     0.029 A 
ATOM     48  C   UNL A   1      38.823  30.115  29.300  1.00  0.00     0.049 A 
ATOM     49  H   UNL A   1      40.326  29.587  30.641  1.00  0.00     0.167 HD
ATOM     50  C   UNL A   1      43.430  28.022  33.456  1.00  0.00     0.037 A 
ATOM     51  C   UNL A   1      38.077  31.050  29.915  1.00  0.00     0.037 A 
ATOM     52  C   UNL A   1      42.701  29.024  34.185  1.00  0.00     0.049 A 
ATOM     53  C   UNL A   1      38.434  31.428  31.329  1.00  0.00     0.074 A 
ATOM     54  C   UNL A   1      42.913  29.491  35.467  1.00  0.00     0.029 A 
ATOM     55  N   UNL A   1      41.620  29.729  33.671  1.00  0.00    -0.354 N 
ATOM     56  N   UNL A   1      39.393  30.958  32.096  1.00  0.00    -0.248 NA
ATOM     57  C   UNL A   1      37.609  32.460  31.964  1.00  0.00     0.031 C 
ATOM     58  C   UNL A   1      41.936  30.453  35.744  1.00  0.00     0.029 A 
ATOM     59  C   UNL A   1      41.152  30.628  34.612  1.00  0.00     0.049 A 
ATOM     60  H   UNL A   1      41.242  29.607  32.770  1.00  0.00     0.167 HD
ATOM     61  C   UNL A   1      39.309  31.664  33.289  1.00  0.00     0.074 A 
ATOM     62  C   UNL A   1      38.211  32.598  33.137  1.00  0.00     0.031 C 
ATOM     63  C   UNL A   1      40.067  31.556  34.409  1.00  0.00     0.037 A 
BRANCH  50  64
ATOM     64  C   UNL A   1      44.573  27.304  34.116  1.00  0.00     0.057 A 
ATOM     65  C   UNL A   1      44.421  26.050  34.722  1.00  0.00     0.134 A 
ATOM     66  C   UNL A   1      45.843  27.893  34.171  1.00  0.00     0.134 A 
ATOM     67  F   UNL A   1      43.227  25.437  34.729  1.00  0.00    -0.206 F 
ATOM     68  C   UNL A   1      45.475  25.428  35.395  1.00  0.00     0.040 A 
ATOM     69  C   UNL A   1      46.914  27.265  34.811  1.00  0.00     0.040 A 
ATOM     70  F   UNL A   1      46.064  29.093  33.613  1.00  0.00    -0.206 F 
ATOM     71  C   UNL A   1      46.729  26.034  35.436  1.00  0.00     0.006 A 
ENDBRANCH  50  64
BRANCH  51  72
ATOM     72  C   UNL A   1      36.933  31.683  29.210  1.00  0.00     0.057 A 
ATOM     73  C   UNL A   1      37.031  32.981  28.693  1.00  0.00     0.134 A 
ATOM     74  C   UNL A   1      35.716  31.013  29.032  1.00  0.00     0.134 A 
ATOM     75  F   UNL A   1      38.163  33.683  28.843  1.00  0.00    -0.206 F 
ATOM     76  C   UNL A   1      35.957  33.595  28.045  1.00  0.00     0.040 A 
ATOM     77  C   UNL A   1      34.644  31.604  28.362  1.00  0.00     0.040 A 
ATOM     78  F   UNL A   1      35.555  29.765  29.496  1.00  0.00    -0.206 F 
ATOM     79  C   UNL A   1      34.760  32.904  27.872  1.00  0.00     0.006 A 
ENDBRANCH  51  72
BRANCH  63  80
ATOM     80  C   UNL A   1      39.774  32.521  35.520  1.00  0.00     0.057 A 
ATOM     81  C   UNL A   1      40.435  33.748  35.637  1.00  0.00     0.134 A 
ATOM     82  C   UNL A   1      38.784  32.223  36.466  1.00  0.00     0.134 A 
ATOM     83  F   UNL A   1      41.401  34.086  34.768  1.00  0.00    -0.206 F 
ATOM     84  C   UNL A   1      40.147  34.633  36.675  1.00  0.00     0.040 A 
ATOM     85  C   UNL A   1      38.463  33.113  37.489  1.00  0.00     0.040 A 
ATOM     86  F   UNL A   1      38.104  31.068  36.401  1.00  0.00    -0.206 F 
ATOM     87  C   UNL A   1      39.153  34.319  37.601  1.00  0.00     0.006 A 
ENDBRANCH  63  80
ENDBRANCH  37  38
ENDBRANCH  29  32
ENDBRANCH  27  28
ENDBRANCH  26  27
ENDBRANCH  25  26
ENDBRANCH   3  25
TORSDOF 15
ENDMDL
