MODEL 1
REMARK VINA RESULT:     -12.7      0.000      0.000
REMARK SMILES Cc1cc(C)n(-c2nc(C)c(C)c(Oc3cccc(C(=O)NCCCNC(=O)c4ccc(-c5c6nc(c(-c7c(F)cccc7F)c7ccc([nH]7)c(-c7c(F)cccc7F)c7nc(c(-c8c(F)cccc8F)c8ccc5[nH]8)C=C7)C=C6)cc4)c3)n2)n1
REMARK SMILES IDX 23 1 22 2 20 3 21 4 19 6 15 7 16 8 83 9 17 10 18 11 14 12
REMARK SMILES IDX 13 13 7 14 8 15 84 16 9 17 10 18 11 19 12 20 6 21 1 22 2 23
REMARK SMILES IDX 3 24 85 25 4 26 5 27 24 28 25 29 26 30 27 31 28 33 29 34
REMARK SMILES IDX 30 35 82 36 31 37 81 38 32 39 33 40 34 41 75 42 35 43 80 44
REMARK SMILES IDX 74 45 76 46 36 47 79 48 73 49 72 50 37 52 63 53 46 54 62 55
REMARK SMILES IDX 47 56 50 57 61 58 77 59 48 60 49 61 60 63 78 64 51 65 38 66
REMARK SMILES IDX 39 67 44 68 40 69 41 70 43 71 45 72 42 73 64 74 65 75 70 76
REMARK SMILES IDX 66 77 67 78 69 79 71 80 68 81 52 82 53 83 58 84 54 85 55 86
REMARK SMILES IDX 57 87 59 88 56 89
REMARK H PARENT 22 5 26 32 76 51 50 62
REMARK Flexibility Score: inf
ROOT
ATOM      1  C   UNL A   1      32.956  29.083  25.843  1.00  0.00     0.118 C 
ENDROOT
BRANCH   1   2
ATOM      2  N   UNL A   1      33.684  29.280  24.600  1.00  0.00    -0.352 N 
ATOM      3  C   UNL A   1      33.758  28.549  23.439  1.00  0.00     0.251 C 
ATOM      4  O   UNL A   1      34.453  29.015  22.535  1.00  0.00    -0.269 OA
ATOM      5  H   UNL A   1      34.232  30.098  24.589  1.00  0.00     0.163 HD
BRANCH   3   6
ATOM      6  C   UNL A   1      33.028  27.267  23.205  1.00  0.00     0.043 A 
ATOM      7  C   UNL A   1      32.871  24.914  22.625  1.00  0.00     0.130 A 
ATOM      8  C   UNL A   1      31.511  24.911  22.920  1.00  0.00     0.047 A 
ATOM      9  C   UNL A   1      33.601  26.104  22.690  1.00  0.00     0.061 A 
ATOM     10  C   UNL A   1      30.898  26.083  23.355  1.00  0.00     0.005 A 
ATOM     11  C   UNL A   1      31.657  27.246  23.516  1.00  0.00     0.014 A 
BRANCH   7  12
ATOM     12  O   UNL A   1      33.422  23.732  22.192  1.00  0.00    -0.439 OA
BRANCH  12  13
ATOM     13  C   UNL A   1      33.981  22.872  23.142  1.00  0.00     0.227 A 
ATOM     14  C   UNL A   1      35.665  22.305  24.584  1.00  0.00     0.254 A 
ATOM     15  N   UNL A   1      35.042  21.157  24.927  1.00  0.00    -0.216 NA
ATOM     16  N   UNL A   1      35.155  23.203  23.721  1.00  0.00    -0.175 NA
ATOM     17  C   UNL A   1      33.810  20.925  24.427  1.00  0.00     0.050 A 
ATOM     18  C   UNL A   1      33.079  19.790  25.083  1.00  0.00     0.067 C 
ATOM     19  C   UNL A   1      33.242  21.741  23.462  1.00  0.00     0.033 A 
ATOM     20  C   UNL A   1      31.913  21.446  22.840  1.00  0.00     0.052 C 
BRANCH  14  21
ATOM     21  N   UNL A   1      36.933  22.567  25.217  1.00  0.00    -0.203 N 
ATOM     22  C   UNL A   1      38.851  24.611  27.410  1.00  0.00     0.069 C 
ATOM     23  C   UNL A   1      38.325  23.564  26.499  1.00  0.00     0.060 A 
ATOM     24  C   UNL A   1      38.842  22.270  26.301  1.00  0.00     0.049 A 
ATOM     25  N   UNL A   1      37.241  23.787  25.747  1.00  0.00    -0.170 NA
ATOM     26  C   UNL A   1      37.959  21.653  25.443  1.00  0.00     0.045 A 
ATOM     27  C   UNL A   1      38.030  20.313  24.808  1.00  0.00     0.067 C 
ENDBRANCH  14  21
ENDBRANCH  12  13
ENDBRANCH   7  12
ENDBRANCH   3   6
ENDBRANCH   1   2
BRANCH   1  28
ATOM     28  C   UNL A   1      33.786  28.279  26.855  1.00  0.00     0.042 C 
BRANCH  28  29
ATOM     29  C   UNL A   1      35.170  28.873  27.057  1.00  0.00     0.118 C 
BRANCH  29  30
ATOM     30  N   UNL A   1      35.238  29.701  28.263  1.00  0.00    -0.352 N 
ATOM     31  C   UNL A   1      36.232  29.754  29.222  1.00  0.00     0.251 C 
ATOM     32  H   UNL A   1      34.472  30.301  28.410  1.00  0.00     0.163 HD
ATOM     33  O   UNL A   1      36.020  30.230  30.322  1.00  0.00    -0.269 OA
BRANCH  31  34
ATOM     34  C   UNL A   1      37.555  29.204  28.883  1.00  0.00     0.039 A 
ATOM     35  C   UNL A   1      38.266  29.678  27.777  1.00  0.00     0.014 A 
ATOM     36  C   UNL A   1      38.102  28.247  29.732  1.00  0.00     0.014 A 
ATOM     37  C   UNL A   1      39.576  29.245  27.590  1.00  0.00     0.010 A 
ATOM     38  C   UNL A   1      39.438  27.948  29.636  1.00  0.00     0.010 A 
ATOM     39  C   UNL A   1      40.169  28.401  28.543  1.00  0.00    -0.014 A 
BRANCH  39  40
ATOM     40  C   UNL A   1      41.582  28.051  28.444  1.00  0.00     0.031 A 
ATOM     41  C   UNL A   1      41.893  26.803  27.688  1.00  0.00     0.074 A 
ATOM     42  C   UNL A   1      42.575  28.879  28.827  1.00  0.00     0.049 A 
ATOM     43  N   UNL A   1      42.411  25.709  28.140  1.00  0.00    -0.248 NA
ATOM     44  C   UNL A   1      41.493  26.732  26.275  1.00  0.00     0.031 C 
ATOM     45  C   UNL A   1      42.489  30.263  29.312  1.00  0.00     0.029 A 
ATOM     46  N   UNL A   1      43.917  28.664  28.777  1.00  0.00    -0.354 N 
ATOM     47  C   UNL A   1      42.576  24.870  27.040  1.00  0.00     0.074 A 
ATOM     48  C   UNL A   1      41.864  25.491  25.952  1.00  0.00     0.031 C 
ATOM     49  C   UNL A   1      43.716  30.827  29.299  1.00  0.00     0.029 A 
ATOM     50  C   UNL A   1      44.688  29.795  28.996  1.00  0.00     0.049 A 
ATOM     51  H   UNL A   1      44.309  27.778  28.599  1.00  0.00     0.167 HD
ATOM     52  C   UNL A   1      43.460  23.832  27.060  1.00  0.00     0.037 A 
ATOM     53  C   UNL A   1      46.036  29.881  28.940  1.00  0.00     0.037 A 
ATOM     54  C   UNL A   1      43.836  23.493  28.409  1.00  0.00     0.049 A 
ATOM     55  C   UNL A   1      46.568  28.511  29.119  1.00  0.00     0.074 A 
ATOM     56  C   UNL A   1      43.153  23.060  29.530  1.00  0.00     0.029 A 
ATOM     57  N   UNL A   1      45.052  23.931  28.868  1.00  0.00    -0.354 N 
ATOM     58  N   UNL A   1      46.463  27.830  30.227  1.00  0.00    -0.248 NA
ATOM     59  C   UNL A   1      46.834  27.725  27.926  1.00  0.00     0.031 C 
ATOM     60  C   UNL A   1      43.783  23.727  30.622  1.00  0.00     0.029 A 
ATOM     61  C   UNL A   1      44.840  24.480  30.107  1.00  0.00     0.049 A 
ATOM     62  H   UNL A   1      45.914  23.865  28.397  1.00  0.00     0.167 HD
ATOM     63  C   UNL A   1      46.230  26.525  29.821  1.00  0.00     0.074 A 
ATOM     64  C   UNL A   1      46.572  26.505  28.401  1.00  0.00     0.031 C 
ATOM     65  C   UNL A   1      45.524  25.654  30.601  1.00  0.00     0.037 A 
BRANCH  52  66
ATOM     66  C   UNL A   1      44.248  23.349  25.864  1.00  0.00     0.057 A 
ATOM     67  C   UNL A   1      44.189  21.990  25.499  1.00  0.00     0.134 A 
ATOM     68  C   UNL A   1      45.273  24.087  25.241  1.00  0.00     0.134 A 
ATOM     69  F   UNL A   1      43.269  21.172  26.031  1.00  0.00    -0.206 F 
ATOM     70  C   UNL A   1      45.123  21.398  24.638  1.00  0.00     0.040 A 
ATOM     71  C   UNL A   1      46.180  23.518  24.340  1.00  0.00     0.040 A 
ATOM     72  F   UNL A   1      45.521  25.367  25.539  1.00  0.00    -0.206 F 
ATOM     73  C   UNL A   1      46.129  22.163  24.061  1.00  0.00     0.006 A 
ENDBRANCH  52  66
BRANCH  53  74
ATOM     74  C   UNL A   1      46.857  31.015  28.469  1.00  0.00     0.057 A 
ATOM     75  C   UNL A   1      46.936  31.342  27.111  1.00  0.00     0.134 A 
ATOM     76  C   UNL A   1      47.363  31.970  29.370  1.00  0.00     0.134 A 
ATOM     77  F   UNL A   1      46.446  30.507  26.182  1.00  0.00    -0.206 F 
ATOM     78  C   UNL A   1      47.463  32.563  26.670  1.00  0.00     0.040 A 
ATOM     79  C   UNL A   1      47.895  33.191  28.943  1.00  0.00     0.040 A 
ATOM     80  F   UNL A   1      47.275  31.788  30.695  1.00  0.00    -0.206 F 
ATOM     81  C   UNL A   1      47.932  33.498  27.588  1.00  0.00     0.006 A 
ENDBRANCH  53  74
BRANCH  65  82
ATOM     82  C   UNL A   1      45.202  26.068  32.014  1.00  0.00     0.057 A 
ATOM     83  C   UNL A   1      44.015  26.719  32.384  1.00  0.00     0.134 A 
ATOM     84  C   UNL A   1      46.027  25.628  33.053  1.00  0.00     0.134 A 
ATOM     85  F   UNL A   1      43.117  27.095  31.469  1.00  0.00    -0.206 F 
ATOM     86  C   UNL A   1      43.678  26.943  33.723  1.00  0.00     0.040 A 
ATOM     87  C   UNL A   1      45.689  25.819  34.395  1.00  0.00     0.040 A 
ATOM     88  F   UNL A   1      47.152  24.948  32.781  1.00  0.00    -0.206 F 
ATOM     89  C   UNL A   1      44.513  26.483  34.735  1.00  0.00     0.006 A 
ENDBRANCH  65  82
ENDBRANCH  39  40
ENDBRANCH  31  34
ENDBRANCH  29  30
ENDBRANCH  28  29
ENDBRANCH   1  28
TORSDOF 13
ENDMDL
MODEL 2
REMARK VINA RESULT:     -12.5      2.014      5.953
REMARK SMILES Cc1cc(C)n(-c2nc(C)c(C)c(Oc3cccc(C(=O)NCCCNC(=O)c4ccc(-c5c6nc(c(-c7c(F)cccc7F)c7ccc([nH]7)c(-c7c(F)cccc7F)c7nc(c(-c8c(F)cccc8F)c8ccc5[nH]8)C=C7)C=C6)cc4)c3)n2)n1
REMARK SMILES IDX 23 1 22 2 20 3 21 4 19 6 15 7 16 8 83 9 17 10 18 11 14 12
REMARK SMILES IDX 13 13 7 14 8 15 84 16 9 17 10 18 11 19 12 20 6 21 1 22 2 23
REMARK SMILES IDX 3 24 85 25 4 26 5 27 24 28 25 29 26 30 27 31 28 33 29 34
REMARK SMILES IDX 30 35 82 36 31 37 81 38 32 39 33 40 34 41 75 42 35 43 80 44
REMARK SMILES IDX 74 45 76 46 36 47 79 48 73 49 72 50 37 52 63 53 46 54 62 55
REMARK SMILES IDX 47 56 50 57 61 58 77 59 48 60 49 61 60 63 78 64 51 65 38 66
REMARK SMILES IDX 39 67 44 68 40 69 41 70 43 71 45 72 42 73 64 74 65 75 70 76
REMARK SMILES IDX 66 77 67 78 69 79 71 80 68 81 52 82 53 83 58 84 54 85 55 86
REMARK SMILES IDX 57 87 59 88 56 89
REMARK H PARENT 22 5 26 32 76 51 50 62
REMARK Flexibility Score: inf
ROOT
ATOM      1  C   UNL A   1      32.962  28.026  26.749  1.00  0.00     0.118 C 
ENDROOT
BRANCH   1   2
ATOM      2  N   UNL A   1      31.788  27.177  26.878  1.00  0.00    -0.352 N 
ATOM      3  C   UNL A   1      31.125  26.366  25.991  1.00  0.00     0.251 C 
ATOM      4  O   UNL A   1      30.161  25.735  26.430  1.00  0.00    -0.269 OA
ATOM      5  H   UNL A   1      31.391  27.186  27.779  1.00  0.00     0.163 HD
BRANCH   3   6
ATOM      6  C   UNL A   1      31.521  26.181  24.562  1.00  0.00     0.043 A 
ATOM      7  C   UNL A   1      32.649  25.049  22.734  1.00  0.00     0.130 A 
ATOM      8  C   UNL A   1      32.071  25.917  21.812  1.00  0.00     0.047 A 
ATOM      9  C   UNL A   1      32.437  25.235  24.103  1.00  0.00     0.061 A 
ATOM     10  C   UNL A   1      31.218  26.924  22.256  1.00  0.00     0.005 A 
ATOM     11  C   UNL A   1      30.929  27.040  23.619  1.00  0.00     0.014 A 
BRANCH   7  12
ATOM     12  O   UNL A   1      33.490  24.079  22.242  1.00  0.00    -0.439 OA
BRANCH  12  13
ATOM     13  C   UNL A   1      34.030  23.151  23.138  1.00  0.00     0.227 A 
ATOM     14  C   UNL A   1      35.703  22.458  24.536  1.00  0.00     0.254 A 
ATOM     15  N   UNL A   1      35.052  21.308  24.814  1.00  0.00    -0.216 NA
ATOM     16  N   UNL A   1      35.214  23.417  23.729  1.00  0.00    -0.175 NA
ATOM     17  C   UNL A   1      33.813  21.137  24.308  1.00  0.00     0.050 A 
ATOM     18  C   UNL A   1      33.055  19.985  24.900  1.00  0.00     0.067 C 
ATOM     19  C   UNL A   1      33.262  22.023  23.395  1.00  0.00     0.033 A 
ATOM     20  C   UNL A   1      31.925  21.798  22.763  1.00  0.00     0.052 C 
BRANCH  14  21
ATOM     21  N   UNL A   1      36.979  22.650  25.177  1.00  0.00    -0.203 N 
ATOM     22  C   UNL A   1      38.993  24.586  27.382  1.00  0.00     0.069 C 
ATOM     23  C   UNL A   1      38.416  23.569  26.468  1.00  0.00     0.060 A 
ATOM     24  C   UNL A   1      38.863  22.249  26.273  1.00  0.00     0.049 A 
ATOM     25  N   UNL A   1      37.351  23.852  25.709  1.00  0.00    -0.170 NA
ATOM     26  C   UNL A   1      37.952  21.682  25.409  1.00  0.00     0.045 A 
ATOM     27  C   UNL A   1      37.953  20.339  24.776  1.00  0.00     0.067 C 
ENDBRANCH  14  21
ENDBRANCH  12  13
ENDBRANCH   7  12
ENDBRANCH   3   6
ENDBRANCH   1   2
BRANCH   1  28
ATOM     28  C   UNL A   1      32.698  29.432  27.307  1.00  0.00     0.042 C 
BRANCH  28  29
ATOM     29  C   UNL A   1      33.893  30.353  27.124  1.00  0.00     0.118 C 
BRANCH  29  30
ATOM     30  N   UNL A   1      33.886  31.455  28.088  1.00  0.00    -0.352 N 
ATOM     31  C   UNL A   1      34.798  31.737  29.088  1.00  0.00     0.251 C 
ATOM     32  H   UNL A   1      33.129  32.079  28.015  1.00  0.00     0.163 HD
ATOM     33  O   UNL A   1      34.510  32.474  30.012  1.00  0.00    -0.269 OA
BRANCH  31  34
ATOM     34  C   UNL A   1      36.128  31.109  29.012  1.00  0.00     0.039 A 
ATOM     35  C   UNL A   1      37.288  31.864  29.200  1.00  0.00     0.014 A 
ATOM     36  C   UNL A   1      36.190  29.734  28.813  1.00  0.00     0.014 A 
ATOM     37  C   UNL A   1      38.510  31.202  29.280  1.00  0.00     0.010 A 
ATOM     38  C   UNL A   1      37.368  29.073  29.051  1.00  0.00     0.010 A 
ATOM     39  C   UNL A   1      38.541  29.799  29.235  1.00  0.00    -0.014 A 
BRANCH  39  40
ATOM     40  C   UNL A   1      39.790  29.078  29.460  1.00  0.00     0.031 A 
ATOM     41  C   UNL A   1      40.179  28.877  30.886  1.00  0.00     0.074 A 
ATOM     42  C   UNL A   1      40.466  28.451  28.475  1.00  0.00     0.049 A 
ATOM     43  N   UNL A   1      41.205  29.361  31.505  1.00  0.00    -0.248 NA
ATOM     44  C   UNL A   1      39.264  28.120  31.753  1.00  0.00     0.031 C 
ATOM     45  C   UNL A   1      40.094  28.274  27.065  1.00  0.00     0.029 A 
ATOM     46  N   UNL A   1      41.627  27.748  28.568  1.00  0.00    -0.354 N 
ATOM     47  C   UNL A   1      41.174  28.827  32.791  1.00  0.00     0.074 A 
ATOM     48  C   UNL A   1      39.888  28.193  32.931  1.00  0.00     0.031 C 
ATOM     49  C   UNL A   1      40.889  27.341  26.498  1.00  0.00     0.029 A 
ATOM     50  C   UNL A   1      41.938  27.005  27.440  1.00  0.00     0.049 A 
ATOM     51  H   UNL A   1      42.199  27.767  29.369  1.00  0.00     0.167 HD
ATOM     52  C   UNL A   1      42.293  28.773  33.568  1.00  0.00     0.037 A 
ATOM     53  C   UNL A   1      42.990  26.170  27.284  1.00  0.00     0.037 A 
ATOM     54  C   UNL A   1      43.312  29.668  33.080  1.00  0.00     0.049 A 
ATOM     55  C   UNL A   1      44.011  26.565  28.281  1.00  0.00     0.074 A 
ATOM     56  C   UNL A   1      43.396  31.033  32.884  1.00  0.00     0.029 A 
ATOM     57  N   UNL A   1      44.349  29.131  32.359  1.00  0.00    -0.354 N 
ATOM     58  N   UNL A   1      44.657  27.699  28.249  1.00  0.00    -0.248 NA
ATOM     59  C   UNL A   1      44.004  25.886  29.565  1.00  0.00     0.031 C 
ATOM     60  C   UNL A   1      44.140  31.185  31.677  1.00  0.00     0.029 A 
ATOM     61  C   UNL A   1      44.508  29.911  31.242  1.00  0.00     0.049 A 
ATOM     62  H   UNL A   1      44.878  28.336  32.599  1.00  0.00     0.167 HD
ATOM     63  C   UNL A   1      44.772  28.078  29.578  1.00  0.00     0.074 A 
ATOM     64  C   UNL A   1      44.445  26.877  30.343  1.00  0.00     0.031 C 
ATOM     65  C   UNL A   1      44.851  29.394  29.936  1.00  0.00     0.037 A 
BRANCH  52  66
ATOM     66  C   UNL A   1      42.602  27.673  34.558  1.00  0.00     0.057 A 
ATOM     67  C   UNL A   1      43.017  26.413  34.087  1.00  0.00     0.134 A 
ATOM     68  C   UNL A   1      42.237  27.708  35.919  1.00  0.00     0.134 A 
ATOM     69  F   UNL A   1      43.377  26.239  32.806  1.00  0.00    -0.206 F 
ATOM     70  C   UNL A   1      42.999  25.264  34.889  1.00  0.00     0.040 A 
ATOM     71  C   UNL A   1      42.265  26.577  36.742  1.00  0.00     0.040 A 
ATOM     72  F   UNL A   1      41.741  28.804  36.502  1.00  0.00    -0.206 F 
ATOM     73  C   UNL A   1      42.614  25.343  36.221  1.00  0.00     0.006 A 
ENDBRANCH  52  66
BRANCH  53  74
ATOM     74  C   UNL A   1      43.043  24.902  26.528  1.00  0.00     0.057 A 
ATOM     75  C   UNL A   1      43.770  24.795  25.337  1.00  0.00     0.134 A 
ATOM     76  C   UNL A   1      42.607  23.694  27.102  1.00  0.00     0.134 A 
ATOM     77  F   UNL A   1      44.257  25.892  24.738  1.00  0.00    -0.206 F 
ATOM     78  C   UNL A   1      44.073  23.555  24.761  1.00  0.00     0.040 A 
ATOM     79  C   UNL A   1      42.898  22.449  26.535  1.00  0.00     0.040 A 
ATOM     80  F   UNL A   1      41.962  23.678  28.277  1.00  0.00    -0.206 F 
ATOM     81  C   UNL A   1      43.649  22.376  25.367  1.00  0.00     0.006 A 
ENDBRANCH  53  74
BRANCH  65  82
ATOM     82  C   UNL A   1      45.044  30.415  28.845  1.00  0.00     0.057 A 
ATOM     83  C   UNL A   1      43.987  31.057  28.181  1.00  0.00     0.134 A 
ATOM     84  C   UNL A   1      46.331  30.901  28.593  1.00  0.00     0.134 A 
ATOM     85  F   UNL A   1      42.715  30.728  28.424  1.00  0.00    -0.206 F 
ATOM     86  C   UNL A   1      44.203  32.113  27.290  1.00  0.00     0.040 A 
ATOM     87  C   UNL A   1      46.558  31.975  27.728  1.00  0.00     0.040 A 
ATOM     88  F   UNL A   1      47.388  30.377  29.233  1.00  0.00    -0.206 F 
ATOM     89  C   UNL A   1      45.493  32.583  27.070  1.00  0.00     0.006 A 
ENDBRANCH  65  82
ENDBRANCH  39  40
ENDBRANCH  31  34
ENDBRANCH  29  30
ENDBRANCH  28  29
ENDBRANCH   1  28
TORSDOF 13
ENDMDL
MODEL 3
REMARK VINA RESULT:     -12.5      1.834      5.895
REMARK SMILES Cc1cc(C)n(-c2nc(C)c(C)c(Oc3cccc(C(=O)NCCCNC(=O)c4ccc(-c5c6nc(c(-c7c(F)cccc7F)c7ccc([nH]7)c(-c7c(F)cccc7F)c7nc(c(-c8c(F)cccc8F)c8ccc5[nH]8)C=C7)C=C6)cc4)c3)n2)n1
REMARK SMILES IDX 23 1 22 2 20 3 21 4 19 6 15 7 16 8 83 9 17 10 18 11 14 12
REMARK SMILES IDX 13 13 7 14 8 15 84 16 9 17 10 18 11 19 12 20 6 21 1 22 2 23
REMARK SMILES IDX 3 24 85 25 4 26 5 27 24 28 25 29 26 30 27 31 28 33 29 34
REMARK SMILES IDX 30 35 82 36 31 37 81 38 32 39 33 40 34 41 75 42 35 43 80 44
REMARK SMILES IDX 74 45 76 46 36 47 79 48 73 49 72 50 37 52 63 53 46 54 62 55
REMARK SMILES IDX 47 56 50 57 61 58 77 59 48 60 49 61 60 63 78 64 51 65 38 66
REMARK SMILES IDX 39 67 44 68 40 69 41 70 43 71 45 72 42 73 64 74 65 75 70 76
REMARK SMILES IDX 66 77 67 78 69 79 71 80 68 81 52 82 53 83 58 84 54 85 55 86
REMARK SMILES IDX 57 87 59 88 56 89
REMARK H PARENT 22 5 26 32 76 51 50 62
REMARK Flexibility Score: inf
ROOT
ATOM      1  C   UNL A   1      33.355  28.528  26.270  1.00  0.00     0.118 C 
ENDROOT
BRANCH   1   2
ATOM      2  N   UNL A   1      33.895  28.985  25.000  1.00  0.00    -0.352 N 
ATOM      3  C   UNL A   1      33.806  28.494  23.720  1.00  0.00     0.251 C 
ATOM      4  O   UNL A   1      34.360  29.148  22.835  1.00  0.00    -0.269 OA
ATOM      5  H   UNL A   1      34.429  29.809  25.071  1.00  0.00     0.163 HD
BRANCH   3   6
ATOM      6  C   UNL A   1      33.059  27.256  23.345  1.00  0.00     0.043 A 
ATOM      7  C   UNL A   1      32.879  24.943  22.626  1.00  0.00     0.130 A 
ATOM      8  C   UNL A   1      31.497  24.980  22.783  1.00  0.00     0.047 A 
ATOM      9  C   UNL A   1      33.640  26.098  22.828  1.00  0.00     0.061 A 
ATOM     10  C   UNL A   1      30.884  26.152  23.217  1.00  0.00     0.005 A 
ATOM     11  C   UNL A   1      31.663  27.274  23.516  1.00  0.00     0.014 A 
BRANCH   7  12
ATOM     12  O   UNL A   1      33.430  23.762  22.187  1.00  0.00    -0.439 OA
BRANCH  12  13
ATOM     13  C   UNL A   1      33.992  22.900  23.133  1.00  0.00     0.227 A 
ATOM     14  C   UNL A   1      35.689  22.318  24.554  1.00  0.00     0.254 A 
ATOM     15  N   UNL A   1      35.057  21.179  24.910  1.00  0.00    -0.216 NA
ATOM     16  N   UNL A   1      35.178  23.219  23.695  1.00  0.00    -0.175 NA
ATOM     17  C   UNL A   1      33.816  20.960  24.428  1.00  0.00     0.050 A 
ATOM     18  C   UNL A   1      33.081  19.836  25.099  1.00  0.00     0.067 C 
ATOM     19  C   UNL A   1      33.244  21.779  23.468  1.00  0.00     0.033 A 
ATOM     20  C   UNL A   1      31.903  21.497  22.866  1.00  0.00     0.052 C 
BRANCH  14  21
ATOM     21  N   UNL A   1      36.968  22.567  25.168  1.00  0.00    -0.203 N 
ATOM     22  C   UNL A   1      38.958  24.629  27.279  1.00  0.00     0.069 C 
ATOM     23  C   UNL A   1      38.397  23.568  26.406  1.00  0.00     0.060 A 
ATOM     24  C   UNL A   1      38.879  22.255  26.245  1.00  0.00     0.049 A 
ATOM     25  N   UNL A   1      37.312  23.795  25.656  1.00  0.00    -0.170 NA
ATOM     26  C   UNL A   1      37.973  21.635  25.415  1.00  0.00     0.045 A 
ATOM     27  C   UNL A   1      38.004  20.274  24.823  1.00  0.00     0.067 C 
ENDBRANCH  14  21
ENDBRANCH  12  13
ENDBRANCH   7  12
ENDBRANCH   3   6
ENDBRANCH   1   2
BRANCH   1  28
ATOM     28  C   UNL A   1      33.063  29.707  27.209  1.00  0.00     0.042 C 
BRANCH  28  29
ATOM     29  C   UNL A   1      34.037  30.856  27.004  1.00  0.00     0.118 C 
BRANCH  29  30
ATOM     30  N   UNL A   1      34.019  31.794  28.128  1.00  0.00    -0.352 N 
ATOM     31  C   UNL A   1      34.872  31.861  29.213  1.00  0.00     0.251 C 
ATOM     32  H   UNL A   1      33.302  32.468  28.108  1.00  0.00     0.163 HD
ATOM     33  O   UNL A   1      34.558  32.463  30.223  1.00  0.00    -0.269 OA
BRANCH  31  34
ATOM     34  C   UNL A   1      36.170  31.171  29.121  1.00  0.00     0.039 A 
ATOM     35  C   UNL A   1      37.368  31.887  29.192  1.00  0.00     0.014 A 
ATOM     36  C   UNL A   1      36.166  29.784  29.026  1.00  0.00     0.014 A 
ATOM     37  C   UNL A   1      38.565  31.179  29.262  1.00  0.00     0.010 A 
ATOM     38  C   UNL A   1      37.328  29.091  29.256  1.00  0.00     0.010 A 
ATOM     39  C   UNL A   1      38.537  29.777  29.325  1.00  0.00    -0.014 A 
BRANCH  39  40
ATOM     40  C   UNL A   1      39.766  29.020  29.543  1.00  0.00     0.031 A 
ATOM     41  C   UNL A   1      40.107  28.726  30.964  1.00  0.00     0.074 A 
ATOM     42  C   UNL A   1      40.462  28.442  28.542  1.00  0.00     0.049 A 
ATOM     43  N   UNL A   1      41.121  29.152  31.643  1.00  0.00    -0.248 NA
ATOM     44  C   UNL A   1      39.153  27.934  31.756  1.00  0.00     0.031 C 
ATOM     45  C   UNL A   1      40.132  28.359  27.113  1.00  0.00     0.029 A 
ATOM     46  N   UNL A   1      41.608  27.714  28.626  1.00  0.00    -0.354 N 
ATOM     47  C   UNL A   1      41.041  28.541  32.892  1.00  0.00     0.074 A 
ATOM     48  C   UNL A   1      39.741  27.924  32.954  1.00  0.00     0.031 C 
ATOM     49  C   UNL A   1      40.928  27.447  26.514  1.00  0.00     0.029 A 
ATOM     50  C   UNL A   1      41.942  27.035  27.465  1.00  0.00     0.049 A 
ATOM     51  H   UNL A   1      42.155  27.673  29.444  1.00  0.00     0.167 HD
ATOM     52  C   UNL A   1      42.134  28.419  33.698  1.00  0.00     0.037 A 
ATOM     53  C   UNL A   1      42.984  26.192  27.290  1.00  0.00     0.037 A 
ATOM     54  C   UNL A   1      43.182  29.323  33.297  1.00  0.00     0.049 A 
ATOM     55  C   UNL A   1      43.980  26.507  28.340  1.00  0.00     0.074 A 
ATOM     56  C   UNL A   1      43.295  30.696  33.189  1.00  0.00     0.029 A 
ATOM     57  N   UNL A   1      44.232  28.812  32.576  1.00  0.00    -0.354 N 
ATOM     58  N   UNL A   1      44.645  27.628  28.397  1.00  0.00    -0.248 NA
ATOM     59  C   UNL A   1      43.921  25.751  29.579  1.00  0.00     0.031 C 
ATOM     60  C   UNL A   1      44.079  30.908  32.016  1.00  0.00     0.029 A 
ATOM     61  C   UNL A   1      44.440  29.655  31.515  1.00  0.00     0.049 A 
ATOM     62  H   UNL A   1      44.740  27.995  32.783  1.00  0.00     0.167 HD
ATOM     63  C   UNL A   1      44.725  27.924  29.750  1.00  0.00     0.074 A 
ATOM     64  C   UNL A   1      44.354  26.684  30.430  1.00  0.00     0.031 C 
ATOM     65  C   UNL A   1      44.815  29.213  30.191  1.00  0.00     0.037 A 
BRANCH  52  66
ATOM     66  C   UNL A   1      42.393  27.256  34.628  1.00  0.00     0.057 A 
ATOM     67  C   UNL A   1      42.083  27.379  35.996  1.00  0.00     0.134 A 
ATOM     68  C   UNL A   1      43.190  26.142  34.298  1.00  0.00     0.134 A 
ATOM     69  F   UNL A   1      41.345  28.405  36.446  1.00  0.00    -0.206 F 
ATOM     70  C   UNL A   1      42.589  26.504  36.966  1.00  0.00     0.040 A 
ATOM     71  C   UNL A   1      43.657  25.232  35.252  1.00  0.00     0.040 A 
ATOM     72  F   UNL A   1      43.644  25.924  33.059  1.00  0.00    -0.206 F 
ATOM     73  C   UNL A   1      43.386  25.429  36.595  1.00  0.00     0.006 A 
ENDBRANCH  52  66
BRANCH  53  74
ATOM     74  C   UNL A   1      43.040  24.972  26.459  1.00  0.00     0.057 A 
ATOM     75  C   UNL A   1      43.810  24.921  25.291  1.00  0.00     0.134 A 
ATOM     76  C   UNL A   1      42.557  23.741  26.941  1.00  0.00     0.134 A 
ATOM     77  F   UNL A   1      44.342  26.041  24.780  1.00  0.00    -0.206 F 
ATOM     78  C   UNL A   1      44.109  23.711  24.652  1.00  0.00     0.040 A 
ATOM     79  C   UNL A   1      42.844  22.527  26.309  1.00  0.00     0.040 A 
ATOM     80  F   UNL A   1      41.867  23.668  28.088  1.00  0.00    -0.206 F 
ATOM     81  C   UNL A   1      43.637  22.508  25.167  1.00  0.00     0.006 A 
ENDBRANCH  53  74
BRANCH  65  82
ATOM     82  C   UNL A   1      45.059  30.295  29.171  1.00  0.00     0.057 A 
ATOM     83  C   UNL A   1      46.328  30.620  28.668  1.00  0.00     0.134 A 
ATOM     84  C   UNL A   1      43.963  30.892  28.542  1.00  0.00     0.134 A 
ATOM     85  F   UNL A   1      47.432  30.032  29.139  1.00  0.00    -0.206 F 
ATOM     86  C   UNL A   1      46.500  31.516  27.607  1.00  0.00     0.040 A 
ATOM     87  C   UNL A   1      44.117  31.766  27.462  1.00  0.00     0.040 A 
ATOM     88  F   UNL A   1      42.714  30.589  28.928  1.00  0.00    -0.206 F 
ATOM     89  C   UNL A   1      45.389  32.084  26.993  1.00  0.00     0.006 A 
ENDBRANCH  65  82
ENDBRANCH  39  40
ENDBRANCH  31  34
ENDBRANCH  29  30
ENDBRANCH  28  29
ENDBRANCH   1  28
TORSDOF 13
ENDMDL
