MODEL 1
REMARK VINA RESULT:     -10.0      0.000      0.000
REMARK SMILES O=C(CCCN1C(=O)C(=O)/C(=C(/[O-])c2ccccc2)[C@@H]1/C=C/c1ccccc1)NCCCNC(=O)c1ccc(-c2c3nc(c(-c4c(F)cccc4F)c4ccc([nH]4)c(-c4c(F)cccc4F)c4nc(c(-c5c(F)cccc5F)c5ccc2[nH]5)C=C4)C=C3)cc1
REMARK SMILES IDX 1 1 2 2 29 3 3 5 4 6 5 7 6 8 7 9 20 10 8 11 9 12 11 13 10 14
REMARK SMILES IDX 12 15 13 16 21 17 22 18 23 19 24 20 28 21 25 22 27 23 26 24
REMARK SMILES IDX 14 25 15 26 19 27 16 28 18 29 17 30 30 31 31 32 32 33 33 34
REMARK SMILES IDX 34 35 35 37 36 38 37 39 89 40 38 41 88 42 39 43 40 44 41 45
REMARK SMILES IDX 82 46 42 47 87 48 81 49 83 50 43 51 86 52 80 53 79 54 44 56
REMARK SMILES IDX 70 57 53 58 69 59 54 60 57 61 68 62 84 63 55 64 56 65 67 67
REMARK SMILES IDX 85 68 58 69 45 70 46 71 51 72 47 73 48 74 50 75 52 76 49 77
REMARK SMILES IDX 71 78 72 79 77 80 73 81 74 82 76 83 78 84 75 85 59 86 60 87
REMARK SMILES IDX 65 88 61 89 62 90 64 91 66 92 63 93
REMARK H PARENT 29 4 33 36 83 55 57 66
REMARK Flexibility Score: inf
ROOT
ATOM      1  O   UNL A   1      46.149  22.129  26.193  1.00  0.00    -0.275 OA
ATOM      2  C   UNL A   1      45.914  22.263  24.997  1.00  0.00     0.220 C 
ATOM      3  N   UNL A   1      45.961  21.233  24.090  1.00  0.00    -0.356 N 
ATOM      4  H   UNL A   1      45.722  21.421  23.154  1.00  0.00     0.163 HD
ENDROOT
BRANCH   2   5
ATOM      5  C   UNL A   1      45.627  23.615  24.373  1.00  0.00     0.102 C 
BRANCH   5   6
ATOM      6  C   UNL A   1      45.850  24.771  25.348  1.00  0.00     0.031 C 
BRANCH   6   7
ATOM      7  C   UNL A   1      44.852  25.938  25.329  1.00  0.00     0.121 C 
BRANCH   7   8
ATOM      8  N   UNL A   1      45.278  27.206  25.928  1.00  0.00    -0.325 N 
ATOM      9  C   UNL A   1      44.417  28.198  26.332  1.00  0.00     0.295 C 
ATOM     10  C   UNL A   1      46.666  27.661  25.881  1.00  0.00     0.143 C 
ATOM     11  O   UNL A   1      43.209  28.179  26.456  1.00  0.00    -0.265 OA
ATOM     12  C   UNL A   1      45.234  29.453  26.554  1.00  0.00     0.248 C 
ATOM     13  C   UNL A   1      46.659  29.062  26.449  1.00  0.00     0.024 C 
ATOM     14  O   UNL A   1      44.740  30.556  26.648  1.00  0.00    -0.283 OA
ATOM     15  C   UNL A   1      47.684  29.856  26.813  1.00  0.00    -0.092 C 
ATOM     16  O   UNL A   1      49.011  29.514  26.659  1.00  0.00    -0.872 OA
BRANCH  10  17
ATOM     17  C   UNL A   1      47.175  27.627  24.460  1.00  0.00     0.003 C 
ATOM     18  C   UNL A   1      48.474  27.466  24.151  1.00  0.00     0.006 C 
BRANCH  18  19
ATOM     19  C   UNL A   1      48.978  27.441  22.779  1.00  0.00    -0.026 A 
ATOM     20  C   UNL A   1      48.150  27.786  21.705  1.00  0.00     0.008 A 
ATOM     21  C   UNL A   1      50.286  27.014  22.533  1.00  0.00     0.008 A 
ATOM     22  C   UNL A   1      48.625  27.683  20.394  1.00  0.00     0.001 A 
ATOM     23  C   UNL A   1      50.756  26.912  21.222  1.00  0.00     0.001 A 
ATOM     24  C   UNL A   1      49.925  27.241  20.154  1.00  0.00     0.000 A 
ENDBRANCH  18  19
ENDBRANCH  10  17
BRANCH  15  25
ATOM     25  C   UNL A   1      47.505  31.197  27.403  1.00  0.00    -0.033 A 
ATOM     26  C   UNL A   1      47.471  31.352  28.795  1.00  0.00     0.007 A 
ATOM     27  C   UNL A   1      47.404  32.339  26.592  1.00  0.00     0.007 A 
ATOM     28  C   UNL A   1      47.379  32.624  29.366  1.00  0.00     0.001 A 
ATOM     29  C   UNL A   1      47.319  33.610  27.164  1.00  0.00     0.001 A 
ATOM     30  C   UNL A   1      47.313  33.753  28.550  1.00  0.00     0.000 A 
ENDBRANCH  15  25
ENDBRANCH   7   8
ENDBRANCH   6   7
ENDBRANCH   5   6
ENDBRANCH   2   5
BRANCH   3  31
ATOM     31  C   UNL A   1      46.346  19.885  24.445  1.00  0.00     0.117 C 
BRANCH  31  32
ATOM     32  C   UNL A   1      45.155  18.933  24.513  1.00  0.00     0.042 C 
BRANCH  32  33
ATOM     33  C   UNL A   1      44.316  19.032  25.787  1.00  0.00     0.118 C 
BRANCH  33  34
ATOM     34  N   UNL A   1      42.906  18.739  25.583  1.00  0.00    -0.352 N 
ATOM     35  C   UNL A   1      41.799  19.498  25.878  1.00  0.00     0.251 C 
ATOM     36  H   UNL A   1      42.716  17.865  25.172  1.00  0.00     0.163 HD
ATOM     37  O   UNL A   1      40.677  19.025  25.710  1.00  0.00    -0.269 OA
BRANCH  35  38
ATOM     38  C   UNL A   1      41.936  20.866  26.433  1.00  0.00     0.039 A 
ATOM     39  C   UNL A   1      41.703  21.054  27.799  1.00  0.00     0.014 A 
ATOM     40  C   UNL A   1      42.263  21.960  25.627  1.00  0.00     0.014 A 
ATOM     41  C   UNL A   1      41.868  22.320  28.372  1.00  0.00     0.010 A 
ATOM     42  C   UNL A   1      42.484  23.211  26.210  1.00  0.00     0.010 A 
ATOM     43  C   UNL A   1      42.295  23.403  27.587  1.00  0.00    -0.014 A 
BRANCH  43  44
ATOM     44  C   UNL A   1      42.558  24.735  28.192  1.00  0.00     0.031 A 
ATOM     45  C   UNL A   1      43.912  25.059  28.761  1.00  0.00     0.074 A 
ATOM     46  C   UNL A   1      41.562  25.638  28.288  1.00  0.00     0.049 A 
ATOM     47  N   UNL A   1      44.305  26.129  29.406  1.00  0.00    -0.248 NA
ATOM     48  C   UNL A   1      44.957  24.038  28.597  1.00  0.00     0.031 C 
ATOM     49  C   UNL A   1      40.193  25.443  27.806  1.00  0.00     0.029 A 
ATOM     50  N   UNL A   1      41.543  26.896  28.840  1.00  0.00    -0.354 N 
ATOM     51  C   UNL A   1      45.633  25.902  29.743  1.00  0.00     0.074 A 
ATOM     52  C   UNL A   1      45.970  24.579  29.260  1.00  0.00     0.031 C 
ATOM     53  C   UNL A   1      39.472  26.544  28.073  1.00  0.00     0.029 A 
ATOM     54  C   UNL A   1      40.314  27.506  28.778  1.00  0.00     0.049 A 
ATOM     55  H   UNL A   1      42.336  27.320  29.242  1.00  0.00     0.167 HD
ATOM     56  C   UNL A   1      46.498  26.724  30.383  1.00  0.00     0.037 A 
ATOM     57  C   UNL A   1      39.904  28.699  29.250  1.00  0.00     0.037 A 
ATOM     58  C   UNL A   1      46.176  28.050  30.845  1.00  0.00     0.049 A 
ATOM     59  C   UNL A   1      40.881  29.589  29.968  1.00  0.00     0.074 A 
ATOM     60  C   UNL A   1      47.004  28.976  31.453  1.00  0.00     0.029 A 
ATOM     61  N   UNL A   1      44.923  28.636  30.750  1.00  0.00    -0.354 N 
ATOM     62  N   UNL A   1      42.147  29.382  30.232  1.00  0.00    -0.248 NA
ATOM     63  C   UNL A   1      40.369  30.880  30.451  1.00  0.00     0.031 C 
ATOM     64  C   UNL A   1      46.244  30.111  31.760  1.00  0.00     0.029 A 
ATOM     65  C   UNL A   1      44.952  29.905  31.305  1.00  0.00     0.049 A 
ATOM     66  H   UNL A   1      44.131  28.213  30.347  1.00  0.00     0.167 HD
ATOM     67  C   UNL A   1      42.590  30.522  30.888  1.00  0.00     0.074 A 
ATOM     68  C   UNL A   1      41.460  31.424  30.972  1.00  0.00     0.031 C 
ATOM     69  C   UNL A   1      43.824  30.797  31.376  1.00  0.00     0.037 A 
BRANCH  56  70
ATOM     70  C   UNL A   1      47.887  26.211  30.622  1.00  0.00     0.057 A 
ATOM     71  C   UNL A   1      48.259  25.634  31.842  1.00  0.00     0.134 A 
ATOM     72  C   UNL A   1      48.853  26.263  29.608  1.00  0.00     0.134 A 
ATOM     73  F   UNL A   1      47.385  25.563  32.856  1.00  0.00    -0.206 F 
ATOM     74  C   UNL A   1      49.551  25.148  32.055  1.00  0.00     0.040 A 
ATOM     75  C   UNL A   1      50.141  25.759  29.802  1.00  0.00     0.040 A 
ATOM     76  F   UNL A   1      48.560  26.797  28.414  1.00  0.00    -0.206 F 
ATOM     77  C   UNL A   1      50.494  25.205  31.031  1.00  0.00     0.006 A 
ENDBRANCH  56  70
BRANCH  57  78
ATOM     78  C   UNL A   1      38.499  29.133  29.049  1.00  0.00     0.057 A 
ATOM     79  C   UNL A   1      38.073  29.647  27.820  1.00  0.00     0.134 A 
ATOM     80  C   UNL A   1      37.556  29.056  30.081  1.00  0.00     0.134 A 
ATOM     81  F   UNL A   1      38.938  29.767  26.803  1.00  0.00    -0.206 F 
ATOM     82  C   UNL A   1      36.762  30.085  27.626  1.00  0.00     0.040 A 
ATOM     83  C   UNL A   1      36.236  29.470  29.895  1.00  0.00     0.040 A 
ATOM     84  F   UNL A   1      37.903  28.571  31.281  1.00  0.00    -0.206 F 
ATOM     85  C   UNL A   1      35.837  29.992  28.665  1.00  0.00     0.006 A 
ENDBRANCH  57  78
BRANCH  69  86
ATOM     86  C   UNL A   1      44.027  32.140  32.013  1.00  0.00     0.057 A 
ATOM     87  C   UNL A   1      44.025  32.305  33.404  1.00  0.00     0.134 A 
ATOM     88  C   UNL A   1      44.262  33.274  31.225  1.00  0.00     0.134 A 
ATOM     89  F   UNL A   1      43.791  31.261  34.212  1.00  0.00    -0.206 F 
ATOM     90  C   UNL A   1      44.232  33.555  33.988  1.00  0.00     0.040 A 
ATOM     91  C   UNL A   1      44.493  34.525  31.799  1.00  0.00     0.040 A 
ATOM     92  F   UNL A   1      44.283  33.181  29.887  1.00  0.00    -0.206 F 
ATOM     93  C   UNL A   1      44.473  34.669  33.185  1.00  0.00     0.006 A 
ENDBRANCH  69  86
ENDBRANCH  43  44
ENDBRANCH  35  38
ENDBRANCH  33  34
ENDBRANCH  32  33
ENDBRANCH  31  32
ENDBRANCH   3  31
TORSDOF 16
ENDMDL
MODEL 2
REMARK VINA RESULT:      -9.9      4.691      9.352
REMARK SMILES O=C(CCCN1C(=O)C(=O)/C(=C(/[O-])c2ccccc2)[C@@H]1/C=C/c1ccccc1)NCCCNC(=O)c1ccc(-c2c3nc(c(-c4c(F)cccc4F)c4ccc([nH]4)c(-c4c(F)cccc4F)c4nc(c(-c5c(F)cccc5F)c5ccc2[nH]5)C=C4)C=C3)cc1
REMARK SMILES IDX 1 1 2 2 29 3 3 5 4 6 5 7 6 8 7 9 20 10 8 11 9 12 11 13 10 14
REMARK SMILES IDX 12 15 13 16 21 17 22 18 23 19 24 20 28 21 25 22 27 23 26 24
REMARK SMILES IDX 14 25 15 26 19 27 16 28 18 29 17 30 30 31 31 32 32 33 33 34
REMARK SMILES IDX 34 35 35 37 36 38 37 39 89 40 38 41 88 42 39 43 40 44 41 45
REMARK SMILES IDX 82 46 42 47 87 48 81 49 83 50 43 51 86 52 80 53 79 54 44 56
REMARK SMILES IDX 70 57 53 58 69 59 54 60 57 61 68 62 84 63 55 64 56 65 67 67
REMARK SMILES IDX 85 68 58 69 45 70 46 71 51 72 47 73 48 74 50 75 52 76 49 77
REMARK SMILES IDX 71 78 72 79 77 80 73 81 74 82 76 83 78 84 75 85 59 86 60 87
REMARK SMILES IDX 65 88 61 89 62 90 64 91 66 92 63 93
REMARK H PARENT 29 4 33 36 83 55 57 66
REMARK Flexibility Score: inf
ROOT
ATOM      1  O   UNL A   1      41.614  22.415  28.652  1.00  0.00    -0.275 OA
ATOM      2  C   UNL A   1      40.894  22.699  27.701  1.00  0.00     0.220 C 
ATOM      3  N   UNL A   1      40.990  22.107  26.466  1.00  0.00    -0.356 N 
ATOM      4  H   UNL A   1      40.347  22.369  25.769  1.00  0.00     0.163 HD
ENDROOT
BRANCH   2   5
ATOM      5  C   UNL A   1      39.864  23.812  27.767  1.00  0.00     0.102 C 
BRANCH   5   6
ATOM      6  C   UNL A   1      39.144  24.026  26.436  1.00  0.00     0.031 C 
BRANCH   6   7
ATOM      7  C   UNL A   1      37.634  24.298  26.464  1.00  0.00     0.121 C 
BRANCH   7   8
ATOM      8  N   UNL A   1      36.735  23.175  26.186  1.00  0.00    -0.325 N 
ATOM      9  C   UNL A   1      37.149  21.948  25.725  1.00  0.00     0.295 C 
ATOM     10  C   UNL A   1      35.286  23.344  26.087  1.00  0.00     0.143 C 
ATOM     11  O   UNL A   1      38.269  21.488  25.635  1.00  0.00    -0.265 OA
ATOM     12  C   UNL A   1      35.927  21.205  25.232  1.00  0.00     0.248 C 
ATOM     13  C   UNL A   1      34.746  22.008  25.631  1.00  0.00     0.024 C 
ATOM     14  O   UNL A   1      35.989  20.222  24.526  1.00  0.00    -0.283 OA
ATOM     15  C   UNL A   1      33.479  21.558  25.571  1.00  0.00    -0.092 C 
ATOM     16  O   UNL A   1      32.377  22.327  25.886  1.00  0.00    -0.872 OA
BRANCH  10  17
ATOM     17  C   UNL A   1      34.958  24.451  25.115  1.00  0.00     0.003 C 
ATOM     18  C   UNL A   1      34.137  25.472  25.418  1.00  0.00     0.006 C 
BRANCH  18  19
ATOM     19  C   UNL A   1      33.805  26.543  24.481  1.00  0.00    -0.026 A 
ATOM     20  C   UNL A   1      33.633  26.275  23.118  1.00  0.00     0.008 A 
ATOM     21  C   UNL A   1      33.714  27.859  24.943  1.00  0.00     0.008 A 
ATOM     22  C   UNL A   1      33.391  27.323  22.224  1.00  0.00     0.001 A 
ATOM     23  C   UNL A   1      33.474  28.903  24.047  1.00  0.00     0.001 A 
ATOM     24  C   UNL A   1      33.318  28.636  22.689  1.00  0.00     0.000 A 
ENDBRANCH  18  19
ENDBRANCH  10  17
BRANCH  15  25
ATOM     25  C   UNL A   1      33.117  20.193  25.141  1.00  0.00    -0.033 A 
ATOM     26  C   UNL A   1      33.063  19.154  26.080  1.00  0.00     0.007 A 
ATOM     27  C   UNL A   1      32.789  19.916  23.804  1.00  0.00     0.007 A 
ATOM     28  C   UNL A   1      32.648  17.875  25.699  1.00  0.00     0.001 A 
ATOM     29  C   UNL A   1      32.369  18.639  23.427  1.00  0.00     0.001 A 
ATOM     30  C   UNL A   1      32.292  17.621  24.375  1.00  0.00     0.000 A 
ENDBRANCH  15  25
ENDBRANCH   7   8
ENDBRANCH   6   7
ENDBRANCH   5   6
ENDBRANCH   2   5
BRANCH   3  31
ATOM     31  C   UNL A   1      41.993  21.117  26.143  1.00  0.00     0.117 C 
BRANCH  31  32
ATOM     32  C   UNL A   1      43.281  21.738  25.611  1.00  0.00     0.042 C 
BRANCH  32  33
ATOM     33  C   UNL A   1      43.132  23.144  25.029  1.00  0.00     0.118 C 
BRANCH  33  34
ATOM     34  N   UNL A   1      44.397  23.769  24.678  1.00  0.00    -0.352 N 
ATOM     35  C   UNL A   1      44.947  24.950  25.116  1.00  0.00     0.251 C 
ATOM     36  H   UNL A   1      44.944  23.270  24.028  1.00  0.00     0.163 HD
ATOM     37  O   UNL A   1      45.998  25.351  24.621  1.00  0.00    -0.269 OA
BRANCH  35  38
ATOM     38  C   UNL A   1      44.271  25.770  26.150  1.00  0.00     0.039 A 
ATOM     39  C   UNL A   1      43.568  25.110  27.164  1.00  0.00     0.014 A 
ATOM     40  C   UNL A   1      44.298  27.167  26.120  1.00  0.00     0.014 A 
ATOM     41  C   UNL A   1      42.956  25.844  28.186  1.00  0.00     0.010 A 
ATOM     42  C   UNL A   1      43.737  27.896  27.171  1.00  0.00     0.010 A 
ATOM     43  C   UNL A   1      43.066  27.243  28.217  1.00  0.00    -0.014 A 
BRANCH  43  44
ATOM     44  C   UNL A   1      42.496  28.036  29.339  1.00  0.00     0.031 A 
ATOM     45  C   UNL A   1      43.168  28.042  30.684  1.00  0.00     0.074 A 
ATOM     46  C   UNL A   1      41.337  28.703  29.170  1.00  0.00     0.049 A 
ATOM     47  N   UNL A   1      42.775  28.597  31.804  1.00  0.00    -0.248 NA
ATOM     48  C   UNL A   1      44.442  27.315  30.789  1.00  0.00     0.031 C 
ATOM     49  C   UNL A   1      40.564  28.756  27.927  1.00  0.00     0.029 A 
ATOM     50  N   UNL A   1      40.597  29.451  30.052  1.00  0.00    -0.354 N 
ATOM     51  C   UNL A   1      43.739  28.269  32.749  1.00  0.00     0.074 A 
ATOM     52  C   UNL A   1      44.719  27.440  32.079  1.00  0.00     0.031 C 
ATOM     53  C   UNL A   1      39.467  29.504  28.124  1.00  0.00     0.029 A 
ATOM     54  C   UNL A   1      39.437  29.952  29.513  1.00  0.00     0.049 A 
ATOM     55  H   UNL A   1      40.872  29.613  30.984  1.00  0.00     0.167 HD
ATOM     56  C   UNL A   1      43.810  28.637  34.050  1.00  0.00     0.037 A 
ATOM     57  C   UNL A   1      38.452  30.676  30.076  1.00  0.00     0.037 A 
ATOM     58  C   UNL A   1      42.851  29.481  34.714  1.00  0.00     0.049 A 
ATOM     59  C   UNL A   1      38.548  31.061  31.526  1.00  0.00     0.074 A 
ATOM     60  C   UNL A   1      42.872  29.952  36.016  1.00  0.00     0.029 A 
ATOM     61  N   UNL A   1      41.698  29.979  34.129  1.00  0.00    -0.354 N 
ATOM     62  N   UNL A   1      39.492  30.788  32.392  1.00  0.00    -0.248 NA
ATOM     63  C   UNL A   1      37.441  31.858  32.076  1.00  0.00     0.031 C 
ATOM     64  C   UNL A   1      41.712  30.705  36.229  1.00  0.00     0.029 A 
ATOM     65  C   UNL A   1      40.990  30.737  35.047  1.00  0.00     0.049 A 
ATOM     66  H   UNL A   1      41.423  29.818  33.197  1.00  0.00     0.167 HD
ATOM     67  C   UNL A   1      39.108  31.398  33.579  1.00  0.00     0.074 A 
ATOM     68  C   UNL A   1      37.850  32.066  33.319  1.00  0.00     0.031 C 
ATOM     69  C   UNL A   1      39.743  31.404  34.776  1.00  0.00     0.037 A 
BRANCH  56  70
ATOM     70  C   UNL A   1      44.974  28.126  34.847  1.00  0.00     0.057 A 
ATOM     71  C   UNL A   1      46.168  28.849  34.954  1.00  0.00     0.134 A 
ATOM     72  C   UNL A   1      44.886  26.913  35.543  1.00  0.00     0.134 A 
ATOM     73  F   UNL A   1      46.320  30.012  34.304  1.00  0.00    -0.206 F 
ATOM     74  C   UNL A   1      47.244  28.372  35.705  1.00  0.00     0.040 A 
ATOM     75  C   UNL A   1      45.946  26.438  36.316  1.00  0.00     0.040 A 
ATOM     76  F   UNL A   1      43.767  26.175  35.487  1.00  0.00    -0.206 F 
ATOM     77  C   UNL A   1      47.133  27.166  36.394  1.00  0.00     0.006 A 
ENDBRANCH  56  70
BRANCH  57  78
ATOM     78  C   UNL A   1      37.284  31.100  29.262  1.00  0.00     0.057 A 
ATOM     79  C   UNL A   1      36.251  30.206  28.966  1.00  0.00     0.134 A 
ATOM     80  C   UNL A   1      37.182  32.400  28.754  1.00  0.00     0.134 A 
ATOM     81  F   UNL A   1      36.306  28.941  29.406  1.00  0.00    -0.206 F 
ATOM     82  C   UNL A   1      35.161  30.583  28.180  1.00  0.00     0.040 A 
ATOM     83  C   UNL A   1      36.087  32.798  27.984  1.00  0.00     0.040 A 
ATOM     84  F   UNL A   1      38.140  33.304  29.005  1.00  0.00    -0.206 F 
ATOM     85  C   UNL A   1      35.075  31.885  27.690  1.00  0.00     0.006 A 
ENDBRANCH  57  78
BRANCH  69  86
ATOM     86  C   UNL A   1      39.106  32.185  35.887  1.00  0.00     0.057 A 
ATOM     87  C   UNL A   1      38.220  31.590  36.794  1.00  0.00     0.134 A 
ATOM     88  C   UNL A   1      39.411  33.539  36.072  1.00  0.00     0.134 A 
ATOM     89  F   UNL A   1      37.875  30.301  36.661  1.00  0.00    -0.206 F 
ATOM     90  C   UNL A   1      37.644  32.320  37.835  1.00  0.00     0.040 A 
ATOM     91  C   UNL A   1      38.860  34.274  37.123  1.00  0.00     0.040 A 
ATOM     92  F   UNL A   1      40.258  34.166  35.242  1.00  0.00    -0.206 F 
ATOM     93  C   UNL A   1      37.970  33.666  38.006  1.00  0.00     0.006 A 
ENDBRANCH  69  86
ENDBRANCH  43  44
ENDBRANCH  35  38
ENDBRANCH  33  34
ENDBRANCH  32  33
ENDBRANCH  31  32
ENDBRANCH   3  31
TORSDOF 16
ENDMDL
MODEL 3
REMARK VINA RESULT:      -9.8      5.286     12.391
REMARK SMILES O=C(CCCN1C(=O)C(=O)/C(=C(/[O-])c2ccccc2)[C@@H]1/C=C/c1ccccc1)NCCCNC(=O)c1ccc(-c2c3nc(c(-c4c(F)cccc4F)c4ccc([nH]4)c(-c4c(F)cccc4F)c4nc(c(-c5c(F)cccc5F)c5ccc2[nH]5)C=C4)C=C3)cc1
REMARK SMILES IDX 1 1 2 2 29 3 3 5 4 6 5 7 6 8 7 9 20 10 8 11 9 12 11 13 10 14
REMARK SMILES IDX 12 15 13 16 21 17 22 18 23 19 24 20 28 21 25 22 27 23 26 24
REMARK SMILES IDX 14 25 15 26 19 27 16 28 18 29 17 30 30 31 31 32 32 33 33 34
REMARK SMILES IDX 34 35 35 37 36 38 37 39 89 40 38 41 88 42 39 43 40 44 41 45
REMARK SMILES IDX 82 46 42 47 87 48 81 49 83 50 43 51 86 52 80 53 79 54 44 56
REMARK SMILES IDX 70 57 53 58 69 59 54 60 57 61 68 62 84 63 55 64 56 65 67 67
REMARK SMILES IDX 85 68 58 69 45 70 46 71 51 72 47 73 48 74 50 75 52 76 49 77
REMARK SMILES IDX 71 78 72 79 77 80 73 81 74 82 76 83 78 84 75 85 59 86 60 87
REMARK SMILES IDX 65 88 61 89 62 90 64 91 66 92 63 93
REMARK H PARENT 29 4 33 36 83 55 57 66
REMARK Flexibility Score: inf
ROOT
ATOM      1  O   UNL A   1      35.797  35.584  32.796  1.00  0.00    -0.275 OA
ATOM      2  C   UNL A   1      34.835  35.036  33.325  1.00  0.00     0.220 C 
ATOM      3  N   UNL A   1      33.566  35.559  33.327  1.00  0.00    -0.356 N 
ATOM      4  H   UNL A   1      32.844  35.035  33.744  1.00  0.00     0.163 HD
ENDROOT
BRANCH   2   5
ATOM      5  C   UNL A   1      34.969  33.749  34.117  1.00  0.00     0.102 C 
BRANCH   5   6
ATOM      6  C   UNL A   1      36.005  33.853  35.237  1.00  0.00     0.031 C 
BRANCH   6   7
ATOM      7  C   UNL A   1      37.477  34.045  34.846  1.00  0.00     0.121 C 
BRANCH   7   8
ATOM      8  N   UNL A   1      38.318  32.847  34.758  1.00  0.00    -0.325 N 
ATOM      9  C   UNL A   1      37.985  31.720  34.047  1.00  0.00     0.295 C 
ATOM     10  C   UNL A   1      39.450  32.623  35.656  1.00  0.00     0.143 C 
ATOM     11  O   UNL A   1      37.093  31.541  33.243  1.00  0.00    -0.265 OA
ATOM     12  C   UNL A   1      38.912  30.608  34.488  1.00  0.00     0.248 C 
ATOM     13  C   UNL A   1      39.942  31.226  35.356  1.00  0.00     0.024 C 
ATOM     14  O   UNL A   1      38.702  29.437  34.252  1.00  0.00    -0.283 OA
ATOM     15  C   UNL A   1      41.066  30.599  35.750  1.00  0.00    -0.092 C 
ATOM     16  O   UNL A   1      41.994  31.155  36.606  1.00  0.00    -0.872 OA
BRANCH  10  17
ATOM     17  C   UNL A   1      39.010  32.775  37.092  1.00  0.00     0.003 C 
ATOM     18  C   UNL A   1      37.989  32.080  37.622  1.00  0.00     0.006 C 
BRANCH  18  19
ATOM     19  C   UNL A   1      37.549  32.226  39.009  1.00  0.00    -0.026 A 
ATOM     20  C   UNL A   1      38.052  33.254  39.814  1.00  0.00     0.008 A 
ATOM     21  C   UNL A   1      36.659  31.296  39.552  1.00  0.00     0.008 A 
ATOM     22  C   UNL A   1      37.679  33.334  41.160  1.00  0.00     0.001 A 
ATOM     23  C   UNL A   1      36.290  31.378  40.896  1.00  0.00     0.001 A 
ATOM     24  C   UNL A   1      36.804  32.393  41.700  1.00  0.00     0.000 A 
ENDBRANCH  18  19
ENDBRANCH  10  17
BRANCH  15  25
ATOM     25  C   UNL A   1      41.428  29.232  35.326  1.00  0.00    -0.033 A 
ATOM     26  C   UNL A   1      41.800  28.986  33.998  1.00  0.00     0.007 A 
ATOM     27  C   UNL A   1      41.441  28.168  36.242  1.00  0.00     0.007 A 
ATOM     28  C   UNL A   1      42.218  27.712  33.603  1.00  0.00     0.001 A 
ATOM     29  C   UNL A   1      41.865  26.897  35.847  1.00  0.00     0.001 A 
ATOM     30  C   UNL A   1      42.260  26.671  34.529  1.00  0.00     0.000 A 
ENDBRANCH  15  25
ENDBRANCH   7   8
ENDBRANCH   6   7
ENDBRANCH   5   6
ENDBRANCH   2   5
BRANCH   3  31
ATOM     31  C   UNL A   1      33.240  36.842  32.747  1.00  0.00     0.117 C 
BRANCH  31  32
ATOM     32  C   UNL A   1      32.453  36.715  31.446  1.00  0.00     0.042 C 
BRANCH  32  33
ATOM     33  C   UNL A   1      33.298  36.472  30.196  1.00  0.00     0.118 C 
BRANCH  33  34
ATOM     34  N   UNL A   1      32.690  35.551  29.249  1.00  0.00    -0.352 N 
ATOM     35  C   UNL A   1      33.203  34.410  28.679  1.00  0.00     0.251 C 
ATOM     36  H   UNL A   1      31.773  35.779  28.973  1.00  0.00     0.163 HD
ATOM     37  O   UNL A   1      32.554  33.816  27.821  1.00  0.00    -0.269 OA
BRANCH  35  38
ATOM     38  C   UNL A   1      34.544  33.904  29.057  1.00  0.00     0.039 A 
ATOM     39  C   UNL A   1      34.651  33.090  30.190  1.00  0.00     0.014 A 
ATOM     40  C   UNL A   1      35.691  34.237  28.331  1.00  0.00     0.014 A 
ATOM     41  C   UNL A   1      35.891  32.553  30.554  1.00  0.00     0.010 A 
ATOM     42  C   UNL A   1      36.916  33.654  28.661  1.00  0.00     0.010 A 
ATOM     43  C   UNL A   1      37.029  32.801  29.771  1.00  0.00    -0.014 A 
BRANCH  43  44
ATOM     44  C   UNL A   1      38.337  32.171  30.091  1.00  0.00     0.031 A 
ATOM     45  C   UNL A   1      39.353  32.907  30.920  1.00  0.00     0.074 A 
ATOM     46  C   UNL A   1      38.640  30.959  29.585  1.00  0.00     0.049 A 
ATOM     47  N   UNL A   1      40.578  32.560  31.229  1.00  0.00    -0.248 NA
ATOM     48  C   UNL A   1      38.943  34.211  31.461  1.00  0.00     0.031 C 
ATOM     49  C   UNL A   1      37.760  30.149  28.741  1.00  0.00     0.029 A 
ATOM     50  N   UNL A   1      39.782  30.204  29.695  1.00  0.00    -0.354 N 
ATOM     51  C   UNL A   1      41.092  33.610  31.979  1.00  0.00     0.074 A 
ATOM     52  C   UNL A   1      40.058  34.620  32.052  1.00  0.00     0.031 C 
ATOM     53  C   UNL A   1      38.389  29.008  28.418  1.00  0.00     0.029 A 
ATOM     54  C   UNL A   1      39.729  29.021  28.999  1.00  0.00     0.049 A 
ATOM     55  H   UNL A   1      40.565  30.484  30.222  1.00  0.00     0.167 HD
ATOM     56  C   UNL A   1      42.308  33.718  32.565  1.00  0.00     0.037 A 
ATOM     57  C   UNL A   1      40.657  28.060  28.832  1.00  0.00     0.037 A 
ATOM     58  C   UNL A   1      43.331  32.706  32.515  1.00  0.00     0.049 A 
ATOM     59  C   UNL A   1      42.004  28.209  29.484  1.00  0.00     0.074 A 
ATOM     60  C   UNL A   1      44.573  32.704  33.127  1.00  0.00     0.029 A 
ATOM     61  N   UNL A   1      43.232  31.516  31.812  1.00  0.00    -0.354 N 
ATOM     62  N   UNL A   1      42.456  29.184  30.233  1.00  0.00    -0.248 NA
ATOM     63  C   UNL A   1      42.969  27.120  29.266  1.00  0.00     0.031 C 
ATOM     64  C   UNL A   1      45.240  31.529  32.764  1.00  0.00     0.029 A 
ATOM     65  C   UNL A   1      44.397  30.780  31.959  1.00  0.00     0.049 A 
ATOM     66  H   UNL A   1      42.448  31.234  31.286  1.00  0.00     0.167 HD
ATOM     67  C   UNL A   1      43.745  28.817  30.598  1.00  0.00     0.074 A 
ATOM     68  C   UNL A   1      44.000  27.525  29.996  1.00  0.00     0.031 C 
ATOM     69  C   UNL A   1      44.636  29.491  31.364  1.00  0.00     0.037 A 
BRANCH  56  70
ATOM     70  C   UNL A   1      42.599  34.982  33.318  1.00  0.00     0.057 A 
ATOM     71  C   UNL A   1      42.424  35.071  34.705  1.00  0.00     0.134 A 
ATOM     72  C   UNL A   1      43.093  36.112  32.654  1.00  0.00     0.134 A 
ATOM     73  F   UNL A   1      41.945  34.028  35.398  1.00  0.00    -0.206 F 
ATOM     74  C   UNL A   1      42.707  36.247  35.401  1.00  0.00     0.040 A 
ATOM     75  C   UNL A   1      43.401  37.286  33.343  1.00  0.00     0.040 A 
ATOM     76  F   UNL A   1      43.290  36.091  31.327  1.00  0.00    -0.206 F 
ATOM     77  C   UNL A   1      43.203  37.358  34.721  1.00  0.00     0.006 A 
ENDBRANCH  56  70
BRANCH  57  78
ATOM     78  C   UNL A   1      40.345  26.858  28.019  1.00  0.00     0.057 A 
ATOM     79  C   UNL A   1      39.548  25.830  28.532  1.00  0.00     0.134 A 
ATOM     80  C   UNL A   1      40.843  26.705  26.719  1.00  0.00     0.134 A 
ATOM     81  F   UNL A   1      39.062  25.910  29.778  1.00  0.00    -0.206 F 
ATOM     82  C   UNL A   1      39.269  24.682  27.788  1.00  0.00     0.040 A 
ATOM     83  C   UNL A   1      40.554  25.573  25.957  1.00  0.00     0.040 A 
ATOM     84  F   UNL A   1      41.611  27.658  26.172  1.00  0.00    -0.206 F 
ATOM     85  C   UNL A   1      39.769  24.554  26.494  1.00  0.00     0.006 A 
ENDBRANCH  57  78
BRANCH  69  86
ATOM     86  C   UNL A   1      45.957  28.830  31.624  1.00  0.00     0.057 A 
ATOM     87  C   UNL A   1      46.194  28.089  32.789  1.00  0.00     0.134 A 
ATOM     88  C   UNL A   1      46.990  28.907  30.682  1.00  0.00     0.134 A 
ATOM     89  F   UNL A   1      45.250  27.989  33.736  1.00  0.00    -0.206 F 
ATOM     90  C   UNL A   1      47.421  27.463  33.015  1.00  0.00     0.040 A 
ATOM     91  C   UNL A   1      48.214  28.267  30.887  1.00  0.00     0.040 A 
ATOM     92  F   UNL A   1      46.824  29.596  29.543  1.00  0.00    -0.206 F 
ATOM     93  C   UNL A   1      48.433  27.545  32.059  1.00  0.00     0.006 A 
ENDBRANCH  69  86
ENDBRANCH  43  44
ENDBRANCH  35  38
ENDBRANCH  33  34
ENDBRANCH  32  33
ENDBRANCH  31  32
ENDBRANCH   3  31
TORSDOF 16
ENDMDL
