MODEL 1
REMARK VINA RESULT:     -12.4      0.000      0.000
REMARK SMILES CC(C)c1cccc2c1N[C@H](c1ccc(C(=O)NCCCNC(=O)c3ccc(-c4c5nc(c(-c6c(F)cccc6F)c6ccc([nH]6)c(-c6c(F)cccc6F)c6nc(c(-c7c(F)cccc7F)c7ccc4[nH]7)C=C6)C=C5)cc3)cc1)[C@H]1CC=C[C@H]21
REMARK SMILES IDX 20 1 19 2 18 3 16 4 17 5 15 7 12 8 13 9 80 10 14 11 79 12
REMARK SMILES IDX 11 13 4 14 5 15 9 16 6 17 8 18 10 19 7 20 85 21 81 23 84 24
REMARK SMILES IDX 82 25 83 26 2 27 1 28 3 29 21 30 22 31 23 32 24 34 25 35
REMARK SMILES IDX 26 36 78 37 27 38 77 39 28 40 29 41 30 42 71 43 31 44 76 45
REMARK SMILES IDX 70 46 72 47 32 48 75 49 69 50 68 51 33 53 59 54 42 55 58 56
REMARK SMILES IDX 43 57 46 58 57 59 73 60 44 61 45 62 56 64 74 65 47 66 34 67
REMARK SMILES IDX 35 68 40 69 36 70 37 71 39 72 41 73 38 74 60 75 61 76 66 77
REMARK SMILES IDX 62 78 63 79 65 80 67 81 64 82 48 83 49 84 54 85 50 86 51 87
REMARK SMILES IDX 53 88 55 89 52 90
REMARK H PARENT 18 6 10 22 22 33 72 52 46 63
REMARK Flexibility Score: inf
ROOT
ATOM      1  C   UNL A   1      32.143  28.910  26.512  1.00  0.00     0.042 C 
ENDROOT
BRANCH   1   2
ATOM      2  C   UNL A   1      32.278  28.592  25.031  1.00  0.00     0.118 C 
BRANCH   2   3
ATOM      3  N   UNL A   1      31.012  28.292  24.371  1.00  0.00    -0.352 N 
ATOM      4  C   UNL A   1      30.418  27.076  24.105  1.00  0.00     0.251 C 
ATOM      5  O   UNL A   1      29.365  27.037  23.475  1.00  0.00    -0.269 OA
ATOM      6  H   UNL A   1      30.501  29.078  24.071  1.00  0.00     0.163 HD
BRANCH   4   7
ATOM      7  C   UNL A   1      31.082  25.819  24.516  1.00  0.00     0.039 A 
ATOM      8  C   UNL A   1      32.803  23.751  25.397  1.00  0.00    -0.025 A 
ATOM      9  C   UNL A   1      32.714  24.105  24.037  1.00  0.00     0.006 A 
ATOM     10  C   UNL A   1      31.819  24.299  26.236  1.00  0.00     0.006 A 
ATOM     11  C   UNL A   1      31.878  25.140  23.598  1.00  0.00     0.014 A 
ATOM     12  C   UNL A   1      30.965  25.317  25.805  1.00  0.00     0.014 A 
BRANCH   8  13
ATOM     13  C   UNL A   1      33.887  22.793  25.938  1.00  0.00     0.114 C 
ATOM     14  C   UNL A   1      34.097  19.139  24.722  1.00  0.00    -0.022 A 
ATOM     15  C   UNL A   1      35.100  18.206  24.361  1.00  0.00     0.006 A 
ATOM     16  C   UNL A   1      34.488  20.405  25.223  1.00  0.00     0.042 A 
ATOM     17  C   UNL A   1      36.453  18.500  24.475  1.00  0.00     0.001 A 
ATOM     18  C   UNL A   1      35.876  20.691  25.313  1.00  0.00    -0.017 A 
ATOM     19  N   UNL A   1      33.562  21.390  25.569  1.00  0.00    -0.377 N 
ATOM     20  C   UNL A   1      36.841  19.739  24.957  1.00  0.00     0.006 A 
ATOM     21  C   UNL A   1      36.251  21.992  25.955  1.00  0.00     0.049 C 
ATOM     22  H   UNL A   1      32.611  21.133  25.568  1.00  0.00     0.161 HD
ATOM     23  C   UNL A   1      35.318  23.093  25.433  1.00  0.00     0.031 C 
ATOM     24  C   UNL A   1      37.597  22.609  25.720  1.00  0.00    -0.023 C 
ATOM     25  C   UNL A   1      36.064  24.369  25.849  1.00  0.00     0.034 C 
ATOM     26  C   UNL A   1      37.495  23.943  25.713  1.00  0.00    -0.030 C 
BRANCH  14  27
ATOM     27  C   UNL A   1      32.663  18.640  24.570  1.00  0.00     0.015 C 
ATOM     28  C   UNL A   1      32.285  18.458  23.099  1.00  0.00     0.012 C 
ATOM     29  C   UNL A   1      32.313  17.419  25.418  1.00  0.00     0.012 C 
ENDBRANCH  14  27
ENDBRANCH   8  13
ENDBRANCH   4   7
ENDBRANCH   2   3
ENDBRANCH   1   2
BRANCH   1  30
ATOM     30  C   UNL A   1      33.464  29.027  27.256  1.00  0.00     0.118 C 
BRANCH  30  31
ATOM     31  N   UNL A   1      33.649  30.309  27.925  1.00  0.00    -0.352 N 
ATOM     32  C   UNL A   1      34.732  30.873  28.565  1.00  0.00     0.251 C 
ATOM     33  H   UNL A   1      32.849  30.883  27.920  1.00  0.00     0.163 HD
ATOM     34  O   UNL A   1      34.589  31.932  29.164  1.00  0.00    -0.269 OA
BRANCH  32  35
ATOM     35  C   UNL A   1      36.052  30.195  28.592  1.00  0.00     0.039 A 
ATOM     36  C   UNL A   1      36.498  29.508  29.717  1.00  0.00     0.014 A 
ATOM     37  C   UNL A   1      36.869  30.247  27.456  1.00  0.00     0.014 A 
ATOM     38  C   UNL A   1      37.828  29.114  29.805  1.00  0.00     0.010 A 
ATOM     39  C   UNL A   1      38.168  29.728  27.500  1.00  0.00     0.010 A 
ATOM     40  C   UNL A   1      38.689  29.228  28.702  1.00  0.00    -0.014 A 
BRANCH  40  41
ATOM     41  C   UNL A   1      40.123  28.854  28.852  1.00  0.00     0.031 A 
ATOM     42  C   UNL A   1      41.087  29.767  29.570  1.00  0.00     0.074 A 
ATOM     43  C   UNL A   1      40.548  27.650  28.417  1.00  0.00     0.049 A 
ATOM     44  N   UNL A   1      42.362  29.595  29.817  1.00  0.00    -0.248 NA
ATOM     45  C   UNL A   1      40.553  31.043  30.071  1.00  0.00     0.031 C 
ATOM     46  C   UNL A   1      39.721  26.663  27.720  1.00  0.00     0.029 A 
ATOM     47  N   UNL A   1      41.770  27.036  28.532  1.00  0.00    -0.354 N 
ATOM     48  C   UNL A   1      42.786  30.747  30.472  1.00  0.00     0.074 A 
ATOM     49  C   UNL A   1      41.639  31.625  30.557  1.00  0.00     0.031 C 
ATOM     50  C   UNL A   1      40.434  25.543  27.533  1.00  0.00     0.029 A 
ATOM     51  C   UNL A   1      41.789  25.757  28.028  1.00  0.00     0.049 A 
ATOM     52  H   UNL A   1      42.556  27.469  28.934  1.00  0.00     0.167 HD
ATOM     53  C   UNL A   1      44.011  31.044  30.969  1.00  0.00     0.037 A 
ATOM     54  C   UNL A   1      42.788  24.858  27.961  1.00  0.00     0.037 A 
ATOM     55  C   UNL A   1      45.146  30.160  30.918  1.00  0.00     0.049 A 
ATOM     56  C   UNL A   1      44.144  25.225  28.488  1.00  0.00     0.074 A 
ATOM     57  C   UNL A   1      46.425  30.366  31.408  1.00  0.00     0.029 A 
ATOM     58  N   UNL A   1      45.137  28.897  30.347  1.00  0.00    -0.354 N 
ATOM     59  N   UNL A   1      44.526  26.323  29.094  1.00  0.00    -0.248 NA
ATOM     60  C   UNL A   1      45.211  24.232  28.308  1.00  0.00     0.031 C 
ATOM     61  C   UNL A   1      47.198  29.240  31.104  1.00  0.00     0.029 A 
ATOM     62  C   UNL A   1      46.392  28.318  30.458  1.00  0.00     0.049 A 
ATOM     63  H   UNL A   1      44.356  28.474  29.924  1.00  0.00     0.167 HD
ATOM     64  C   UNL A   1      45.873  26.148  29.378  1.00  0.00     0.074 A 
ATOM     65  C   UNL A   1      46.234  24.829  28.900  1.00  0.00     0.031 C 
ATOM     66  C   UNL A   1      46.735  27.005  29.976  1.00  0.00     0.037 A 
BRANCH  53  67
ATOM     67  C   UNL A   1      44.189  32.396  31.600  1.00  0.00     0.057 A 
ATOM     68  C   UNL A   1      44.609  33.490  30.832  1.00  0.00     0.134 A 
ATOM     69  C   UNL A   1      43.964  32.614  32.964  1.00  0.00     0.134 A 
ATOM     70  F   UNL A   1      44.849  33.350  29.520  1.00  0.00    -0.206 F 
ATOM     71  C   UNL A   1      44.796  34.752  31.399  1.00  0.00     0.040 A 
ATOM     72  C   UNL A   1      44.124  33.877  33.539  1.00  0.00     0.040 A 
ATOM     73  F   UNL A   1      43.547  31.612  33.753  1.00  0.00    -0.206 F 
ATOM     74  C   UNL A   1      44.545  34.950  32.756  1.00  0.00     0.006 A 
ENDBRANCH  53  67
BRANCH  54  75
ATOM     75  C   UNL A   1      42.547  23.524  27.355  1.00  0.00     0.057 A 
ATOM     76  C   UNL A   1      42.719  23.305  25.983  1.00  0.00     0.134 A 
ATOM     77  C   UNL A   1      42.149  22.435  28.138  1.00  0.00     0.134 A 
ATOM     78  F   UNL A   1      43.096  24.309  25.178  1.00  0.00    -0.206 F 
ATOM     79  C   UNL A   1      42.493  22.054  25.409  1.00  0.00     0.040 A 
ATOM     80  C   UNL A   1      41.945  21.171  27.582  1.00  0.00     0.040 A 
ATOM     81  F   UNL A   1      41.988  22.578  29.463  1.00  0.00    -0.206 F 
ATOM     82  C   UNL A   1      42.111  20.981  26.211  1.00  0.00     0.006 A 
ENDBRANCH  54  75
BRANCH  66  83
ATOM     83  C   UNL A   1      48.143  26.525  30.165  1.00  0.00     0.057 A 
ATOM     84  C   UNL A   1      48.513  25.839  31.328  1.00  0.00     0.134 A 
ATOM     85  C   UNL A   1      49.132  26.746  29.198  1.00  0.00     0.134 A 
ATOM     86  F   UNL A   1      47.615  25.599  32.294  1.00  0.00    -0.206 F 
ATOM     87  C   UNL A   1      49.819  25.383  31.520  1.00  0.00     0.040 A 
ATOM     88  C   UNL A   1      50.435  26.273  29.368  1.00  0.00     0.040 A 
ATOM     89  F   UNL A   1      48.836  27.382  28.056  1.00  0.00    -0.206 F 
ATOM     90  C   UNL A   1      50.782  25.593  30.534  1.00  0.00     0.006 A 
ENDBRANCH  66  83
ENDBRANCH  40  41
ENDBRANCH  32  35
ENDBRANCH  30  31
ENDBRANCH   1  30
TORSDOF 12
ENDMDL
MODEL 2
REMARK VINA RESULT:     -12.4      4.205      9.345
REMARK SMILES CC(C)c1cccc2c1N[C@H](c1ccc(C(=O)NCCCNC(=O)c3ccc(-c4c5nc(c(-c6c(F)cccc6F)c6ccc([nH]6)c(-c6c(F)cccc6F)c6nc(c(-c7c(F)cccc7F)c7ccc4[nH]7)C=C6)C=C5)cc3)cc1)[C@H]1CC=C[C@H]21
REMARK SMILES IDX 20 1 19 2 18 3 16 4 17 5 15 7 12 8 13 9 80 10 14 11 79 12
REMARK SMILES IDX 11 13 4 14 5 15 9 16 6 17 8 18 10 19 7 20 85 21 81 23 84 24
REMARK SMILES IDX 82 25 83 26 2 27 1 28 3 29 21 30 22 31 23 32 24 34 25 35
REMARK SMILES IDX 26 36 78 37 27 38 77 39 28 40 29 41 30 42 71 43 31 44 76 45
REMARK SMILES IDX 70 46 72 47 32 48 75 49 69 50 68 51 33 53 59 54 42 55 58 56
REMARK SMILES IDX 43 57 46 58 57 59 73 60 44 61 45 62 56 64 74 65 47 66 34 67
REMARK SMILES IDX 35 68 40 69 36 70 37 71 39 72 41 73 38 74 60 75 61 76 66 77
REMARK SMILES IDX 62 78 63 79 65 80 67 81 64 82 48 83 49 84 54 85 50 86 51 87
REMARK SMILES IDX 53 88 55 89 52 90
REMARK H PARENT 18 6 10 22 22 33 72 52 46 63
REMARK Flexibility Score: inf
ROOT
ATOM      1  C   UNL A   1      40.402  22.260  27.436  1.00  0.00     0.042 C 
ENDROOT
BRANCH   1   2
ATOM      2  C   UNL A   1      39.293  22.715  26.500  1.00  0.00     0.118 C 
BRANCH   2   3
ATOM      3  N   UNL A   1      38.658  21.629  25.760  1.00  0.00    -0.352 N 
ATOM      4  C   UNL A   1      37.339  21.455  25.400  1.00  0.00     0.251 C 
ATOM      5  O   UNL A   1      36.994  20.427  24.824  1.00  0.00    -0.269 OA
ATOM      6  H   UNL A   1      39.265  20.909  25.473  1.00  0.00     0.163 HD
BRANCH   4   7
ATOM      7  C   UNL A   1      36.329  22.474  25.764  1.00  0.00     0.039 A 
ATOM      8  C   UNL A   1      34.101  24.201  26.029  1.00  0.00    -0.025 A 
ATOM      9  C   UNL A   1      35.203  24.539  25.219  1.00  0.00     0.006 A 
ATOM     10  C   UNL A   1      34.285  23.099  26.880  1.00  0.00     0.006 A 
ATOM     11  C   UNL A   1      36.300  23.679  25.071  1.00  0.00     0.014 A 
ATOM     12  C   UNL A   1      35.384  22.245  26.756  1.00  0.00     0.014 A 
BRANCH   8  13
ATOM     13  C   UNL A   1      32.782  25.005  26.018  1.00  0.00     0.114 C 
ATOM     14  C   UNL A   1      32.803  28.858  26.193  1.00  0.00    -0.022 A 
ATOM     15  C   UNL A   1      32.115  29.942  25.595  1.00  0.00     0.006 A 
ATOM     16  C   UNL A   1      32.392  27.536  25.891  1.00  0.00     0.042 A 
ATOM     17  C   UNL A   1      31.058  29.746  24.715  1.00  0.00     0.001 A 
ATOM     18  C   UNL A   1      31.322  27.360  24.975  1.00  0.00    -0.017 A 
ATOM     19  N   UNL A   1      33.039  26.415  26.413  1.00  0.00    -0.377 N 
ATOM     20  C   UNL A   1      30.657  28.456  24.411  1.00  0.00     0.006 A 
ATOM     21  C   UNL A   1      30.840  25.955  24.771  1.00  0.00     0.049 C 
ATOM     22  H   UNL A   1      33.725  26.572  27.102  1.00  0.00     0.161 HD
ATOM     23  C   UNL A   1      32.055  25.023  24.653  1.00  0.00     0.031 C 
ATOM     24  C   UNL A   1      30.058  25.578  23.549  1.00  0.00    -0.023 C 
ATOM     25  C   UNL A   1      31.427  23.753  24.062  1.00  0.00     0.034 C 
ATOM     26  C   UNL A   1      30.353  24.324  23.186  1.00  0.00    -0.030 C 
BRANCH  14  27
ATOM     27  C   UNL A   1      33.914  29.251  27.163  1.00  0.00     0.015 C 
ATOM     28  C   UNL A   1      35.295  28.902  26.606  1.00  0.00     0.012 C 
ATOM     29  C   UNL A   1      33.838  30.686  27.680  1.00  0.00     0.012 C 
ENDBRANCH  14  27
ENDBRANCH   8  13
ENDBRANCH   4   7
ENDBRANCH   2   3
ENDBRANCH   1   2
BRANCH   1  30
ATOM     30  C   UNL A   1      41.577  23.218  27.536  1.00  0.00     0.118 C 
BRANCH  30  31
ATOM     31  N   UNL A   1      41.869  23.921  26.291  1.00  0.00    -0.352 N 
ATOM     32  C   UNL A   1      41.744  25.243  25.923  1.00  0.00     0.251 C 
ATOM     33  H   UNL A   1      42.222  23.341  25.578  1.00  0.00     0.163 HD
ATOM     34  O   UNL A   1      41.945  25.561  24.757  1.00  0.00    -0.269 OA
BRANCH  32  35
ATOM     35  C   UNL A   1      41.316  26.279  26.896  1.00  0.00     0.039 A 
ATOM     36  C   UNL A   1      41.821  27.575  26.853  1.00  0.00     0.014 A 
ATOM     37  C   UNL A   1      40.380  25.944  27.881  1.00  0.00     0.014 A 
ATOM     38  C   UNL A   1      41.607  28.437  27.922  1.00  0.00     0.010 A 
ATOM     39  C   UNL A   1      40.058  26.864  28.887  1.00  0.00     0.010 A 
ATOM     40  C   UNL A   1      40.730  28.091  28.963  1.00  0.00    -0.014 A 
BRANCH  40  41
ATOM     41  C   UNL A   1      40.572  29.013  30.122  1.00  0.00     0.031 A 
ATOM     42  C   UNL A   1      39.462  30.036  30.148  1.00  0.00     0.074 A 
ATOM     43  C   UNL A   1      41.375  28.878  31.197  1.00  0.00     0.049 A 
ATOM     44  N   UNL A   1      39.157  30.903  31.083  1.00  0.00    -0.248 NA
ATOM     45  C   UNL A   1      38.583  30.100  28.970  1.00  0.00     0.031 C 
ATOM     46  C   UNL A   1      42.478  27.922  31.313  1.00  0.00     0.029 A 
ATOM     47  N   UNL A   1      41.363  29.517  32.411  1.00  0.00    -0.354 N 
ATOM     48  C   UNL A   1      38.077  31.630  30.594  1.00  0.00     0.074 A 
ATOM     49  C   UNL A   1      37.797  31.124  29.268  1.00  0.00     0.031 C 
ATOM     50  C   UNL A   1      42.989  27.986  32.551  1.00  0.00     0.029 A 
ATOM     51  C   UNL A   1      42.302  29.037  33.292  1.00  0.00     0.049 A 
ATOM     52  H   UNL A   1      40.743  30.248  32.630  1.00  0.00     0.167 HD
ATOM     53  C   UNL A   1      37.371  32.618  31.196  1.00  0.00     0.037 A 
ATOM     54  C   UNL A   1      42.589  29.407  34.554  1.00  0.00     0.037 A 
ATOM     55  C   UNL A   1      37.622  33.101  32.529  1.00  0.00     0.049 A 
ATOM     56  C   UNL A   1      41.816  30.527  35.185  1.00  0.00     0.074 A 
ATOM     57  C   UNL A   1      36.951  34.088  33.231  1.00  0.00     0.029 A 
ATOM     58  N   UNL A   1      38.620  32.626  33.365  1.00  0.00    -0.354 N 
ATOM     59  N   UNL A   1      40.804  31.208  34.703  1.00  0.00    -0.248 NA
ATOM     60  C   UNL A   1      42.234  30.939  36.532  1.00  0.00     0.031 C 
ATOM     61  C   UNL A   1      37.566  34.233  34.480  1.00  0.00     0.029 A 
ATOM     62  C   UNL A   1      38.595  33.311  34.571  1.00  0.00     0.049 A 
ATOM     63  H   UNL A   1      39.255  31.910  33.137  1.00  0.00     0.167 HD
ATOM     64  C   UNL A   1      40.458  32.120  35.690  1.00  0.00     0.074 A 
ATOM     65  C   UNL A   1      41.351  31.887  36.806  1.00  0.00     0.031 C 
ATOM     66  C   UNL A   1      39.491  33.068  35.671  1.00  0.00     0.037 A 
BRANCH  53  67
ATOM     67  C   UNL A   1      36.265  33.256  30.405  1.00  0.00     0.057 A 
ATOM     68  C   UNL A   1      34.927  32.932  30.661  1.00  0.00     0.134 A 
ATOM     69  C   UNL A   1      36.522  34.176  29.380  1.00  0.00     0.134 A 
ATOM     70  F   UNL A   1      34.610  32.054  31.624  1.00  0.00    -0.206 F 
ATOM     71  C   UNL A   1      33.883  33.502  29.928  1.00  0.00     0.040 A 
ATOM     72  C   UNL A   1      35.486  34.772  28.657  1.00  0.00     0.040 A 
ATOM     73  F   UNL A   1      37.780  34.541  29.093  1.00  0.00    -0.206 F 
ATOM     74  C   UNL A   1      34.161  34.431  28.928  1.00  0.00     0.006 A 
ENDBRANCH  53  67
BRANCH  54  75
ATOM     75  C   UNL A   1      43.673  28.721  35.301  1.00  0.00     0.057 A 
ATOM     76  C   UNL A   1      45.010  29.109  35.168  1.00  0.00     0.134 A 
ATOM     77  C   UNL A   1      43.391  27.665  36.176  1.00  0.00     0.134 A 
ATOM     78  F   UNL A   1      45.346  30.112  34.343  1.00  0.00    -0.206 F 
ATOM     79  C   UNL A   1      46.032  28.466  35.867  1.00  0.00     0.040 A 
ATOM     80  C   UNL A   1      44.400  27.030  36.902  1.00  0.00     0.040 A 
ATOM     81  F   UNL A   1      42.125  27.260  36.362  1.00  0.00    -0.206 F 
ATOM     82  C   UNL A   1      45.726  27.427  36.743  1.00  0.00     0.006 A 
ENDBRANCH  54  75
BRANCH  66  83
ATOM     83  C   UNL A   1      39.339  33.904  36.907  1.00  0.00     0.057 A 
ATOM     84  C   UNL A   1      38.605  33.432  38.002  1.00  0.00     0.134 A 
ATOM     85  C   UNL A   1      39.918  35.175  37.012  1.00  0.00     0.134 A 
ATOM     86  F   UNL A   1      38.022  32.224  37.963  1.00  0.00    -0.206 F 
ATOM     87  C   UNL A   1      38.455  34.195  39.161  1.00  0.00     0.040 A 
ATOM     88  C   UNL A   1      39.795  35.936  38.176  1.00  0.00     0.040 A 
ATOM     89  F   UNL A   1      40.648  35.675  36.005  1.00  0.00    -0.206 F 
ATOM     90  C   UNL A   1      39.058  35.447  39.253  1.00  0.00     0.006 A 
ENDBRANCH  66  83
ENDBRANCH  40  41
ENDBRANCH  32  35
ENDBRANCH  30  31
ENDBRANCH   1  30
TORSDOF 12
ENDMDL
MODEL 3
REMARK VINA RESULT:     -12.4      0.723      6.102
REMARK SMILES CC(C)c1cccc2c1N[C@H](c1ccc(C(=O)NCCCNC(=O)c3ccc(-c4c5nc(c(-c6c(F)cccc6F)c6ccc([nH]6)c(-c6c(F)cccc6F)c6nc(c(-c7c(F)cccc7F)c7ccc4[nH]7)C=C6)C=C5)cc3)cc1)[C@H]1CC=C[C@H]21
REMARK SMILES IDX 20 1 19 2 18 3 16 4 17 5 15 7 12 8 13 9 80 10 14 11 79 12
REMARK SMILES IDX 11 13 4 14 5 15 9 16 6 17 8 18 10 19 7 20 85 21 81 23 84 24
REMARK SMILES IDX 82 25 83 26 2 27 1 28 3 29 21 30 22 31 23 32 24 34 25 35
REMARK SMILES IDX 26 36 78 37 27 38 77 39 28 40 29 41 30 42 71 43 31 44 76 45
REMARK SMILES IDX 70 46 72 47 32 48 75 49 69 50 68 51 33 53 59 54 42 55 58 56
REMARK SMILES IDX 43 57 46 58 57 59 73 60 44 61 45 62 56 64 74 65 47 66 34 67
REMARK SMILES IDX 35 68 40 69 36 70 37 71 39 72 41 73 38 74 60 75 61 76 66 77
REMARK SMILES IDX 62 78 63 79 65 80 67 81 64 82 48 83 49 84 54 85 50 86 51 87
REMARK SMILES IDX 53 88 55 89 52 90
REMARK H PARENT 18 6 10 22 22 33 72 52 46 63
REMARK Flexibility Score: inf
ROOT
ATOM      1  C   UNL A   1      32.741  29.638  26.034  1.00  0.00     0.042 C 
ENDROOT
BRANCH   1   2
ATOM      2  C   UNL A   1      33.075  28.961  24.713  1.00  0.00     0.118 C 
BRANCH   2   3
ATOM      3  N   UNL A   1      31.921  28.753  23.845  1.00  0.00    -0.352 N 
ATOM      4  C   UNL A   1      31.315  27.582  23.442  1.00  0.00     0.251 C 
ATOM      5  O   UNL A   1      30.380  27.621  22.647  1.00  0.00    -0.269 OA
ATOM      6  H   UNL A   1      31.511  29.575  23.492  1.00  0.00     0.163 HD
BRANCH   4   7
ATOM      7  C   UNL A   1      31.833  26.278  23.912  1.00  0.00     0.039 A 
ATOM      8  C   UNL A   1      33.270  24.089  24.987  1.00  0.00    -0.025 A 
ATOM      9  C   UNL A   1      33.419  24.478  23.642  1.00  0.00     0.006 A 
ATOM     10  C   UNL A   1      32.198  24.677  25.678  1.00  0.00     0.006 A 
ATOM     11  C   UNL A   1      32.724  25.572  23.110  1.00  0.00     0.014 A 
ATOM     12  C   UNL A   1      31.483  25.755  25.150  1.00  0.00     0.014 A 
BRANCH   8  13
ATOM     13  C   UNL A   1      34.199  23.054  25.661  1.00  0.00     0.114 C 
ATOM     14  C   UNL A   1      34.091  19.333  24.653  1.00  0.00    -0.022 A 
ATOM     15  C   UNL A   1      35.008  18.278  24.421  1.00  0.00     0.006 A 
ATOM     16  C   UNL A   1      34.582  20.578  25.119  1.00  0.00     0.042 A 
ATOM     17  C   UNL A   1      36.373  18.433  24.628  1.00  0.00     0.001 A 
ATOM     18  C   UNL A   1      35.982  20.718  25.305  1.00  0.00    -0.017 A 
ATOM     19  N   UNL A   1      33.748  21.675  25.339  1.00  0.00    -0.377 N 
ATOM     20  C   UNL A   1      36.859  19.649  25.077  1.00  0.00     0.006 A 
ATOM     21  C   UNL A   1      36.451  22.007  25.908  1.00  0.00     0.049 C 
ATOM     22  H   UNL A   1      32.777  21.521  25.274  1.00  0.00     0.161 HD
ATOM     23  C   UNL A   1      35.687  23.169  25.258  1.00  0.00     0.031 C 
ATOM     24  C   UNL A   1      37.871  22.462  25.750  1.00  0.00    -0.023 C 
ATOM     25  C   UNL A   1      36.538  24.380  25.667  1.00  0.00     0.034 C 
ATOM     26  C   UNL A   1      37.919  23.797  25.667  1.00  0.00    -0.030 C 
BRANCH  14  27
ATOM     27  C   UNL A   1      32.625  18.982  24.412  1.00  0.00     0.015 C 
ATOM     28  C   UNL A   1      32.211  19.262  22.966  1.00  0.00     0.012 C 
ATOM     29  C   UNL A   1      32.213  17.587  24.878  1.00  0.00     0.012 C 
ENDBRANCH  14  27
ENDBRANCH   8  13
ENDBRANCH   4   7
ENDBRANCH   2   3
ENDBRANCH   1   2
BRANCH   1  30
ATOM     30  C   UNL A   1      33.766  29.418  27.133  1.00  0.00     0.118 C 
BRANCH  30  31
ATOM     31  N   UNL A   1      33.921  30.559  28.029  1.00  0.00    -0.352 N 
ATOM     32  C   UNL A   1      34.961  30.969  28.836  1.00  0.00     0.251 C 
ATOM     33  H   UNL A   1      33.134  31.149  28.064  1.00  0.00     0.163 HD
ATOM     34  O   UNL A   1      34.790  31.913  29.597  1.00  0.00    -0.269 OA
BRANCH  32  35
ATOM     35  C   UNL A   1      36.262  30.256  28.841  1.00  0.00     0.039 A 
ATOM     36  C   UNL A   1      36.701  29.545  29.953  1.00  0.00     0.014 A 
ATOM     37  C   UNL A   1      37.068  30.299  27.698  1.00  0.00     0.014 A 
ATOM     38  C   UNL A   1      38.021  29.114  30.024  1.00  0.00     0.010 A 
ATOM     39  C   UNL A   1      38.354  29.745  27.722  1.00  0.00     0.010 A 
ATOM     40  C   UNL A   1      38.873  29.218  28.913  1.00  0.00    -0.014 A 
BRANCH  40  41
ATOM     41  C   UNL A   1      40.298  28.804  29.044  1.00  0.00     0.031 A 
ATOM     42  C   UNL A   1      40.748  27.436  28.589  1.00  0.00     0.074 A 
ATOM     43  C   UNL A   1      41.212  29.687  29.493  1.00  0.00     0.049 A 
ATOM     44  N   UNL A   1      41.950  26.914  28.603  1.00  0.00    -0.248 NA
ATOM     45  C   UNL A   1      39.716  26.534  28.056  1.00  0.00     0.031 C 
ATOM     46  C   UNL A   1      40.918  31.047  29.952  1.00  0.00     0.029 A 
ATOM     47  N   UNL A   1      42.576  29.590  29.602  1.00  0.00    -0.354 N 
ATOM     48  C   UNL A   1      41.812  25.620  28.112  1.00  0.00     0.074 A 
ATOM     49  C   UNL A   1      40.405  25.424  27.837  1.00  0.00     0.031 C 
ATOM     50  C   UNL A   1      42.069  31.680  30.223  1.00  0.00     0.029 A 
ATOM     51  C   UNL A   1      43.176  30.750  30.030  1.00  0.00     0.049 A 
ATOM     52  H   UNL A   1      43.077  28.770  29.394  1.00  0.00     0.167 HD
ATOM     53  C   UNL A   1      42.767  24.683  27.894  1.00  0.00     0.037 A 
ATOM     54  C   UNL A   1      44.472  31.034  30.256  1.00  0.00     0.037 A 
ATOM     55  C   UNL A   1      44.173  24.884  28.133  1.00  0.00     0.049 A 
ATOM     56  C   UNL A   1      45.506  29.968  30.041  1.00  0.00     0.074 A 
ATOM     57  C   UNL A   1      45.219  24.000  27.929  1.00  0.00     0.029 A 
ATOM     58  N   UNL A   1      44.731  26.055  28.622  1.00  0.00    -0.354 N 
ATOM     59  N   UNL A   1      45.353  28.748  29.585  1.00  0.00    -0.248 NA
ATOM     60  C   UNL A   1      46.891  30.316  30.385  1.00  0.00     0.031 C 
ATOM     61  C   UNL A   1      46.406  24.625  28.328  1.00  0.00     0.029 A 
ATOM     62  C   UNL A   1      46.104  25.911  28.743  1.00  0.00     0.049 A 
ATOM     63  H   UNL A   1      44.226  26.868  28.852  1.00  0.00     0.167 HD
ATOM     64  C   UNL A   1      46.622  28.187  29.577  1.00  0.00     0.074 A 
ATOM     65  C   UNL A   1      47.535  29.208  30.050  1.00  0.00     0.031 C 
ATOM     66  C   UNL A   1      46.998  26.937  29.216  1.00  0.00     0.037 A 
BRANCH  53  67
ATOM     67  C   UNL A   1      42.316  23.343  27.387  1.00  0.00     0.057 A 
ATOM     68  C   UNL A   1      41.907  22.344  28.279  1.00  0.00     0.134 A 
ATOM     69  C   UNL A   1      42.301  23.034  26.021  1.00  0.00     0.134 A 
ATOM     70  F   UNL A   1      41.903  22.571  29.601  1.00  0.00    -0.206 F 
ATOM     71  C   UNL A   1      41.498  21.087  27.831  1.00  0.00     0.040 A 
ATOM     72  C   UNL A   1      41.870  21.789  25.558  1.00  0.00     0.040 A 
ATOM     73  F   UNL A   1      42.667  23.951  25.112  1.00  0.00    -0.206 F 
ATOM     74  C   UNL A   1      41.471  20.809  26.466  1.00  0.00     0.006 A 
ENDBRANCH  53  67
BRANCH  54  75
ATOM     75  C   UNL A   1      44.865  32.385  30.728  1.00  0.00     0.057 A 
ATOM     76  C   UNL A   1      45.202  33.403  29.829  1.00  0.00     0.134 A 
ATOM     77  C   UNL A   1      44.902  32.691  32.094  1.00  0.00     0.134 A 
ATOM     78  F   UNL A   1      45.190  33.171  28.508  1.00  0.00    -0.206 F 
ATOM     79  C   UNL A   1      45.574  34.673  30.268  1.00  0.00     0.040 A 
ATOM     80  C   UNL A   1      45.245  33.966  32.547  1.00  0.00     0.040 A 
ATOM     81  F   UNL A   1      44.568  31.764  33.004  1.00  0.00    -0.206 F 
ATOM     82  C   UNL A   1      45.589  34.959  31.631  1.00  0.00     0.006 A 
ENDBRANCH  54  75
BRANCH  66  83
ATOM     83  C   UNL A   1      48.461  26.620  29.297  1.00  0.00     0.057 A 
ATOM     84  C   UNL A   1      49.320  26.935  28.238  1.00  0.00     0.134 A 
ATOM     85  C   UNL A   1      49.019  26.001  30.424  1.00  0.00     0.134 A 
ATOM     86  F   UNL A   1      48.848  27.525  27.129  1.00  0.00    -0.206 F 
ATOM     87  C   UNL A   1      50.685  26.650  28.297  1.00  0.00     0.040 A 
ATOM     88  C   UNL A   1      50.387  25.733  30.504  1.00  0.00     0.040 A 
ATOM     89  F   UNL A   1      48.252  25.690  31.478  1.00  0.00    -0.206 F 
ATOM     90  C   UNL A   1      51.223  26.055  29.436  1.00  0.00     0.006 A 
ENDBRANCH  66  83
ENDBRANCH  40  41
ENDBRANCH  32  35
ENDBRANCH  30  31
ENDBRANCH   1  30
TORSDOF 12
ENDMDL
