MODEL 1
REMARK VINA RESULT:     -12.0      0.000      0.000
REMARK SMILES [NH3+][C@H]([C@@H](C(=O)NCCCNC(=O)c1ccc(-c2c3nc(c(-c4c(F)cccc4F)c4ccc([nH]4)c(-c4c(F)cccc4F)c4nc(c(-c5c(F)cccc5F)c5ccc2[nH]5)C=C4)C=C3)cc1)C(=O)OCC1c2ccccc2-c2ccccc21)C(F)(F)F
REMARK SMILES IDX 7 1 6 2 4 3 5 4 3 6 2 7 1 8 84 12 85 13 86 14 87 15 67 16
REMARK SMILES IDX 68 17 69 18 70 19 71 20 72 21 83 22 73 23 77 24 78 25 82 26
REMARK SMILES IDX 74 27 76 28 79 29 81 30 75 31 80 32 8 33 9 34 10 35 11 36
REMARK SMILES IDX 12 38 13 39 14 40 66 41 15 42 65 43 16 44 17 45 18 46 59 47
REMARK SMILES IDX 19 48 64 49 58 50 60 51 20 52 63 53 57 54 56 55 21 57 47 58
REMARK SMILES IDX 30 59 46 60 31 61 34 62 45 63 61 64 32 65 33 66 44 68 62 69
REMARK SMILES IDX 35 70 22 71 23 72 28 73 24 74 25 75 27 76 29 77 26 78 48 79
REMARK SMILES IDX 49 80 54 81 50 82 51 83 53 84 55 85 52 86 36 87 37 88 42 89
REMARK SMILES IDX 38 90 39 91 41 92 43 93 40 94
REMARK H PARENT 6 5 1 9 1 10 1 11 10 37 60 56 34 67
REMARK Flexibility Score: inf
ROOT
ATOM      1  C   UNL A   1      31.742  28.330  27.184  1.00  0.00     0.117 C 
ENDROOT
BRANCH   1   2
ATOM      2  N   UNL A   1      31.037  27.055  27.140  1.00  0.00    -0.355 N 
ATOM      3  C   UNL A   1      30.805  26.178  26.116  1.00  0.00     0.240 C 
ATOM      4  O   UNL A   1      30.266  25.108  26.403  1.00  0.00    -0.274 OA
ATOM      5  H   UNL A   1      30.657  26.774  28.004  1.00  0.00     0.163 HD
BRANCH   3   6
ATOM      6  C   UNL A   1      31.125  26.554  24.686  1.00  0.00     0.255 C 
BRANCH   6   7
ATOM      7  C   UNL A   1      29.885  26.607  23.749  1.00  0.00     0.311 C 
BRANCH   7   8
ATOM      8  N   UNL A   1      28.640  25.971  24.275  1.00  0.00    -0.346 N 
ATOM      9  H   UNL A   1      28.251  25.348  23.569  1.00  0.00     0.345 HD
ATOM     10  H   UNL A   1      27.957  26.695  24.502  1.00  0.00     0.345 HD
ATOM     11  H   UNL A   1      28.860  25.437  25.116  1.00  0.00     0.345 HD
ENDBRANCH   7   8
BRANCH   7  12
ATOM     12  C   UNL A   1      29.758  28.062  23.224  1.00  0.00     0.442 C 
ATOM     13  F   UNL A   1      28.452  28.393  23.089  1.00  0.00    -0.165 F 
ATOM     14  F   UNL A   1      30.317  28.956  24.066  1.00  0.00    -0.165 F 
ATOM     15  F   UNL A   1      30.335  28.213  22.012  1.00  0.00    -0.165 F 
ENDBRANCH   7  12
ENDBRANCH   6   7
BRANCH   6  16
ATOM     16  C   UNL A   1      32.198  25.652  24.106  1.00  0.00     0.325 C 
ATOM     17  O   UNL A   1      32.046  24.993  23.086  1.00  0.00    -0.251 OA
BRANCH  16  18
ATOM     18  O   UNL A   1      33.338  25.678  24.848  1.00  0.00    -0.464 OA
BRANCH  18  19
ATOM     19  C   UNL A   1      34.340  24.692  24.534  1.00  0.00     0.246 C 
BRANCH  19  20
ATOM     20  C   UNL A   1      34.562  23.703  25.692  1.00  0.00     0.088 C 
ATOM     21  C   UNL A   1      33.871  22.382  25.376  1.00  0.00    -0.029 A 
ATOM     22  C   UNL A   1      36.023  23.260  25.783  1.00  0.00    -0.029 A 
ATOM     23  C   UNL A   1      32.511  22.124  25.306  1.00  0.00     0.005 A 
ATOM     24  C   UNL A   1      34.828  21.371  25.139  1.00  0.00    -0.014 A 
ATOM     25  C   UNL A   1      36.148  21.913  25.374  1.00  0.00    -0.014 A 
ATOM     26  C   UNL A   1      37.126  23.985  26.204  1.00  0.00     0.005 A 
ATOM     27  C   UNL A   1      32.106  20.830  24.972  1.00  0.00     0.000 A 
ATOM     28  C   UNL A   1      34.423  20.091  24.799  1.00  0.00     0.009 A 
ATOM     29  C   UNL A   1      37.394  21.311  25.302  1.00  0.00     0.009 A 
ATOM     30  C   UNL A   1      38.379  23.368  26.158  1.00  0.00     0.000 A 
ATOM     31  C   UNL A   1      33.053  19.826  24.714  1.00  0.00     0.001 A 
ATOM     32  C   UNL A   1      38.514  22.050  25.690  1.00  0.00     0.001 A 
ENDBRANCH  19  20
ENDBRANCH  18  19
ENDBRANCH  16  18
ENDBRANCH   6  16
ENDBRANCH   3   6
ENDBRANCH   1   2
BRANCH   1  33
ATOM     33  C   UNL A   1      33.265  28.201  27.211  1.00  0.00     0.042 C 
BRANCH  33  34
ATOM     34  C   UNL A   1      34.023  29.196  26.337  1.00  0.00     0.118 C 
BRANCH  34  35
ATOM     35  N   UNL A   1      33.921  30.559  26.823  1.00  0.00    -0.352 N 
ATOM     36  C   UNL A   1      34.664  31.213  27.776  1.00  0.00     0.251 C 
ATOM     37  H   UNL A   1      33.211  31.098  26.405  1.00  0.00     0.163 HD
ATOM     38  O   UNL A   1      34.288  32.312  28.175  1.00  0.00    -0.269 OA
BRANCH  36  39
ATOM     39  C   UNL A   1      35.898  30.614  28.341  1.00  0.00     0.039 A 
ATOM     40  C   UNL A   1      37.101  30.788  27.649  1.00  0.00     0.014 A 
ATOM     41  C   UNL A   1      35.875  29.829  29.497  1.00  0.00     0.014 A 
ATOM     42  C   UNL A   1      38.280  30.213  28.132  1.00  0.00     0.010 A 
ATOM     43  C   UNL A   1      37.064  29.308  30.014  1.00  0.00     0.010 A 
ATOM     44  C   UNL A   1      38.278  29.482  29.330  1.00  0.00    -0.014 A 
BRANCH  44  45
ATOM     45  C   UNL A   1      39.525  28.873  29.864  1.00  0.00     0.031 A 
ATOM     46  C   UNL A   1      40.188  29.448  31.087  1.00  0.00     0.074 A 
ATOM     47  C   UNL A   1      40.093  27.830  29.226  1.00  0.00     0.049 A 
ATOM     48  N   UNL A   1      41.314  29.102  31.661  1.00  0.00    -0.248 NA
ATOM     49  C   UNL A   1      39.506  30.577  31.740  1.00  0.00     0.031 C 
ATOM     50  C   UNL A   1      39.574  27.195  28.013  1.00  0.00     0.029 A 
ATOM     51  N   UNL A   1      41.240  27.128  29.504  1.00  0.00    -0.354 N 
ATOM     52  C   UNL A   1      41.483  29.978  32.726  1.00  0.00     0.074 A 
ATOM     53  C   UNL A   1      40.368  30.899  32.693  1.00  0.00     0.031 C 
ATOM     54  C   UNL A   1      40.391  26.190  27.661  1.00  0.00     0.029 A 
ATOM     55  C   UNL A   1      41.508  26.129  28.599  1.00  0.00     0.049 A 
ATOM     56  H   UNL A   1      41.816  27.322  30.278  1.00  0.00     0.167 HD
ATOM     57  C   UNL A   1      42.465  30.002  33.659  1.00  0.00     0.037 A 
ATOM     58  C   UNL A   1      42.540  25.267  28.528  1.00  0.00     0.037 A 
ATOM     59  C   UNL A   1      43.560  29.068  33.712  1.00  0.00     0.049 A 
ATOM     60  C   UNL A   1      43.620  25.316  29.574  1.00  0.00     0.074 A 
ATOM     61  C   UNL A   1      44.574  28.982  34.650  1.00  0.00     0.029 A 
ATOM     62  N   UNL A   1      43.782  28.058  32.790  1.00  0.00    -0.354 N 
ATOM     63  N   UNL A   1      43.737  26.115  30.606  1.00  0.00    -0.248 NA
ATOM     64  C   UNL A   1      44.708  24.335  29.450  1.00  0.00     0.031 C 
ATOM     65  C   UNL A   1      45.432  27.942  34.275  1.00  0.00     0.029 A 
ATOM     66  C   UNL A   1      44.926  27.352  33.128  1.00  0.00     0.049 A 
ATOM     67  H   UNL A   1      43.212  27.869  32.010  1.00  0.00     0.167 HD
ATOM     68  C   UNL A   1      44.889  25.715  31.269  1.00  0.00     0.074 A 
ATOM     69  C   UNL A   1      45.431  24.595  30.530  1.00  0.00     0.031 C 
ATOM     70  C   UNL A   1      45.447  26.228  32.393  1.00  0.00     0.037 A 
BRANCH  57  71
ATOM     71  C   UNL A   1      42.400  31.076  34.707  1.00  0.00     0.057 A 
ATOM     72  C   UNL A   1      41.740  30.878  35.926  1.00  0.00     0.134 A 
ATOM     73  C   UNL A   1      43.037  32.308  34.509  1.00  0.00     0.134 A 
ATOM     74  F   UNL A   1      41.102  29.725  36.174  1.00  0.00    -0.206 F 
ATOM     75  C   UNL A   1      41.694  31.876  36.901  1.00  0.00     0.040 A 
ATOM     76  C   UNL A   1      43.020  33.303  35.487  1.00  0.00     0.040 A 
ATOM     77  F   UNL A   1      43.693  32.561  33.367  1.00  0.00    -0.206 F 
ATOM     78  C   UNL A   1      42.341  33.091  36.686  1.00  0.00     0.006 A 
ENDBRANCH  57  71
BRANCH  58  79
ATOM     79  C   UNL A   1      42.597  24.264  27.436  1.00  0.00     0.057 A 
ATOM     80  C   UNL A   1      43.170  24.577  26.198  1.00  0.00     0.134 A 
ATOM     81  C   UNL A   1      42.070  22.977  27.596  1.00  0.00     0.134 A 
ATOM     82  F   UNL A   1      43.673  25.801  25.978  1.00  0.00    -0.206 F 
ATOM     83  C   UNL A   1      43.199  23.655  25.151  1.00  0.00     0.040 A 
ATOM     84  C   UNL A   1      42.114  22.037  26.566  1.00  0.00     0.040 A 
ATOM     85  F   UNL A   1      41.512  22.614  28.760  1.00  0.00    -0.206 F 
ATOM     86  C   UNL A   1      42.673  22.378  25.335  1.00  0.00     0.006 A 
ENDBRANCH  58  79
BRANCH  70  87
ATOM     87  C   UNL A   1      46.681  25.557  32.920  1.00  0.00     0.057 A 
ATOM     88  C   UNL A   1      46.620  24.545  33.886  1.00  0.00     0.134 A 
ATOM     89  C   UNL A   1      47.944  25.903  32.425  1.00  0.00     0.134 A 
ATOM     90  F   UNL A   1      45.442  24.175  34.410  1.00  0.00    -0.206 F 
ATOM     91  C   UNL A   1      47.775  23.916  34.357  1.00  0.00     0.040 A 
ATOM     92  C   UNL A   1      49.103  25.265  32.869  1.00  0.00     0.040 A 
ATOM     93  F   UNL A   1      48.071  26.860  31.492  1.00  0.00    -0.206 F 
ATOM     94  C   UNL A   1      49.020  24.272  33.842  1.00  0.00     0.006 A 
ENDBRANCH  70  87
ENDBRANCH  44  45
ENDBRANCH  36  39
ENDBRANCH  34  35
ENDBRANCH  33  34
ENDBRANCH   1  33
TORSDOF 17
ENDMDL
MODEL 2
REMARK VINA RESULT:     -12.0      2.256      3.426
REMARK SMILES [NH3+][C@H]([C@@H](C(=O)NCCCNC(=O)c1ccc(-c2c3nc(c(-c4c(F)cccc4F)c4ccc([nH]4)c(-c4c(F)cccc4F)c4nc(c(-c5c(F)cccc5F)c5ccc2[nH]5)C=C4)C=C3)cc1)C(=O)OCC1c2ccccc2-c2ccccc21)C(F)(F)F
REMARK SMILES IDX 7 1 6 2 4 3 5 4 3 6 2 7 1 8 84 12 85 13 86 14 87 15 67 16
REMARK SMILES IDX 68 17 69 18 70 19 71 20 72 21 83 22 73 23 77 24 78 25 82 26
REMARK SMILES IDX 74 27 76 28 79 29 81 30 75 31 80 32 8 33 9 34 10 35 11 36
REMARK SMILES IDX 12 38 13 39 14 40 66 41 15 42 65 43 16 44 17 45 18 46 59 47
REMARK SMILES IDX 19 48 64 49 58 50 60 51 20 52 63 53 57 54 56 55 21 57 47 58
REMARK SMILES IDX 30 59 46 60 31 61 34 62 45 63 61 64 32 65 33 66 44 68 62 69
REMARK SMILES IDX 35 70 22 71 23 72 28 73 24 74 25 75 27 76 29 77 26 78 48 79
REMARK SMILES IDX 49 80 54 81 50 82 51 83 53 84 55 85 52 86 36 87 37 88 42 89
REMARK SMILES IDX 38 90 39 91 41 92 43 93 40 94
REMARK H PARENT 6 5 1 9 1 10 1 11 10 37 60 56 34 67
REMARK Flexibility Score: inf
ROOT
ATOM      1  C   UNL A   1      33.121  27.159  24.861  1.00  0.00     0.117 C 
ENDROOT
BRANCH   1   2
ATOM      2  N   UNL A   1      31.846  26.912  25.523  1.00  0.00    -0.355 N 
ATOM      3  C   UNL A   1      31.202  25.751  25.853  1.00  0.00     0.240 C 
ATOM      4  O   UNL A   1      30.171  25.849  26.520  1.00  0.00    -0.274 OA
ATOM      5  H   UNL A   1      31.359  27.729  25.778  1.00  0.00     0.163 HD
BRANCH   3   6
ATOM      6  C   UNL A   1      31.700  24.416  25.344  1.00  0.00     0.255 C 
BRANCH   6   7
ATOM      7  C   UNL A   1      31.124  24.008  23.958  1.00  0.00     0.311 C 
BRANCH   7   8
ATOM      8  N   UNL A   1      29.902  24.745  23.515  1.00  0.00    -0.346 N 
ATOM      9  H   UNL A   1      29.441  25.158  24.325  1.00  0.00     0.345 HD
ATOM     10  H   UNL A   1      29.263  24.097  23.054  1.00  0.00     0.345 HD
ATOM     11  H   UNL A   1      30.167  25.482  22.862  1.00  0.00     0.345 HD
ENDBRANCH   7   8
BRANCH   7  12
ATOM     12  C   UNL A   1      32.309  23.954  22.957  1.00  0.00     0.442 C 
ATOM     13  F   UNL A   1      33.462  24.278  23.589  1.00  0.00    -0.165 F 
ATOM     14  F   UNL A   1      32.470  22.724  22.427  1.00  0.00    -0.165 F 
ATOM     15  F   UNL A   1      32.151  24.830  21.941  1.00  0.00    -0.165 F 
ENDBRANCH   7  12
ENDBRANCH   6   7
BRANCH   6  16
ATOM     16  C   UNL A   1      31.474  23.317  26.365  1.00  0.00     0.325 C 
ATOM     17  O   UNL A   1      30.490  22.589  26.364  1.00  0.00    -0.251 OA
BRANCH  16  18
ATOM     18  O   UNL A   1      32.494  23.239  27.261  1.00  0.00    -0.464 OA
BRANCH  18  19
ATOM     19  C   UNL A   1      33.433  22.162  27.086  1.00  0.00     0.246 C 
BRANCH  19  20
ATOM     20  C   UNL A   1      33.919  22.047  25.630  1.00  0.00     0.088 C 
ATOM     21  C   UNL A   1      35.440  22.132  25.591  1.00  0.00    -0.029 A 
ATOM     22  C   UNL A   1      33.685  20.645  25.066  1.00  0.00    -0.029 A 
ATOM     23  C   UNL A   1      36.242  23.230  25.861  1.00  0.00     0.005 A 
ATOM     24  C   UNL A   1      35.993  20.884  25.229  1.00  0.00    -0.014 A 
ATOM     25  C   UNL A   1      34.917  19.968  24.922  1.00  0.00    -0.014 A 
ATOM     26  C   UNL A   1      32.491  20.043  24.704  1.00  0.00     0.005 A 
ATOM     27  C   UNL A   1      37.626  23.065  25.785  1.00  0.00     0.000 A 
ATOM     28  C   UNL A   1      37.367  20.720  25.164  1.00  0.00     0.009 A 
ATOM     29  C   UNL A   1      34.952  18.650  24.494  1.00  0.00     0.009 A 
ATOM     30  C   UNL A   1      32.529  18.723  24.246  1.00  0.00     0.000 A 
ATOM     31  C   UNL A   1      38.183  21.820  25.447  1.00  0.00     0.001 A 
ATOM     32  C   UNL A   1      33.746  18.026  24.164  1.00  0.00     0.001 A 
ENDBRANCH  19  20
ENDBRANCH  18  19
ENDBRANCH  16  18
ENDBRANCH   6  16
ENDBRANCH   3   6
ENDBRANCH   1   2
BRANCH   1  33
ATOM     33  C   UNL A   1      33.960  28.259  25.512  1.00  0.00     0.042 C 
BRANCH  33  34
ATOM     34  C   UNL A   1      33.811  28.390  27.024  1.00  0.00     0.118 C 
BRANCH  34  35
ATOM     35  N   UNL A   1      33.681  29.769  27.456  1.00  0.00    -0.352 N 
ATOM     36  C   UNL A   1      34.562  30.562  28.151  1.00  0.00     0.251 C 
ATOM     37  H   UNL A   1      32.832  30.203  27.212  1.00  0.00     0.163 HD
ATOM     38  O   UNL A   1      34.177  31.646  28.582  1.00  0.00    -0.269 OA
BRANCH  36  39
ATOM     39  C   UNL A   1      35.959  30.131  28.403  1.00  0.00     0.039 A 
ATOM     40  C   UNL A   1      36.888  30.238  27.363  1.00  0.00     0.014 A 
ATOM     41  C   UNL A   1      36.348  29.559  29.618  1.00  0.00     0.014 A 
ATOM     42  C   UNL A   1      38.207  29.813  27.551  1.00  0.00     0.010 A 
ATOM     43  C   UNL A   1      37.680  29.195  29.827  1.00  0.00     0.010 A 
ATOM     44  C   UNL A   1      38.622  29.304  28.791  1.00  0.00    -0.014 A 
BRANCH  44  45
ATOM     45  C   UNL A   1      40.023  28.857  29.011  1.00  0.00     0.031 A 
ATOM     46  C   UNL A   1      41.030  29.793  29.627  1.00  0.00     0.074 A 
ATOM     47  C   UNL A   1      40.409  27.628  28.617  1.00  0.00     0.049 A 
ATOM     48  N   UNL A   1      42.311  29.613  29.834  1.00  0.00    -0.248 NA
ATOM     49  C   UNL A   1      40.536  31.114  30.045  1.00  0.00     0.031 C 
ATOM     50  C   UNL A   1      39.545  26.633  27.979  1.00  0.00     0.029 A 
ATOM     51  N   UNL A   1      41.634  27.010  28.685  1.00  0.00    -0.354 N 
ATOM     52  C   UNL A   1      42.778  30.799  30.387  1.00  0.00     0.074 A 
ATOM     53  C   UNL A   1      41.652  31.707  30.443  1.00  0.00     0.031 C 
ATOM     54  C   UNL A   1      40.262  25.526  27.729  1.00  0.00     0.029 A 
ATOM     55  C   UNL A   1      41.642  25.742  28.154  1.00  0.00     0.049 A 
ATOM     56  H   UNL A   1      42.431  27.434  29.077  1.00  0.00     0.167 HD
ATOM     57  C   UNL A   1      44.022  31.099  30.827  1.00  0.00     0.037 A 
ATOM     58  C   UNL A   1      42.648  24.857  28.018  1.00  0.00     0.037 A 
ATOM     59  C   UNL A   1      45.137  30.188  30.802  1.00  0.00     0.049 A 
ATOM     60  C   UNL A   1      44.022  25.216  28.512  1.00  0.00     0.074 A 
ATOM     61  C   UNL A   1      46.424  30.386  31.273  1.00  0.00     0.029 A 
ATOM     62  N   UNL A   1      45.097  28.906  30.276  1.00  0.00    -0.354 N 
ATOM     63  N   UNL A   1      44.434  26.322  29.083  1.00  0.00    -0.248 NA
ATOM     64  C   UNL A   1      45.071  24.198  28.351  1.00  0.00     0.031 C 
ATOM     65  C   UNL A   1      47.172  29.236  30.999  1.00  0.00     0.029 A 
ATOM     66  C   UNL A   1      46.340  28.307  30.398  1.00  0.00     0.049 A 
ATOM     67  H   UNL A   1      44.304  28.484  29.875  1.00  0.00     0.167 HD
ATOM     68  C   UNL A   1      45.777  26.121  29.377  1.00  0.00     0.074 A 
ATOM     69  C   UNL A   1      46.108  24.785  28.931  1.00  0.00     0.031 C 
ATOM     70  C   UNL A   1      46.655  26.969  29.966  1.00  0.00     0.037 A 
BRANCH  57  71
ATOM     71  C   UNL A   1      44.248  32.477  31.382  1.00  0.00     0.057 A 
ATOM     72  C   UNL A   1      44.646  33.545  30.566  1.00  0.00     0.134 A 
ATOM     73  C   UNL A   1      44.028  32.747  32.738  1.00  0.00     0.134 A 
ATOM     74  F   UNL A   1      44.883  33.350  29.261  1.00  0.00    -0.206 F 
ATOM     75  C   UNL A   1      44.843  34.826  31.085  1.00  0.00     0.040 A 
ATOM     76  C   UNL A   1      44.196  34.030  33.263  1.00  0.00     0.040 A 
ATOM     77  F   UNL A   1      43.639  31.774  33.574  1.00  0.00    -0.206 F 
ATOM     78  C   UNL A   1      44.611  35.073  32.436  1.00  0.00     0.006 A 
ENDBRANCH  57  71
BRANCH  58  79
ATOM     79  C   UNL A   1      42.393  23.531  27.403  1.00  0.00     0.057 A 
ATOM     80  C   UNL A   1      42.534  23.336  26.025  1.00  0.00     0.134 A 
ATOM     81  C   UNL A   1      41.989  22.434  28.173  1.00  0.00     0.134 A 
ATOM     82  F   UNL A   1      42.898  24.355  25.233  1.00  0.00    -0.206 F 
ATOM     83  C   UNL A   1      42.264  22.102  25.430  1.00  0.00     0.040 A 
ATOM     84  C   UNL A   1      41.739  21.188  27.594  1.00  0.00     0.040 A 
ATOM     85  F   UNL A   1      41.840  22.554  29.500  1.00  0.00    -0.206 F 
ATOM     86  C   UNL A   1      41.869  21.023  26.216  1.00  0.00     0.006 A 
ENDBRANCH  58  79
BRANCH  70  87
ATOM     87  C   UNL A   1      48.047  26.463  30.206  1.00  0.00     0.057 A 
ATOM     88  C   UNL A   1      49.073  26.644  29.272  1.00  0.00     0.134 A 
ATOM     89  C   UNL A   1      48.371  25.818  31.407  1.00  0.00     0.134 A 
ATOM     90  F   UNL A   1      48.826  27.241  28.097  1.00  0.00    -0.206 F 
ATOM     91  C   UNL A   1      50.369  26.181  29.515  1.00  0.00     0.040 A 
ATOM     92  C   UNL A   1      49.667  25.375  31.671  1.00  0.00     0.040 A 
ATOM     93  F   UNL A   1      47.434  25.621  32.348  1.00  0.00    -0.206 F 
ATOM     94  C   UNL A   1      50.670  25.551  30.721  1.00  0.00     0.006 A 
ENDBRANCH  70  87
ENDBRANCH  44  45
ENDBRANCH  36  39
ENDBRANCH  34  35
ENDBRANCH  33  34
ENDBRANCH   1  33
TORSDOF 17
ENDMDL
MODEL 3
REMARK VINA RESULT:     -11.9      2.113      2.593
REMARK SMILES [NH3+][C@H]([C@@H](C(=O)NCCCNC(=O)c1ccc(-c2c3nc(c(-c4c(F)cccc4F)c4ccc([nH]4)c(-c4c(F)cccc4F)c4nc(c(-c5c(F)cccc5F)c5ccc2[nH]5)C=C4)C=C3)cc1)C(=O)OCC1c2ccccc2-c2ccccc21)C(F)(F)F
REMARK SMILES IDX 7 1 6 2 4 3 5 4 3 6 2 7 1 8 84 12 85 13 86 14 87 15 67 16
REMARK SMILES IDX 68 17 69 18 70 19 71 20 72 21 83 22 73 23 77 24 78 25 82 26
REMARK SMILES IDX 74 27 76 28 79 29 81 30 75 31 80 32 8 33 9 34 10 35 11 36
REMARK SMILES IDX 12 38 13 39 14 40 66 41 15 42 65 43 16 44 17 45 18 46 59 47
REMARK SMILES IDX 19 48 64 49 58 50 60 51 20 52 63 53 57 54 56 55 21 57 47 58
REMARK SMILES IDX 30 59 46 60 31 61 34 62 45 63 61 64 32 65 33 66 44 68 62 69
REMARK SMILES IDX 35 70 22 71 23 72 28 73 24 74 25 75 27 76 29 77 26 78 48 79
REMARK SMILES IDX 49 80 54 81 50 82 51 83 53 84 55 85 52 86 36 87 37 88 42 89
REMARK SMILES IDX 38 90 39 91 41 92 43 93 40 94
REMARK H PARENT 6 5 1 9 1 10 1 11 10 37 60 56 34 67
REMARK Flexibility Score: inf
ROOT
ATOM      1  C   UNL A   1      32.333  26.316  26.232  1.00  0.00     0.117 C 
ENDROOT
BRANCH   1   2
ATOM      2  N   UNL A   1      31.298  26.106  25.228  1.00  0.00    -0.355 N 
ATOM      3  C   UNL A   1      31.363  25.973  23.868  1.00  0.00     0.240 C 
ATOM      4  O   UNL A   1      30.318  25.688  23.280  1.00  0.00    -0.274 OA
ATOM      5  H   UNL A   1      30.385  26.052  25.594  1.00  0.00     0.163 HD
BRANCH   3   6
ATOM      6  C   UNL A   1      32.650  26.248  23.122  1.00  0.00     0.255 C 
BRANCH   6   7
ATOM      7  C   UNL A   1      32.711  27.650  22.453  1.00  0.00     0.311 C 
BRANCH   7   8
ATOM      8  N   UNL A   1      31.403  28.221  22.010  1.00  0.00    -0.346 N 
ATOM      9  H   UNL A   1      31.082  28.905  22.693  1.00  0.00     0.345 HD
ATOM     10  H   UNL A   1      30.715  27.471  21.930  1.00  0.00     0.345 HD
ATOM     11  H   UNL A   1      31.518  28.672  21.103  1.00  0.00     0.345 HD
ENDBRANCH   7   8
BRANCH   7  12
ATOM     12  C   UNL A   1      33.604  28.555  23.343  1.00  0.00     0.442 C 
ATOM     13  F   UNL A   1      32.828  29.339  24.129  1.00  0.00    -0.165 F 
ATOM     14  F   UNL A   1      34.405  27.835  24.155  1.00  0.00    -0.165 F 
ATOM     15  F   UNL A   1      34.383  29.375  22.607  1.00  0.00    -0.165 F 
ENDBRANCH   7  12
ENDBRANCH   6   7
BRANCH   6  16
ATOM     16  C   UNL A   1      32.946  25.156  22.112  1.00  0.00     0.325 C 
ATOM     17  O   UNL A   1      33.147  25.373  20.923  1.00  0.00    -0.251 OA
BRANCH  16  18
ATOM     18  O   UNL A   1      32.970  23.924  22.687  1.00  0.00    -0.464 OA
BRANCH  18  19
ATOM     19  C   UNL A   1      34.264  23.383  23.013  1.00  0.00     0.246 C 
BRANCH  19  20
ATOM     20  C   UNL A   1      34.317  22.836  24.451  1.00  0.00     0.088 C 
ATOM     21  C   UNL A   1      33.954  21.356  24.449  1.00  0.00    -0.029 A 
ATOM     22  C   UNL A   1      35.751  22.789  24.983  1.00  0.00    -0.029 A 
ATOM     23  C   UNL A   1      32.721  20.779  24.186  1.00  0.00     0.005 A 
ATOM     24  C   UNL A   1      35.086  20.572  24.760  1.00  0.00    -0.014 A 
ATOM     25  C   UNL A   1      36.191  21.449  25.074  1.00  0.00    -0.014 A 
ATOM     26  C   UNL A   1      36.571  23.839  25.363  1.00  0.00     0.005 A 
ATOM     27  C   UNL A   1      32.629  19.386  24.218  1.00  0.00     0.000 A 
ATOM     28  C   UNL A   1      34.994  19.190  24.782  1.00  0.00     0.009 A 
ATOM     29  C   UNL A   1      37.489  21.159  25.464  1.00  0.00     0.009 A 
ATOM     30  C   UNL A   1      37.871  23.543  25.783  1.00  0.00     0.000 A 
ATOM     31  C   UNL A   1      33.757  18.599  24.505  1.00  0.00     0.001 A 
ATOM     32  C   UNL A   1      38.332  22.217  25.811  1.00  0.00     0.001 A 
ENDBRANCH  19  20
ENDBRANCH  18  19
ENDBRANCH  16  18
ENDBRANCH   6  16
ENDBRANCH   3   6
ENDBRANCH   1   2
BRANCH   1  33
ATOM     33  C   UNL A   1      32.299  27.697  26.887  1.00  0.00     0.042 C 
BRANCH  33  34
ATOM     34  C   UNL A   1      33.660  28.301  27.215  1.00  0.00     0.118 C 
BRANCH  34  35
ATOM     35  N   UNL A   1      33.581  29.711  27.547  1.00  0.00    -0.352 N 
ATOM     36  C   UNL A   1      34.515  30.534  28.127  1.00  0.00     0.251 C 
ATOM     37  H   UNL A   1      32.726  30.145  27.320  1.00  0.00     0.163 HD
ATOM     38  O   UNL A   1      34.176  31.656  28.495  1.00  0.00    -0.269 OA
BRANCH  36  39
ATOM     39  C   UNL A   1      35.917  30.092  28.331  1.00  0.00     0.039 A 
ATOM     40  C   UNL A   1      36.294  29.635  29.598  1.00  0.00     0.014 A 
ATOM     41  C   UNL A   1      36.877  30.190  27.320  1.00  0.00     0.014 A 
ATOM     42  C   UNL A   1      37.614  29.239  29.839  1.00  0.00     0.010 A 
ATOM     43  C   UNL A   1      38.178  29.735  27.542  1.00  0.00     0.010 A 
ATOM     44  C   UNL A   1      38.566  29.268  28.808  1.00  0.00    -0.014 A 
BRANCH  44  45
ATOM     45  C   UNL A   1      39.971  28.841  29.045  1.00  0.00     0.031 A 
ATOM     46  C   UNL A   1      40.955  29.789  29.679  1.00  0.00     0.074 A 
ATOM     47  C   UNL A   1      40.381  27.620  28.651  1.00  0.00     0.049 A 
ATOM     48  N   UNL A   1      42.236  29.627  29.902  1.00  0.00    -0.248 NA
ATOM     49  C   UNL A   1      40.436  31.101  30.096  1.00  0.00     0.031 C 
ATOM     50  C   UNL A   1      39.541  26.615  27.997  1.00  0.00     0.029 A 
ATOM     51  N   UNL A   1      41.614  27.020  28.733  1.00  0.00    -0.354 N 
ATOM     52  C   UNL A   1      42.677  30.817  30.467  1.00  0.00     0.074 A 
ATOM     53  C   UNL A   1      41.537  31.709  30.511  1.00  0.00     0.031 C 
ATOM     54  C   UNL A   1      40.277  25.520  27.751  1.00  0.00     0.029 A 
ATOM     55  C   UNL A   1      41.648  25.755  28.196  1.00  0.00     0.049 A 
ATOM     56  H   UNL A   1      42.398  27.455  29.137  1.00  0.00     0.167 HD
ATOM     57  C   UNL A   1      43.911  31.135  30.926  1.00  0.00     0.037 A 
ATOM     58  C   UNL A   1      42.669  24.886  28.070  1.00  0.00     0.037 A 
ATOM     59  C   UNL A   1      45.040  30.241  30.911  1.00  0.00     0.049 A 
ATOM     60  C   UNL A   1      44.031  25.263  28.584  1.00  0.00     0.074 A 
ATOM     61  C   UNL A   1      46.316  30.455  31.400  1.00  0.00     0.029 A 
ATOM     62  N   UNL A   1      45.026  28.961  30.379  1.00  0.00    -0.354 N 
ATOM     63  N   UNL A   1      44.419  26.372  29.165  1.00  0.00    -0.248 NA
ATOM     64  C   UNL A   1      45.097  24.262  28.432  1.00  0.00     0.031 C 
ATOM     65  C   UNL A   1      47.086  29.319  31.131  1.00  0.00     0.029 A 
ATOM     66  C   UNL A   1      46.276  28.379  30.515  1.00  0.00     0.049 A 
ATOM     67  H   UNL A   1      44.245  28.529  29.965  1.00  0.00     0.167 HD
ATOM     68  C   UNL A   1      45.760  26.190  29.476  1.00  0.00     0.074 A 
ATOM     69  C   UNL A   1      46.118  24.861  29.029  1.00  0.00     0.031 C 
ATOM     70  C   UNL A   1      46.617  27.049  30.081  1.00  0.00     0.037 A 
BRANCH  57  71
ATOM     71  C   UNL A   1      44.108  32.513  31.489  1.00  0.00     0.057 A 
ATOM     72  C   UNL A   1      43.921  32.788  32.850  1.00  0.00     0.134 A 
ATOM     73  C   UNL A   1      44.527  33.568  30.669  1.00  0.00     0.134 A 
ATOM     74  F   UNL A   1      43.510  31.824  33.688  1.00  0.00    -0.206 F 
ATOM     75  C   UNL A   1      44.117  34.068  33.370  1.00  0.00     0.040 A 
ATOM     76  C   UNL A   1      44.754  34.846  31.182  1.00  0.00     0.040 A 
ATOM     77  F   UNL A   1      44.733  33.373  29.358  1.00  0.00    -0.206 F 
ATOM     78  C   UNL A   1      44.542  35.100  32.537  1.00  0.00     0.006 A 
ENDBRANCH  57  71
BRANCH  58  79
ATOM     79  C   UNL A   1      42.442  23.559  27.445  1.00  0.00     0.057 A 
ATOM     80  C   UNL A   1      42.540  23.387  26.060  1.00  0.00     0.134 A 
ATOM     81  C   UNL A   1      42.109  22.437  28.213  1.00  0.00     0.134 A 
ATOM     82  F   UNL A   1      42.836  24.430  25.270  1.00  0.00    -0.206 F 
ATOM     83  C   UNL A   1      42.295  22.152  25.457  1.00  0.00     0.040 A 
ATOM     84  C   UNL A   1      41.886  21.191  27.626  1.00  0.00     0.040 A 
ATOM     85  F   UNL A   1      42.004  22.535  29.546  1.00  0.00    -0.206 F 
ATOM     86  C   UNL A   1      41.971  21.048  26.242  1.00  0.00     0.006 A 
ENDBRANCH  58  79
BRANCH  70  87
ATOM     87  C   UNL A   1      48.013  26.562  30.338  1.00  0.00     0.057 A 
ATOM     88  C   UNL A   1      48.351  25.859  31.500  1.00  0.00     0.134 A 
ATOM     89  C   UNL A   1      49.023  26.770  29.390  1.00  0.00     0.134 A 
ATOM     90  F   UNL A   1      47.433  25.639  32.453  1.00  0.00    -0.206 F 
ATOM     91  C   UNL A   1      49.651  25.398  31.721  1.00  0.00     0.040 A 
ATOM     92  C   UNL A   1      50.319  26.292  29.588  1.00  0.00     0.040 A 
ATOM     93  F   UNL A   1      48.763  27.430  28.251  1.00  0.00    -0.206 F 
ATOM     94  C   UNL A   1      50.637  25.608  30.759  1.00  0.00     0.006 A 
ENDBRANCH  70  87
ENDBRANCH  44  45
ENDBRANCH  36  39
ENDBRANCH  34  35
ENDBRANCH  33  34
ENDBRANCH   1  33
TORSDOF 17
ENDMDL
