MODEL 1
REMARK VINA RESULT:     -12.4      0.000      0.000
REMARK SMILES CC1=C[C@H](C)[C@@H](C(=O)NCCCNC(=O)c2ccc(-c3c4nc(c(-c5c(F)cccc5F)c5ccc([nH]5)c(-c5c(F)cccc5F)c5nc(c(-c6c(F)cccc6F)c6ccc3[nH]6)C=C5)C=C4)cc2)[C@H](C(=O)Nc2cccnc2)C1
REMARK SMILES IDX 11 1 10 2 9 3 7 4 8 5 6 7 1 8 2 9 3 10 80 11 4 12 70 13 5 14
REMARK SMILES IDX 71 15 72 16 73 17 74 19 75 20 79 21 76 22 78 23 77 24 12 25
REMARK SMILES IDX 13 26 14 27 15 29 16 30 17 31 69 32 18 33 68 34 19 35 20 36
REMARK SMILES IDX 21 37 62 38 22 39 67 40 61 41 63 42 23 43 66 44 60 45 59 46
REMARK SMILES IDX 24 48 50 49 33 50 49 51 34 52 37 53 48 54 64 55 35 56 36 57
REMARK SMILES IDX 47 59 65 60 38 61 25 62 26 63 31 64 27 65 28 66 30 67 32 68
REMARK SMILES IDX 29 69 51 70 52 71 57 72 53 73 54 74 56 75 58 76 55 77 39 78
REMARK SMILES IDX 40 79 45 80 41 81 42 82 44 83 46 84 43 85
REMARK H PARENT 9 6 73 18 13 28 63 47 37 58
REMARK Flexibility Score: inf
ROOT
ATOM      1  C   UNL A   1      37.801  19.971  24.855  1.00  0.00     0.042 C 
ENDROOT
BRANCH   1   2
ATOM      2  C   UNL A   1      36.717  21.025  24.885  1.00  0.00     0.117 C 
BRANCH   2   3
ATOM      3  N   UNL A   1      36.046  21.129  26.167  1.00  0.00    -0.356 N 
ATOM      4  C   UNL A   1      34.805  21.610  26.477  1.00  0.00     0.224 C 
ATOM      5  O   UNL A   1      34.409  21.440  27.632  1.00  0.00    -0.275 OA
ATOM      6  H   UNL A   1      36.567  20.800  26.934  1.00  0.00     0.163 HD
BRANCH   4   7
ATOM      7  C   UNL A   1      33.933  22.354  25.451  1.00  0.00     0.098 C 
ATOM      8  C   UNL A   1      30.014  24.249  26.437  1.00  0.00     0.039 C 
ATOM      9  C   UNL A   1      31.349  23.664  26.068  1.00  0.00    -0.076 C 
ATOM     10  C   UNL A   1      32.466  24.413  26.001  1.00  0.00    -0.024 C 
ATOM     11  C   UNL A   1      31.343  22.173  25.865  1.00  0.00     0.044 C 
ATOM     12  C   UNL A   1      33.861  23.859  25.834  1.00  0.00     0.022 C 
ATOM     13  C   UNL A   1      32.612  21.577  25.249  1.00  0.00     0.096 C 
ATOM     14  C   UNL A   1      34.771  24.738  24.962  1.00  0.00     0.013 C 
BRANCH  13  15
ATOM     15  C   UNL A   1      32.409  21.023  23.819  1.00  0.00     0.228 C 
ATOM     16  O   UNL A   1      31.890  21.743  22.958  1.00  0.00    -0.274 OA
ATOM     17  N   UNL A   1      32.903  19.816  23.407  1.00  0.00    -0.324 N 
ATOM     18  H   UNL A   1      33.072  19.742  22.440  1.00  0.00     0.169 HD
BRANCH  17  19
ATOM     19  C   UNL A   1      33.203  18.674  24.151  1.00  0.00     0.059 A 
ATOM     20  C   UNL A   1      34.490  18.165  24.201  1.00  0.00     0.029 A 
ATOM     21  C   UNL A   1      32.233  18.040  24.917  1.00  0.00     0.137 A 
ATOM     22  C   UNL A   1      34.741  16.981  24.891  1.00  0.00     0.022 A 
ATOM     23  N   UNL A   1      32.439  16.883  25.594  1.00  0.00    -0.263 NA
ATOM     24  C   UNL A   1      33.686  16.366  25.540  1.00  0.00     0.111 A 
ENDBRANCH  17  19
ENDBRANCH  13  15
ENDBRANCH   4   7
ENDBRANCH   2   3
ENDBRANCH   1   2
BRANCH   1  25
ATOM     25  C   UNL A   1      38.964  20.333  25.749  1.00  0.00     0.118 C 
BRANCH  25  26
ATOM     26  N   UNL A   1      39.924  19.238  25.879  1.00  0.00    -0.352 N 
ATOM     27  C   UNL A   1      41.279  19.276  26.114  1.00  0.00     0.251 C 
ATOM     28  H   UNL A   1      39.542  18.336  25.785  1.00  0.00     0.163 HD
ATOM     29  O   UNL A   1      41.952  18.264  26.009  1.00  0.00    -0.269 OA
BRANCH  27  30
ATOM     30  C   UNL A   1      41.912  20.563  26.466  1.00  0.00     0.039 A 
ATOM     31  C   UNL A   1      42.217  21.473  25.452  1.00  0.00     0.014 A 
ATOM     32  C   UNL A   1      42.173  20.878  27.800  1.00  0.00     0.014 A 
ATOM     33  C   UNL A   1      42.716  22.731  25.790  1.00  0.00     0.010 A 
ATOM     34  C   UNL A   1      42.543  22.168  28.140  1.00  0.00     0.010 A 
ATOM     35  C   UNL A   1      42.840  23.101  27.139  1.00  0.00    -0.014 A 
BRANCH  35  36
ATOM     36  C   UNL A   1      43.309  24.448  27.537  1.00  0.00     0.031 A 
ATOM     37  C   UNL A   1      42.309  25.490  27.957  1.00  0.00     0.074 A 
ATOM     38  C   UNL A   1      44.614  24.759  27.428  1.00  0.00     0.049 A 
ATOM     39  N   UNL A   1      42.501  26.748  28.254  1.00  0.00    -0.248 NA
ATOM     40  C   UNL A   1      40.898  25.072  28.005  1.00  0.00     0.031 C 
ATOM     41  C   UNL A   1      45.665  23.855  26.955  1.00  0.00     0.029 A 
ATOM     42  N   UNL A   1      45.277  25.930  27.693  1.00  0.00    -0.354 N 
ATOM     43  C   UNL A   1      41.238  27.276  28.488  1.00  0.00     0.074 A 
ATOM     44  C   UNL A   1      40.283  26.221  28.235  1.00  0.00     0.031 C 
ATOM     45  C   UNL A   1      46.843  24.498  26.986  1.00  0.00     0.029 A 
ATOM     46  C   UNL A   1      46.625  25.867  27.444  1.00  0.00     0.049 A 
ATOM     47  H   UNL A   1      44.828  26.739  28.030  1.00  0.00     0.167 HD
ATOM     48  C   UNL A   1      40.904  28.519  28.906  1.00  0.00     0.037 A 
ATOM     49  C   UNL A   1      47.578  26.809  27.565  1.00  0.00     0.037 A 
ATOM     50  C   UNL A   1      41.866  29.548  29.195  1.00  0.00     0.049 A 
ATOM     51  C   UNL A   1      47.194  28.171  28.071  1.00  0.00     0.074 A 
ATOM     52  C   UNL A   1      41.649  30.809  29.718  1.00  0.00     0.029 A 
ATOM     53  N   UNL A   1      43.232  29.431  28.978  1.00  0.00    -0.354 N 
ATOM     54  N   UNL A   1      46.006  28.630  28.385  1.00  0.00    -0.248 NA
ATOM     55  C   UNL A   1      48.281  29.142  28.248  1.00  0.00     0.031 C 
ATOM     56  C   UNL A   1      42.878  31.476  29.769  1.00  0.00     0.029 A 
ATOM     57  C   UNL A   1      43.868  30.610  29.330  1.00  0.00     0.049 A 
ATOM     58  H   UNL A   1      43.682  28.630  28.628  1.00  0.00     0.167 HD
ATOM     59  C   UNL A   1      46.203  29.935  28.816  1.00  0.00     0.074 A 
ATOM     60  C   UNL A   1      47.628  30.188  28.737  1.00  0.00     0.031 C 
ATOM     61  C   UNL A   1      45.288  30.842  29.239  1.00  0.00     0.037 A 
BRANCH  48  62
ATOM     62  C   UNL A   1      39.442  28.823  29.067  1.00  0.00     0.057 A 
ATOM     63  C   UNL A   1      38.662  29.319  28.012  1.00  0.00     0.134 A 
ATOM     64  C   UNL A   1      38.804  28.621  30.297  1.00  0.00     0.134 A 
ATOM     65  F   UNL A   1      39.213  29.550  26.810  1.00  0.00    -0.206 F 
ATOM     66  C   UNL A   1      37.316  29.644  28.187  1.00  0.00     0.040 A 
ATOM     67  C   UNL A   1      37.450  28.911  30.475  1.00  0.00     0.040 A 
ATOM     68  F   UNL A   1      39.488  28.144  31.349  1.00  0.00    -0.206 F 
ATOM     69  C   UNL A   1      36.706  29.435  29.421  1.00  0.00     0.006 A 
ENDBRANCH  48  62
BRANCH  49  70
ATOM     70  C   UNL A   1      48.984  26.476  27.231  1.00  0.00     0.057 A 
ATOM     71  C   UNL A   1      49.835  25.894  28.178  1.00  0.00     0.134 A 
ATOM     72  C   UNL A   1      49.501  26.696  25.948  1.00  0.00     0.134 A 
ATOM     73  F   UNL A   1      49.401  25.671  29.427  1.00  0.00    -0.206 F 
ATOM     74  C   UNL A   1      51.150  25.550  27.865  1.00  0.00     0.040 A 
ATOM     75  C   UNL A   1      50.807  26.336  25.614  1.00  0.00     0.040 A 
ATOM     76  F   UNL A   1      48.731  27.238  24.993  1.00  0.00    -0.206 F 
ATOM     77  C   UNL A   1      51.638  25.764  26.576  1.00  0.00     0.006 A 
ENDBRANCH  49  70
BRANCH  61  78
ATOM     78  C   UNL A   1      45.802  32.185  29.669  1.00  0.00     0.057 A 
ATOM     79  C   UNL A   1      45.886  33.263  28.779  1.00  0.00     0.134 A 
ATOM     80  C   UNL A   1      46.173  32.411  31.001  1.00  0.00     0.134 A 
ATOM     81  F   UNL A   1      45.557  33.107  27.488  1.00  0.00    -0.206 F 
ATOM     82  C   UNL A   1      46.341  34.515  29.195  1.00  0.00     0.040 A 
ATOM     83  C   UNL A   1      46.602  33.666  31.433  1.00  0.00     0.040 A 
ATOM     84  F   UNL A   1      46.107  31.423  31.904  1.00  0.00    -0.206 F 
ATOM     85  C   UNL A   1      46.692  34.721  30.528  1.00  0.00     0.006 A 
ENDBRANCH  61  78
ENDBRANCH  35  36
ENDBRANCH  27  30
ENDBRANCH  25  26
ENDBRANCH   1  25
TORSDOF 12
ENDMDL
MODEL 2
REMARK VINA RESULT:     -12.3      5.616     10.324
REMARK SMILES CC1=C[C@H](C)[C@@H](C(=O)NCCCNC(=O)c2ccc(-c3c4nc(c(-c5c(F)cccc5F)c5ccc([nH]5)c(-c5c(F)cccc5F)c5nc(c(-c6c(F)cccc6F)c6ccc3[nH]6)C=C5)C=C4)cc2)[C@H](C(=O)Nc2cccnc2)C1
REMARK SMILES IDX 11 1 10 2 9 3 7 4 8 5 6 7 1 8 2 9 3 10 80 11 4 12 70 13 5 14
REMARK SMILES IDX 71 15 72 16 73 17 74 19 75 20 79 21 76 22 78 23 77 24 12 25
REMARK SMILES IDX 13 26 14 27 15 29 16 30 17 31 69 32 18 33 68 34 19 35 20 36
REMARK SMILES IDX 21 37 62 38 22 39 67 40 61 41 63 42 23 43 66 44 60 45 59 46
REMARK SMILES IDX 24 48 50 49 33 50 49 51 34 52 37 53 48 54 64 55 35 56 36 57
REMARK SMILES IDX 47 59 65 60 38 61 25 62 26 63 31 64 27 65 28 66 30 67 32 68
REMARK SMILES IDX 29 69 51 70 52 71 57 72 53 73 54 74 56 75 58 76 55 77 39 78
REMARK SMILES IDX 40 79 45 80 41 81 42 82 44 83 46 84 43 85
REMARK H PARENT 9 6 73 18 13 28 63 47 37 58
REMARK Flexibility Score: inf
ROOT
ATOM      1  C   UNL A   1      31.433  32.040  26.767  1.00  0.00     0.042 C 
ENDROOT
BRANCH   1   2
ATOM      2  C   UNL A   1      31.796  30.742  26.080  1.00  0.00     0.117 C 
BRANCH   2   3
ATOM      3  N   UNL A   1      31.046  30.501  24.863  1.00  0.00    -0.356 N 
ATOM      4  C   UNL A   1      30.874  29.352  24.144  1.00  0.00     0.224 C 
ATOM      5  O   UNL A   1      30.053  29.380  23.225  1.00  0.00    -0.275 OA
ATOM      6  H   UNL A   1      30.586  31.291  24.497  1.00  0.00     0.163 HD
BRANCH   4   7
ATOM      7  C   UNL A   1      31.678  28.072  24.438  1.00  0.00     0.098 C 
ATOM      8  C   UNL A   1      30.440  24.001  23.089  1.00  0.00     0.039 C 
ATOM      9  C   UNL A   1      30.920  25.358  23.527  1.00  0.00    -0.076 C 
ATOM     10  C   UNL A   1      31.843  26.051  22.833  1.00  0.00    -0.024 C 
ATOM     11  C   UNL A   1      30.225  25.903  24.746  1.00  0.00     0.044 C 
ATOM     12  C   UNL A   1      32.219  27.488  23.104  1.00  0.00     0.022 C 
ATOM     13  C   UNL A   1      30.851  27.155  25.367  1.00  0.00     0.096 C 
ATOM     14  C   UNL A   1      33.710  27.785  22.885  1.00  0.00     0.013 C 
BRANCH  13  15
ATOM     15  C   UNL A   1      31.486  26.911  26.756  1.00  0.00     0.228 C 
ATOM     16  O   UNL A   1      31.215  27.675  27.689  1.00  0.00    -0.274 OA
ATOM     17  N   UNL A   1      32.232  25.805  27.054  1.00  0.00    -0.324 N 
ATOM     18  H   UNL A   1      32.242  25.551  28.005  1.00  0.00     0.169 HD
BRANCH  17  19
ATOM     19  C   UNL A   1      32.981  24.980  26.212  1.00  0.00     0.059 A 
ATOM     20  C   UNL A   1      34.114  25.448  25.569  1.00  0.00     0.029 A 
ATOM     21  C   UNL A   1      32.650  23.643  26.037  1.00  0.00     0.137 A 
ATOM     22  C   UNL A   1      34.796  24.623  24.677  1.00  0.00     0.022 A 
ATOM     23  N   UNL A   1      33.285  22.814  25.172  1.00  0.00    -0.263 NA
ATOM     24  C   UNL A   1      34.329  23.335  24.490  1.00  0.00     0.111 A 
ENDBRANCH  17  19
ENDBRANCH  13  15
ENDBRANCH   4   7
ENDBRANCH   2   3
ENDBRANCH   1   2
BRANCH   1  25
ATOM     25  C   UNL A   1      32.646  32.724  27.355  1.00  0.00     0.118 C 
BRANCH  25  26
ATOM     26  N   UNL A   1      32.411  34.144  27.609  1.00  0.00    -0.352 N 
ATOM     27  C   UNL A   1      33.011  34.989  28.514  1.00  0.00     0.251 C 
ATOM     28  H   UNL A   1      31.717  34.559  27.048  1.00  0.00     0.163 HD
ATOM     29  O   UNL A   1      32.557  36.104  28.712  1.00  0.00    -0.269 OA
BRANCH  27  30
ATOM     30  C   UNL A   1      34.195  34.520  29.262  1.00  0.00     0.039 A 
ATOM     31  C   UNL A   1      34.020  33.925  30.512  1.00  0.00     0.014 A 
ATOM     32  C   UNL A   1      35.471  34.641  28.710  1.00  0.00     0.014 A 
ATOM     33  C   UNL A   1      35.123  33.384  31.173  1.00  0.00     0.010 A 
ATOM     34  C   UNL A   1      36.539  33.990  29.303  1.00  0.00     0.010 A 
ATOM     35  C   UNL A   1      36.382  33.375  30.551  1.00  0.00    -0.014 A 
BRANCH  35  36
ATOM     36  C   UNL A   1      37.564  32.757  31.195  1.00  0.00     0.031 A 
ATOM     37  C   UNL A   1      38.222  31.566  30.555  1.00  0.00     0.074 A 
ATOM     38  C   UNL A   1      37.980  33.205  32.393  1.00  0.00     0.049 A 
ATOM     39  N   UNL A   1      39.204  30.826  30.998  1.00  0.00    -0.248 NA
ATOM     40  C   UNL A   1      37.671  31.119  29.265  1.00  0.00     0.031 C 
ATOM     41  C   UNL A   1      37.370  34.301  33.149  1.00  0.00     0.029 A 
ATOM     42  N   UNL A   1      39.008  32.780  33.196  1.00  0.00    -0.354 N 
ATOM     43  C   UNL A   1      39.363  29.812  30.062  1.00  0.00     0.074 A 
ATOM     44  C   UNL A   1      38.335  29.992  29.063  1.00  0.00     0.031 C 
ATOM     45  C   UNL A   1      38.050  34.478  34.293  1.00  0.00     0.029 A 
ATOM     46  C   UNL A   1      39.117  33.485  34.368  1.00  0.00     0.049 A 
ATOM     47  H   UNL A   1      39.610  32.040  32.954  1.00  0.00     0.167 HD
ATOM     48  C   UNL A   1      40.299  28.836  30.022  1.00  0.00     0.037 A 
ATOM     49  C   UNL A   1      39.977  33.342  35.393  1.00  0.00     0.037 A 
ATOM     50  C   UNL A   1      41.343  28.693  31.001  1.00  0.00     0.049 A 
ATOM     51  C   UNL A   1      41.037  32.280  35.312  1.00  0.00     0.074 A 
ATOM     52  C   UNL A   1      42.402  27.804  31.007  1.00  0.00     0.029 A 
ATOM     53  N   UNL A   1      41.452  29.459  32.153  1.00  0.00    -0.354 N 
ATOM     54  N   UNL A   1      41.239  31.388  34.372  1.00  0.00    -0.248 NA
ATOM     55  C   UNL A   1      41.991  32.210  36.425  1.00  0.00     0.031 C 
ATOM     56  C   UNL A   1      43.124  27.998  32.190  1.00  0.00     0.029 A 
ATOM     57  C   UNL A   1      42.546  29.044  32.893  1.00  0.00     0.049 A 
ATOM     58  H   UNL A   1      40.843  30.189  32.405  1.00  0.00     0.167 HD
ATOM     59  C   UNL A   1      42.355  30.663  34.769  1.00  0.00     0.074 A 
ATOM     60  C   UNL A   1      42.794  31.232  36.027  1.00  0.00     0.031 C 
ATOM     61  C   UNL A   1      42.962  29.622  34.148  1.00  0.00     0.037 A 
BRANCH  48  62
ATOM     62  C   UNL A   1      40.225  27.855  28.887  1.00  0.00     0.057 A 
ATOM     63  C   UNL A   1      39.490  26.665  28.976  1.00  0.00     0.134 A 
ATOM     64  C   UNL A   1      40.903  28.103  27.688  1.00  0.00     0.134 A 
ATOM     65  F   UNL A   1      38.828  26.357  30.103  1.00  0.00    -0.206 F 
ATOM     66  C   UNL A   1      39.469  25.738  27.933  1.00  0.00     0.040 A 
ATOM     67  C   UNL A   1      40.862  27.199  26.625  1.00  0.00     0.040 A 
ATOM     68  F   UNL A   1      41.623  29.225  27.530  1.00  0.00    -0.206 F 
ATOM     69  C   UNL A   1      40.153  26.007  26.750  1.00  0.00     0.006 A 
ENDBRANCH  48  62
BRANCH  49  70
ATOM     70  C   UNL A   1      39.884  34.253  36.561  1.00  0.00     0.057 A 
ATOM     71  C   UNL A   1      40.473  35.522  36.537  1.00  0.00     0.134 A 
ATOM     72  C   UNL A   1      39.172  33.893  37.712  1.00  0.00     0.134 A 
ATOM     73  F   UNL A   1      41.178  35.919  35.468  1.00  0.00    -0.206 F 
ATOM     74  C   UNL A   1      40.365  36.399  37.618  1.00  0.00     0.040 A 
ATOM     75  C   UNL A   1      39.037  34.767  38.791  1.00  0.00     0.040 A 
ATOM     76  F   UNL A   1      38.573  32.695  37.790  1.00  0.00    -0.206 F 
ATOM     77  C   UNL A   1      39.638  36.024  38.747  1.00  0.00     0.006 A 
ENDBRANCH  49  70
BRANCH  61  78
ATOM     78  C   UNL A   1      44.178  29.043  34.810  1.00  0.00     0.057 A 
ATOM     79  C   UNL A   1      44.091  27.971  35.706  1.00  0.00     0.134 A 
ATOM     80  C   UNL A   1      45.455  29.536  34.509  1.00  0.00     0.134 A 
ATOM     81  F   UNL A   1      42.898  27.462  36.045  1.00  0.00    -0.206 F 
ATOM     82  C   UNL A   1      45.231  27.423  36.297  1.00  0.00     0.040 A 
ATOM     83  C   UNL A   1      46.602  28.978  35.072  1.00  0.00     0.040 A 
ATOM     84  F   UNL A   1      45.607  30.555  33.651  1.00  0.00    -0.206 F 
ATOM     85  C   UNL A   1      46.492  27.921  35.973  1.00  0.00     0.006 A 
ENDBRANCH  61  78
ENDBRANCH  35  36
ENDBRANCH  27  30
ENDBRANCH  25  26
ENDBRANCH   1  25
TORSDOF 12
ENDMDL
MODEL 3
REMARK VINA RESULT:     -12.3      1.286      6.403
REMARK SMILES CC1=C[C@H](C)[C@@H](C(=O)NCCCNC(=O)c2ccc(-c3c4nc(c(-c5c(F)cccc5F)c5ccc([nH]5)c(-c5c(F)cccc5F)c5nc(c(-c6c(F)cccc6F)c6ccc3[nH]6)C=C5)C=C4)cc2)[C@H](C(=O)Nc2cccnc2)C1
REMARK SMILES IDX 11 1 10 2 9 3 7 4 8 5 6 7 1 8 2 9 3 10 80 11 4 12 70 13 5 14
REMARK SMILES IDX 71 15 72 16 73 17 74 19 75 20 79 21 76 22 78 23 77 24 12 25
REMARK SMILES IDX 13 26 14 27 15 29 16 30 17 31 69 32 18 33 68 34 19 35 20 36
REMARK SMILES IDX 21 37 62 38 22 39 67 40 61 41 63 42 23 43 66 44 60 45 59 46
REMARK SMILES IDX 24 48 50 49 33 50 49 51 34 52 37 53 48 54 64 55 35 56 36 57
REMARK SMILES IDX 47 59 65 60 38 61 25 62 26 63 31 64 27 65 28 66 30 67 32 68
REMARK SMILES IDX 29 69 51 70 52 71 57 72 53 73 54 74 56 75 58 76 55 77 39 78
REMARK SMILES IDX 40 79 45 80 41 81 42 82 44 83 46 84 43 85
REMARK H PARENT 9 6 73 18 13 28 63 47 37 58
REMARK Flexibility Score: inf
ROOT
ATOM      1  C   UNL A   1      37.803  19.916  24.885  1.00  0.00     0.042 C 
ENDROOT
BRANCH   1   2
ATOM      2  C   UNL A   1      36.663  20.909  24.869  1.00  0.00     0.117 C 
BRANCH   2   3
ATOM      3  N   UNL A   1      36.005  21.058  26.152  1.00  0.00    -0.356 N 
ATOM      4  C   UNL A   1      34.779  21.574  26.461  1.00  0.00     0.224 C 
ATOM      5  O   UNL A   1      34.388  21.440  27.623  1.00  0.00    -0.275 OA
ATOM      6  H   UNL A   1      36.524  20.734  26.923  1.00  0.00     0.163 HD
BRANCH   4   7
ATOM      7  C   UNL A   1      33.916  22.316  25.425  1.00  0.00     0.098 C 
ATOM      8  C   UNL A   1      30.004  24.244  26.378  1.00  0.00     0.039 C 
ATOM      9  C   UNL A   1      31.337  23.647  26.020  1.00  0.00    -0.076 C 
ATOM     10  C   UNL A   1      32.460  24.388  25.952  1.00  0.00    -0.024 C 
ATOM     11  C   UNL A   1      31.323  22.154  25.829  1.00  0.00     0.044 C 
ATOM     12  C   UNL A   1      33.852  23.824  25.795  1.00  0.00     0.022 C 
ATOM     13  C   UNL A   1      32.591  21.546  25.223  1.00  0.00     0.096 C 
ATOM     14  C   UNL A   1      34.772  24.690  24.921  1.00  0.00     0.013 C 
BRANCH  13  15
ATOM     15  C   UNL A   1      32.391  20.982  23.797  1.00  0.00     0.228 C 
ATOM     16  O   UNL A   1      31.871  21.694  22.931  1.00  0.00    -0.274 OA
ATOM     17  N   UNL A   1      32.888  19.773  23.393  1.00  0.00    -0.324 N 
ATOM     18  H   UNL A   1      33.058  19.692  22.427  1.00  0.00     0.169 HD
BRANCH  17  19
ATOM     19  C   UNL A   1      33.190  18.636  24.146  1.00  0.00     0.059 A 
ATOM     20  C   UNL A   1      34.473  18.117  24.182  1.00  0.00     0.029 A 
ATOM     21  C   UNL A   1      32.226  18.019  24.933  1.00  0.00     0.137 A 
ATOM     22  C   UNL A   1      34.724  16.939  24.882  1.00  0.00     0.022 A 
ATOM     23  N   UNL A   1      32.432  16.868  25.619  1.00  0.00    -0.263 NA
ATOM     24  C   UNL A   1      33.674  16.340  25.553  1.00  0.00     0.111 A 
ENDBRANCH  17  19
ENDBRANCH  13  15
ENDBRANCH   4   7
ENDBRANCH   2   3
ENDBRANCH   1   2
BRANCH   1  25
ATOM     25  C   UNL A   1      38.947  20.385  25.754  1.00  0.00     0.118 C 
BRANCH  25  26
ATOM     26  N   UNL A   1      40.022  19.397  25.835  1.00  0.00    -0.352 N 
ATOM     27  C   UNL A   1      41.354  19.567  26.134  1.00  0.00     0.251 C 
ATOM     28  H   UNL A   1      39.751  18.470  25.649  1.00  0.00     0.163 HD
ATOM     29  O   UNL A   1      42.143  18.649  25.974  1.00  0.00    -0.269 OA
BRANCH  27  30
ATOM     30  C   UNL A   1      41.822  20.880  26.621  1.00  0.00     0.039 A 
ATOM     31  C   UNL A   1      42.230  21.844  25.698  1.00  0.00     0.014 A 
ATOM     32  C   UNL A   1      41.825  21.164  27.987  1.00  0.00     0.014 A 
ATOM     33  C   UNL A   1      42.569  23.121  26.147  1.00  0.00     0.010 A 
ATOM     34  C   UNL A   1      42.034  22.463  28.417  1.00  0.00     0.010 A 
ATOM     35  C   UNL A   1      42.432  23.449  27.505  1.00  0.00    -0.014 A 
BRANCH  35  36
ATOM     36  C   UNL A   1      42.725  24.810  28.010  1.00  0.00     0.031 A 
ATOM     37  C   UNL A   1      44.126  25.164  28.426  1.00  0.00     0.074 A 
ATOM     38  C   UNL A   1      41.720  25.688  28.183  1.00  0.00     0.049 A 
ATOM     39  N   UNL A   1      44.574  26.262  28.975  1.00  0.00    -0.248 NA
ATOM     40  C   UNL A   1      45.153  24.125  28.241  1.00  0.00     0.031 C 
ATOM     41  C   UNL A   1      40.308  25.430  27.891  1.00  0.00     0.029 A 
ATOM     42  N   UNL A   1      41.731  26.973  28.663  1.00  0.00    -0.354 N 
ATOM     43  C   UNL A   1      45.920  26.032  29.231  1.00  0.00     0.074 A 
ATOM     44  C   UNL A   1      46.200  24.670  28.839  1.00  0.00     0.031 C 
ATOM     45  C   UNL A   1      39.592  26.530  28.176  1.00  0.00     0.029 A 
ATOM     46  C   UNL A   1      40.488  27.554  28.704  1.00  0.00     0.049 A 
ATOM     47  H   UNL A   1      42.551  27.434  28.951  1.00  0.00     0.167 HD
ATOM     48  C   UNL A   1      46.846  26.889  29.721  1.00  0.00     0.037 A 
ATOM     49  C   UNL A   1      40.112  28.775  29.127  1.00  0.00     0.037 A 
ATOM     50  C   UNL A   1      46.563  28.255  30.068  1.00  0.00     0.049 A 
ATOM     51  C   UNL A   1      41.161  29.727  29.628  1.00  0.00     0.074 A 
ATOM     52  C   UNL A   1      47.443  29.240  30.478  1.00  0.00     0.029 A 
ATOM     53  N   UNL A   1      45.299  28.827  30.049  1.00  0.00    -0.354 N 
ATOM     54  N   UNL A   1      42.450  29.532  29.773  1.00  0.00    -0.248 NA
ATOM     55  C   UNL A   1      40.707  31.069  30.014  1.00  0.00     0.031 C 
ATOM     56  C   UNL A   1      46.703  30.395  30.758  1.00  0.00     0.029 A 
ATOM     57  C   UNL A   1      45.370  30.144  30.469  1.00  0.00     0.049 A 
ATOM     58  H   UNL A   1      44.474  28.364  29.777  1.00  0.00     0.167 HD
ATOM     59  C   UNL A   1      42.965  30.731  30.248  1.00  0.00     0.074 A 
ATOM     60  C   UNL A   1      41.851  31.651  30.350  1.00  0.00     0.031 C 
ATOM     61  C   UNL A   1      44.245  31.042  30.569  1.00  0.00     0.037 A 
BRANCH  48  62
ATOM     62  C   UNL A   1      48.240  26.363  29.909  1.00  0.00     0.057 A 
ATOM     63  C   UNL A   1      48.662  25.779  31.112  1.00  0.00     0.134 A 
ATOM     64  C   UNL A   1      49.178  26.446  28.872  1.00  0.00     0.134 A 
ATOM     65  F   UNL A   1      47.819  25.681  32.152  1.00  0.00    -0.206 F 
ATOM     66  C   UNL A   1      49.973  25.338  31.291  1.00  0.00     0.040 A 
ATOM     67  C   UNL A   1      50.484  25.979  29.029  1.00  0.00     0.040 A 
ATOM     68  F   UNL A   1      48.843  26.989  27.692  1.00  0.00    -0.206 F 
ATOM     69  C   UNL A   1      50.887  25.433  30.245  1.00  0.00     0.006 A 
ENDBRANCH  48  62
BRANCH  49  70
ATOM     70  C   UNL A   1      38.682  29.166  29.058  1.00  0.00     0.057 A 
ATOM     71  C   UNL A   1      38.110  29.611  27.862  1.00  0.00     0.134 A 
ATOM     72  C   UNL A   1      37.845  29.068  30.177  1.00  0.00     0.134 A 
ATOM     73  F   UNL A   1      38.863  29.738  26.760  1.00  0.00    -0.206 F 
ATOM     74  C   UNL A   1      36.759  29.952  27.780  1.00  0.00     0.040 A 
ATOM     75  C   UNL A   1      36.488  29.384  30.105  1.00  0.00     0.040 A 
ATOM     76  F   UNL A   1      38.331  28.634  31.350  1.00  0.00    -0.206 F 
ATOM     77  C   UNL A   1      35.942  29.831  28.903  1.00  0.00     0.006 A 
ENDBRANCH  49  70
BRANCH  61  78
ATOM     78  C   UNL A   1      44.513  32.441  31.042  1.00  0.00     0.057 A 
ATOM     79  C   UNL A   1      44.511  32.773  32.403  1.00  0.00     0.134 A 
ATOM     80  C   UNL A   1      44.821  33.455  30.126  1.00  0.00     0.134 A 
ATOM     81  F   UNL A   1      44.211  31.850  33.328  1.00  0.00    -0.206 F 
ATOM     82  C   UNL A   1      44.786  34.071  32.834  1.00  0.00     0.040 A 
ATOM     83  C   UNL A   1      45.126  34.749  30.548  1.00  0.00     0.040 A 
ATOM     84  F   UNL A   1      44.849  33.200  28.810  1.00  0.00    -0.206 F 
ATOM     85  C   UNL A   1      45.103  35.062  31.906  1.00  0.00     0.006 A 
ENDBRANCH  61  78
ENDBRANCH  35  36
ENDBRANCH  27  30
ENDBRANCH  25  26
ENDBRANCH   1  25
TORSDOF 12
ENDMDL
