MODEL 1
REMARK VINA RESULT:     -12.0      0.000      0.000
REMARK SMILES Cc1nc(=O)[nH]c(C)c1CC(=O)Nc1sccc1C(=O)NCCCNC(=O)c1ccc(-c2c3nc(c(-c4c(F)cccc4F)c4ccc([nH]4)c(-c4c(F)cccc4F)c4nc(c(-c5c(F)cccc5F)c5ccc2[nH]5)C=C4)C=C3)cc1
REMARK SMILES IDX 22 1 21 2 19 3 20 4 18 6 14 7 15 8 16 9 17 10 13 11 11 12
REMARK SMILES IDX 12 13 10 15 9 16 1 17 2 18 3 19 4 20 7 21 5 22 6 23 8 24
REMARK SMILES IDX 23 26 24 27 25 28 26 29 27 31 28 32 29 33 81 34 30 35 80 36
REMARK SMILES IDX 31 37 32 38 33 39 74 40 34 41 79 42 73 43 75 44 35 45 78 46
REMARK SMILES IDX 72 47 71 48 36 50 62 51 45 52 61 53 46 54 49 55 60 56 76 57
REMARK SMILES IDX 47 58 48 59 59 61 77 62 50 63 37 64 38 65 43 66 39 67 40 68
REMARK SMILES IDX 42 69 44 70 41 71 63 72 64 73 69 74 65 75 66 76 68 77 70 78
REMARK SMILES IDX 67 79 51 80 52 81 57 82 53 83 54 84 56 85 58 86 55 87
REMARK H PARENT 21 5 13 14 6 25 25 30 75 49 49 60
REMARK Flexibility Score: inf
ROOT
ATOM      1  C   UNL A   1      37.131  22.768  25.137  1.00  0.00     0.118 C 
ENDROOT
BRANCH   1   2
ATOM      2  N   UNL A   1      36.473  23.279  23.963  1.00  0.00    -0.352 N 
ATOM      3  C   UNL A   1      35.138  23.412  23.684  1.00  0.00     0.254 C 
ATOM      4  O   UNL A   1      34.865  23.794  22.546  1.00  0.00    -0.269 OA
ATOM      5  H   UNL A   1      37.078  23.582  23.247  1.00  0.00     0.163 HD
BRANCH   3   6
ATOM      6  C   UNL A   1      34.075  23.022  24.620  1.00  0.00     0.074 A 
ATOM      7  C   UNL A   1      33.513  23.658  25.716  1.00  0.00     0.108 A 
ATOM      8  S   UNL A   1      32.607  22.585  26.701  1.00  0.00    -0.126 S 
ATOM      9  C   UNL A   1      32.616  21.377  25.506  1.00  0.00     0.068 A 
ATOM     10  C   UNL A   1      33.437  21.725  24.461  1.00  0.00     0.028 A 
BRANCH   7  11
ATOM     11  N   UNL A   1      33.557  24.892  26.313  1.00  0.00    -0.317 N 
ATOM     12  C   UNL A   1      33.246  26.135  25.860  1.00  0.00     0.229 C 
ATOM     13  O   UNL A   1      33.806  27.087  26.422  1.00  0.00    -0.274 OA
ATOM     14  H   UNL A   1      33.875  24.874  27.244  1.00  0.00     0.170 HD
BRANCH  12  15
ATOM     15  C   UNL A   1      32.100  26.424  24.891  1.00  0.00     0.139 C 
BRANCH  15  16
ATOM     16  C   UNL A   1      32.251  26.133  23.436  1.00  0.00     0.002 A 
ATOM     17  C   UNL A   1      34.082  27.990  23.240  1.00  0.00     0.067 C 
ATOM     18  C   UNL A   1      33.234  26.906  22.602  1.00  0.00     0.049 A 
ATOM     19  N   UNL A   1      33.471  26.692  21.349  1.00  0.00    -0.198 NA
ATOM     20  C   UNL A   1      32.789  25.701  20.703  1.00  0.00     0.345 A 
ATOM     21  C   UNL A   1      31.678  25.103  22.781  1.00  0.00     0.022 A 
ATOM     22  O   UNL A   1      32.940  25.446  19.512  1.00  0.00    -0.246 OA
ATOM     23  N   UNL A   1      31.941  24.927  21.448  1.00  0.00    -0.310 N 
ATOM     24  C   UNL A   1      30.744  24.080  23.367  1.00  0.00     0.065 C 
ATOM     25  H   UNL A   1      31.481  24.186  20.989  1.00  0.00     0.171 HD
ENDBRANCH  15  16
ENDBRANCH  12  15
ENDBRANCH   7  11
ENDBRANCH   3   6
ENDBRANCH   1   2
BRANCH   1  26
ATOM     26  C   UNL A   1      37.803  21.422  24.948  1.00  0.00     0.042 C 
BRANCH  26  27
ATOM     27  C   UNL A   1      38.824  21.083  26.026  1.00  0.00     0.118 C 
BRANCH  27  28
ATOM     28  N   UNL A   1      39.730  19.984  25.696  1.00  0.00    -0.352 N 
ATOM     29  C   UNL A   1      41.074  19.856  25.969  1.00  0.00     0.251 C 
ATOM     30  H   UNL A   1      39.322  19.229  25.211  1.00  0.00     0.163 HD
ATOM     31  O   UNL A   1      41.686  18.841  25.658  1.00  0.00    -0.269 OA
BRANCH  29  32
ATOM     32  C   UNL A   1      41.791  21.002  26.561  1.00  0.00     0.039 A 
ATOM     33  C   UNL A   1      42.267  21.996  25.705  1.00  0.00     0.014 A 
ATOM     34  C   UNL A   1      41.853  21.166  27.946  1.00  0.00     0.014 A 
ATOM     35  C   UNL A   1      42.693  23.211  26.239  1.00  0.00     0.010 A 
ATOM     36  C   UNL A   1      42.173  22.413  28.467  1.00  0.00     0.010 A 
ATOM     37  C   UNL A   1      42.581  23.455  27.618  1.00  0.00    -0.014 A 
BRANCH  37  38
ATOM     38  C   UNL A   1      42.847  24.807  28.171  1.00  0.00     0.031 A 
ATOM     39  C   UNL A   1      44.245  25.215  28.542  1.00  0.00     0.074 A 
ATOM     40  C   UNL A   1      41.817  25.649  28.386  1.00  0.00     0.049 A 
ATOM     41  N   UNL A   1      44.670  26.356  29.020  1.00  0.00    -0.248 NA
ATOM     42  C   UNL A   1      45.299  24.200  28.389  1.00  0.00     0.031 C 
ATOM     43  C   UNL A   1      40.403  25.340  28.150  1.00  0.00     0.029 A 
ATOM     44  N   UNL A   1      41.796  26.943  28.846  1.00  0.00    -0.354 N 
ATOM     45  C   UNL A   1      46.033  26.193  29.228  1.00  0.00     0.074 A 
ATOM     46  C   UNL A   1      46.350  24.821  28.897  1.00  0.00     0.031 C 
ATOM     47  C   UNL A   1      39.663  26.427  28.417  1.00  0.00     0.029 A 
ATOM     48  C   UNL A   1      40.540  27.500  28.872  1.00  0.00     0.049 A 
ATOM     49  H   UNL A   1      42.605  27.426  29.130  1.00  0.00     0.167 HD
ATOM     50  C   UNL A   1      46.946  27.111  29.624  1.00  0.00     0.037 A 
ATOM     51  C   UNL A   1      40.143  28.741  29.210  1.00  0.00     0.037 A 
ATOM     52  C   UNL A   1      46.630  28.480  29.930  1.00  0.00     0.049 A 
ATOM     53  C   UNL A   1      41.178  29.748  29.627  1.00  0.00     0.074 A 
ATOM     54  C   UNL A   1      47.490  29.507  30.277  1.00  0.00     0.029 A 
ATOM     55  N   UNL A   1      45.350  29.013  29.928  1.00  0.00    -0.354 N 
ATOM     56  N   UNL A   1      42.478  29.606  29.727  1.00  0.00    -0.248 NA
ATOM     57  C   UNL A   1      40.693  31.094  29.965  1.00  0.00     0.031 C 
ATOM     58  C   UNL A   1      46.724  30.651  30.528  1.00  0.00     0.029 A 
ATOM     59  C   UNL A   1      45.392  30.349  30.290  1.00  0.00     0.049 A 
ATOM     60  H   UNL A   1      44.531  28.514  29.703  1.00  0.00     0.167 HD
ATOM     61  C   UNL A   1      42.967  30.845  30.117  1.00  0.00     0.074 A 
ATOM     62  C   UNL A   1      41.827  31.732  30.210  1.00  0.00     0.031 C 
ATOM     63  C   UNL A   1      44.245  31.215  30.381  1.00  0.00     0.037 A 
BRANCH  50  64
ATOM     64  C   UNL A   1      48.374  26.658  29.732  1.00  0.00     0.057 A 
ATOM     65  C   UNL A   1      49.291  26.852  28.689  1.00  0.00     0.134 A 
ATOM     66  C   UNL A   1      48.843  26.036  30.895  1.00  0.00     0.134 A 
ATOM     67  F   UNL A   1      48.902  27.428  27.540  1.00  0.00    -0.206 F 
ATOM     68  C   UNL A   1      50.613  26.415  28.786  1.00  0.00     0.040 A 
ATOM     69  C   UNL A   1      50.171  25.622  31.016  1.00  0.00     0.040 A 
ATOM     70  F   UNL A   1      48.022  25.821  31.933  1.00  0.00    -0.206 F 
ATOM     71  C   UNL A   1      51.058  25.804  29.955  1.00  0.00     0.006 A 
ENDBRANCH  50  64
BRANCH  51  72
ATOM     72  C   UNL A   1      38.707  29.117  29.129  1.00  0.00     0.057 A 
ATOM     73  C   UNL A   1      38.145  29.564  27.927  1.00  0.00     0.134 A 
ATOM     74  C   UNL A   1      37.868  29.056  30.248  1.00  0.00     0.134 A 
ATOM     75  F   UNL A   1      38.901  29.661  26.823  1.00  0.00    -0.206 F 
ATOM     76  C   UNL A   1      36.808  29.958  27.845  1.00  0.00     0.040 A 
ATOM     77  C   UNL A   1      36.522  29.422  30.174  1.00  0.00     0.040 A 
ATOM     78  F   UNL A   1      38.341  28.629  31.427  1.00  0.00    -0.206 F 
ATOM     79  C   UNL A   1      35.991  29.883  28.971  1.00  0.00     0.006 A 
ENDBRANCH  51  72
BRANCH  63  80
ATOM     80  C   UNL A   1      44.470  32.646  30.776  1.00  0.00     0.057 A 
ATOM     81  C   UNL A   1      44.474  33.050  32.116  1.00  0.00     0.134 A 
ATOM     82  C   UNL A   1      44.702  33.626  29.803  1.00  0.00     0.134 A 
ATOM     83  F   UNL A   1      44.245  32.162  33.096  1.00  0.00    -0.206 F 
ATOM     84  C   UNL A   1      44.666  34.385  32.475  1.00  0.00     0.040 A 
ATOM     85  C   UNL A   1      44.926  34.960  30.150  1.00  0.00     0.040 A 
ATOM     86  F   UNL A   1      44.722  33.305  28.501  1.00  0.00    -0.206 F 
ATOM     87  C   UNL A   1      44.898  35.344  31.489  1.00  0.00     0.006 A 
ENDBRANCH  63  80
ENDBRANCH  37  38
ENDBRANCH  29  32
ENDBRANCH  27  28
ENDBRANCH  26  27
ENDBRANCH   1  26
TORSDOF 13
ENDMDL
MODEL 2
REMARK VINA RESULT:     -12.0      1.275      1.853
REMARK SMILES Cc1nc(=O)[nH]c(C)c1CC(=O)Nc1sccc1C(=O)NCCCNC(=O)c1ccc(-c2c3nc(c(-c4c(F)cccc4F)c4ccc([nH]4)c(-c4c(F)cccc4F)c4nc(c(-c5c(F)cccc5F)c5ccc2[nH]5)C=C4)C=C3)cc1
REMARK SMILES IDX 22 1 21 2 19 3 20 4 18 6 14 7 15 8 16 9 17 10 13 11 11 12
REMARK SMILES IDX 12 13 10 15 9 16 1 17 2 18 3 19 4 20 7 21 5 22 6 23 8 24
REMARK SMILES IDX 23 26 24 27 25 28 26 29 27 31 28 32 29 33 81 34 30 35 80 36
REMARK SMILES IDX 31 37 32 38 33 39 74 40 34 41 79 42 73 43 75 44 35 45 78 46
REMARK SMILES IDX 72 47 71 48 36 50 62 51 45 52 61 53 46 54 49 55 60 56 76 57
REMARK SMILES IDX 47 58 48 59 59 61 77 62 50 63 37 64 38 65 43 66 39 67 40 68
REMARK SMILES IDX 42 69 44 70 41 71 63 72 64 73 69 74 65 75 66 76 68 77 70 78
REMARK SMILES IDX 67 79 51 80 52 81 57 82 53 83 54 84 56 85 58 86 55 87
REMARK H PARENT 21 5 13 14 6 25 25 30 75 49 49 60
REMARK Flexibility Score: inf
ROOT
ATOM      1  C   UNL A   1      36.484  22.754  24.824  1.00  0.00     0.118 C 
ENDROOT
BRANCH   1   2
ATOM      2  N   UNL A   1      35.821  23.191  23.623  1.00  0.00    -0.352 N 
ATOM      3  C   UNL A   1      34.502  23.484  23.397  1.00  0.00     0.254 C 
ATOM      4  O   UNL A   1      34.203  23.740  22.230  1.00  0.00    -0.269 OA
ATOM      5  H   UNL A   1      36.409  23.295  22.839  1.00  0.00     0.163 HD
BRANCH   3   6
ATOM      6  C   UNL A   1      33.466  23.394  24.434  1.00  0.00     0.074 A 
ATOM      7  C   UNL A   1      33.197  24.159  25.559  1.00  0.00     0.108 A 
ATOM      8  S   UNL A   1      32.136  23.369  26.650  1.00  0.00    -0.126 S 
ATOM      9  C   UNL A   1      31.713  22.199  25.493  1.00  0.00     0.068 A 
ATOM     10  C   UNL A   1      32.495  22.313  24.369  1.00  0.00     0.028 A 
BRANCH   7  11
ATOM     11  N   UNL A   1      33.623  25.339  26.114  1.00  0.00    -0.317 N 
ATOM     12  C   UNL A   1      33.183  26.618  25.984  1.00  0.00     0.229 C 
ATOM     13  O   UNL A   1      34.009  27.514  26.213  1.00  0.00    -0.274 OA
ATOM     14  H   UNL A   1      34.391  25.240  26.722  1.00  0.00     0.170 HD
BRANCH  12  15
ATOM     15  C   UNL A   1      31.714  26.999  25.811  1.00  0.00     0.139 C 
BRANCH  15  16
ATOM     16  C   UNL A   1      31.278  27.813  24.640  1.00  0.00     0.002 A 
ATOM     17  C   UNL A   1      30.463  25.647  23.421  1.00  0.00     0.067 C 
ATOM     18  C   UNL A   1      30.653  27.152  23.443  1.00  0.00     0.049 A 
ATOM     19  N   UNL A   1      30.199  27.777  22.406  1.00  0.00    -0.198 NA
ATOM     20  C   UNL A   1      30.283  29.138  22.360  1.00  0.00     0.345 A 
ATOM     21  C   UNL A   1      31.246  29.160  24.592  1.00  0.00     0.022 A 
ATOM     22  O   UNL A   1      29.893  29.805  21.406  1.00  0.00    -0.246 OA
ATOM     23  N   UNL A   1      30.776  29.780  23.464  1.00  0.00    -0.310 N 
ATOM     24  C   UNL A   1      31.686  30.104  25.678  1.00  0.00     0.065 C 
ATOM     25  H   UNL A   1      30.797  30.765  23.445  1.00  0.00     0.171 HD
ENDBRANCH  15  16
ENDBRANCH  12  15
ENDBRANCH   7  11
ENDBRANCH   3   6
ENDBRANCH   1   2
BRANCH   1  26
ATOM     26  C   UNL A   1      37.257  21.458  24.683  1.00  0.00     0.042 C 
BRANCH  26  27
ATOM     27  C   UNL A   1      38.406  21.310  25.672  1.00  0.00     0.118 C 
BRANCH  27  28
ATOM     28  N   UNL A   1      39.241  20.126  25.478  1.00  0.00    -0.352 N 
ATOM     29  C   UNL A   1      40.528  19.894  25.909  1.00  0.00     0.251 C 
ATOM     30  H   UNL A   1      38.825  19.392  24.970  1.00  0.00     0.163 HD
ATOM     31  O   UNL A   1      41.078  18.819  25.698  1.00  0.00    -0.269 OA
BRANCH  29  32
ATOM     32  C   UNL A   1      41.274  20.994  26.550  1.00  0.00     0.039 A 
ATOM     33  C   UNL A   1      41.858  21.961  25.730  1.00  0.00     0.014 A 
ATOM     34  C   UNL A   1      41.261  21.152  27.937  1.00  0.00     0.014 A 
ATOM     35  C   UNL A   1      42.320  23.147  26.295  1.00  0.00     0.010 A 
ATOM     36  C   UNL A   1      41.621  22.377  28.483  1.00  0.00     0.010 A 
ATOM     37  C   UNL A   1      42.139  23.395  27.667  1.00  0.00    -0.014 A 
BRANCH  37  38
ATOM     38  C   UNL A   1      42.449  24.728  28.241  1.00  0.00     0.031 A 
ATOM     39  C   UNL A   1      43.847  25.060  28.683  1.00  0.00     0.074 A 
ATOM     40  C   UNL A   1      41.456  25.623  28.413  1.00  0.00     0.049 A 
ATOM     41  N   UNL A   1      44.308  26.174  29.190  1.00  0.00    -0.248 NA
ATOM     42  C   UNL A   1      44.852  23.991  28.573  1.00  0.00     0.031 C 
ATOM     43  C   UNL A   1      40.041  25.391  28.106  1.00  0.00     0.029 A 
ATOM     44  N   UNL A   1      41.481  26.913  28.881  1.00  0.00    -0.354 N 
ATOM     45  C   UNL A   1      45.649  25.937  29.462  1.00  0.00     0.074 A 
ATOM     46  C   UNL A   1      45.909  24.552  29.137  1.00  0.00     0.031 C 
ATOM     47  C   UNL A   1      39.347  26.515  28.345  1.00  0.00     0.029 A 
ATOM     48  C   UNL A   1      40.256  27.537  28.851  1.00  0.00     0.049 A 
ATOM     49  H   UNL A   1      42.300  27.351  29.208  1.00  0.00     0.167 HD
ATOM     50  C   UNL A   1      46.589  26.803  29.909  1.00  0.00     0.037 A 
ATOM     51  C   UNL A   1      39.910  28.795  29.179  1.00  0.00     0.037 A 
ATOM     52  C   UNL A   1      46.331  28.185  30.210  1.00  0.00     0.049 A 
ATOM     53  C   UNL A   1      40.976  29.744  29.653  1.00  0.00     0.074 A 
ATOM     54  C   UNL A   1      47.226  29.163  30.606  1.00  0.00     0.029 A 
ATOM     55  N   UNL A   1      45.082  28.786  30.150  1.00  0.00    -0.354 N 
ATOM     56  N   UNL A   1      42.260  29.532  29.815  1.00  0.00    -0.248 NA
ATOM     57  C   UNL A   1      40.546  31.111  29.978  1.00  0.00     0.031 C 
ATOM     58  C   UNL A   1      46.511  30.345  30.829  1.00  0.00     0.029 A 
ATOM     59  C   UNL A   1      45.178  30.115  30.524  1.00  0.00     0.049 A 
ATOM     60  H   UNL A   1      44.250  28.333  29.882  1.00  0.00     0.167 HD
ATOM     61  C   UNL A   1      42.794  30.741  30.238  1.00  0.00     0.074 A 
ATOM     62  C   UNL A   1      41.700  31.688  30.282  1.00  0.00     0.031 C 
ATOM     63  C   UNL A   1      44.075  31.042  30.566  1.00  0.00     0.037 A 
BRANCH  50  64
ATOM     64  C   UNL A   1      47.984  26.274  30.083  1.00  0.00     0.057 A 
ATOM     65  C   UNL A   1      48.902  26.253  29.023  1.00  0.00     0.134 A 
ATOM     66  C   UNL A   1      48.420  25.795  31.324  1.00  0.00     0.134 A 
ATOM     67  F   UNL A   1      48.543  26.682  27.803  1.00  0.00    -0.206 F 
ATOM     68  C   UNL A   1      50.192  25.746  29.184  1.00  0.00     0.040 A 
ATOM     69  C   UNL A   1      49.718  25.313  31.504  1.00  0.00     0.040 A 
ATOM     70  F   UNL A   1      47.595  25.789  32.381  1.00  0.00    -0.206 F 
ATOM     71  C   UNL A   1      50.606  25.280  30.429  1.00  0.00     0.006 A 
ENDBRANCH  50  64
BRANCH  51  72
ATOM     72  C   UNL A   1      38.502  29.248  29.031  1.00  0.00     0.057 A 
ATOM     73  C   UNL A   1      37.622  29.239  30.122  1.00  0.00     0.134 A 
ATOM     74  C   UNL A   1      37.996  29.684  27.801  1.00  0.00     0.134 A 
ATOM     75  F   UNL A   1      38.041  28.815  31.323  1.00  0.00    -0.206 F 
ATOM     76  C   UNL A   1      36.287  29.624  29.989  1.00  0.00     0.040 A 
ATOM     77  C   UNL A   1      36.669  30.098  27.661  1.00  0.00     0.040 A 
ATOM     78  F   UNL A   1      38.788  29.726  26.720  1.00  0.00    -0.206 F 
ATOM     79  C   UNL A   1      35.808  30.059  28.756  1.00  0.00     0.006 A 
ENDBRANCH  51  72
BRANCH  63  80
ATOM     80  C   UNL A   1      44.357  32.456  30.982  1.00  0.00     0.057 A 
ATOM     81  C   UNL A   1      44.318  32.853  32.325  1.00  0.00     0.134 A 
ATOM     82  C   UNL A   1      44.686  33.428  30.029  1.00  0.00     0.134 A 
ATOM     83  F   UNL A   1      43.997  31.973  33.286  1.00  0.00    -0.206 F 
ATOM     84  C   UNL A   1      44.563  34.174  32.702  1.00  0.00     0.040 A 
ATOM     85  C   UNL A   1      44.963  34.746  30.397  1.00  0.00     0.040 A 
ATOM     86  F   UNL A   1      44.750  33.113  28.727  1.00  0.00    -0.206 F 
ATOM     87  C   UNL A   1      44.891  35.124  31.736  1.00  0.00     0.006 A 
ENDBRANCH  63  80
ENDBRANCH  37  38
ENDBRANCH  29  32
ENDBRANCH  27  28
ENDBRANCH  26  27
ENDBRANCH   1  26
TORSDOF 13
ENDMDL
MODEL 3
REMARK VINA RESULT:     -11.9      2.230      7.498
REMARK SMILES Cc1nc(=O)[nH]c(C)c1CC(=O)Nc1sccc1C(=O)NCCCNC(=O)c1ccc(-c2c3nc(c(-c4c(F)cccc4F)c4ccc([nH]4)c(-c4c(F)cccc4F)c4nc(c(-c5c(F)cccc5F)c5ccc2[nH]5)C=C4)C=C3)cc1
REMARK SMILES IDX 22 1 21 2 19 3 20 4 18 6 14 7 15 8 16 9 17 10 13 11 11 12
REMARK SMILES IDX 12 13 10 15 9 16 1 17 2 18 3 19 4 20 7 21 5 22 6 23 8 24
REMARK SMILES IDX 23 26 24 27 25 28 26 29 27 31 28 32 29 33 81 34 30 35 80 36
REMARK SMILES IDX 31 37 32 38 33 39 74 40 34 41 79 42 73 43 75 44 35 45 78 46
REMARK SMILES IDX 72 47 71 48 36 50 62 51 45 52 61 53 46 54 49 55 60 56 76 57
REMARK SMILES IDX 47 58 48 59 59 61 77 62 50 63 37 64 38 65 43 66 39 67 40 68
REMARK SMILES IDX 42 69 44 70 41 71 63 72 64 73 69 74 65 75 66 76 68 77 70 78
REMARK SMILES IDX 67 79 51 80 52 81 57 82 53 83 54 84 56 85 58 86 55 87
REMARK H PARENT 21 5 13 14 6 25 25 30 75 49 49 60
REMARK Flexibility Score: inf
ROOT
ATOM      1  C   UNL A   1      31.779  28.210  26.943  1.00  0.00     0.118 C 
ENDROOT
BRANCH   1   2
ATOM      2  N   UNL A   1      31.271  26.868  27.054  1.00  0.00    -0.352 N 
ATOM      3  C   UNL A   1      31.267  25.845  26.142  1.00  0.00     0.254 C 
ATOM      4  O   UNL A   1      30.668  24.825  26.485  1.00  0.00    -0.269 OA
ATOM      5  H   UNL A   1      30.861  26.650  27.923  1.00  0.00     0.163 HD
BRANCH   3   6
ATOM      6  C   UNL A   1      31.831  25.966  24.792  1.00  0.00     0.074 A 
ATOM      7  C   UNL A   1      33.122  25.839  24.301  1.00  0.00     0.108 A 
ATOM      8  S   UNL A   1      33.290  26.494  22.725  1.00  0.00    -0.126 S 
ATOM      9  C   UNL A   1      31.607  26.595  22.517  1.00  0.00     0.068 A 
ATOM     10  C   UNL A   1      30.948  26.300  23.686  1.00  0.00     0.028 A 
BRANCH   7  11
ATOM     11  N   UNL A   1      34.350  25.431  24.756  1.00  0.00    -0.317 N 
ATOM     12  C   UNL A   1      34.901  24.199  24.913  1.00  0.00     0.229 C 
ATOM     13  O   UNL A   1      35.807  24.099  25.753  1.00  0.00    -0.274 OA
ATOM     14  H   UNL A   1      34.944  26.171  25.018  1.00  0.00     0.170 HD
BRANCH  12  15
ATOM     15  C   UNL A   1      34.639  23.024  23.972  1.00  0.00     0.139 C 
BRANCH  15  16
ATOM     16  C   UNL A   1      34.088  21.743  24.500  1.00  0.00     0.002 A 
ATOM     17  C   UNL A   1      31.680  22.465  23.777  1.00  0.00     0.067 C 
ATOM     18  C   UNL A   1      32.616  21.452  24.409  1.00  0.00     0.049 A 
ATOM     19  N   UNL A   1      32.054  20.352  24.792  1.00  0.00    -0.198 NA
ATOM     20  C   UNL A   1      32.826  19.362  25.328  1.00  0.00     0.345 A 
ATOM     21  C   UNL A   1      34.819  20.700  24.942  1.00  0.00     0.022 A 
ATOM     22  O   UNL A   1      32.370  18.296  25.732  1.00  0.00    -0.246 OA
ATOM     23  N   UNL A   1      34.180  19.561  25.357  1.00  0.00    -0.310 N 
ATOM     24  C   UNL A   1      36.319  20.637  25.036  1.00  0.00     0.065 C 
ATOM     25  H   UNL A   1      34.739  18.829  25.706  1.00  0.00     0.171 HD
ENDBRANCH  15  16
ENDBRANCH  12  15
ENDBRANCH   7  11
ENDBRANCH   3   6
ENDBRANCH   1   2
BRANCH   1  26
ATOM     26  C   UNL A   1      33.254  28.356  27.259  1.00  0.00     0.042 C 
BRANCH  26  27
ATOM     27  C   UNL A   1      33.844  29.702  26.860  1.00  0.00     0.118 C 
BRANCH  27  28
ATOM     28  N   UNL A   1      33.865  30.707  27.921  1.00  0.00    -0.352 N 
ATOM     29  C   UNL A   1      34.891  31.043  28.777  1.00  0.00     0.251 C 
ATOM     30  H   UNL A   1      33.030  31.216  28.041  1.00  0.00     0.163 HD
ATOM     31  O   UNL A   1      34.760  31.948  29.592  1.00  0.00    -0.269 OA
BRANCH  29  32
ATOM     32  C   UNL A   1      36.124  30.232  28.762  1.00  0.00     0.039 A 
ATOM     33  C   UNL A   1      36.947  30.304  27.637  1.00  0.00     0.014 A 
ATOM     34  C   UNL A   1      36.535  29.537  29.901  1.00  0.00     0.014 A 
ATOM     35  C   UNL A   1      38.237  29.783  27.700  1.00  0.00     0.010 A 
ATOM     36  C   UNL A   1      37.856  29.118  29.998  1.00  0.00     0.010 A 
ATOM     37  C   UNL A   1      38.727  29.251  28.906  1.00  0.00    -0.014 A 
BRANCH  37  38
ATOM     38  C   UNL A   1      40.157  28.872  29.040  1.00  0.00     0.031 A 
ATOM     39  C   UNL A   1      41.142  29.828  29.652  1.00  0.00     0.074 A 
ATOM     40  C   UNL A   1      40.574  27.684  28.559  1.00  0.00     0.049 A 
ATOM     41  N   UNL A   1      42.423  29.665  29.866  1.00  0.00    -0.248 NA
ATOM     42  C   UNL A   1      40.633  31.151  30.043  1.00  0.00     0.031 C 
ATOM     43  C   UNL A   1      39.733  26.705  27.865  1.00  0.00     0.029 A 
ATOM     44  N   UNL A   1      41.812  27.090  28.588  1.00  0.00    -0.354 N 
ATOM     45  C   UNL A   1      42.868  30.862  30.410  1.00  0.00     0.074 A 
ATOM     46  C   UNL A   1      41.740  31.767  30.422  1.00  0.00     0.031 C 
ATOM     47  C   UNL A   1      40.465  25.616  27.581  1.00  0.00     0.029 A 
ATOM     48  C   UNL A   1      41.832  25.828  28.043  1.00  0.00     0.049 A 
ATOM     49  H   UNL A   1      42.610  27.527  28.964  1.00  0.00     0.167 HD
ATOM     50  C   UNL A   1      44.096  31.170  30.890  1.00  0.00     0.037 A 
ATOM     51  C   UNL A   1      42.837  24.938  27.941  1.00  0.00     0.037 A 
ATOM     52  C   UNL A   1      45.208  30.259  30.897  1.00  0.00     0.049 A 
ATOM     53  C   UNL A   1      44.186  25.296  28.500  1.00  0.00     0.074 A 
ATOM     54  C   UNL A   1      46.476  30.448  31.419  1.00  0.00     0.029 A 
ATOM     55  N   UNL A   1      45.187  28.983  30.352  1.00  0.00    -0.354 N 
ATOM     56  N   UNL A   1      44.568  26.398  29.099  1.00  0.00    -0.248 NA
ATOM     57  C   UNL A   1      45.241  24.280  28.381  1.00  0.00     0.031 C 
ATOM     58  C   UNL A   1      47.234  29.304  31.150  1.00  0.00     0.029 A 
ATOM     59  C   UNL A   1      46.424  28.382  30.505  1.00  0.00     0.049 A 
ATOM     60  H   UNL A   1      44.406  28.567  29.920  1.00  0.00     0.167 HD
ATOM     61  C   UNL A   1      45.897  26.201  29.447  1.00  0.00     0.074 A 
ATOM     62  C   UNL A   1      46.246  24.863  29.015  1.00  0.00     0.031 C 
ATOM     63  C   UNL A   1      46.755  27.051  30.064  1.00  0.00     0.037 A 
BRANCH  50  64
ATOM     64  C   UNL A   1      44.286  32.547  31.458  1.00  0.00     0.057 A 
ATOM     65  C   UNL A   1      44.723  33.618  30.666  1.00  0.00     0.134 A 
ATOM     66  C   UNL A   1      44.017  32.810  32.806  1.00  0.00     0.134 A 
ATOM     67  F   UNL A   1      45.013  33.431  29.369  1.00  0.00    -0.206 F 
ATOM     68  C   UNL A   1      44.914  34.893  31.201  1.00  0.00     0.040 A 
ATOM     69  C   UNL A   1      44.176  34.088  33.346  1.00  0.00     0.040 A 
ATOM     70  F   UNL A   1      43.594  31.832  33.621  1.00  0.00    -0.206 F 
ATOM     71  C   UNL A   1      44.634  35.132  32.544  1.00  0.00     0.006 A 
ENDBRANCH  50  64
BRANCH  51  72
ATOM     72  C   UNL A   1      42.599  23.607  27.323  1.00  0.00     0.057 A 
ATOM     73  C   UNL A   1      42.214  22.509  28.102  1.00  0.00     0.134 A 
ATOM     74  C   UNL A   1      42.765  23.395  25.950  1.00  0.00     0.134 A 
ATOM     75  F   UNL A   1      42.056  22.643  29.427  1.00  0.00    -0.206 F 
ATOM     76  C   UNL A   1      42.026  21.244  27.542  1.00  0.00     0.040 A 
ATOM     77  C   UNL A   1      42.553  22.141  25.372  1.00  0.00     0.040 A 
ATOM     78  F   UNL A   1      43.123  24.407  25.146  1.00  0.00    -0.206 F 
ATOM     79  C   UNL A   1      42.192  21.058  26.172  1.00  0.00     0.006 A 
ENDBRANCH  51  72
BRANCH  63  80
ATOM     80  C   UNL A   1      48.145  26.547  30.321  1.00  0.00     0.057 A 
ATOM     81  C   UNL A   1      48.482  25.877  31.503  1.00  0.00     0.134 A 
ATOM     82  C   UNL A   1      49.154  26.719  29.365  1.00  0.00     0.134 A 
ATOM     83  F   UNL A   1      47.564  25.690  32.465  1.00  0.00    -0.206 F 
ATOM     84  C   UNL A   1      49.781  25.428  31.742  1.00  0.00     0.040 A 
ATOM     85  C   UNL A   1      50.450  26.247  29.579  1.00  0.00     0.040 A 
ATOM     86  F   UNL A   1      48.896  27.343  28.206  1.00  0.00    -0.206 F 
ATOM     87  C   UNL A   1      50.769  25.608  30.775  1.00  0.00     0.006 A 
ENDBRANCH  63  80
ENDBRANCH  37  38
ENDBRANCH  29  32
ENDBRANCH  27  28
ENDBRANCH  26  27
ENDBRANCH   1  26
TORSDOF 13
ENDMDL
