MODEL 1
REMARK VINA RESULT:     -11.2      0.000      0.000
REMARK SMILES CC(C)[NH2+][C@]1(C(=O)NCCCNC(=O)c2ccc(-c3c4nc(c(-c5c(F)cccc5F)c5ccc([nH]5)c(-c5c(F)cccc5F)c5nc(c(-c6c(F)cccc6F)c6ccc3[nH]6)C=C5)C=C4)cc2)CC[C@H]([N@H+](C)C2CCCC2)C1
REMARK SMILES IDX 10 1 9 2 8 3 6 4 7 5 5 7 69 8 79 9 70 10 71 11 4 12 2 15
REMARK SMILES IDX 1 16 3 17 72 18 73 19 74 21 75 22 78 23 76 24 77 25 11 26
REMARK SMILES IDX 12 27 13 28 14 30 15 31 16 32 68 33 17 34 67 35 18 36 19 37
REMARK SMILES IDX 20 38 61 39 21 40 66 41 60 42 62 43 22 44 65 45 59 46 58 47
REMARK SMILES IDX 23 49 49 50 32 51 48 52 33 53 36 54 47 55 63 56 34 57 35 58
REMARK SMILES IDX 46 60 64 61 37 62 24 63 25 64 30 65 26 66 27 67 29 68 31 69
REMARK SMILES IDX 28 70 50 71 51 72 56 73 52 74 53 75 55 76 57 77 54 78 38 79
REMARK SMILES IDX 39 80 44 81 40 82 41 83 43 84 45 85 42 86
REMARK H PARENT 8 6 4 13 4 14 72 20 12 29 62 48 36 59
REMARK Flexibility Score: inf
ROOT
ATOM      1  C   UNL A   1      32.279  27.935  27.081  1.00  0.00     0.042 C 
ENDROOT
BRANCH   1   2
ATOM      2  C   UNL A   1      32.131  26.770  26.121  1.00  0.00     0.118 C 
BRANCH   2   3
ATOM      3  N   UNL A   1      31.211  25.720  26.552  1.00  0.00    -0.351 N 
ATOM      4  C   UNL A   1      31.439  24.358  26.650  1.00  0.00     0.281 C 
ATOM      5  O   UNL A   1      30.605  23.676  27.249  1.00  0.00    -0.268 OA
ATOM      6  H   UNL A   1      30.309  26.021  26.808  1.00  0.00     0.163 HD
BRANCH   4   7
ATOM      7  C   UNL A   1      32.678  23.726  25.921  1.00  0.00     0.181 C 
ATOM      8  C   UNL A   1      34.018  24.449  26.124  1.00  0.00     0.085 C 
ATOM      9  C   UNL A   1      32.987  22.497  26.806  1.00  0.00     0.144 C 
ATOM     10  C   UNL A   1      35.084  23.329  26.010  1.00  0.00     0.072 C 
ATOM     11  C   UNL A   1      34.396  22.008  26.498  1.00  0.00     0.191 C 
BRANCH   7  12
ATOM     12  N   UNL A   1      32.313  23.673  24.487  1.00  0.00    -0.331 N 
ATOM     13  H   UNL A   1      32.528  22.722  24.185  1.00  0.00     0.347 HD
ATOM     14  H   UNL A   1      31.352  24.014  24.527  1.00  0.00     0.347 HD
BRANCH  12  15
ATOM     15  C   UNL A   1      32.861  24.540  23.461  1.00  0.00     0.176 C 
ATOM     16  C   UNL A   1      33.652  23.662  22.480  1.00  0.00     0.075 C 
ATOM     17  C   UNL A   1      31.768  25.273  22.684  1.00  0.00     0.075 C 
ENDBRANCH  12  15
ENDBRANCH   7  12
BRANCH  11  18
ATOM     18  N   UNL A   1      34.625  20.713  25.806  1.00  0.00    -0.332 N 
ATOM     19  C   UNL A   1      35.853  20.724  25.007  1.00  0.00     0.333 C 
ATOM     20  H   UNL A   1      34.722  20.119  26.629  1.00  0.00     0.348 HD
BRANCH  18  21
ATOM     21  C   UNL A   1      33.526  19.972  25.158  1.00  0.00     0.184 C 
ATOM     22  C   UNL A   1      33.152  20.449  23.738  1.00  0.00     0.065 C 
ATOM     23  C   UNL A   1      33.693  18.468  24.881  1.00  0.00     0.065 C 
ATOM     24  C   UNL A   1      32.158  19.398  23.257  1.00  0.00     0.006 C 
ATOM     25  C   UNL A   1      32.665  18.087  23.823  1.00  0.00     0.006 C 
ENDBRANCH  18  21
ENDBRANCH  11  18
ENDBRANCH   4   7
ENDBRANCH   2   3
ENDBRANCH   1   2
BRANCH   1  26
ATOM     26  C   UNL A   1      33.654  28.572  27.106  1.00  0.00     0.118 C 
BRANCH  26  27
ATOM     27  N   UNL A   1      33.657  29.927  27.642  1.00  0.00    -0.352 N 
ATOM     28  C   UNL A   1      34.645  30.630  28.290  1.00  0.00     0.251 C 
ATOM     29  H   UNL A   1      32.813  30.421  27.522  1.00  0.00     0.163 HD
ATOM     30  O   UNL A   1      34.387  31.725  28.787  1.00  0.00    -0.269 OA
BRANCH  28  31
ATOM     31  C   UNL A   1      36.008  30.067  28.429  1.00  0.00     0.039 A 
ATOM     32  C   UNL A   1      36.870  30.097  27.329  1.00  0.00     0.014 A 
ATOM     33  C   UNL A   1      36.444  29.509  29.632  1.00  0.00     0.014 A 
ATOM     34  C   UNL A   1      38.187  29.649  27.465  1.00  0.00     0.010 A 
ATOM     35  C   UNL A   1      37.783  29.177  29.800  1.00  0.00     0.010 A 
ATOM     36  C   UNL A   1      38.669  29.229  28.715  1.00  0.00    -0.014 A 
BRANCH  36  37
ATOM     37  C   UNL A   1      40.088  28.831  28.905  1.00  0.00     0.031 A 
ATOM     38  C   UNL A   1      41.078  29.801  29.495  1.00  0.00     0.074 A 
ATOM     39  C   UNL A   1      40.502  27.616  28.490  1.00  0.00     0.049 A 
ATOM     40  N   UNL A   1      42.362  29.649  29.701  1.00  0.00    -0.248 NA
ATOM     41  C   UNL A   1      40.564  31.126  29.876  1.00  0.00     0.031 C 
ATOM     42  C   UNL A   1      39.659  26.609  27.843  1.00  0.00     0.029 A 
ATOM     43  N   UNL A   1      41.739  27.023  28.548  1.00  0.00    -0.354 N 
ATOM     44  C   UNL A   1      42.806  30.861  30.217  1.00  0.00     0.074 A 
ATOM     45  C   UNL A   1      41.673  31.758  30.229  1.00  0.00     0.031 C 
ATOM     46  C   UNL A   1      40.393  25.510  27.600  1.00  0.00     0.029 A 
ATOM     47  C   UNL A   1      41.765  25.750  28.033  1.00  0.00     0.049 A 
ATOM     48  H   UNL A   1      42.533  27.469  28.922  1.00  0.00     0.167 HD
ATOM     49  C   UNL A   1      44.040  31.189  30.671  1.00  0.00     0.037 A 
ATOM     50  C   UNL A   1      42.781  24.873  27.921  1.00  0.00     0.037 A 
ATOM     51  C   UNL A   1      45.160  30.287  30.681  1.00  0.00     0.049 A 
ATOM     52  C   UNL A   1      44.142  25.259  28.432  1.00  0.00     0.074 A 
ATOM     53  C   UNL A   1      46.435  30.500  31.174  1.00  0.00     0.029 A 
ATOM     54  N   UNL A   1      45.141  28.998  30.168  1.00  0.00    -0.354 N 
ATOM     55  N   UNL A   1      44.527  26.381  28.992  1.00  0.00    -0.248 NA
ATOM     56  C   UNL A   1      45.207  24.255  28.306  1.00  0.00     0.031 C 
ATOM     57  C   UNL A   1      47.202  29.361  30.913  1.00  0.00     0.029 A 
ATOM     58  C   UNL A   1      46.387  28.413  30.313  1.00  0.00     0.049 A 
ATOM     59  H   UNL A   1      44.356  28.562  29.763  1.00  0.00     0.167 HD
ATOM     60  C   UNL A   1      45.867  26.203  29.315  1.00  0.00     0.074 A 
ATOM     61  C   UNL A   1      46.223  24.863  28.900  1.00  0.00     0.031 C 
ATOM     62  C   UNL A   1      46.724  27.072  29.906  1.00  0.00     0.037 A 
BRANCH  49  63
ATOM     63  C   UNL A   1      44.237  32.582  31.200  1.00  0.00     0.057 A 
ATOM     64  C   UNL A   1      44.038  32.897  32.551  1.00  0.00     0.134 A 
ATOM     65  C   UNL A   1      44.661  33.615  30.354  1.00  0.00     0.134 A 
ATOM     66  F   UNL A   1      43.621  31.958  33.414  1.00  0.00    -0.206 F 
ATOM     67  C   UNL A   1      44.221  34.193  33.035  1.00  0.00     0.040 A 
ATOM     68  C   UNL A   1      44.879  34.908  30.833  1.00  0.00     0.040 A 
ATOM     69  F   UNL A   1      44.878  33.385  29.051  1.00  0.00    -0.206 F 
ATOM     70  C   UNL A   1      44.652  35.202  32.176  1.00  0.00     0.006 A 
ENDBRANCH  49  63
BRANCH  50  71
ATOM     71  C   UNL A   1      42.545  23.530  27.329  1.00  0.00     0.057 A 
ATOM     72  C   UNL A   1      42.664  23.316  25.952  1.00  0.00     0.134 A 
ATOM     73  C   UNL A   1      42.187  22.432  28.122  1.00  0.00     0.134 A 
ATOM     74  F   UNL A   1      42.987  24.330  25.136  1.00  0.00    -0.206 F 
ATOM     75  C   UNL A   1      42.412  22.067  25.380  1.00  0.00     0.040 A 
ATOM     76  C   UNL A   1      41.961  21.172  27.568  1.00  0.00     0.040 A 
ATOM     77  F   UNL A   1      42.066  22.568  29.451  1.00  0.00    -0.206 F 
ATOM     78  C   UNL A   1      42.065  20.989  26.191  1.00  0.00     0.006 A 
ENDBRANCH  50  71
BRANCH  62  79
ATOM     79  C   UNL A   1      48.116  26.585  30.186  1.00  0.00     0.057 A 
ATOM     80  C   UNL A   1      48.451  25.928  31.376  1.00  0.00     0.134 A 
ATOM     81  C   UNL A   1      49.128  26.742  29.228  1.00  0.00     0.134 A 
ATOM     82  F   UNL A   1      47.533  25.755  32.339  1.00  0.00    -0.206 F 
ATOM     83  C   UNL A   1      49.747  25.469  31.615  1.00  0.00     0.040 A 
ATOM     84  C   UNL A   1      50.418  26.259  29.443  1.00  0.00     0.040 A 
ATOM     85  F   UNL A   1      48.873  27.353  28.061  1.00  0.00    -0.206 F 
ATOM     86  C   UNL A   1      50.733  25.626  30.643  1.00  0.00     0.006 A 
ENDBRANCH  62  79
ENDBRANCH  36  37
ENDBRANCH  28  31
ENDBRANCH  26  27
ENDBRANCH   1  26
TORSDOF 14
ENDMDL
MODEL 2
REMARK VINA RESULT:     -11.2      2.612      7.572
REMARK SMILES CC(C)[NH2+][C@]1(C(=O)NCCCNC(=O)c2ccc(-c3c4nc(c(-c5c(F)cccc5F)c5ccc([nH]5)c(-c5c(F)cccc5F)c5nc(c(-c6c(F)cccc6F)c6ccc3[nH]6)C=C5)C=C4)cc2)CC[C@H]([N@H+](C)C2CCCC2)C1
REMARK SMILES IDX 10 1 9 2 8 3 6 4 7 5 5 7 69 8 79 9 70 10 71 11 4 12 2 15
REMARK SMILES IDX 1 16 3 17 72 18 73 19 74 21 75 22 78 23 76 24 77 25 11 26
REMARK SMILES IDX 12 27 13 28 14 30 15 31 16 32 68 33 17 34 67 35 18 36 19 37
REMARK SMILES IDX 20 38 61 39 21 40 66 41 60 42 62 43 22 44 65 45 59 46 58 47
REMARK SMILES IDX 23 49 49 50 32 51 48 52 33 53 36 54 47 55 63 56 34 57 35 58
REMARK SMILES IDX 46 60 64 61 37 62 24 63 25 64 30 65 26 66 27 67 29 68 31 69
REMARK SMILES IDX 28 70 50 71 51 72 56 73 52 74 53 75 55 76 57 77 54 78 38 79
REMARK SMILES IDX 39 80 44 81 40 82 41 83 43 84 45 85 42 86
REMARK H PARENT 8 6 4 13 4 14 72 20 12 29 62 48 36 59
REMARK Flexibility Score: inf
ROOT
ATOM      1  C   UNL A   1      37.851  19.526  24.909  1.00  0.00     0.042 C 
ENDROOT
BRANCH   1   2
ATOM      2  C   UNL A   1      36.612  20.398  25.001  1.00  0.00     0.118 C 
BRANCH   2   3
ATOM      3  N   UNL A   1      36.862  21.837  25.016  1.00  0.00    -0.351 N 
ATOM      4  C   UNL A   1      36.069  22.846  25.534  1.00  0.00     0.281 C 
ATOM      5  O   UNL A   1      36.566  23.969  25.648  1.00  0.00    -0.268 OA
ATOM      6  H   UNL A   1      37.708  22.128  24.604  1.00  0.00     0.163 HD
BRANCH   4   7
ATOM      7  C   UNL A   1      34.560  22.555  25.860  1.00  0.00     0.181 C 
ATOM      8  C   UNL A   1      34.294  21.717  27.120  1.00  0.00     0.085 C 
ATOM      9  C   UNL A   1      34.080  23.911  26.426  1.00  0.00     0.144 C 
ATOM     10  C   UNL A   1      32.910  22.201  27.621  1.00  0.00     0.072 C 
ATOM     11  C   UNL A   1      32.772  23.697  27.176  1.00  0.00     0.191 C 
BRANCH   7  12
ATOM     12  N   UNL A   1      34.013  21.894  24.654  1.00  0.00    -0.331 N 
ATOM     13  H   UNL A   1      34.818  21.701  24.058  1.00  0.00     0.347 HD
ATOM     14  H   UNL A   1      33.475  21.140  25.083  1.00  0.00     0.347 HD
BRANCH  12  15
ATOM     15  C   UNL A   1      33.010  22.470  23.778  1.00  0.00     0.176 C 
ATOM     16  C   UNL A   1      33.741  23.296  22.709  1.00  0.00     0.075 C 
ATOM     17  C   UNL A   1      32.175  21.399  23.078  1.00  0.00     0.075 C 
ENDBRANCH  12  15
ENDBRANCH   7  12
BRANCH  11  18
ATOM     18  N   UNL A   1      31.490  24.236  26.653  1.00  0.00    -0.332 N 
ATOM     19  C   UNL A   1      30.480  23.189  26.480  1.00  0.00     0.333 C 
ATOM     20  H   UNL A   1      31.257  24.852  27.431  1.00  0.00     0.348 HD
BRANCH  18  21
ATOM     21  C   UNL A   1      31.451  25.251  25.582  1.00  0.00     0.184 C 
ATOM     22  C   UNL A   1      30.444  24.975  24.445  1.00  0.00     0.065 C 
ATOM     23  C   UNL A   1      31.049  26.695  25.929  1.00  0.00     0.065 C 
ATOM     24  C   UNL A   1      30.480  26.256  23.617  1.00  0.00     0.006 C 
ATOM     25  C   UNL A   1      30.641  27.374  24.627  1.00  0.00     0.006 C 
ENDBRANCH  18  21
ENDBRANCH  11  18
ENDBRANCH   4   7
ENDBRANCH   2   3
ENDBRANCH   1   2
BRANCH   1  26
ATOM     26  C   UNL A   1      39.022  19.988  25.751  1.00  0.00     0.118 C 
BRANCH  26  27
ATOM     27  N   UNL A   1      40.109  19.019  25.817  1.00  0.00    -0.352 N 
ATOM     28  C   UNL A   1      41.453  19.199  26.042  1.00  0.00     0.251 C 
ATOM     29  H   UNL A   1      39.836  18.083  25.676  1.00  0.00     0.163 HD
ATOM     30  O   UNL A   1      42.222  18.247  25.917  1.00  0.00    -0.269 OA
BRANCH  28  31
ATOM     31  C   UNL A   1      41.990  20.531  26.398  1.00  0.00     0.039 A 
ATOM     32  C   UNL A   1      42.277  21.442  25.377  1.00  0.00     0.014 A 
ATOM     33  C   UNL A   1      42.214  20.892  27.728  1.00  0.00     0.014 A 
ATOM     34  C   UNL A   1      42.704  22.734  25.697  1.00  0.00     0.010 A 
ATOM     35  C   UNL A   1      42.521  22.210  28.048  1.00  0.00     0.010 A 
ATOM     36  C   UNL A   1      42.784  23.144  27.038  1.00  0.00    -0.014 A 
BRANCH  36  37
ATOM     37  C   UNL A   1      43.151  24.538  27.401  1.00  0.00     0.031 A 
ATOM     38  C   UNL A   1      44.589  24.982  27.356  1.00  0.00     0.074 A 
ATOM     39  C   UNL A   1      42.197  25.389  27.829  1.00  0.00     0.049 A 
ATOM     40  N   UNL A   1      45.107  26.142  27.674  1.00  0.00    -0.248 NA
ATOM     41  C   UNL A   1      45.581  23.982  26.930  1.00  0.00     0.031 C 
ATOM     42  C   UNL A   1      40.777  25.065  27.980  1.00  0.00     0.029 A 
ATOM     43  N   UNL A   1      42.279  26.703  28.219  1.00  0.00    -0.354 N 
ATOM     44  C   UNL A   1      46.479  26.002  27.499  1.00  0.00     0.074 A 
ATOM     45  C   UNL A   1      46.721  24.630  27.117  1.00  0.00     0.031 C 
ATOM     46  C   UNL A   1      40.116  26.160  28.393  1.00  0.00     0.029 A 
ATOM     47  C   UNL A   1      41.069  27.249  28.576  1.00  0.00     0.049 A 
ATOM     48  H   UNL A   1      43.124  27.207  28.243  1.00  0.00     0.167 HD
ATOM     49  C   UNL A   1      47.449  26.941  27.616  1.00  0.00     0.037 A 
ATOM     50  C   UNL A   1      40.762  28.488  29.004  1.00  0.00     0.037 A 
ATOM     51  C   UNL A   1      47.204  28.313  27.973  1.00  0.00     0.049 A 
ATOM     52  C   UNL A   1      41.855  29.513  29.126  1.00  0.00     0.074 A 
ATOM     53  C   UNL A   1      48.107  29.356  28.060  1.00  0.00     0.029 A 
ATOM     54  N   UNL A   1      45.961  28.831  28.308  1.00  0.00    -0.354 N 
ATOM     55  N   UNL A   1      43.137  29.389  28.880  1.00  0.00    -0.248 NA
ATOM     56  C   UNL A   1      41.459  30.856  29.574  1.00  0.00     0.031 C 
ATOM     57  C   UNL A   1      47.423  30.493  28.498  1.00  0.00     0.029 A 
ATOM     58  C   UNL A   1      46.079  30.174  28.623  1.00  0.00     0.049 A 
ATOM     59  H   UNL A   1      45.119  28.320  28.319  1.00  0.00     0.167 HD
ATOM     60  C   UNL A   1      43.693  30.642  29.109  1.00  0.00     0.074 A 
ATOM     61  C   UNL A   1      42.607  31.514  29.502  1.00  0.00     0.031 C 
ATOM     62  C   UNL A   1      44.986  31.034  29.002  1.00  0.00     0.037 A 
BRANCH  49  63
ATOM     63  C   UNL A   1      48.865  26.513  27.348  1.00  0.00     0.057 A 
ATOM     64  C   UNL A   1      49.712  26.069  28.373  1.00  0.00     0.134 A 
ATOM     65  C   UNL A   1      49.378  26.515  26.044  1.00  0.00     0.134 A 
ATOM     66  F   UNL A   1      49.289  26.053  29.646  1.00  0.00    -0.206 F 
ATOM     67  C   UNL A   1      51.027  25.675  28.116  1.00  0.00     0.040 A 
ATOM     68  C   UNL A   1      50.680  26.093  25.771  1.00  0.00     0.040 A 
ATOM     69  F   UNL A   1      48.621  26.921  25.013  1.00  0.00    -0.206 F 
ATOM     70  C   UNL A   1      51.511  25.678  26.810  1.00  0.00     0.006 A 
ENDBRANCH  49  63
BRANCH  50  71
ATOM     71  C   UNL A   1      39.352  28.841  29.318  1.00  0.00     0.057 A 
ATOM     72  C   UNL A   1      38.519  29.418  28.353  1.00  0.00     0.134 A 
ATOM     73  C   UNL A   1      38.807  28.618  30.588  1.00  0.00     0.134 A 
ATOM     74  F   UNL A   1      38.986  29.672  27.122  1.00  0.00    -0.206 F 
ATOM     75  C   UNL A   1      37.204  29.784  28.646  1.00  0.00     0.040 A 
ATOM     76  C   UNL A   1      37.486  28.953  30.887  1.00  0.00     0.040 A 
ATOM     77  F   UNL A   1      39.550  28.059  31.555  1.00  0.00    -0.206 F 
ATOM     78  C   UNL A   1      36.682  29.546  29.915  1.00  0.00     0.006 A 
ENDBRANCH  50  71
BRANCH  62  79
ATOM     79  C   UNL A   1      45.292  32.481  29.262  1.00  0.00     0.057 A 
ATOM     80  C   UNL A   1      45.702  32.941  30.520  1.00  0.00     0.134 A 
ATOM     81  C   UNL A   1      45.211  33.420  28.224  1.00  0.00     0.134 A 
ATOM     82  F   UNL A   1      45.789  32.097  31.558  1.00  0.00    -0.206 F 
ATOM     83  C   UNL A   1      45.996  34.288  30.742  1.00  0.00     0.040 A 
ATOM     84  C   UNL A   1      45.534  34.761  28.428  1.00  0.00     0.040 A 
ATOM     85  F   UNL A   1      44.836  33.044  26.993  1.00  0.00    -0.206 F 
ATOM     86  C   UNL A   1      45.920  35.200  29.692  1.00  0.00     0.006 A 
ENDBRANCH  62  79
ENDBRANCH  36  37
ENDBRANCH  28  31
ENDBRANCH  26  27
ENDBRANCH   1  26
TORSDOF 14
ENDMDL
MODEL 3
REMARK VINA RESULT:     -11.1      3.765      4.996
REMARK SMILES CC(C)[NH2+][C@]1(C(=O)NCCCNC(=O)c2ccc(-c3c4nc(c(-c5c(F)cccc5F)c5ccc([nH]5)c(-c5c(F)cccc5F)c5nc(c(-c6c(F)cccc6F)c6ccc3[nH]6)C=C5)C=C4)cc2)CC[C@H]([N@H+](C)C2CCCC2)C1
REMARK SMILES IDX 10 1 9 2 8 3 6 4 7 5 5 7 69 8 79 9 70 10 71 11 4 12 2 15
REMARK SMILES IDX 1 16 3 17 72 18 73 19 74 21 75 22 78 23 76 24 77 25 11 26
REMARK SMILES IDX 12 27 13 28 14 30 15 31 16 32 68 33 17 34 67 35 18 36 19 37
REMARK SMILES IDX 20 38 61 39 21 40 66 41 60 42 62 43 22 44 65 45 59 46 58 47
REMARK SMILES IDX 23 49 49 50 32 51 48 52 33 53 36 54 47 55 63 56 34 57 35 58
REMARK SMILES IDX 46 60 64 61 37 62 24 63 25 64 30 65 26 66 27 67 29 68 31 69
REMARK SMILES IDX 28 70 50 71 51 72 56 73 52 74 53 75 55 76 57 77 54 78 38 79
REMARK SMILES IDX 39 80 44 81 40 82 41 83 43 84 45 85 42 86
REMARK H PARENT 8 6 4 13 4 14 72 20 12 29 62 48 36 59
REMARK Flexibility Score: inf
ROOT
ATOM      1  C   UNL A   1      31.028  31.205  25.709  1.00  0.00     0.042 C 
ENDROOT
BRANCH   1   2
ATOM      2  C   UNL A   1      31.492  30.065  24.822  1.00  0.00     0.118 C 
BRANCH   2   3
ATOM      3  N   UNL A   1      30.489  29.550  23.893  1.00  0.00    -0.351 N 
ATOM      4  C   UNL A   1      30.009  28.258  23.769  1.00  0.00     0.281 C 
ATOM      5  O   UNL A   1      29.003  28.080  23.079  1.00  0.00    -0.268 OA
ATOM      6  H   UNL A   1      30.102  30.210  23.273  1.00  0.00     0.163 HD
BRANCH   4   7
ATOM      7  C   UNL A   1      30.806  27.070  24.419  1.00  0.00     0.181 C 
ATOM      8  C   UNL A   1      31.486  27.372  25.763  1.00  0.00     0.085 C 
ATOM      9  C   UNL A   1      29.672  26.179  24.974  1.00  0.00     0.144 C 
ATOM     10  C   UNL A   1      31.504  26.011  26.503  1.00  0.00     0.072 C 
ATOM     11  C   UNL A   1      30.258  25.209  25.991  1.00  0.00     0.191 C 
BRANCH   7  12
ATOM     12  N   UNL A   1      31.797  26.652  23.402  1.00  0.00    -0.331 N 
ATOM     13  H   UNL A   1      31.717  25.636  23.342  1.00  0.00     0.347 HD
ATOM     14  H   UNL A   1      31.530  27.254  22.623  1.00  0.00     0.347 HD
BRANCH  12  15
ATOM     15  C   UNL A   1      33.221  26.925  23.472  1.00  0.00     0.176 C 
ATOM     16  C   UNL A   1      33.962  25.592  23.293  1.00  0.00     0.075 C 
ATOM     17  C   UNL A   1      33.676  27.886  22.375  1.00  0.00     0.075 C 
ENDBRANCH  12  15
ENDBRANCH   7  12
BRANCH  11  18
ATOM     18  N   UNL A   1      30.337  23.753  25.706  1.00  0.00    -0.332 N 
ATOM     19  C   UNL A   1      29.992  22.942  26.876  1.00  0.00     0.333 C 
ATOM     20  H   UNL A   1      29.613  23.700  24.990  1.00  0.00     0.348 HD
BRANCH  18  21
ATOM     21  C   UNL A   1      31.438  23.174  24.912  1.00  0.00     0.184 C 
ATOM     22  C   UNL A   1      31.779  21.702  25.230  1.00  0.00     0.065 C 
ATOM     23  C   UNL A   1      31.291  23.072  23.384  1.00  0.00     0.065 C 
ATOM     24  C   UNL A   1      32.784  21.325  24.145  1.00  0.00     0.006 C 
ATOM     25  C   UNL A   1      32.309  22.046  22.900  1.00  0.00     0.006 C 
ENDBRANCH  18  21
ENDBRANCH  11  18
ENDBRANCH   4   7
ENDBRANCH   2   3
ENDBRANCH   1   2
BRANCH   1  26
ATOM     26  C   UNL A   1      31.942  31.520  26.876  1.00  0.00     0.118 C 
BRANCH  26  27
ATOM     27  N   UNL A   1      32.091  32.948  27.128  1.00  0.00    -0.352 N 
ATOM     28  C   UNL A   1      33.073  33.638  27.800  1.00  0.00     0.251 C 
ATOM     29  H   UNL A   1      31.372  33.510  26.758  1.00  0.00     0.163 HD
ATOM     30  O   UNL A   1      32.929  34.841  28.016  1.00  0.00    -0.269 OA
BRANCH  28  31
ATOM     31  C   UNL A   1      34.281  32.944  28.299  1.00  0.00     0.039 A 
ATOM     32  C   UNL A   1      35.479  33.657  28.402  1.00  0.00     0.014 A 
ATOM     33  C   UNL A   1      34.246  31.597  28.665  1.00  0.00     0.014 A 
ATOM     34  C   UNL A   1      36.609  33.042  28.950  1.00  0.00     0.010 A 
ATOM     35  C   UNL A   1      35.331  31.026  29.319  1.00  0.00     0.010 A 
ATOM     36  C   UNL A   1      36.531  31.735  29.458  1.00  0.00    -0.014 A 
BRANCH  36  37
ATOM     37  C   UNL A   1      37.694  31.093  30.124  1.00  0.00     0.031 A 
ATOM     38  C   UNL A   1      38.011  31.401  31.564  1.00  0.00     0.074 A 
ATOM     39  C   UNL A   1      38.501  30.277  29.417  1.00  0.00     0.049 A 
ATOM     40  N   UNL A   1      39.002  30.970  32.303  1.00  0.00    -0.248 NA
ATOM     41  C   UNL A   1      37.115  32.342  32.256  1.00  0.00     0.031 C 
ATOM     42  C   UNL A   1      38.343  29.947  27.999  1.00  0.00     0.029 A 
ATOM     43  N   UNL A   1      39.621  29.577  29.795  1.00  0.00    -0.354 N 
ATOM     44  C   UNL A   1      38.855  31.598  33.534  1.00  0.00     0.074 A 
ATOM     45  C   UNL A   1      37.723  32.490  33.423  1.00  0.00     0.031 C 
ATOM     46  C   UNL A   1      39.304  29.082  27.637  1.00  0.00     0.029 A 
ATOM     47  C   UNL A   1      40.170  28.827  28.783  1.00  0.00     0.049 A 
ATOM     48  H   UNL A   1      39.996  29.610  30.705  1.00  0.00     0.167 HD
ATOM     49  C   UNL A   1      39.578  31.425  34.667  1.00  0.00     0.037 A 
ATOM     50  C   UNL A   1      41.252  28.025  28.778  1.00  0.00     0.037 A 
ATOM     51  C   UNL A   1      40.688  30.518  34.783  1.00  0.00     0.049 A 
ATOM     52  C   UNL A   1      42.039  27.848  30.048  1.00  0.00     0.074 A 
ATOM     53  C   UNL A   1      41.448  30.223  35.901  1.00  0.00     0.029 A 
ATOM     54  N   UNL A   1      41.202  29.761  33.740  1.00  0.00    -0.354 N 
ATOM     55  N   UNL A   1      41.839  28.387  31.227  1.00  0.00    -0.248 NA
ATOM     56  C   UNL A   1      43.195  26.943  29.991  1.00  0.00     0.031 C 
ATOM     57  C   UNL A   1      42.454  29.330  35.523  1.00  0.00     0.029 A 
ATOM     58  C   UNL A   1      42.282  29.017  34.183  1.00  0.00     0.049 A 
ATOM     59  H   UNL A   1      40.850  29.753  32.820  1.00  0.00     0.167 HD
ATOM     60  C   UNL A   1      42.821  27.860  32.057  1.00  0.00     0.074 A 
ATOM     61  C   UNL A   1      43.606  26.951  31.250  1.00  0.00     0.031 C 
ATOM     62  C   UNL A   1      43.048  28.106  33.371  1.00  0.00     0.037 A 
BRANCH  49  63
ATOM     63  C   UNL A   1      39.182  32.230  35.873  1.00  0.00     0.057 A 
ATOM     64  C   UNL A   1      38.316  31.723  36.852  1.00  0.00     0.134 A 
ATOM     65  C   UNL A   1      39.696  33.518  36.074  1.00  0.00     0.134 A 
ATOM     66  F   UNL A   1      37.778  30.501  36.716  1.00  0.00    -0.206 F 
ATOM     67  C   UNL A   1      37.951  32.477  37.968  1.00  0.00     0.040 A 
ATOM     68  C   UNL A   1      39.364  34.269  37.202  1.00  0.00     0.040 A 
ATOM     69  F   UNL A   1      40.535  34.064  35.181  1.00  0.00    -0.206 F 
ATOM     70  C   UNL A   1      38.483  33.751  38.150  1.00  0.00     0.006 A 
ENDBRANCH  49  63
BRANCH  50  71
ATOM     71  C   UNL A   1      41.638  27.301  27.539  1.00  0.00     0.057 A 
ATOM     72  C   UNL A   1      42.428  27.914  26.560  1.00  0.00     0.134 A 
ATOM     73  C   UNL A   1      41.221  25.987  27.298  1.00  0.00     0.134 A 
ATOM     74  F   UNL A   1      42.846  29.178  26.723  1.00  0.00    -0.206 F 
ATOM     75  C   UNL A   1      42.770  27.257  25.376  1.00  0.00     0.040 A 
ATOM     76  C   UNL A   1      41.579  25.307  26.133  1.00  0.00     0.040 A 
ATOM     77  F   UNL A   1      40.470  25.338  28.200  1.00  0.00    -0.206 F 
ATOM     78  C   UNL A   1      42.349  25.946  25.163  1.00  0.00     0.006 A 
ENDBRANCH  50  71
BRANCH  62  79
ATOM     79  C   UNL A   1      44.160  27.344  34.033  1.00  0.00     0.057 A 
ATOM     80  C   UNL A   1      43.953  26.099  34.638  1.00  0.00     0.134 A 
ATOM     81  C   UNL A   1      45.467  27.850  34.027  1.00  0.00     0.134 A 
ATOM     82  F   UNL A   1      42.724  25.563  34.688  1.00  0.00    -0.206 F 
ATOM     83  C   UNL A   1      45.000  25.396  35.237  1.00  0.00     0.040 A 
ATOM     84  C   UNL A   1      46.526  27.143  34.594  1.00  0.00     0.040 A 
ATOM     85  F   UNL A   1      45.738  29.033  33.454  1.00  0.00    -0.206 F 
ATOM     86  C   UNL A   1      46.293  25.915  35.208  1.00  0.00     0.006 A 
ENDBRANCH  62  79
ENDBRANCH  36  37
ENDBRANCH  28  31
ENDBRANCH  26  27
ENDBRANCH   1  26
TORSDOF 14
ENDMDL
