MODEL 1
REMARK VINA RESULT:      -9.7      0.000      0.000
REMARK SMILES O=C(COc1ccc(S(=O)(=O)NC[C@@H]2CCCO2)cc1)NCCCNC(=O)c1ccc(-c2c3nc(c(-c4c(F)cccc4F)c4ccc([nH]4)c(-c4c(F)cccc4F)c4nc(c(-c5c(F)cccc5F)c5ccc2[nH]5)C=C4)C=C3)cc1
REMARK SMILES IDX 1 1 2 2 21 3 3 5 4 6 5 7 6 8 20 9 7 10 19 11 8 12 9 13 10 14
REMARK SMILES IDX 11 15 12 16 13 18 14 19 15 20 18 21 16 22 17 23 22 24 23 25
REMARK SMILES IDX 24 26 25 27 26 28 27 30 28 31 29 32 81 33 30 34 80 35 31 36
REMARK SMILES IDX 32 37 33 38 74 39 34 40 79 41 73 42 75 43 35 44 78 45 72 46
REMARK SMILES IDX 71 47 36 49 62 50 45 51 61 52 46 53 49 54 60 55 76 56 47 57
REMARK SMILES IDX 48 58 59 60 77 61 50 62 37 63 38 64 43 65 39 66 40 67 42 68
REMARK SMILES IDX 44 69 41 70 63 71 64 72 69 73 65 74 66 75 68 76 70 77 67 78
REMARK SMILES IDX 51 79 52 80 57 81 53 82 54 83 56 84 58 85 55 86
REMARK H PARENT 21 4 12 17 25 29 75 48 49 59
REMARK Flexibility Score: inf
ROOT
ATOM      1  O   UNL A   1      44.533  22.259  23.447  1.00  0.00    -0.271 OA
ATOM      2  C   UNL A   1      45.450  22.064  24.239  1.00  0.00     0.257 C 
ATOM      3  N   UNL A   1      46.061  20.838  24.406  1.00  0.00    -0.353 N 
ATOM      4  H   UNL A   1      46.905  20.790  24.911  1.00  0.00     0.163 HD
ENDROOT
BRANCH   2   5
ATOM      5  C   UNL A   1      45.991  23.163  25.159  1.00  0.00     0.329 C 
BRANCH   5   6
ATOM      6  O   UNL A   1      46.171  24.439  24.548  1.00  0.00    -0.484 OA
BRANCH   6   7
ATOM      7  C   UNL A   1      45.753  25.518  25.282  1.00  0.00     0.120 A 
ATOM      8  C   UNL A   1      44.393  25.817  25.191  1.00  0.00     0.048 A 
ATOM      9  C   UNL A   1      46.600  26.364  26.006  1.00  0.00     0.048 A 
ATOM     10  C   UNL A   1      43.881  26.955  25.814  1.00  0.00     0.025 A 
ATOM     11  C   UNL A   1      46.096  27.509  26.627  1.00  0.00     0.025 A 
ATOM     12  C   UNL A   1      44.739  27.805  26.519  1.00  0.00     0.082 A 
BRANCH  12  13
ATOM     13  S   UNL A   1      44.064  29.309  27.170  1.00  0.00     0.240 S 
ATOM     14  O   UNL A   1      42.624  29.198  27.079  1.00  0.00    -0.207 OA
ATOM     15  O   UNL A   1      44.734  29.550  28.426  1.00  0.00    -0.207 OA
BRANCH  13  16
ATOM     16  N   UNL A   1      44.583  30.518  26.123  1.00  0.00    -0.209 NA
ATOM     17  H   UNL A   1      43.743  30.990  25.788  1.00  0.00     0.141 HD
BRANCH  16  18
ATOM     18  C   UNL A   1      45.507  31.577  26.573  1.00  0.00     0.130 C 
BRANCH  18  19
ATOM     19  C   UNL A   1      45.087  32.969  26.106  1.00  0.00     0.133 C 
ATOM     20  C   UNL A   1      44.024  33.616  26.974  1.00  0.00     0.036 C 
ATOM     21  O   UNL A   1      44.463  32.924  24.809  1.00  0.00    -0.377 OA
ATOM     22  C   UNL A   1      43.543  34.726  26.065  1.00  0.00     0.031 C 
ATOM     23  C   UNL A   1      43.726  34.150  24.669  1.00  0.00     0.160 C 
ENDBRANCH  18  19
ENDBRANCH  16  18
ENDBRANCH  13  16
ENDBRANCH  12  13
ENDBRANCH   6   7
ENDBRANCH   5   6
ENDBRANCH   2   5
BRANCH   3  24
ATOM     24  C   UNL A   1      45.500  19.620  23.866  1.00  0.00     0.117 C 
BRANCH  24  25
ATOM     25  C   UNL A   1      45.139  18.589  24.923  1.00  0.00     0.042 C 
BRANCH  25  26
ATOM     26  C   UNL A   1      44.180  19.096  25.993  1.00  0.00     0.118 C 
BRANCH  26  27
ATOM     27  N   UNL A   1      42.778  18.856  25.673  1.00  0.00    -0.352 N 
ATOM     28  C   UNL A   1      41.665  19.620  25.920  1.00  0.00     0.251 C 
ATOM     29  H   UNL A   1      42.601  18.009  25.203  1.00  0.00     0.163 HD
ATOM     30  O   UNL A   1      40.553  19.167  25.664  1.00  0.00    -0.269 OA
BRANCH  28  31
ATOM     31  C   UNL A   1      41.787  20.968  26.520  1.00  0.00     0.039 A 
ATOM     32  C   UNL A   1      41.554  21.113  27.891  1.00  0.00     0.014 A 
ATOM     33  C   UNL A   1      42.107  22.086  25.746  1.00  0.00     0.014 A 
ATOM     34  C   UNL A   1      41.718  22.361  28.498  1.00  0.00     0.010 A 
ATOM     35  C   UNL A   1      42.339  23.315  26.362  1.00  0.00     0.010 A 
ATOM     36  C   UNL A   1      42.151  23.463  27.744  1.00  0.00    -0.014 A 
BRANCH  36  37
ATOM     37  C   UNL A   1      42.426  24.774  28.385  1.00  0.00     0.031 A 
ATOM     38  C   UNL A   1      43.772  25.056  28.992  1.00  0.00     0.074 A 
ATOM     39  C   UNL A   1      41.438  25.685  28.488  1.00  0.00     0.049 A 
ATOM     40  N   UNL A   1      44.170  26.103  29.669  1.00  0.00    -0.248 NA
ATOM     41  C   UNL A   1      44.798  24.013  28.837  1.00  0.00     0.031 C 
ATOM     42  C   UNL A   1      40.073  25.515  27.985  1.00  0.00     0.029 A 
ATOM     43  N   UNL A   1      41.428  26.930  29.064  1.00  0.00    -0.354 N 
ATOM     44  C   UNL A   1      45.482  25.836  30.040  1.00  0.00     0.074 A 
ATOM     45  C   UNL A   1      45.800  24.514  29.546  1.00  0.00     0.031 C 
ATOM     46  C   UNL A   1      39.364  26.622  28.259  1.00  0.00     0.029 A 
ATOM     47  C   UNL A   1      40.212  27.564  28.984  1.00  0.00     0.049 A 
ATOM     48  H   UNL A   1      42.217  27.331  29.494  1.00  0.00     0.167 HD
ATOM     49  C   UNL A   1      46.347  26.629  30.716  1.00  0.00     0.037 A 
ATOM     50  C   UNL A   1      39.822  28.765  29.448  1.00  0.00     0.037 A 
ATOM     51  C   UNL A   1      46.045  27.958  31.176  1.00  0.00     0.049 A 
ATOM     52  C   UNL A   1      40.807  29.632  30.178  1.00  0.00     0.074 A 
ATOM     53  C   UNL A   1      46.880  28.861  31.813  1.00  0.00     0.029 A 
ATOM     54  N   UNL A   1      44.811  28.575  31.049  1.00  0.00    -0.354 N 
ATOM     55  N   UNL A   1      42.060  29.389  30.472  1.00  0.00    -0.248 NA
ATOM     56  C   UNL A   1      40.322  30.942  30.640  1.00  0.00     0.031 C 
ATOM     57  C   UNL A   1      46.142  30.015  32.095  1.00  0.00     0.029 A 
ATOM     58  C   UNL A   1      44.858  29.842  31.605  1.00  0.00     0.049 A 
ATOM     59  H   UNL A   1      44.019  28.172  30.625  1.00  0.00     0.167 HD
ATOM     60  C   UNL A   1      42.522  30.522  31.130  1.00  0.00     0.074 A 
ATOM     61  C   UNL A   1      41.417  31.457  31.183  1.00  0.00     0.031 C 
ATOM     62  C   UNL A   1      43.752  30.764  31.643  1.00  0.00     0.037 A 
BRANCH  49  63
ATOM     63  C   UNL A   1      47.715  26.076  30.989  1.00  0.00     0.057 A 
ATOM     64  C   UNL A   1      48.047  25.514  32.227  1.00  0.00     0.134 A 
ATOM     65  C   UNL A   1      48.699  26.078  29.993  1.00  0.00     0.134 A 
ATOM     66  F   UNL A   1      47.153  25.493  33.228  1.00  0.00    -0.206 F 
ATOM     67  C   UNL A   1      49.318  24.992  32.474  1.00  0.00     0.040 A 
ATOM     68  C   UNL A   1      49.966  25.539  30.219  1.00  0.00     0.040 A 
ATOM     69  F   UNL A   1      48.443  26.598  28.783  1.00  0.00    -0.206 F 
ATOM     70  C   UNL A   1      50.281  25.000  31.466  1.00  0.00     0.006 A 
ENDBRANCH  49  63
BRANCH  50  71
ATOM     71  C   UNL A   1      38.434  29.233  29.212  1.00  0.00     0.057 A 
ATOM     72  C   UNL A   1      38.038  29.699  27.953  1.00  0.00     0.134 A 
ATOM     73  C   UNL A   1      37.477  29.230  30.233  1.00  0.00     0.134 A 
ATOM     74  F   UNL A   1      38.918  29.742  26.943  1.00  0.00    -0.206 F 
ATOM     75  C   UNL A   1      36.742  30.159  27.721  1.00  0.00     0.040 A 
ATOM     76  C   UNL A   1      36.171  29.669  30.009  1.00  0.00     0.040 A 
ATOM     77  F   UNL A   1      37.796  28.792  31.459  1.00  0.00    -0.206 F 
ATOM     78  C   UNL A   1      35.802  30.140  28.750  1.00  0.00     0.006 A 
ENDBRANCH  50  71
BRANCH  62  79
ATOM     79  C   UNL A   1      43.975  32.102  32.279  1.00  0.00     0.057 A 
ATOM     80  C   UNL A   1      43.731  32.321  33.641  1.00  0.00     0.134 A 
ATOM     81  C   UNL A   1      44.473  33.174  31.527  1.00  0.00     0.134 A 
ATOM     82  F   UNL A   1      43.241  31.337  34.409  1.00  0.00    -0.206 F 
ATOM     83  C   UNL A   1      43.957  33.566  34.229  1.00  0.00     0.040 A 
ATOM     84  C   UNL A   1      44.721  34.418  32.109  1.00  0.00     0.040 A 
ATOM     85  F   UNL A   1      44.732  33.027  30.220  1.00  0.00    -0.206 F 
ATOM     86  C   UNL A   1      44.459  34.617  33.463  1.00  0.00     0.006 A 
ENDBRANCH  62  79
ENDBRANCH  36  37
ENDBRANCH  28  31
ENDBRANCH  26  27
ENDBRANCH  25  26
ENDBRANCH  24  25
ENDBRANCH   3  24
TORSDOF 16
ENDMDL
MODEL 2
REMARK VINA RESULT:      -9.1      1.430      2.179
REMARK SMILES O=C(COc1ccc(S(=O)(=O)NC[C@@H]2CCCO2)cc1)NCCCNC(=O)c1ccc(-c2c3nc(c(-c4c(F)cccc4F)c4ccc([nH]4)c(-c4c(F)cccc4F)c4nc(c(-c5c(F)cccc5F)c5ccc2[nH]5)C=C4)C=C3)cc1
REMARK SMILES IDX 1 1 2 2 21 3 3 5 4 6 5 7 6 8 20 9 7 10 19 11 8 12 9 13 10 14
REMARK SMILES IDX 11 15 12 16 13 18 14 19 15 20 18 21 16 22 17 23 22 24 23 25
REMARK SMILES IDX 24 26 25 27 26 28 27 30 28 31 29 32 81 33 30 34 80 35 31 36
REMARK SMILES IDX 32 37 33 38 74 39 34 40 79 41 73 42 75 43 35 44 78 45 72 46
REMARK SMILES IDX 71 47 36 49 62 50 45 51 61 52 46 53 49 54 60 55 76 56 47 57
REMARK SMILES IDX 48 58 59 60 77 61 50 62 37 63 38 64 43 65 39 66 40 67 42 68
REMARK SMILES IDX 44 69 41 70 63 71 64 72 69 73 65 74 66 75 68 76 70 77 67 78
REMARK SMILES IDX 51 79 52 80 57 81 53 82 54 83 56 84 58 85 55 86
REMARK H PARENT 21 4 12 17 25 29 75 48 49 59
REMARK Flexibility Score: inf
ROOT
ATOM      1  O   UNL A   1      44.192  22.202  22.818  1.00  0.00    -0.271 OA
ATOM      2  C   UNL A   1      44.998  22.180  23.744  1.00  0.00     0.257 C 
ATOM      3  N   UNL A   1      45.527  21.015  24.262  1.00  0.00    -0.353 N 
ATOM      4  H   UNL A   1      46.301  21.070  24.867  1.00  0.00     0.163 HD
ENDROOT
BRANCH   2   5
ATOM      5  C   UNL A   1      45.474  23.452  24.451  1.00  0.00     0.329 C 
BRANCH   5   6
ATOM      6  O   UNL A   1      44.522  24.511  24.514  1.00  0.00    -0.484 OA
BRANCH   6   7
ATOM      7  C   UNL A   1      44.940  25.657  25.138  1.00  0.00     0.120 A 
ATOM      8  C   UNL A   1      43.952  26.615  25.363  1.00  0.00     0.048 A 
ATOM      9  C   UNL A   1      46.271  25.948  25.455  1.00  0.00     0.048 A 
ATOM     10  C   UNL A   1      44.287  27.859  25.898  1.00  0.00     0.025 A 
ATOM     11  C   UNL A   1      46.617  27.195  25.984  1.00  0.00     0.025 A 
ATOM     12  C   UNL A   1      45.624  28.149  26.194  1.00  0.00     0.082 A 
BRANCH  12  13
ATOM     13  S   UNL A   1      46.015  29.790  26.735  1.00  0.00     0.240 S 
ATOM     14  O   UNL A   1      46.243  30.583  25.546  1.00  0.00    -0.207 OA
ATOM     15  O   UNL A   1      45.015  30.149  27.712  1.00  0.00    -0.207 OA
BRANCH  13  16
ATOM     16  N   UNL A   1      47.462  29.645  27.579  1.00  0.00    -0.209 NA
ATOM     17  H   UNL A   1      47.729  28.662  27.527  1.00  0.00     0.141 HD
BRANCH  16  18
ATOM     18  C   UNL A   1      48.656  30.423  27.193  1.00  0.00     0.130 C 
BRANCH  18  19
ATOM     19  C   UNL A   1      48.661  31.832  27.780  1.00  0.00     0.133 C 
ATOM     20  C   UNL A   1      49.965  32.215  28.455  1.00  0.00     0.036 C 
ATOM     21  O   UNL A   1      47.696  31.966  28.841  1.00  0.00    -0.377 OA
ATOM     22  C   UNL A   1      49.534  33.422  29.258  1.00  0.00     0.031 C 
ATOM     23  C   UNL A   1      48.080  33.126  29.598  1.00  0.00     0.160 C 
ENDBRANCH  18  19
ENDBRANCH  16  18
ENDBRANCH  13  16
ENDBRANCH  12  13
ENDBRANCH   6   7
ENDBRANCH   5   6
ENDBRANCH   2   5
BRANCH   3  24
ATOM     24  C   UNL A   1      44.980  19.715  23.945  1.00  0.00     0.117 C 
BRANCH  24  25
ATOM     25  C   UNL A   1      45.159  18.688  25.051  1.00  0.00     0.042 C 
BRANCH  25  26
ATOM     26  C   UNL A   1      44.178  18.833  26.208  1.00  0.00     0.118 C 
BRANCH  26  27
ATOM     27  N   UNL A   1      42.788  18.632  25.816  1.00  0.00    -0.352 N 
ATOM     28  C   UNL A   1      41.696  19.452  25.957  1.00  0.00     0.251 C 
ATOM     29  H   UNL A   1      42.603  17.769  25.380  1.00  0.00     0.163 HD
ATOM     30  O   UNL A   1      40.583  19.031  25.657  1.00  0.00    -0.269 OA
BRANCH  28  31
ATOM     31  C   UNL A   1      41.840  20.824  26.494  1.00  0.00     0.039 A 
ATOM     32  C   UNL A   1      41.732  21.016  27.875  1.00  0.00     0.014 A 
ATOM     33  C   UNL A   1      42.061  21.919  25.655  1.00  0.00     0.014 A 
ATOM     34  C   UNL A   1      41.920  22.288  28.419  1.00  0.00     0.010 A 
ATOM     35  C   UNL A   1      42.319  23.174  26.202  1.00  0.00     0.010 A 
ATOM     36  C   UNL A   1      42.256  23.370  27.590  1.00  0.00    -0.014 A 
BRANCH  36  37
ATOM     37  C   UNL A   1      42.557  24.710  28.156  1.00  0.00     0.031 A 
ATOM     38  C   UNL A   1      43.940  25.034  28.646  1.00  0.00     0.074 A 
ATOM     39  C   UNL A   1      41.565  25.610  28.298  1.00  0.00     0.049 A 
ATOM     40  N   UNL A   1      44.372  26.113  29.249  1.00  0.00    -0.248 NA
ATOM     41  C   UNL A   1      44.969  24.000  28.455  1.00  0.00     0.031 C 
ATOM     42  C   UNL A   1      40.169  25.402  27.908  1.00  0.00     0.029 A 
ATOM     43  N   UNL A   1      41.578  26.878  28.823  1.00  0.00    -0.354 N 
ATOM     44  C   UNL A   1      45.711  25.879  29.529  1.00  0.00     0.074 A 
ATOM     45  C   UNL A   1      46.013  24.542  29.065  1.00  0.00     0.031 C 
ATOM     46  C   UNL A   1      39.465  26.510  28.191  1.00  0.00     0.029 A 
ATOM     47  C   UNL A   1      40.349  27.491  28.811  1.00  0.00     0.049 A 
ATOM     48  H   UNL A   1      42.391  27.307  29.175  1.00  0.00     0.167 HD
ATOM     49  C   UNL A   1      46.613  26.710  30.105  1.00  0.00     0.037 A 
ATOM     50  C   UNL A   1      39.975  28.706  29.255  1.00  0.00     0.037 A 
ATOM     51  C   UNL A   1      46.325  28.052  30.534  1.00  0.00     0.049 A 
ATOM     52  C   UNL A   1      40.998  29.615  29.874  1.00  0.00     0.074 A 
ATOM     53  C   UNL A   1      47.191  28.992  31.069  1.00  0.00     0.029 A 
ATOM     54  N   UNL A   1      45.075  28.647  30.477  1.00  0.00    -0.354 N 
ATOM     55  N   UNL A   1      42.274  29.400  30.080  1.00  0.00    -0.248 NA
ATOM     56  C   UNL A   1      40.529  30.935  30.319  1.00  0.00     0.031 C 
ATOM     57  C   UNL A   1      46.457  30.146  31.360  1.00  0.00     0.029 A 
ATOM     58  C   UNL A   1      45.142  29.937  30.978  1.00  0.00     0.049 A 
ATOM     59  H   UNL A   1      44.259  28.217  30.132  1.00  0.00     0.167 HD
ATOM     60  C   UNL A   1      42.766  30.565  30.655  1.00  0.00     0.074 A 
ATOM     61  C   UNL A   1      41.653  31.486  30.756  1.00  0.00     0.031 C 
ATOM     62  C   UNL A   1      44.028  30.845  31.063  1.00  0.00     0.037 A 
BRANCH  49  63
ATOM     63  C   UNL A   1      48.006  26.187  30.295  1.00  0.00     0.057 A 
ATOM     64  C   UNL A   1      48.952  26.223  29.263  1.00  0.00     0.134 A 
ATOM     65  C   UNL A   1      48.414  25.673  31.532  1.00  0.00     0.134 A 
ATOM     66  F   UNL A   1      48.619  26.691  28.051  1.00  0.00    -0.206 F 
ATOM     67  C   UNL A   1      50.250  25.744  29.448  1.00  0.00     0.040 A 
ATOM     68  C   UNL A   1      49.715  25.212  31.735  1.00  0.00     0.040 A 
ATOM     69  F   UNL A   1      47.557  25.615  32.562  1.00  0.00    -0.206 F 
ATOM     70  C   UNL A   1      50.636  25.241  30.689  1.00  0.00     0.006 A 
ENDBRANCH  49  63
BRANCH  50  71
ATOM     71  C   UNL A   1      38.566  29.145  29.108  1.00  0.00     0.057 A 
ATOM     72  C   UNL A   1      38.089  29.627  27.884  1.00  0.00     0.134 A 
ATOM     73  C   UNL A   1      37.669  29.098  30.181  1.00  0.00     0.134 A 
ATOM     74  F   UNL A   1      38.911  29.713  26.828  1.00  0.00    -0.206 F 
ATOM     75  C   UNL A   1      36.772  30.061  27.735  1.00  0.00     0.040 A 
ATOM     76  C   UNL A   1      36.343  29.509  30.040  1.00  0.00     0.040 A 
ATOM     77  F   UNL A   1      38.066  28.641  31.377  1.00  0.00    -0.206 F 
ATOM     78  C   UNL A   1      35.893  29.998  28.814  1.00  0.00     0.006 A 
ENDBRANCH  50  71
BRANCH  62  79
ATOM     79  C   UNL A   1      44.276  32.210  31.627  1.00  0.00     0.057 A 
ATOM     80  C   UNL A   1      44.584  33.302  30.805  1.00  0.00     0.134 A 
ATOM     81  C   UNL A   1      44.173  32.443  33.004  1.00  0.00     0.134 A 
ATOM     82  F   UNL A   1      44.710  33.140  29.479  1.00  0.00    -0.206 F 
ATOM     83  C   UNL A   1      44.798  34.574  31.335  1.00  0.00     0.040 A 
ATOM     84  C   UNL A   1      44.366  33.714  33.544  1.00  0.00     0.040 A 
ATOM     85  F   UNL A   1      43.876  31.440  33.843  1.00  0.00    -0.206 F 
ATOM     86  C   UNL A   1      44.684  34.784  32.709  1.00  0.00     0.006 A 
ENDBRANCH  62  79
ENDBRANCH  36  37
ENDBRANCH  28  31
ENDBRANCH  26  27
ENDBRANCH  25  26
ENDBRANCH  24  25
ENDBRANCH   3  24
TORSDOF 16
ENDMDL
MODEL 3
REMARK VINA RESULT:      -9.0      5.847     11.649
REMARK SMILES O=C(COc1ccc(S(=O)(=O)NC[C@@H]2CCCO2)cc1)NCCCNC(=O)c1ccc(-c2c3nc(c(-c4c(F)cccc4F)c4ccc([nH]4)c(-c4c(F)cccc4F)c4nc(c(-c5c(F)cccc5F)c5ccc2[nH]5)C=C4)C=C3)cc1
REMARK SMILES IDX 1 1 2 2 21 3 3 5 4 6 5 7 6 8 20 9 7 10 19 11 8 12 9 13 10 14
REMARK SMILES IDX 11 15 12 16 13 18 14 19 15 20 18 21 16 22 17 23 22 24 23 25
REMARK SMILES IDX 24 26 25 27 26 28 27 30 28 31 29 32 81 33 30 34 80 35 31 36
REMARK SMILES IDX 32 37 33 38 74 39 34 40 79 41 73 42 75 43 35 44 78 45 72 46
REMARK SMILES IDX 71 47 36 49 62 50 45 51 61 52 46 53 49 54 60 55 76 56 47 57
REMARK SMILES IDX 48 58 59 60 77 61 50 62 37 63 38 64 43 65 39 66 40 67 42 68
REMARK SMILES IDX 44 69 41 70 63 71 64 72 69 73 65 74 66 75 68 76 70 77 67 78
REMARK SMILES IDX 51 79 52 80 57 81 53 82 54 83 56 84 58 85 55 86
REMARK H PARENT 21 4 12 17 25 29 75 48 49 59
REMARK Flexibility Score: inf
ROOT
ATOM      1  O   UNL A   1      33.774  28.734  26.290  1.00  0.00    -0.271 OA
ATOM      2  C   UNL A   1      33.279  29.052  25.213  1.00  0.00     0.257 C 
ATOM      3  N   UNL A   1      32.228  29.940  25.093  1.00  0.00    -0.353 N 
ATOM      4  H   UNL A   1      32.003  30.295  24.204  1.00  0.00     0.163 HD
ENDROOT
BRANCH   2   5
ATOM      5  C   UNL A   1      33.754  28.462  23.882  1.00  0.00     0.329 C 
BRANCH   5   6
ATOM      6  O   UNL A   1      32.904  27.470  23.313  1.00  0.00    -0.484 OA
BRANCH   6   7
ATOM      7  C   UNL A   1      32.806  26.295  24.011  1.00  0.00     0.120 A 
ATOM      8  C   UNL A   1      31.512  25.912  24.366  1.00  0.00     0.048 A 
ATOM      9  C   UNL A   1      33.897  25.541  24.457  1.00  0.00     0.048 A 
ATOM     10  C   UNL A   1      31.306  24.787  25.166  1.00  0.00     0.025 A 
ATOM     11  C   UNL A   1      33.700  24.418  25.264  1.00  0.00     0.025 A 
ATOM     12  C   UNL A   1      32.405  24.051  25.624  1.00  0.00     0.082 A 
BRANCH  12  13
ATOM     13  S   UNL A   1      32.097  22.719  26.751  1.00  0.00     0.240 S 
ATOM     14  O   UNL A   1      33.382  22.307  27.276  1.00  0.00    -0.207 OA
ATOM     15  O   UNL A   1      31.022  23.150  27.612  1.00  0.00    -0.207 OA
BRANCH  13  16
ATOM     16  N   UNL A   1      31.471  21.476  25.807  1.00  0.00    -0.209 NA
ATOM     17  H   UNL A   1      30.509  21.735  25.590  1.00  0.00     0.141 HD
BRANCH  16  18
ATOM     18  C   UNL A   1      32.100  21.093  24.528  1.00  0.00     0.130 C 
BRANCH  18  19
ATOM     19  C   UNL A   1      32.772  19.723  24.583  1.00  0.00     0.133 C 
ATOM     20  C   UNL A   1      32.595  18.898  23.322  1.00  0.00     0.036 C 
ATOM     21  O   UNL A   1      32.187  18.889  25.601  1.00  0.00    -0.377 OA
ATOM     22  C   UNL A   1      32.980  17.522  23.819  1.00  0.00     0.031 C 
ATOM     23  C   UNL A   1      32.554  17.537  25.280  1.00  0.00     0.160 C 
ENDBRANCH  18  19
ENDBRANCH  16  18
ENDBRANCH  13  16
ENDBRANCH  12  13
ENDBRANCH   6   7
ENDBRANCH   5   6
ENDBRANCH   2   5
BRANCH   3  24
ATOM     24  C   UNL A   1      31.446  30.362  26.234  1.00  0.00     0.117 C 
BRANCH  24  25
ATOM     25  C   UNL A   1      31.405  31.870  26.423  1.00  0.00     0.042 C 
BRANCH  25  26
ATOM     26  C   UNL A   1      32.599  32.442  27.177  1.00  0.00     0.118 C 
BRANCH  26  27
ATOM     27  N   UNL A   1      32.430  33.839  27.555  1.00  0.00    -0.352 N 
ATOM     28  C   UNL A   1      33.112  34.603  28.469  1.00  0.00     0.251 C 
ATOM     29  H   UNL A   1      31.710  34.311  27.077  1.00  0.00     0.163 HD
ATOM     30  O   UNL A   1      32.722  35.742  28.714  1.00  0.00    -0.269 OA
BRANCH  28  31
ATOM     31  C   UNL A   1      34.290  34.062  29.183  1.00  0.00     0.039 A 
ATOM     32  C   UNL A   1      34.084  33.103  30.181  1.00  0.00     0.014 A 
ATOM     33  C   UNL A   1      35.585  34.500  28.896  1.00  0.00     0.014 A 
ATOM     34  C   UNL A   1      35.178  32.530  30.833  1.00  0.00     0.010 A 
ATOM     35  C   UNL A   1      36.678  33.879  29.496  1.00  0.00     0.010 A 
ATOM     36  C   UNL A   1      36.486  32.885  30.467  1.00  0.00    -0.014 A 
BRANCH  36  37
ATOM     37  C   UNL A   1      37.664  32.218  31.078  1.00  0.00     0.031 A 
ATOM     38  C   UNL A   1      38.385  31.125  30.341  1.00  0.00     0.074 A 
ATOM     39  C   UNL A   1      38.039  32.546  32.330  1.00  0.00     0.049 A 
ATOM     40  N   UNL A   1      39.375  30.369  30.744  1.00  0.00    -0.248 NA
ATOM     41  C   UNL A   1      37.917  30.825  28.978  1.00  0.00     0.031 C 
ATOM     42  C   UNL A   1      37.393  33.555  33.171  1.00  0.00     0.029 A 
ATOM     43  N   UNL A   1      39.049  32.053  33.117  1.00  0.00    -0.354 N 
ATOM     44  C   UNL A   1      39.632  29.492  29.699  1.00  0.00     0.074 A 
ATOM     45  C   UNL A   1      38.670  29.783  28.657  1.00  0.00     0.031 C 
ATOM     46  C   UNL A   1      38.033  33.618  34.350  1.00  0.00     0.029 A 
ATOM     47  C   UNL A   1      39.111  32.634  34.360  1.00  0.00     0.049 A 
ATOM     48  H   UNL A   1      39.670  31.350  32.819  1.00  0.00     0.167 HD
ATOM     49  C   UNL A   1      40.592  28.542  29.608  1.00  0.00     0.037 A 
ATOM     50  C   UNL A   1      39.939  32.397  35.394  1.00  0.00     0.037 A 
ATOM     51  C   UNL A   1      41.572  28.274  30.627  1.00  0.00     0.049 A 
ATOM     52  C   UNL A   1      41.008  31.350  35.261  1.00  0.00     0.074 A 
ATOM     53  C   UNL A   1      42.625  27.375  30.597  1.00  0.00     0.029 A 
ATOM     54  N   UNL A   1      41.620  28.906  31.860  1.00  0.00    -0.354 N 
ATOM     55  N   UNL A   1      41.274  30.568  34.244  1.00  0.00    -0.248 NA
ATOM     56  C   UNL A   1      41.893  31.155  36.419  1.00  0.00     0.031 C 
ATOM     57  C   UNL A   1      43.293  27.444  31.824  1.00  0.00     0.029 A 
ATOM     58  C   UNL A   1      42.676  28.408  32.605  1.00  0.00     0.049 A 
ATOM     59  H   UNL A   1      40.995  29.605  32.162  1.00  0.00     0.167 HD
ATOM     60  C   UNL A   1      42.370  29.806  34.629  1.00  0.00     0.074 A 
ATOM     61  C   UNL A   1      42.725  30.227  35.968  1.00  0.00     0.031 C 
ATOM     62  C   UNL A   1      43.022  28.844  33.933  1.00  0.00     0.037 A 
BRANCH  49  63
ATOM     63  C   UNL A   1      40.634  27.725  28.351  1.00  0.00     0.057 A 
ATOM     64  C   UNL A   1      41.369  28.134  27.232  1.00  0.00     0.134 A 
ATOM     65  C   UNL A   1      39.960  26.500  28.272  1.00  0.00     0.134 A 
ATOM     66  F   UNL A   1      42.027  29.303  27.240  1.00  0.00    -0.206 F 
ATOM     67  C   UNL A   1      41.413  27.365  26.068  1.00  0.00     0.040 A 
ATOM     68  C   UNL A   1      40.014  25.712  27.122  1.00  0.00     0.040 A 
ATOM     69  F   UNL A   1      39.242  26.049  29.311  1.00  0.00    -0.206 F 
ATOM     70  C   UNL A   1      40.738  26.147  26.012  1.00  0.00     0.006 A 
ENDBRANCH  49  63
BRANCH  50  71
ATOM     71  C   UNL A   1      39.807  33.186  36.643  1.00  0.00     0.057 A 
ATOM     72  C   UNL A   1      38.912  32.797  37.646  1.00  0.00     0.134 A 
ATOM     73  C   UNL A   1      40.564  34.342  36.862  1.00  0.00     0.134 A 
ATOM     74  F   UNL A   1      38.147  31.708  37.481  1.00  0.00    -0.206 F 
ATOM     75  C   UNL A   1      38.763  33.538  38.818  1.00  0.00     0.040 A 
ATOM     76  C   UNL A   1      40.440  35.082  38.039  1.00  0.00     0.040 A 
ATOM     77  F   UNL A   1      41.441  34.762  35.940  1.00  0.00    -0.206 F 
ATOM     78  C   UNL A   1      39.532  34.683  39.019  1.00  0.00     0.006 A 
ENDBRANCH  50  71
BRANCH  62  79
ATOM     79  C   UNL A   1      44.204  28.203  34.596  1.00  0.00     0.057 A 
ATOM     80  C   UNL A   1      45.490  28.747  34.494  1.00  0.00     0.134 A 
ATOM     81  C   UNL A   1      44.046  27.049  35.373  1.00  0.00     0.134 A 
ATOM     82  F   UNL A   1      45.707  29.844  33.753  1.00  0.00    -0.206 F 
ATOM     83  C   UNL A   1      46.583  28.155  35.127  1.00  0.00     0.040 A 
ATOM     84  C   UNL A   1      45.127  26.459  36.027  1.00  0.00     0.040 A 
ATOM     85  F   UNL A   1      42.838  26.483  35.514  1.00  0.00    -0.206 F 
ATOM     86  C   UNL A   1      46.401  27.009  35.902  1.00  0.00     0.006 A 
ENDBRANCH  62  79
ENDBRANCH  36  37
ENDBRANCH  28  31
ENDBRANCH  26  27
ENDBRANCH  25  26
ENDBRANCH  24  25
ENDBRANCH   3  24
TORSDOF 16
ENDMDL
