MODEL 1
REMARK VINA RESULT:     -13.2      0.000      0.000
REMARK SMILES O=C(NCCCNC(=O)[C@@H]1CCCN1S(=O)(=O)c1ccc2c3c(cccc13)C(=O)N2)c1ccc(-c2c3nc(c(-c4c(F)cccc4F)c4ccc([nH]4)c(-c4c(F)cccc4F)c4nc(c(-c5c(F)cccc5F)c5ccc2[nH]5)C=C4)C=C3)cc1
REMARK SMILES IDX 5 1 4 2 3 3 1 4 2 5 31 7 32 8 84 9 33 10 83 11 34 12 35 13
REMARK SMILES IDX 36 14 77 15 37 16 82 17 76 18 78 19 38 20 81 21 75 22 74 23
REMARK SMILES IDX 39 25 65 26 48 27 64 28 49 29 52 30 63 31 79 32 50 33 51 34
REMARK SMILES IDX 62 36 80 37 53 38 40 39 41 40 46 41 42 42 43 43 45 44 47 45
REMARK SMILES IDX 44 46 66 47 67 48 72 49 68 50 69 51 71 52 73 53 70 54 54 55
REMARK SMILES IDX 55 56 60 57 56 58 57 59 59 60 61 61 58 62 6 63 7 64 8 65
REMARK SMILES IDX 9 67 10 68 11 69 14 70 12 71 13 72 15 73 16 74 17 75 18 76
REMARK SMILES IDX 19 77 27 78 20 79 22 80 26 81 21 82 23 83 25 84 30 85 24 86
REMARK SMILES IDX 28 87 29 89
REMARK H PARENT 3 6 78 24 52 35 7 66 30 88
REMARK Flexibility Score: inf
ROOT
ATOM      1  C   UNL A   1      37.372  19.619  24.949  1.00  0.00     0.042 C 
ENDROOT
BRANCH   1   2
ATOM      2  C   UNL A   1      38.686  20.284  25.354  1.00  0.00     0.118 C 
BRANCH   2   3
ATOM      3  N   UNL A   1      39.691  19.293  25.702  1.00  0.00    -0.352 N 
ATOM      4  O   UNL A   1      41.792  18.528  25.902  1.00  0.00    -0.269 OA
ATOM      5  C   UNL A   1      41.013  19.472  26.018  1.00  0.00     0.251 C 
ATOM      6  H   UNL A   1      39.377  18.360  25.712  1.00  0.00     0.163 HD
BRANCH   5   7
ATOM      7  C   UNL A   1      41.504  20.773  26.519  1.00  0.00     0.039 A 
ATOM      8  C   UNL A   1      41.854  21.795  25.632  1.00  0.00     0.014 A 
ATOM      9  C   UNL A   1      41.501  21.016  27.898  1.00  0.00     0.014 A 
ATOM     10  C   UNL A   1      42.268  23.032  26.121  1.00  0.00     0.010 A 
ATOM     11  C   UNL A   1      41.870  22.272  28.387  1.00  0.00     0.010 A 
ATOM     12  C   UNL A   1      42.267  23.287  27.502  1.00  0.00    -0.014 A 
BRANCH  12  13
ATOM     13  C   UNL A   1      42.650  24.631  27.999  1.00  0.00     0.031 A 
ATOM     14  C   UNL A   1      44.095  24.995  28.185  1.00  0.00     0.074 A 
ATOM     15  C   UNL A   1      41.687  25.540  28.248  1.00  0.00     0.049 A 
ATOM     16  N   UNL A   1      44.620  26.134  28.558  1.00  0.00    -0.248 NA
ATOM     17  C   UNL A   1      45.081  23.938  27.913  1.00  0.00     0.031 C 
ATOM     18  C   UNL A   1      40.248  25.305  28.104  1.00  0.00     0.029 A 
ATOM     19  N   UNL A   1      41.772  26.844  28.663  1.00  0.00    -0.354 N 
ATOM     20  C   UNL A   1      45.995  25.942  28.542  1.00  0.00     0.074 A 
ATOM     21  C   UNL A   1      46.222  24.557  28.184  1.00  0.00     0.031 C 
ATOM     22  C   UNL A   1      39.588  26.437  28.397  1.00  0.00     0.029 A 
ATOM     23  C   UNL A   1      40.551  27.462  28.788  1.00  0.00     0.049 A 
ATOM     24  H   UNL A   1      42.626  27.295  28.851  1.00  0.00     0.167 HD
ATOM     25  C   UNL A   1      46.981  26.842  28.779  1.00  0.00     0.037 A 
ATOM     26  C   UNL A   1      40.246  28.712  29.183  1.00  0.00     0.037 A 
ATOM     27  C   UNL A   1      46.753  28.211  29.169  1.00  0.00     0.049 A 
ATOM     28  C   UNL A   1      41.361  29.655  29.548  1.00  0.00     0.074 A 
ATOM     29  C   UNL A   1      47.683  29.198  29.448  1.00  0.00     0.029 A 
ATOM     30  N   UNL A   1      45.502  28.783  29.346  1.00  0.00    -0.354 N 
ATOM     31  N   UNL A   1      42.658  29.474  29.486  1.00  0.00    -0.248 NA
ATOM     32  C   UNL A   1      40.963  30.983  30.035  1.00  0.00     0.031 C 
ATOM     33  C   UNL A   1      46.996  30.352  29.843  1.00  0.00     0.029 A 
ATOM     34  C   UNL A   1      45.636  30.103  29.754  1.00  0.00     0.049 A 
ATOM     35  H   UNL A   1      44.644  28.322  29.205  1.00  0.00     0.167 HD
ATOM     36  C   UNL A   1      43.229  30.675  29.890  1.00  0.00     0.074 A 
ATOM     37  C   UNL A   1      42.136  31.582  30.169  1.00  0.00     0.031 C 
ATOM     38  C   UNL A   1      44.539  30.997  30.021  1.00  0.00     0.037 A 
BRANCH  25  39
ATOM     39  C   UNL A   1      48.396  26.367  28.622  1.00  0.00     0.057 A 
ATOM     40  C   UNL A   1      49.088  25.790  29.694  1.00  0.00     0.134 A 
ATOM     41  C   UNL A   1      49.086  26.500  27.408  1.00  0.00     0.134 A 
ATOM     42  F   UNL A   1      48.494  25.638  30.888  1.00  0.00    -0.206 F 
ATOM     43  C   UNL A   1      50.411  25.361  29.565  1.00  0.00     0.040 A 
ATOM     44  C   UNL A   1      50.398  26.048  27.258  1.00  0.00     0.040 A 
ATOM     45  F   UNL A   1      48.478  27.034  26.338  1.00  0.00    -0.206 F 
ATOM     46  C   UNL A   1      51.067  25.482  28.341  1.00  0.00     0.006 A 
ENDBRANCH  25  39
BRANCH  26  47
ATOM     47  C   UNL A   1      38.831  29.159  29.269  1.00  0.00     0.057 A 
ATOM     48  C   UNL A   1      38.140  29.618  28.141  1.00  0.00     0.134 A 
ATOM     49  C   UNL A   1      38.114  29.064  30.468  1.00  0.00     0.134 A 
ATOM     50  F   UNL A   1      38.768  29.738  26.963  1.00  0.00    -0.206 F 
ATOM     51  C   UNL A   1      36.786  29.952  28.199  1.00  0.00     0.040 A 
ATOM     52  C   UNL A   1      36.752  29.364  30.533  1.00  0.00     0.040 A 
ATOM     53  F   UNL A   1      38.714  28.614  31.581  1.00  0.00    -0.206 F 
ATOM     54  C   UNL A   1      36.084  29.810  29.395  1.00  0.00     0.006 A 
ENDBRANCH  26  47
BRANCH  38  55
ATOM     55  C   UNL A   1      44.853  32.406  30.442  1.00  0.00     0.057 A 
ATOM     56  C   UNL A   1      44.986  33.421  29.486  1.00  0.00     0.134 A 
ATOM     57  C   UNL A   1      45.015  32.764  31.788  1.00  0.00     0.134 A 
ATOM     58  F   UNL A   1      44.854  33.149  28.179  1.00  0.00    -0.206 F 
ATOM     59  C   UNL A   1      45.260  34.739  29.853  1.00  0.00     0.040 A 
ATOM     60  C   UNL A   1      45.255  34.085  32.169  1.00  0.00     0.040 A 
ATOM     61  F   UNL A   1      44.884  31.843  32.756  1.00  0.00    -0.206 F 
ATOM     62  C   UNL A   1      45.383  35.076  31.199  1.00  0.00     0.006 A 
ENDBRANCH  38  55
ENDBRANCH  12  13
ENDBRANCH   5   7
ENDBRANCH   2   3
ENDBRANCH   1   2
BRANCH   1  63
ATOM     63  C   UNL A   1      36.146  20.525  25.025  1.00  0.00     0.117 C 
BRANCH  63  64
ATOM     64  N   UNL A   1      36.291  21.781  24.305  1.00  0.00    -0.355 N 
ATOM     65  C   UNL A   1      35.424  22.682  23.773  1.00  0.00     0.238 C 
ATOM     66  H   UNL A   1      37.233  22.038  24.175  1.00  0.00     0.163 HD
ATOM     67  O   UNL A   1      35.962  23.678  23.266  1.00  0.00    -0.273 OA
BRANCH  65  68
ATOM     68  C   UNL A   1      33.915  22.561  23.735  1.00  0.00     0.162 C 
ATOM     69  C   UNL A   1      33.172  22.978  22.479  1.00  0.00     0.032 C 
ATOM     70  N   UNL A   1      32.982  22.930  24.856  1.00  0.00    -0.185 NA
ATOM     71  C   UNL A   1      31.772  22.485  22.770  1.00  0.00     0.019 C 
ATOM     72  C   UNL A   1      31.592  22.745  24.263  1.00  0.00     0.103 C 
BRANCH  70  73
ATOM     73  S   UNL A   1      33.082  24.407  25.727  1.00  0.00     0.244 S 
ATOM     74  O   UNL A   1      32.053  24.374  26.744  1.00  0.00    -0.207 OA
ATOM     75  O   UNL A   1      34.469  24.511  26.133  1.00  0.00    -0.207 OA
BRANCH  73  76
ATOM     76  C   UNL A   1      32.728  25.791  24.657  1.00  0.00     0.090 A 
ATOM     77  C   UNL A   1      33.811  26.347  23.940  1.00  0.00     0.024 A 
ATOM     78  C   UNL A   1      31.397  26.237  24.363  1.00  0.00     0.005 A 
ATOM     79  C   UNL A   1      33.698  27.486  23.125  1.00  0.00     0.028 A 
ATOM     80  C   UNL A   1      31.335  27.327  23.535  1.00  0.00     0.019 A 
ATOM     81  C   UNL A   1      30.112  25.731  24.709  1.00  0.00     0.010 A 
ATOM     82  C   UNL A   1      32.418  27.960  22.967  1.00  0.00     0.050 A 
ATOM     83  C   UNL A   1      30.191  27.950  23.059  1.00  0.00     0.050 A 
ATOM     84  C   UNL A   1      28.922  26.313  24.215  1.00  0.00     0.002 A 
ATOM     85  N   UNL A   1      31.946  29.010  22.205  1.00  0.00    -0.321 N 
ATOM     86  C   UNL A   1      28.939  27.441  23.385  1.00  0.00     0.014 A 
ATOM     87  C   UNL A   1      30.547  29.072  22.208  1.00  0.00     0.256 C 
ATOM     88  H   UNL A   1      32.524  29.640  21.718  1.00  0.00     0.170 HD
ATOM     89  O   UNL A   1      29.887  29.896  21.601  1.00  0.00    -0.269 OA
ENDBRANCH  73  76
ENDBRANCH  70  73
ENDBRANCH  65  68
ENDBRANCH  63  64
ENDBRANCH   1  63
TORSDOF 12
ENDMDL
MODEL 2
REMARK VINA RESULT:     -13.1      2.104      7.827
REMARK SMILES O=C(NCCCNC(=O)[C@@H]1CCCN1S(=O)(=O)c1ccc2c3c(cccc13)C(=O)N2)c1ccc(-c2c3nc(c(-c4c(F)cccc4F)c4ccc([nH]4)c(-c4c(F)cccc4F)c4nc(c(-c5c(F)cccc5F)c5ccc2[nH]5)C=C4)C=C3)cc1
REMARK SMILES IDX 5 1 4 2 3 3 1 4 2 5 31 7 32 8 84 9 33 10 83 11 34 12 35 13
REMARK SMILES IDX 36 14 77 15 37 16 82 17 76 18 78 19 38 20 81 21 75 22 74 23
REMARK SMILES IDX 39 25 65 26 48 27 64 28 49 29 52 30 63 31 79 32 50 33 51 34
REMARK SMILES IDX 62 36 80 37 53 38 40 39 41 40 46 41 42 42 43 43 45 44 47 45
REMARK SMILES IDX 44 46 66 47 67 48 72 49 68 50 69 51 71 52 73 53 70 54 54 55
REMARK SMILES IDX 55 56 60 57 56 58 57 59 59 60 61 61 58 62 6 63 7 64 8 65
REMARK SMILES IDX 9 67 10 68 11 69 14 70 12 71 13 72 15 73 16 74 17 75 18 76
REMARK SMILES IDX 19 77 27 78 20 79 22 80 26 81 21 82 23 83 25 84 30 85 24 86
REMARK SMILES IDX 28 87 29 89
REMARK H PARENT 3 6 78 24 52 35 7 66 30 88
REMARK Flexibility Score: inf
ROOT
ATOM      1  C   UNL A   1      33.995  28.586  25.783  1.00  0.00     0.042 C 
ENDROOT
BRANCH   1   2
ATOM      2  C   UNL A   1      33.739  28.687  27.285  1.00  0.00     0.118 C 
BRANCH   2   3
ATOM      3  N   UNL A   1      33.779  30.069  27.734  1.00  0.00    -0.352 N 
ATOM      4  O   UNL A   1      34.408  31.733  29.103  1.00  0.00    -0.269 OA
ATOM      5  C   UNL A   1      34.717  30.704  28.508  1.00  0.00     0.251 C 
ATOM      6  H   UNL A   1      33.026  30.630  27.440  1.00  0.00     0.163 HD
BRANCH   5   7
ATOM      7  C   UNL A   1      36.096  30.181  28.611  1.00  0.00     0.039 A 
ATOM      8  C   UNL A   1      36.998  30.332  27.553  1.00  0.00     0.014 A 
ATOM      9  C   UNL A   1      36.529  29.638  29.826  1.00  0.00     0.014 A 
ATOM     10  C   UNL A   1      38.308  29.877  27.684  1.00  0.00     0.010 A 
ATOM     11  C   UNL A   1      37.857  29.227  29.974  1.00  0.00     0.010 A 
ATOM     12  C   UNL A   1      38.754  29.333  28.900  1.00  0.00    -0.014 A 
BRANCH  12  13
ATOM     13  C   UNL A   1      40.170  28.914  29.039  1.00  0.00     0.031 A 
ATOM     14  C   UNL A   1      41.176  29.823  29.685  1.00  0.00     0.074 A 
ATOM     15  C   UNL A   1      40.540  27.691  28.612  1.00  0.00     0.049 A 
ATOM     16  N   UNL A   1      42.442  29.608  29.940  1.00  0.00    -0.248 NA
ATOM     17  C   UNL A   1      40.695  31.149  30.102  1.00  0.00     0.031 C 
ATOM     18  C   UNL A   1      39.654  26.718  27.970  1.00  0.00     0.029 A 
ATOM     19  N   UNL A   1      41.753  27.053  28.664  1.00  0.00    -0.354 N 
ATOM     20  C   UNL A   1      42.903  30.757  30.568  1.00  0.00     0.074 A 
ATOM     21  C   UNL A   1      41.798  31.692  30.598  1.00  0.00     0.031 C 
ATOM     22  C   UNL A   1      40.346  25.596  27.715  1.00  0.00     0.029 A 
ATOM     23  C   UNL A   1      41.730  25.786  28.136  1.00  0.00     0.049 A 
ATOM     24  H   UNL A   1      42.562  27.464  29.045  1.00  0.00     0.167 HD
ATOM     25  C   UNL A   1      44.128  31.002  31.095  1.00  0.00     0.037 A 
ATOM     26  C   UNL A   1      42.720  24.883  28.000  1.00  0.00     0.037 A 
ATOM     27  C   UNL A   1      45.237  30.084  31.033  1.00  0.00     0.049 A 
ATOM     28  C   UNL A   1      44.098  25.230  28.495  1.00  0.00     0.074 A 
ATOM     29  C   UNL A   1      46.522  30.245  31.521  1.00  0.00     0.029 A 
ATOM     30  N   UNL A   1      45.194  28.833  30.435  1.00  0.00    -0.354 N 
ATOM     31  N   UNL A   1      44.510  26.302  29.126  1.00  0.00    -0.248 NA
ATOM     32  C   UNL A   1      45.150  24.232  28.259  1.00  0.00     0.031 C 
ATOM     33  C   UNL A   1      47.270  29.114  31.174  1.00  0.00     0.029 A 
ATOM     34  C   UNL A   1      46.436  28.222  30.521  1.00  0.00     0.049 A 
ATOM     35  H   UNL A   1      44.399  28.437  30.010  1.00  0.00     0.167 HD
ATOM     36  C   UNL A   1      45.857  26.091  29.395  1.00  0.00     0.074 A 
ATOM     37  C   UNL A   1      46.184  24.779  28.880  1.00  0.00     0.031 C 
ATOM     38  C   UNL A   1      46.745  26.911  30.010  1.00  0.00     0.037 A 
BRANCH  25  39
ATOM     39  C   UNL A   1      44.327  32.323  31.782  1.00  0.00     0.057 A 
ATOM     40  C   UNL A   1      44.072  32.471  33.152  1.00  0.00     0.134 A 
ATOM     41  C   UNL A   1      44.752  33.460  31.080  1.00  0.00     0.134 A 
ATOM     42  F   UNL A   1      43.654  31.429  33.885  1.00  0.00    -0.206 F 
ATOM     43  C   UNL A   1      44.236  33.699  33.797  1.00  0.00     0.040 A 
ATOM     44  C   UNL A   1      44.948  34.685  31.720  1.00  0.00     0.040 A 
ATOM     45  F   UNL A   1      45.024  33.385  29.768  1.00  0.00    -0.206 F 
ATOM     46  C   UNL A   1      44.683  34.808  33.082  1.00  0.00     0.006 A 
ENDBRANCH  25  39
BRANCH  26  47
ATOM     47  C   UNL A   1      42.465  23.564  27.364  1.00  0.00     0.057 A 
ATOM     48  C   UNL A   1      42.612  23.378  25.984  1.00  0.00     0.134 A 
ATOM     49  C   UNL A   1      42.144  22.438  28.134  1.00  0.00     0.134 A 
ATOM     50  F   UNL A   1      42.913  24.414  25.189  1.00  0.00    -0.206 F 
ATOM     51  C   UNL A   1      42.463  22.121  25.395  1.00  0.00     0.040 A 
ATOM     52  C   UNL A   1      42.024  21.171  27.563  1.00  0.00     0.040 A 
ATOM     53  F   UNL A   1      42.008  22.547  29.464  1.00  0.00    -0.206 F 
ATOM     54  C   UNL A   1      42.184  21.010  26.188  1.00  0.00     0.006 A 
ENDBRANCH  26  47
BRANCH  38  55
ATOM     55  C   UNL A   1      48.141  26.383  30.196  1.00  0.00     0.057 A 
ATOM     56  C   UNL A   1      49.112  26.574  29.205  1.00  0.00     0.134 A 
ATOM     57  C   UNL A   1      48.528  25.694  31.354  1.00  0.00     0.134 A 
ATOM     58  F   UNL A   1      48.808  27.216  28.067  1.00  0.00    -0.206 F 
ATOM     59  C   UNL A   1      50.418  26.108  29.362  1.00  0.00     0.040 A 
ATOM     60  C   UNL A   1      49.840  25.253  31.536  1.00  0.00     0.040 A 
ATOM     61  F   UNL A   1      47.652  25.490  32.349  1.00  0.00    -0.206 F 
ATOM     62  C   UNL A   1      50.788  25.457  30.536  1.00  0.00     0.006 A 
ENDBRANCH  38  55
ENDBRANCH  12  13
ENDBRANCH   5   7
ENDBRANCH   2   3
ENDBRANCH   1   2
BRANCH   1  63
ATOM     63  C   UNL A   1      32.871  29.131  24.905  1.00  0.00     0.117 C 
BRANCH  63  64
ATOM     64  N   UNL A   1      31.661  28.324  24.923  1.00  0.00    -0.355 N 
ATOM     65  C   UNL A   1      31.307  27.121  24.399  1.00  0.00     0.238 C 
ATOM     66  H   UNL A   1      30.931  28.745  25.433  1.00  0.00     0.163 HD
ATOM     67  O   UNL A   1      30.160  26.749  24.690  1.00  0.00    -0.273 OA
BRANCH  65  68
ATOM     68  C   UNL A   1      32.161  26.245  23.507  1.00  0.00     0.162 C 
ATOM     69  C   UNL A   1      31.561  25.682  22.231  1.00  0.00     0.032 C 
ATOM     70  N   UNL A   1      33.097  25.167  23.982  1.00  0.00    -0.185 NA
ATOM     71  C   UNL A   1      32.778  25.093  21.551  1.00  0.00     0.019 C 
ATOM     72  C   UNL A   1      33.598  24.515  22.701  1.00  0.00     0.103 C 
BRANCH  70  73
ATOM     73  S   UNL A   1      32.664  23.977  25.142  1.00  0.00     0.244 S 
ATOM     74  O   UNL A   1      32.793  24.586  26.448  1.00  0.00    -0.207 OA
ATOM     75  O   UNL A   1      31.366  23.492  24.718  1.00  0.00    -0.207 OA
BRANCH  73  76
ATOM     76  C   UNL A   1      33.800  22.601  25.082  1.00  0.00     0.090 A 
ATOM     77  C   UNL A   1      33.287  21.358  24.648  1.00  0.00     0.024 A 
ATOM     78  C   UNL A   1      35.213  22.740  25.279  1.00  0.00     0.005 A 
ATOM     79  C   UNL A   1      34.041  20.173  24.627  1.00  0.00     0.028 A 
ATOM     80  C   UNL A   1      35.912  21.563  25.213  1.00  0.00     0.019 A 
ATOM     81  C   UNL A   1      36.054  23.874  25.466  1.00  0.00     0.010 A 
ATOM     82  C   UNL A   1      35.369  20.327  24.943  1.00  0.00     0.050 A 
ATOM     83  C   UNL A   1      37.285  21.399  25.332  1.00  0.00     0.050 A 
ATOM     84  C   UNL A   1      37.460  23.754  25.554  1.00  0.00     0.002 A 
ATOM     85  N   UNL A   1      36.391  19.399  24.968  1.00  0.00    -0.321 N 
ATOM     86  C   UNL A   1      38.103  22.511  25.497  1.00  0.00     0.014 A 
ATOM     87  C   UNL A   1      37.635  19.996  25.205  1.00  0.00     0.256 C 
ATOM     88  H   UNL A   1      36.261  18.432  24.835  1.00  0.00     0.170 HD
ATOM     89  O   UNL A   1      38.694  19.396  25.258  1.00  0.00    -0.269 OA
ENDBRANCH  73  76
ENDBRANCH  70  73
ENDBRANCH  65  68
ENDBRANCH  63  64
ENDBRANCH   1  63
TORSDOF 12
ENDMDL
MODEL 3
REMARK VINA RESULT:     -13.0      2.321      7.071
REMARK SMILES O=C(NCCCNC(=O)[C@@H]1CCCN1S(=O)(=O)c1ccc2c3c(cccc13)C(=O)N2)c1ccc(-c2c3nc(c(-c4c(F)cccc4F)c4ccc([nH]4)c(-c4c(F)cccc4F)c4nc(c(-c5c(F)cccc5F)c5ccc2[nH]5)C=C4)C=C3)cc1
REMARK SMILES IDX 5 1 4 2 3 3 1 4 2 5 31 7 32 8 84 9 33 10 83 11 34 12 35 13
REMARK SMILES IDX 36 14 77 15 37 16 82 17 76 18 78 19 38 20 81 21 75 22 74 23
REMARK SMILES IDX 39 25 65 26 48 27 64 28 49 29 52 30 63 31 79 32 50 33 51 34
REMARK SMILES IDX 62 36 80 37 53 38 40 39 41 40 46 41 42 42 43 43 45 44 47 45
REMARK SMILES IDX 44 46 66 47 67 48 72 49 68 50 69 51 71 52 73 53 70 54 54 55
REMARK SMILES IDX 55 56 60 57 56 58 57 59 59 60 61 61 58 62 6 63 7 64 8 65
REMARK SMILES IDX 9 67 10 68 11 69 14 70 12 71 13 72 15 73 16 74 17 75 18 76
REMARK SMILES IDX 19 77 27 78 20 79 22 80 26 81 21 82 23 83 25 84 30 85 24 86
REMARK SMILES IDX 28 87 29 89
REMARK H PARENT 3 6 78 24 52 35 7 66 30 88
REMARK Flexibility Score: inf
ROOT
ATOM      1  C   UNL A   1      32.277  28.092  27.523  1.00  0.00     0.042 C 
ENDROOT
BRANCH   1   2
ATOM      2  C   UNL A   1      33.674  28.672  27.312  1.00  0.00     0.118 C 
BRANCH   2   3
ATOM      3  N   UNL A   1      33.722  30.076  27.684  1.00  0.00    -0.352 N 
ATOM      4  O   UNL A   1      34.362  31.810  28.958  1.00  0.00    -0.269 OA
ATOM      5  C   UNL A   1      34.665  30.748  28.420  1.00  0.00     0.251 C 
ATOM      6  H   UNL A   1      32.971  30.624  27.361  1.00  0.00     0.163 HD
BRANCH   5   7
ATOM      7  C   UNL A   1      36.041  30.224  28.548  1.00  0.00     0.039 A 
ATOM      8  C   UNL A   1      36.959  30.365  27.504  1.00  0.00     0.014 A 
ATOM      9  C   UNL A   1      36.455  29.693  29.776  1.00  0.00     0.014 A 
ATOM     10  C   UNL A   1      38.267  29.910  27.659  1.00  0.00     0.010 A 
ATOM     11  C   UNL A   1      37.780  29.281  29.948  1.00  0.00     0.010 A 
ATOM     12  C   UNL A   1      38.693  29.376  28.886  1.00  0.00    -0.014 A 
BRANCH  12  13
ATOM     13  C   UNL A   1      40.107  28.957  29.051  1.00  0.00     0.031 A 
ATOM     14  C   UNL A   1      41.102  29.867  29.714  1.00  0.00     0.074 A 
ATOM     15  C   UNL A   1      40.484  27.734  28.632  1.00  0.00     0.049 A 
ATOM     16  N   UNL A   1      42.363  29.652  29.991  1.00  0.00    -0.248 NA
ATOM     17  C   UNL A   1      40.614  31.194  30.120  1.00  0.00     0.031 C 
ATOM     18  C   UNL A   1      39.609  26.760  27.976  1.00  0.00     0.029 A 
ATOM     19  N   UNL A   1      41.696  27.096  28.707  1.00  0.00    -0.354 N 
ATOM     20  C   UNL A   1      42.813  30.802  30.626  1.00  0.00     0.074 A 
ATOM     21  C   UNL A   1      41.707  31.737  30.635  1.00  0.00     0.031 C 
ATOM     22  C   UNL A   1      40.306  25.638  27.734  1.00  0.00     0.029 A 
ATOM     23  C   UNL A   1      41.682  25.828  28.180  1.00  0.00     0.049 A 
ATOM     24  H   UNL A   1      42.498  27.507  29.101  1.00  0.00     0.167 HD
ATOM     25  C   UNL A   1      44.028  31.048  31.174  1.00  0.00     0.037 A 
ATOM     26  C   UNL A   1      42.674  24.924  28.063  1.00  0.00     0.037 A 
ATOM     27  C   UNL A   1      45.138  30.129  31.133  1.00  0.00     0.049 A 
ATOM     28  C   UNL A   1      44.043  25.272  28.581  1.00  0.00     0.074 A 
ATOM     29  C   UNL A   1      46.415  30.290  31.644  1.00  0.00     0.029 A 
ATOM     30  N   UNL A   1      45.105  28.877  30.535  1.00  0.00    -0.354 N 
ATOM     31  N   UNL A   1      44.444  26.345  29.218  1.00  0.00    -0.248 NA
ATOM     32  C   UNL A   1      45.099  24.273  28.365  1.00  0.00     0.031 C 
ATOM     33  C   UNL A   1      47.168  29.159  31.311  1.00  0.00     0.029 A 
ATOM     34  C   UNL A   1      46.346  28.266  30.644  1.00  0.00     0.049 A 
ATOM     35  H   UNL A   1      44.318  28.481  30.098  1.00  0.00     0.167 HD
ATOM     36  C   UNL A   1      45.786  26.134  29.511  1.00  0.00     0.074 A 
ATOM     37  C   UNL A   1      46.122  24.821  29.003  1.00  0.00     0.031 C 
ATOM     38  C   UNL A   1      46.663  26.954  30.140  1.00  0.00     0.037 A 
BRANCH  25  39
ATOM     39  C   UNL A   1      44.215  32.369  31.863  1.00  0.00     0.057 A 
ATOM     40  C   UNL A   1      44.678  33.490  31.164  1.00  0.00     0.134 A 
ATOM     41  C   UNL A   1      43.955  32.526  33.232  1.00  0.00     0.134 A 
ATOM     42  F   UNL A   1      44.956  33.411  29.854  1.00  0.00    -0.206 F 
ATOM     43  C   UNL A   1      44.873  34.719  31.800  1.00  0.00     0.040 A 
ATOM     44  C   UNL A   1      44.118  33.756  33.872  1.00  0.00     0.040 A 
ATOM     45  F   UNL A   1      43.499  31.494  33.960  1.00  0.00    -0.206 F 
ATOM     46  C   UNL A   1      44.584  34.856  33.156  1.00  0.00     0.006 A 
ENDBRANCH  25  39
BRANCH  26  47
ATOM     47  C   UNL A   1      42.430  23.605  27.423  1.00  0.00     0.057 A 
ATOM     48  C   UNL A   1      42.534  23.434  26.038  1.00  0.00     0.134 A 
ATOM     49  C   UNL A   1      42.164  22.465  28.193  1.00  0.00     0.134 A 
ATOM     50  F   UNL A   1      42.782  24.483  25.242  1.00  0.00    -0.206 F 
ATOM     51  C   UNL A   1      42.396  22.179  25.443  1.00  0.00     0.040 A 
ATOM     52  C   UNL A   1      42.056  21.200  27.615  1.00  0.00     0.040 A 
ATOM     53  F   UNL A   1      42.071  22.559  29.529  1.00  0.00    -0.206 F 
ATOM     54  C   UNL A   1      42.172  21.054  26.235  1.00  0.00     0.006 A 
ENDBRANCH  26  47
BRANCH  38  55
ATOM     55  C   UNL A   1      48.055  26.426  30.352  1.00  0.00     0.057 A 
ATOM     56  C   UNL A   1      49.047  26.628  29.384  1.00  0.00     0.134 A 
ATOM     57  C   UNL A   1      48.419  25.727  31.511  1.00  0.00     0.134 A 
ATOM     58  F   UNL A   1      48.768  27.280  28.246  1.00  0.00    -0.206 F 
ATOM     59  C   UNL A   1      50.350  26.162  29.565  1.00  0.00     0.040 A 
ATOM     60  C   UNL A   1      49.727  25.286  31.718  1.00  0.00     0.040 A 
ATOM     61  F   UNL A   1      47.521  25.512  32.485  1.00  0.00    -0.206 F 
ATOM     62  C   UNL A   1      50.696  25.500  30.741  1.00  0.00     0.006 A 
ENDBRANCH  38  55
ENDBRANCH  12  13
ENDBRANCH   5   7
ENDBRANCH   2   3
ENDBRANCH   1   2
BRANCH   1  63
ATOM     63  C   UNL A   1      31.762  27.229  26.374  1.00  0.00     0.117 C 
BRANCH  63  64
ATOM     64  N   UNL A   1      31.297  25.913  26.784  1.00  0.00    -0.355 N 
ATOM     65  C   UNL A   1      31.803  24.653  26.702  1.00  0.00     0.238 C 
ATOM     66  H   UNL A   1      30.416  25.940  27.222  1.00  0.00     0.163 HD
ATOM     67  O   UNL A   1      31.097  23.780  27.228  1.00  0.00    -0.273 OA
BRANCH  65  68
ATOM     68  C   UNL A   1      33.098  24.248  26.030  1.00  0.00     0.162 C 
ATOM     69  C   UNL A   1      34.178  25.293  25.817  1.00  0.00     0.032 C 
ATOM     70  N   UNL A   1      33.213  23.348  24.830  1.00  0.00    -0.185 NA
ATOM     71  C   UNL A   1      35.343  24.445  25.356  1.00  0.00     0.019 C 
ATOM     72  C   UNL A   1      34.695  23.373  24.484  1.00  0.00     0.103 C 
BRANCH  70  73
ATOM     73  S   UNL A   1      32.254  23.523  23.416  1.00  0.00     0.244 S 
ATOM     74  O   UNL A   1      32.979  22.906  22.327  1.00  0.00    -0.207 OA
ATOM     75  O   UNL A   1      30.951  23.001  23.778  1.00  0.00    -0.207 OA
BRANCH  73  76
ATOM     76  C   UNL A   1      32.048  25.248  23.008  1.00  0.00     0.090 A 
ATOM     77  C   UNL A   1      33.080  25.864  22.265  1.00  0.00     0.024 A 
ATOM     78  C   UNL A   1      30.831  25.971  23.240  1.00  0.00     0.005 A 
ATOM     79  C   UNL A   1      33.092  27.231  21.942  1.00  0.00     0.028 A 
ATOM     80  C   UNL A   1      30.879  27.291  22.876  1.00  0.00     0.019 A 
ATOM     81  C   UNL A   1      29.550  25.574  23.718  1.00  0.00     0.010 A 
ATOM     82  C   UNL A   1      31.956  27.920  22.293  1.00  0.00     0.050 A 
ATOM     83  C   UNL A   1      29.848  28.217  22.955  1.00  0.00     0.050 A 
ATOM     84  C   UNL A   1      28.463  26.476  23.779  1.00  0.00     0.002 A 
ATOM     85  N   UNL A   1      31.616  29.241  22.083  1.00  0.00    -0.321 N 
ATOM     86  C   UNL A   1      28.595  27.820  23.405  1.00  0.00     0.014 A 
ATOM     87  C   UNL A   1      30.298  29.510  22.472  1.00  0.00     0.256 C 
ATOM     88  H   UNL A   1      32.226  29.914  21.704  1.00  0.00     0.170 HD
ATOM     89  O   UNL A   1      29.753  30.595  22.373  1.00  0.00    -0.269 OA
ENDBRANCH  73  76
ENDBRANCH  70  73
ENDBRANCH  65  68
ENDBRANCH  63  64
ENDBRANCH   1  63
TORSDOF 12
ENDMDL
