MODEL 1
REMARK VINA RESULT:     -12.9      0.000      0.000
REMARK SMILES O=C(C[C@H]1S/C(=[NH+]\N=C\c2cc(Br)ccc2OCc2ccccc2)NC1=O)NCCCNC(=O)c1ccc(-c2c3nc(c(-c4c(F)cccc4F)c4ccc([nH]4)c(-c4c(F)cccc4F)c4nc(c(-c5c(F)cccc5F)c5ccc2[nH]5)C=C4)C=C3)cc1
REMARK SMILES IDX 1 1 2 2 28 3 3 5 4 6 5 7 26 8 6 9 25 10 27 11 7 12 8 15 9 16
REMARK SMILES IDX 10 17 11 18 16 19 12 20 15 21 13 22 14 23 17 24 18 25 19 26
REMARK SMILES IDX 20 27 24 28 21 29 23 30 22 31 29 32 30 33 31 34 32 35 33 36
REMARK SMILES IDX 34 38 35 39 36 40 88 41 37 42 87 43 38 44 39 45 40 46 81 47
REMARK SMILES IDX 41 48 86 49 80 50 82 51 42 52 85 53 79 54 78 55 43 57 69 58
REMARK SMILES IDX 52 59 68 60 53 61 56 62 67 63 83 64 54 65 55 66 66 68 84 69
REMARK SMILES IDX 57 70 44 71 45 72 50 73 46 74 47 75 49 76 51 77 48 78 70 79
REMARK SMILES IDX 71 80 76 81 72 82 73 83 75 84 77 85 74 86 58 87 59 88 64 89
REMARK SMILES IDX 60 90 61 91 63 92 65 93 62 94
REMARK H PARENT 28 4 25 13 7 14 32 37 82 56 56 67
REMARK Flexibility Score: inf
ROOT
ATOM      1  O   UNL A   1      31.487  27.722  27.159  1.00  0.00    -0.275 OA
ATOM      2  C   UNL A   1      31.418  28.300  26.081  1.00  0.00     0.221 C 
ATOM      3  N   UNL A   1      31.815  29.603  25.881  1.00  0.00    -0.356 N 
ATOM      4  H   UNL A   1      31.791  29.972  24.969  1.00  0.00     0.163 HD
ENDROOT
BRANCH   2   5
ATOM      5  C   UNL A   1      30.922  27.610  24.835  1.00  0.00     0.127 C 
BRANCH   5   6
ATOM      6  C   UNL A   1      31.812  27.950  23.643  1.00  0.00     0.183 C 
ATOM      7  S   UNL A   1      33.128  26.690  23.467  1.00  0.00    -0.020 SA
ATOM      8  C   UNL A   1      31.021  27.868  22.357  1.00  0.00     0.322 C 
ATOM      9  C   UNL A   1      32.358  25.977  22.084  1.00  0.00     0.337 C 
ATOM     10  N   UNL A   1      31.340  26.751  21.645  1.00  0.00    -0.202 N 
ATOM     11  O   UNL A   1      30.168  28.669  22.008  1.00  0.00    -0.246 OA
ATOM     12  N   UNL A   1      32.618  24.873  21.477  1.00  0.00    -0.142 N 
ATOM     13  H   UNL A   1      30.841  26.514  20.831  1.00  0.00     0.316 HD
ATOM     14  H   UNL A   1      32.105  24.579  20.689  1.00  0.00     0.343 HD
BRANCH  12  15
ATOM     15  N   UNL A   1      33.668  24.116  21.997  1.00  0.00    -0.093 NA
ATOM     16  C   UNL A   1      33.273  23.589  23.114  1.00  0.00     0.170 C 
BRANCH  16  17
ATOM     17  C   UNL A   1      34.100  22.698  23.930  1.00  0.00     0.040 A 
ATOM     18  C   UNL A   1      35.329  23.246  24.335  1.00  0.00     0.029 A 
ATOM     19  C   UNL A   1      33.701  21.433  24.387  1.00  0.00     0.128 A 
ATOM     20  C   UNL A   1      36.171  22.526  25.179  1.00  0.00     0.018 A 
ATOM     21  C   UNL A   1      34.603  20.704  25.182  1.00  0.00     0.048 A 
ATOM     22  Br  UNL A   1      37.771  23.310  25.807  1.00  0.00    -0.051 Br
ATOM     23  C   UNL A   1      35.824  21.245  25.588  1.00  0.00     0.019 A 
BRANCH  19  24
ATOM     24  O   UNL A   1      32.529  20.747  24.238  1.00  0.00    -0.488 OA
BRANCH  24  25
ATOM     25  C   UNL A   1      32.399  19.562  23.455  1.00  0.00     0.265 C 
BRANCH  25  26
ATOM     26  C   UNL A   1      32.898  18.275  24.089  1.00  0.00    -0.011 A 
ATOM     27  C   UNL A   1      33.847  17.512  23.388  1.00  0.00     0.007 A 
ATOM     28  C   UNL A   1      32.351  17.749  25.270  1.00  0.00     0.007 A 
ATOM     29  C   UNL A   1      34.147  16.210  23.793  1.00  0.00     0.000 A 
ATOM     30  C   UNL A   1      32.633  16.438  25.656  1.00  0.00     0.000 A 
ATOM     31  C   UNL A   1      33.515  15.663  24.908  1.00  0.00     0.000 A 
ENDBRANCH  25  26
ENDBRANCH  24  25
ENDBRANCH  19  24
ENDBRANCH  16  17
ENDBRANCH  12  15
ENDBRANCH   5   6
ENDBRANCH   2   5
BRANCH   3  32
ATOM     32  C   UNL A   1      32.266  30.451  26.967  1.00  0.00     0.117 C 
BRANCH  32  33
ATOM     33  C   UNL A   1      31.588  31.814  26.953  1.00  0.00     0.042 C 
BRANCH  33  34
ATOM     34  C   UNL A   1      32.510  32.973  26.583  1.00  0.00     0.118 C 
BRANCH  34  35
ATOM     35  N   UNL A   1      32.356  34.131  27.454  1.00  0.00    -0.352 N 
ATOM     36  C   UNL A   1      33.052  34.499  28.578  1.00  0.00     0.251 C 
ATOM     37  H   UNL A   1      31.635  34.750  27.193  1.00  0.00     0.163 HD
ATOM     38  O   UNL A   1      32.658  35.448  29.251  1.00  0.00    -0.269 OA
BRANCH  36  39
ATOM     39  C   UNL A   1      34.252  33.747  29.009  1.00  0.00     0.039 A 
ATOM     40  C   UNL A   1      35.510  34.322  28.805  1.00  0.00     0.014 A 
ATOM     41  C   UNL A   1      34.152  32.484  29.599  1.00  0.00     0.014 A 
ATOM     42  C   UNL A   1      36.656  33.673  29.270  1.00  0.00     0.010 A 
ATOM     43  C   UNL A   1      35.287  31.873  30.128  1.00  0.00     0.010 A 
ATOM     44  C   UNL A   1      36.550  32.468  29.983  1.00  0.00    -0.014 A 
BRANCH  44  45
ATOM     45  C   UNL A   1      37.739  31.847  30.624  1.00  0.00     0.031 A 
ATOM     46  C   UNL A   1      38.539  30.797  29.904  1.00  0.00     0.074 A 
ATOM     47  C   UNL A   1      38.054  32.180  31.891  1.00  0.00     0.049 A 
ATOM     48  N   UNL A   1      39.553  30.091  30.338  1.00  0.00    -0.248 NA
ATOM     49  C   UNL A   1      38.135  30.485  28.525  1.00  0.00     0.031 C 
ATOM     50  C   UNL A   1      37.335  33.156  32.713  1.00  0.00     0.029 A 
ATOM     51  N   UNL A   1      39.053  31.724  32.716  1.00  0.00    -0.354 N 
ATOM     52  C   UNL A   1      39.903  29.248  29.291  1.00  0.00     0.074 A 
ATOM     53  C   UNL A   1      38.962  29.495  28.220  1.00  0.00     0.031 C 
ATOM     54  C   UNL A   1      37.926  33.239  33.915  1.00  0.00     0.029 A 
ATOM     55  C   UNL A   1      39.033  32.290  33.968  1.00  0.00     0.049 A 
ATOM     56  H   UNL A   1      39.720  31.056  32.437  1.00  0.00     0.167 HD
ATOM     57  C   UNL A   1      40.926  28.361  29.223  1.00  0.00     0.037 A 
ATOM     58  C   UNL A   1      39.804  32.057  35.047  1.00  0.00     0.037 A 
ATOM     59  C   UNL A   1      41.866  28.121  30.289  1.00  0.00     0.049 A 
ATOM     60  C   UNL A   1      40.906  31.038  34.959  1.00  0.00     0.074 A 
ATOM     61  C   UNL A   1      42.967  27.283  30.293  1.00  0.00     0.029 A 
ATOM     62  N   UNL A   1      41.808  28.709  31.544  1.00  0.00    -0.354 N 
ATOM     63  N   UNL A   1      41.268  30.297  33.939  1.00  0.00    -0.248 NA
ATOM     64  C   UNL A   1      41.706  30.821  36.172  1.00  0.00     0.031 C 
ATOM     65  C   UNL A   1      43.541  27.318  31.568  1.00  0.00     0.029 A 
ATOM     66  C   UNL A   1      42.834  28.224  32.341  1.00  0.00     0.049 A 
ATOM     67  H   UNL A   1      41.138  29.373  31.827  1.00  0.00     0.167 HD
ATOM     68  C   UNL A   1      42.350  29.547  34.380  1.00  0.00     0.074 A 
ATOM     69  C   UNL A   1      42.599  29.937  35.751  1.00  0.00     0.031 C 
ATOM     70  C   UNL A   1      43.072  28.616  33.707  1.00  0.00     0.037 A 
BRANCH  57  71
ATOM     71  C   UNL A   1      41.081  27.574  27.952  1.00  0.00     0.057 A 
ATOM     72  C   UNL A   1      41.812  28.066  26.862  1.00  0.00     0.134 A 
ATOM     73  C   UNL A   1      40.531  26.292  27.834  1.00  0.00     0.134 A 
ATOM     74  F   UNL A   1      42.359  29.290  26.905  1.00  0.00    -0.206 F 
ATOM     75  C   UNL A   1      41.968  27.320  25.691  1.00  0.00     0.040 A 
ATOM     76  C   UNL A   1      40.704  25.526  26.678  1.00  0.00     0.040 A 
ATOM     77  F   UNL A   1      39.826  25.756  28.842  1.00  0.00    -0.206 F 
ATOM     78  C   UNL A   1      41.419  26.043  25.600  1.00  0.00     0.006 A 
ENDBRANCH  57  71
BRANCH  58  79
ATOM     79  C   UNL A   1      39.564  32.804  36.309  1.00  0.00     0.057 A 
ATOM     80  C   UNL A   1      38.676  32.319  37.278  1.00  0.00     0.134 A 
ATOM     81  C   UNL A   1      40.201  34.022  36.572  1.00  0.00     0.134 A 
ATOM     82  F   UNL A   1      38.019  31.169  37.075  1.00  0.00    -0.206 F 
ATOM     83  C   UNL A   1      38.417  33.028  38.452  1.00  0.00     0.040 A 
ATOM     84  C   UNL A   1      39.974  34.728  37.755  1.00  0.00     0.040 A 
ATOM     85  F   UNL A   1      41.068  34.538  35.689  1.00  0.00    -0.206 F 
ATOM     86  C   UNL A   1      39.071  34.234  38.695  1.00  0.00     0.006 A 
ENDBRANCH  58  79
BRANCH  70  87
ATOM     87  C   UNL A   1      44.215  27.973  34.439  1.00  0.00     0.057 A 
ATOM     88  C   UNL A   1      45.501  28.530  34.439  1.00  0.00     0.134 A 
ATOM     89  C   UNL A   1      44.021  26.798  35.177  1.00  0.00     0.134 A 
ATOM     90  F   UNL A   1      45.759  29.646  33.741  1.00  0.00    -0.206 F 
ATOM     91  C   UNL A   1      46.557  27.929  35.127  1.00  0.00     0.040 A 
ATOM     92  C   UNL A   1      45.062  26.205  35.894  1.00  0.00     0.040 A 
ATOM     93  F   UNL A   1      42.814  26.216  35.227  1.00  0.00    -0.206 F 
ATOM     94  C   UNL A   1      46.336  26.766  35.863  1.00  0.00     0.006 A 
ENDBRANCH  70  87
ENDBRANCH  44  45
ENDBRANCH  36  39
ENDBRANCH  34  35
ENDBRANCH  33  34
ENDBRANCH  32  33
ENDBRANCH   3  32
TORSDOF 16
ENDMDL
MODEL 2
REMARK VINA RESULT:     -12.8      0.500      5.950
REMARK SMILES O=C(C[C@H]1S/C(=[NH+]\N=C\c2cc(Br)ccc2OCc2ccccc2)NC1=O)NCCCNC(=O)c1ccc(-c2c3nc(c(-c4c(F)cccc4F)c4ccc([nH]4)c(-c4c(F)cccc4F)c4nc(c(-c5c(F)cccc5F)c5ccc2[nH]5)C=C4)C=C3)cc1
REMARK SMILES IDX 1 1 2 2 28 3 3 5 4 6 5 7 26 8 6 9 25 10 27 11 7 12 8 15 9 16
REMARK SMILES IDX 10 17 11 18 16 19 12 20 15 21 13 22 14 23 17 24 18 25 19 26
REMARK SMILES IDX 20 27 24 28 21 29 23 30 22 31 29 32 30 33 31 34 32 35 33 36
REMARK SMILES IDX 34 38 35 39 36 40 88 41 37 42 87 43 38 44 39 45 40 46 81 47
REMARK SMILES IDX 41 48 86 49 80 50 82 51 42 52 85 53 79 54 78 55 43 57 69 58
REMARK SMILES IDX 52 59 68 60 53 61 56 62 67 63 83 64 54 65 55 66 66 68 84 69
REMARK SMILES IDX 57 70 44 71 45 72 50 73 46 74 47 75 49 76 51 77 48 78 70 79
REMARK SMILES IDX 71 80 76 81 72 82 73 83 75 84 77 85 74 86 58 87 59 88 64 89
REMARK SMILES IDX 60 90 61 91 63 92 65 93 62 94
REMARK H PARENT 28 4 25 13 7 14 32 37 82 56 56 67
REMARK Flexibility Score: inf
ROOT
ATOM      1  O   UNL A   1      31.411  28.003  27.187  1.00  0.00    -0.275 OA
ATOM      2  C   UNL A   1      31.388  28.632  26.136  1.00  0.00     0.221 C 
ATOM      3  N   UNL A   1      31.888  29.906  25.991  1.00  0.00    -0.356 N 
ATOM      4  H   UNL A   1      31.893  30.316  25.096  1.00  0.00     0.163 HD
ENDROOT
BRANCH   2   5
ATOM      5  C   UNL A   1      30.836  28.039  24.863  1.00  0.00     0.127 C 
BRANCH   5   6
ATOM      6  C   UNL A   1      31.728  28.394  23.677  1.00  0.00     0.183 C 
ATOM      7  S   UNL A   1      33.173  27.272  23.623  1.00  0.00    -0.020 SA
ATOM      8  C   UNL A   1      30.995  28.146  22.377  1.00  0.00     0.322 C 
ATOM      9  C   UNL A   1      32.530  26.393  22.270  1.00  0.00     0.337 C 
ATOM     10  N   UNL A   1      31.453  27.026  21.752  1.00  0.00    -0.202 N 
ATOM     11  O   UNL A   1      30.077  28.828  21.951  1.00  0.00    -0.246 OA
ATOM     12  N   UNL A   1      32.924  25.287  21.747  1.00  0.00    -0.142 N 
ATOM     13  H   UNL A   1      31.010  26.685  20.942  1.00  0.00     0.316 HD
ATOM     14  H   UNL A   1      32.472  24.890  20.967  1.00  0.00     0.343 HD
BRANCH  12  15
ATOM     15  N   UNL A   1      34.028  24.680  22.346  1.00  0.00    -0.093 NA
ATOM     16  C   UNL A   1      33.597  23.767  23.159  1.00  0.00     0.170 C 
BRANCH  16  17
ATOM     17  C   UNL A   1      34.474  22.895  23.943  1.00  0.00     0.040 A 
ATOM     18  C   UNL A   1      35.603  23.533  24.484  1.00  0.00     0.029 A 
ATOM     19  C   UNL A   1      34.204  21.553  24.247  1.00  0.00     0.128 A 
ATOM     20  C   UNL A   1      36.473  22.830  25.313  1.00  0.00     0.018 A 
ATOM     21  C   UNL A   1      35.138  20.852  25.030  1.00  0.00     0.048 A 
ATOM     22  Br  UNL A   1      37.928  23.720  26.126  1.00  0.00    -0.051 Br
ATOM     23  C   UNL A   1      36.258  21.483  25.572  1.00  0.00     0.019 A 
BRANCH  19  24
ATOM     24  O   UNL A   1      33.133  20.757  23.950  1.00  0.00    -0.488 OA
BRANCH  24  25
ATOM     25  C   UNL A   1      32.524  19.867  24.883  1.00  0.00     0.265 C 
BRANCH  25  26
ATOM     26  C   UNL A   1      32.808  18.388  24.689  1.00  0.00    -0.011 A 
ATOM     27  C   UNL A   1      32.528  17.511  25.751  1.00  0.00     0.007 A 
ATOM     28  C   UNL A   1      33.464  17.883  23.556  1.00  0.00     0.007 A 
ATOM     29  C   UNL A   1      33.001  16.198  25.728  1.00  0.00     0.000 A 
ATOM     30  C   UNL A   1      33.958  16.578  23.548  1.00  0.00     0.000 A 
ATOM     31  C   UNL A   1      33.743  15.743  24.641  1.00  0.00     0.000 A 
ENDBRANCH  25  26
ENDBRANCH  24  25
ENDBRANCH  19  24
ENDBRANCH  16  17
ENDBRANCH  12  15
ENDBRANCH   5   6
ENDBRANCH   2   5
BRANCH   3  32
ATOM     32  C   UNL A   1      32.406  30.666  27.111  1.00  0.00     0.117 C 
BRANCH  32  33
ATOM     33  C   UNL A   1      31.726  32.022  27.251  1.00  0.00     0.042 C 
BRANCH  33  34
ATOM     34  C   UNL A   1      32.552  33.198  26.735  1.00  0.00     0.118 C 
BRANCH  34  35
ATOM     35  N   UNL A   1      32.532  34.351  27.626  1.00  0.00    -0.352 N 
ATOM     36  C   UNL A   1      33.278  34.625  28.745  1.00  0.00     0.251 C 
ATOM     37  H   UNL A   1      31.877  35.045  27.386  1.00  0.00     0.163 HD
ATOM     38  O   UNL A   1      32.994  35.598  29.439  1.00  0.00    -0.269 OA
BRANCH  36  39
ATOM     39  C   UNL A   1      34.398  33.745  29.146  1.00  0.00     0.039 A 
ATOM     40  C   UNL A   1      35.706  34.203  28.962  1.00  0.00     0.014 A 
ATOM     41  C   UNL A   1      34.175  32.476  29.688  1.00  0.00     0.014 A 
ATOM     42  C   UNL A   1      36.783  33.429  29.402  1.00  0.00     0.010 A 
ATOM     43  C   UNL A   1      35.245  31.738  30.193  1.00  0.00     0.010 A 
ATOM     44  C   UNL A   1      36.559  32.213  30.068  1.00  0.00    -0.014 A 
BRANCH  44  45
ATOM     45  C   UNL A   1      37.681  31.457  30.684  1.00  0.00     0.031 A 
ATOM     46  C   UNL A   1      38.090  31.713  32.108  1.00  0.00     0.074 A 
ATOM     47  C   UNL A   1      38.382  30.587  29.931  1.00  0.00     0.049 A 
ATOM     48  N   UNL A   1      39.092  31.207  32.782  1.00  0.00    -0.248 NA
ATOM     49  C   UNL A   1      37.279  32.676  32.868  1.00  0.00     0.031 C 
ATOM     50  C   UNL A   1      38.112  30.277  28.525  1.00  0.00     0.029 A 
ATOM     51  N   UNL A   1      39.474  29.813  30.236  1.00  0.00    -0.354 N 
ATOM     52  C   UNL A   1      39.038  31.795  34.040  1.00  0.00     0.074 A 
ATOM     53  C   UNL A   1      37.934  32.731  34.019  1.00  0.00     0.031 C 
ATOM     54  C   UNL A   1      39.001  29.367  28.097  1.00  0.00     0.029 A 
ATOM     55  C   UNL A   1      39.933  29.066  29.178  1.00  0.00     0.049 A 
ATOM     56  H   UNL A   1      39.891  29.795  31.129  1.00  0.00     0.167 HD
ATOM     57  C   UNL A   1      39.826  31.563  35.118  1.00  0.00     0.037 A 
ATOM     58  C   UNL A   1      40.995  28.245  29.080  1.00  0.00     0.037 A 
ATOM     59  C   UNL A   1      40.921  30.626  35.139  1.00  0.00     0.049 A 
ATOM     60  C   UNL A   1      41.878  28.037  30.278  1.00  0.00     0.074 A 
ATOM     61  C   UNL A   1      41.739  30.282  36.200  1.00  0.00     0.029 A 
ATOM     62  N   UNL A   1      41.356  29.892  34.045  1.00  0.00    -0.354 N 
ATOM     63  N   UNL A   1      41.774  28.548  31.482  1.00  0.00    -0.248 NA
ATOM     64  C   UNL A   1      43.028  27.138  30.107  1.00  0.00     0.031 C 
ATOM     65  C   UNL A   1      42.708  29.387  35.735  1.00  0.00     0.029 A 
ATOM     66  C   UNL A   1      42.456  29.125  34.398  1.00  0.00     0.049 A 
ATOM     67  H   UNL A   1      40.946  29.914  33.150  1.00  0.00     0.167 HD
ATOM     68  C   UNL A   1      42.827  28.015  32.214  1.00  0.00     0.074 A 
ATOM     69  C   UNL A   1      43.545  27.125  31.327  1.00  0.00     0.031 C 
ATOM     70  C   UNL A   1      43.167  28.245  33.506  1.00  0.00     0.037 A 
BRANCH  57  71
ATOM     71  C   UNL A   1      39.538  32.343  36.370  1.00  0.00     0.057 A 
ATOM     72  C   UNL A   1      40.250  33.504  36.699  1.00  0.00     0.134 A 
ATOM     73  C   UNL A   1      38.506  31.952  37.234  1.00  0.00     0.134 A 
ATOM     74  F   UNL A   1      41.256  33.930  35.921  1.00  0.00    -0.206 F 
ATOM     75  C   UNL A   1      39.964  34.234  37.856  1.00  0.00     0.040 A 
ATOM     76  C   UNL A   1      38.193  32.690  38.378  1.00  0.00     0.040 A 
ATOM     77  F   UNL A   1      37.778  30.856  36.975  1.00  0.00    -0.206 F 
ATOM     78  C   UNL A   1      38.927  33.831  38.695  1.00  0.00     0.006 A 
ENDBRANCH  57  71
BRANCH  58  79
ATOM     79  C   UNL A   1      41.288  27.555  27.797  1.00  0.00     0.057 A 
ATOM     80  C   UNL A   1      40.835  26.252  27.557  1.00  0.00     0.134 A 
ATOM     81  C   UNL A   1      42.036  28.172  26.787  1.00  0.00     0.134 A 
ATOM     82  F   UNL A   1      40.132  25.599  28.493  1.00  0.00    -0.206 F 
ATOM     83  C   UNL A   1      41.132  25.581  26.370  1.00  0.00     0.040 A 
ATOM     84  C   UNL A   1      42.316  27.525  25.583  1.00  0.00     0.040 A 
ATOM     85  F   UNL A   1      42.494  29.422  26.950  1.00  0.00    -0.206 F 
ATOM     86  C   UNL A   1      41.871  26.221  25.376  1.00  0.00     0.006 A 
ENDBRANCH  58  79
BRANCH  70  87
ATOM     87  C   UNL A   1      44.357  27.503  34.045  1.00  0.00     0.057 A 
ATOM     88  C   UNL A   1      44.243  26.219  34.595  1.00  0.00     0.134 A 
ATOM     89  C   UNL A   1      45.639  28.067  33.985  1.00  0.00     0.134 A 
ATOM     90  F   UNL A   1      43.044  25.627  34.696  1.00  0.00    -0.206 F 
ATOM     91  C   UNL A   1      45.356  25.534  35.088  1.00  0.00     0.040 A 
ATOM     92  C   UNL A   1      46.762  27.379  34.447  1.00  0.00     0.040 A 
ATOM     93  F   UNL A   1      45.822  29.289  33.464  1.00  0.00    -0.206 F 
ATOM     94  C   UNL A   1      46.621  26.112  35.008  1.00  0.00     0.006 A 
ENDBRANCH  70  87
ENDBRANCH  44  45
ENDBRANCH  36  39
ENDBRANCH  34  35
ENDBRANCH  33  34
ENDBRANCH  32  33
ENDBRANCH   3  32
TORSDOF 16
ENDMDL
MODEL 3
REMARK VINA RESULT:     -12.5      4.635      6.922
REMARK SMILES O=C(C[C@H]1S/C(=[NH+]\N=C\c2cc(Br)ccc2OCc2ccccc2)NC1=O)NCCCNC(=O)c1ccc(-c2c3nc(c(-c4c(F)cccc4F)c4ccc([nH]4)c(-c4c(F)cccc4F)c4nc(c(-c5c(F)cccc5F)c5ccc2[nH]5)C=C4)C=C3)cc1
REMARK SMILES IDX 1 1 2 2 28 3 3 5 4 6 5 7 26 8 6 9 25 10 27 11 7 12 8 15 9 16
REMARK SMILES IDX 10 17 11 18 16 19 12 20 15 21 13 22 14 23 17 24 18 25 19 26
REMARK SMILES IDX 20 27 24 28 21 29 23 30 22 31 29 32 30 33 31 34 32 35 33 36
REMARK SMILES IDX 34 38 35 39 36 40 88 41 37 42 87 43 38 44 39 45 40 46 81 47
REMARK SMILES IDX 41 48 86 49 80 50 82 51 42 52 85 53 79 54 78 55 43 57 69 58
REMARK SMILES IDX 52 59 68 60 53 61 56 62 67 63 83 64 54 65 55 66 66 68 84 69
REMARK SMILES IDX 57 70 44 71 45 72 50 73 46 74 47 75 49 76 51 77 48 78 70 79
REMARK SMILES IDX 71 80 76 81 72 82 73 83 75 84 77 85 74 86 58 87 59 88 64 89
REMARK SMILES IDX 60 90 61 91 63 92 65 93 62 94
REMARK H PARENT 28 4 25 13 7 14 32 37 82 56 56 67
REMARK Flexibility Score: inf
ROOT
ATOM      1  O   UNL A   1      31.581  31.989  26.684  1.00  0.00    -0.275 OA
ATOM      2  C   UNL A   1      32.239  31.017  27.036  1.00  0.00     0.221 C 
ATOM      3  N   UNL A   1      33.432  31.102  27.718  1.00  0.00    -0.356 N 
ATOM      4  H   UNL A   1      33.864  30.273  28.025  1.00  0.00     0.163 HD
ENDROOT
BRANCH   2   5
ATOM      5  C   UNL A   1      31.772  29.605  26.788  1.00  0.00     0.127 C 
BRANCH   5   6
ATOM      6  C   UNL A   1      32.244  29.116  25.422  1.00  0.00     0.183 C 
ATOM      7  S   UNL A   1      33.064  27.488  25.589  1.00  0.00    -0.020 SA
ATOM      8  C   UNL A   1      31.059  28.862  24.517  1.00  0.00     0.322 C 
ATOM      9  C   UNL A   1      31.710  26.655  24.893  1.00  0.00     0.337 C 
ATOM     10  N   UNL A   1      30.826  27.530  24.362  1.00  0.00    -0.202 N 
ATOM     11  O   UNL A   1      30.362  29.731  24.017  1.00  0.00    -0.246 OA
ATOM     12  N   UNL A   1      31.463  25.394  24.834  1.00  0.00    -0.142 N 
ATOM     13  H   UNL A   1      30.031  27.211  23.875  1.00  0.00     0.316 HD
ATOM     14  H   UNL A   1      30.652  25.042  24.400  1.00  0.00     0.343 HD
BRANCH  12  15
ATOM     15  N   UNL A   1      32.409  24.553  25.419  1.00  0.00    -0.093 NA
ATOM     16  C   UNL A   1      32.959  23.846  24.481  1.00  0.00     0.170 C 
BRANCH  16  17
ATOM     17  C   UNL A   1      34.028  22.873  24.716  1.00  0.00     0.040 A 
ATOM     18  C   UNL A   1      35.278  23.438  25.020  1.00  0.00     0.029 A 
ATOM     19  C   UNL A   1      33.850  21.482  24.749  1.00  0.00     0.128 A 
ATOM     20  C   UNL A   1      36.356  22.617  25.340  1.00  0.00     0.018 A 
ATOM     21  C   UNL A   1      34.975  20.679  25.007  1.00  0.00     0.048 A 
ATOM     22  Br  UNL A   1      38.004  23.384  25.855  1.00  0.00    -0.051 Br
ATOM     23  C   UNL A   1      36.217  21.236  25.313  1.00  0.00     0.019 A 
BRANCH  19  24
ATOM     24  O   UNL A   1      32.730  20.711  24.612  1.00  0.00    -0.488 OA
BRANCH  24  25
ATOM     25  C   UNL A   1      32.559  19.738  23.583  1.00  0.00     0.265 C 
BRANCH  25  26
ATOM     26  C   UNL A   1      32.841  18.295  23.965  1.00  0.00    -0.011 A 
ATOM     27  C   UNL A   1      32.502  17.871  25.261  1.00  0.00     0.007 A 
ATOM     28  C   UNL A   1      33.548  17.414  23.133  1.00  0.00     0.007 A 
ATOM     29  C   UNL A   1      32.965  16.648  25.749  1.00  0.00     0.000 A 
ATOM     30  C   UNL A   1      34.033  16.204  23.633  1.00  0.00     0.000 A 
ATOM     31  C   UNL A   1      33.757  15.831  24.946  1.00  0.00     0.000 A 
ENDBRANCH  25  26
ENDBRANCH  24  25
ENDBRANCH  19  24
ENDBRANCH  16  17
ENDBRANCH  12  15
ENDBRANCH   5   6
ENDBRANCH   2   5
BRANCH   3  32
ATOM     32  C   UNL A   1      34.074  32.371  27.999  1.00  0.00     0.117 C 
BRANCH  32  33
ATOM     33  C   UNL A   1      35.593  32.255  28.022  1.00  0.00     0.042 C 
BRANCH  33  34
ATOM     34  C   UNL A   1      36.219  32.440  29.402  1.00  0.00     0.118 C 
BRANCH  34  35
ATOM     35  N   UNL A   1      35.934  31.341  30.315  1.00  0.00    -0.352 N 
ATOM     36  C   UNL A   1      36.651  30.205  30.595  1.00  0.00     0.251 C 
ATOM     37  H   UNL A   1      35.088  31.429  30.812  1.00  0.00     0.163 HD
ATOM     38  O   UNL A   1      36.151  29.330  31.297  1.00  0.00    -0.269 OA
BRANCH  36  39
ATOM     39  C   UNL A   1      38.007  30.006  30.035  1.00  0.00     0.039 A 
ATOM     40  C   UNL A   1      39.099  30.021  30.908  1.00  0.00     0.014 A 
ATOM     41  C   UNL A   1      38.213  29.816  28.666  1.00  0.00     0.014 A 
ATOM     42  C   UNL A   1      40.382  29.759  30.422  1.00  0.00     0.010 A 
ATOM     43  C   UNL A   1      39.481  29.482  28.194  1.00  0.00     0.010 A 
ATOM     44  C   UNL A   1      40.577  29.435  29.069  1.00  0.00    -0.014 A 
BRANCH  44  45
ATOM     45  C   UNL A   1      41.906  28.996  28.569  1.00  0.00     0.031 A 
ATOM     46  C   UNL A   1      42.148  27.563  28.186  1.00  0.00     0.074 A 
ATOM     47  C   UNL A   1      42.921  29.882  28.529  1.00  0.00     0.049 A 
ATOM     48  N   UNL A   1      43.262  26.986  27.808  1.00  0.00    -0.248 NA
ATOM     49  C   UNL A   1      40.994  26.655  28.255  1.00  0.00     0.031 C 
ATOM     50  C   UNL A   1      42.828  31.293  28.910  1.00  0.00     0.029 A 
ATOM     51  N   UNL A   1      44.235  29.724  28.163  1.00  0.00    -0.354 N 
ATOM     52  C   UNL A   1      42.945  25.649  27.603  1.00  0.00     0.074 A 
ATOM     53  C   UNL A   1      41.548  25.491  27.945  1.00  0.00     0.031 C 
ATOM     54  C   UNL A   1      44.026  31.874  28.741  1.00  0.00     0.029 A 
ATOM     55  C   UNL A   1      44.983  30.871  28.288  1.00  0.00     0.049 A 
ATOM     56  H   UNL A   1      44.608  28.871  27.842  1.00  0.00     0.167 HD
ATOM     57  C   UNL A   1      43.742  24.649  27.154  1.00  0.00     0.037 A 
ATOM     58  C   UNL A   1      46.295  31.088  28.081  1.00  0.00     0.037 A 
ATOM     59  C   UNL A   1      45.132  24.810  26.807  1.00  0.00     0.049 A 
ATOM     60  C   UNL A   1      47.167  29.952  27.623  1.00  0.00     0.074 A 
ATOM     61  C   UNL A   1      46.005  23.869  26.291  1.00  0.00     0.029 A 
ATOM     62  N   UNL A   1      45.853  25.986  26.952  1.00  0.00    -0.354 N 
ATOM     63  N   UNL A   1      46.838  28.708  27.367  1.00  0.00    -0.248 NA
ATOM     64  C   UNL A   1      48.592  30.249  27.425  1.00  0.00     0.031 C 
ATOM     65  C   UNL A   1      47.270  24.457  26.180  1.00  0.00     0.029 A 
ATOM     66  C   UNL A   1      47.171  25.783  26.570  1.00  0.00     0.049 A 
ATOM     67  H   UNL A   1      45.485  26.839  27.280  1.00  0.00     0.167 HD
ATOM     68  C   UNL A   1      48.008  28.083  26.956  1.00  0.00     0.074 A 
ATOM     69  C   UNL A   1      49.049  29.088  26.976  1.00  0.00     0.031 C 
ATOM     70  C   UNL A   1      48.201  26.790  26.597  1.00  0.00     0.037 A 
BRANCH  57  71
ATOM     71  C   UNL A   1      43.133  23.283  27.016  1.00  0.00     0.057 A 
ATOM     72  C   UNL A   1      42.857  22.479  28.132  1.00  0.00     0.134 A 
ATOM     73  C   UNL A   1      42.777  22.782  25.758  1.00  0.00     0.134 A 
ATOM     74  F   UNL A   1      43.179  22.894  29.365  1.00  0.00    -0.206 F 
ATOM     75  C   UNL A   1      42.273  21.217  27.997  1.00  0.00     0.040 A 
ATOM     76  C   UNL A   1      42.167  21.534  25.613  1.00  0.00     0.040 A 
ATOM     77  F   UNL A   1      43.004  23.501  24.648  1.00  0.00    -0.206 F 
ATOM     78  C   UNL A   1      41.919  20.745  26.735  1.00  0.00     0.006 A 
ENDBRANCH  57  71
BRANCH  58  79
ATOM     79  C   UNL A   1      46.871  32.440  28.306  1.00  0.00     0.057 A 
ATOM     80  C   UNL A   1      47.459  32.780  29.530  1.00  0.00     0.134 A 
ATOM     81  C   UNL A   1      46.835  33.425  27.312  1.00  0.00     0.134 A 
ATOM     82  F   UNL A   1      47.506  31.887  30.528  1.00  0.00    -0.206 F 
ATOM     83  C   UNL A   1      47.973  34.057  29.764  1.00  0.00     0.040 A 
ATOM     84  C   UNL A   1      47.370  34.697  27.522  1.00  0.00     0.040 A 
ATOM     85  F   UNL A   1      46.291  33.162  26.115  1.00  0.00    -0.206 F 
ATOM     86  C   UNL A   1      47.934  35.018  28.756  1.00  0.00     0.006 A 
ENDBRANCH  58  79
BRANCH  70  87
ATOM     87  C   UNL A   1      49.587  26.395  26.171  1.00  0.00     0.057 A 
ATOM     88  C   UNL A   1      50.445  25.678  27.015  1.00  0.00     0.134 A 
ATOM     89  C   UNL A   1      50.057  26.709  24.888  1.00  0.00     0.134 A 
ATOM     90  F   UNL A   1      50.063  25.358  28.260  1.00  0.00    -0.206 F 
ATOM     91  C   UNL A   1      51.729  25.309  26.608  1.00  0.00     0.040 A 
ATOM     92  C   UNL A   1      51.327  26.319  24.460  1.00  0.00     0.040 A 
ATOM     93  F   UNL A   1      49.285  27.386  24.026  1.00  0.00    -0.206 F 
ATOM     94  C   UNL A   1      52.170  25.624  25.324  1.00  0.00     0.006 A 
ENDBRANCH  70  87
ENDBRANCH  44  45
ENDBRANCH  36  39
ENDBRANCH  34  35
ENDBRANCH  33  34
ENDBRANCH  32  33
ENDBRANCH   3  32
TORSDOF 16
ENDMDL
