MODEL 1
REMARK VINA RESULT:     -11.6      0.000      0.000
REMARK SMILES CCc1ccc(NC(=O)c2c(C(=O)NCCCNC(=O)c3ccc(-c4c5nc(c(-c6c(F)cccc6F)c6ccc([nH]6)c(-c6c(F)cccc6F)c6nc(c(-c7c(F)cccc7F)c7ccc4[nH]7)C=C6)C=C5)cc3)cnn2C)cc1
REMARK SMILES IDX 15 1 14 2 12 3 13 4 11 6 10 7 77 8 75 9 76 10 78 11 8 12
REMARK SMILES IDX 7 13 9 15 6 16 3 17 4 18 80 19 5 20 79 21 2 22 1 23 16 24
REMARK SMILES IDX 17 25 18 26 19 27 20 29 21 30 22 31 74 32 23 33 73 34 24 35
REMARK SMILES IDX 25 36 26 37 67 38 27 39 72 40 66 41 68 42 28 43 71 44 65 45
REMARK SMILES IDX 64 46 29 48 55 49 38 50 54 51 39 52 42 53 53 54 69 55 40 56
REMARK SMILES IDX 41 57 52 59 70 60 43 61 30 62 31 63 36 64 32 65 33 66 35 67
REMARK SMILES IDX 37 68 34 69 56 70 57 71 62 72 58 73 59 74 61 75 63 76 60 77
REMARK SMILES IDX 44 78 45 79 50 80 46 81 47 82 49 83 51 84 48 85
REMARK H PARENT 14 5 7 14 18 28 68 47 42 58
REMARK Flexibility Score: inf
ROOT
ATOM      1  C   UNL A   1      36.385  20.452  24.993  1.00  0.00     0.118 C 
ENDROOT
BRANCH   1   2
ATOM      2  N   UNL A   1      36.643  21.847  25.223  1.00  0.00    -0.352 N 
ATOM      3  C   UNL A   1      35.909  22.856  25.782  1.00  0.00     0.255 C 
ATOM      4  O   UNL A   1      36.513  23.933  25.847  1.00  0.00    -0.269 OA
ATOM      5  H   UNL A   1      37.531  22.136  24.913  1.00  0.00     0.163 HD
BRANCH   3   6
ATOM      6  C   UNL A   1      34.530  22.779  26.264  1.00  0.00     0.090 A 
ATOM      7  C   UNL A   1      33.256  23.153  25.822  1.00  0.00     0.138 A 
ATOM      8  N   UNL A   1      32.376  22.744  26.801  1.00  0.00    -0.262 N 
ATOM      9  C   UNL A   1      34.257  22.208  27.545  1.00  0.00     0.149 A 
ATOM     10  N   UNL A   1      32.970  22.211  27.877  1.00  0.00    -0.180 NA
ATOM     11  C   UNL A   1      30.938  22.907  26.830  1.00  0.00     0.174 C 
BRANCH   7  12
ATOM     12  C   UNL A   1      32.773  23.775  24.624  1.00  0.00     0.274 C 
ATOM     13  N   UNL A   1      32.641  25.150  24.539  1.00  0.00    -0.321 N 
ATOM     14  H   UNL A   1      32.481  25.483  23.627  1.00  0.00     0.170 HD
ATOM     15  O   UNL A   1      32.443  23.113  23.639  1.00  0.00    -0.267 OA
BRANCH  13  16
ATOM     16  C   UNL A   1      32.693  26.160  25.519  1.00  0.00     0.041 A 
ATOM     17  C   UNL A   1      32.733  28.636  26.843  1.00  0.00    -0.048 A 
ATOM     18  C   UNL A   1      31.626  27.792  26.946  1.00  0.00     0.006 A 
ATOM     19  C   UNL A   1      33.885  28.154  26.214  1.00  0.00     0.006 A 
ATOM     20  C   UNL A   1      31.626  26.545  26.323  1.00  0.00     0.026 A 
ATOM     21  C   UNL A   1      33.870  26.915  25.566  1.00  0.00     0.026 A 
BRANCH  17  22
ATOM     22  C   UNL A   1      32.646  30.071  27.299  1.00  0.00     0.032 C 
ATOM     23  C   UNL A   1      31.744  30.938  26.439  1.00  0.00     0.009 C 
ENDBRANCH  17  22
ENDBRANCH  13  16
ENDBRANCH   7  12
ENDBRANCH   3   6
ENDBRANCH   1   2
BRANCH   1  24
ATOM     24  C   UNL A   1      37.635  19.600  24.943  1.00  0.00     0.042 C 
BRANCH  24  25
ATOM     25  C   UNL A   1      38.793  20.211  25.703  1.00  0.00     0.118 C 
BRANCH  25  26
ATOM     26  N   UNL A   1      39.945  19.316  25.773  1.00  0.00    -0.352 N 
ATOM     27  C   UNL A   1      41.268  19.565  26.050  1.00  0.00     0.251 C 
ATOM     28  H   UNL A   1      39.737  18.371  25.593  1.00  0.00     0.163 HD
ATOM     29  O   UNL A   1      42.107  18.696  25.846  1.00  0.00    -0.269 OA
BRANCH  27  30
ATOM     30  C   UNL A   1      41.685  20.883  26.571  1.00  0.00     0.039 A 
ATOM     31  C   UNL A   1      42.138  21.860  25.681  1.00  0.00     0.014 A 
ATOM     32  C   UNL A   1      41.639  21.155  27.938  1.00  0.00     0.014 A 
ATOM     33  C   UNL A   1      42.467  23.130  26.160  1.00  0.00     0.010 A 
ATOM     34  C   UNL A   1      41.827  22.451  28.391  1.00  0.00     0.010 A 
ATOM     35  C   UNL A   1      42.270  23.447  27.513  1.00  0.00    -0.014 A 
BRANCH  35  36
ATOM     36  C   UNL A   1      42.565  24.796  28.055  1.00  0.00     0.031 A 
ATOM     37  C   UNL A   1      43.972  25.147  28.458  1.00  0.00     0.074 A 
ATOM     38  C   UNL A   1      41.561  25.671  28.255  1.00  0.00     0.049 A 
ATOM     39  N   UNL A   1      44.424  26.236  29.028  1.00  0.00    -0.248 NA
ATOM     40  C   UNL A   1      45.002  24.122  28.228  1.00  0.00     0.031 C 
ATOM     41  C   UNL A   1      40.150  25.430  27.951  1.00  0.00     0.029 A 
ATOM     42  N   UNL A   1      41.578  26.944  28.765  1.00  0.00    -0.354 N 
ATOM     43  C   UNL A   1      45.779  26.012  29.241  1.00  0.00     0.074 A 
ATOM     44  C   UNL A   1      46.059  24.660  28.816  1.00  0.00     0.031 C 
ATOM     45  C   UNL A   1      39.444  26.536  28.236  1.00  0.00     0.029 A 
ATOM     46  C   UNL A   1      40.343  27.545  28.785  1.00  0.00     0.049 A 
ATOM     47  H   UNL A   1      42.397  27.386  29.086  1.00  0.00     0.167 HD
ATOM     48  C   UNL A   1      46.716  26.868  29.712  1.00  0.00     0.037 A 
ATOM     49  C   UNL A   1      39.981  28.773  29.200  1.00  0.00     0.037 A 
ATOM     50  C   UNL A   1      46.437  28.222  30.109  1.00  0.00     0.049 A 
ATOM     51  C   UNL A   1      41.034  29.698  29.744  1.00  0.00     0.074 A 
ATOM     52  C   UNL A   1      47.317  29.192  30.549  1.00  0.00     0.029 A 
ATOM     53  N   UNL A   1      45.172  28.793  30.114  1.00  0.00    -0.354 N 
ATOM     54  N   UNL A   1      42.324  29.501  29.876  1.00  0.00    -0.248 NA
ATOM     55  C   UNL A   1      40.579  31.021  30.194  1.00  0.00     0.031 C 
ATOM     56  C   UNL A   1      46.579  30.336  30.872  1.00  0.00     0.029 A 
ATOM     57  C   UNL A   1      45.245  30.096  30.575  1.00  0.00     0.049 A 
ATOM     58  H   UNL A   1      44.345  28.340  29.832  1.00  0.00     0.167 HD
ATOM     59  C   UNL A   1      42.840  30.685  30.387  1.00  0.00     0.074 A 
ATOM     60  C   UNL A   1      41.723  31.598  30.532  1.00  0.00     0.031 C 
ATOM     61  C   UNL A   1      44.122  30.993  30.703  1.00  0.00     0.037 A 
BRANCH  48  62
ATOM     62  C   UNL A   1      48.124  26.352  29.819  1.00  0.00     0.057 A 
ATOM     63  C   UNL A   1      48.608  25.747  30.989  1.00  0.00     0.134 A 
ATOM     64  C   UNL A   1      49.013  26.470  28.743  1.00  0.00     0.134 A 
ATOM     65  F   UNL A   1      47.815  25.614  32.063  1.00  0.00    -0.206 F 
ATOM     66  C   UNL A   1      49.933  25.323  31.101  1.00  0.00     0.040 A 
ATOM     67  C   UNL A   1      50.331  26.017  28.831  1.00  0.00     0.040 A 
ATOM     68  F   UNL A   1      48.619  27.032  27.591  1.00  0.00    -0.206 F 
ATOM     69  C   UNL A   1      50.798  25.454  30.017  1.00  0.00     0.006 A 
ENDBRANCH  48  62
BRANCH  49  70
ATOM     70  C   UNL A   1      38.571  29.217  29.071  1.00  0.00     0.057 A 
ATOM     71  C   UNL A   1      37.704  29.172  30.171  1.00  0.00     0.134 A 
ATOM     72  C   UNL A   1      38.050  29.691  27.862  1.00  0.00     0.134 A 
ATOM     73  F   UNL A   1      38.140  28.713  31.354  1.00  0.00    -0.206 F 
ATOM     74  C   UNL A   1      36.368  29.563  30.068  1.00  0.00     0.040 A 
ATOM     75  C   UNL A   1      36.722  30.110  27.750  1.00  0.00     0.040 A 
ATOM     76  F   UNL A   1      38.829  29.769  26.773  1.00  0.00    -0.206 F 
ATOM     77  C   UNL A   1      35.876  30.038  28.855  1.00  0.00     0.006 A 
ENDBRANCH  49  70
BRANCH  61  78
ATOM     78  C   UNL A   1      44.394  32.386  31.191  1.00  0.00     0.057 A 
ATOM     79  C   UNL A   1      44.401  32.710  32.553  1.00  0.00     0.134 A 
ATOM     80  C   UNL A   1      44.689  33.411  30.282  1.00  0.00     0.134 A 
ATOM     81  F   UNL A   1      44.113  31.779  33.476  1.00  0.00    -0.206 F 
ATOM     82  C   UNL A   1      44.665  34.009  32.992  1.00  0.00     0.040 A 
ATOM     83  C   UNL A   1      44.986  34.704  30.710  1.00  0.00     0.040 A 
ATOM     84  F   UNL A   1      44.709  33.166  28.963  1.00  0.00    -0.206 F 
ATOM     85  C   UNL A   1      44.967  35.007  32.069  1.00  0.00     0.006 A 
ENDBRANCH  61  78
ENDBRANCH  35  36
ENDBRANCH  27  30
ENDBRANCH  25  26
ENDBRANCH  24  25
ENDBRANCH   1  24
TORSDOF 13
ENDMDL
MODEL 2
REMARK VINA RESULT:     -11.5      1.243      6.299
REMARK SMILES CCc1ccc(NC(=O)c2c(C(=O)NCCCNC(=O)c3ccc(-c4c5nc(c(-c6c(F)cccc6F)c6ccc([nH]6)c(-c6c(F)cccc6F)c6nc(c(-c7c(F)cccc7F)c7ccc4[nH]7)C=C6)C=C5)cc3)cnn2C)cc1
REMARK SMILES IDX 15 1 14 2 12 3 13 4 11 6 10 7 77 8 75 9 76 10 78 11 8 12
REMARK SMILES IDX 7 13 9 15 6 16 3 17 4 18 80 19 5 20 79 21 2 22 1 23 16 24
REMARK SMILES IDX 17 25 18 26 19 27 20 29 21 30 22 31 74 32 23 33 73 34 24 35
REMARK SMILES IDX 25 36 26 37 67 38 27 39 72 40 66 41 68 42 28 43 71 44 65 45
REMARK SMILES IDX 64 46 29 48 55 49 38 50 54 51 39 52 42 53 53 54 69 55 40 56
REMARK SMILES IDX 41 57 52 59 70 60 43 61 30 62 31 63 36 64 32 65 33 66 35 67
REMARK SMILES IDX 37 68 34 69 56 70 57 71 62 72 58 73 59 74 61 75 63 76 60 77
REMARK SMILES IDX 44 78 45 79 50 80 46 81 47 82 49 83 51 84 48 85
REMARK H PARENT 14 5 7 14 18 28 68 47 42 58
REMARK Flexibility Score: inf
ROOT
ATOM      1  C   UNL A   1      36.424  20.578  25.159  1.00  0.00     0.118 C 
ENDROOT
BRANCH   1   2
ATOM      2  N   UNL A   1      36.680  21.966  25.426  1.00  0.00    -0.352 N 
ATOM      3  C   UNL A   1      35.934  22.968  25.981  1.00  0.00     0.255 C 
ATOM      4  O   UNL A   1      36.540  24.040  26.089  1.00  0.00    -0.269 OA
ATOM      5  H   UNL A   1      37.581  22.256  25.153  1.00  0.00     0.163 HD
BRANCH   3   6
ATOM      6  C   UNL A   1      34.538  22.889  26.414  1.00  0.00     0.090 A 
ATOM      7  C   UNL A   1      33.279  23.249  25.920  1.00  0.00     0.138 A 
ATOM      8  N   UNL A   1      32.366  22.848  26.873  1.00  0.00    -0.262 N 
ATOM      9  C   UNL A   1      34.223  22.335  27.692  1.00  0.00     0.149 A 
ATOM     10  N   UNL A   1      32.924  22.335  27.977  1.00  0.00    -0.180 NA
ATOM     11  C   UNL A   1      30.928  23.003  26.848  1.00  0.00     0.174 C 
BRANCH   7  12
ATOM     12  C   UNL A   1      32.836  23.850  24.697  1.00  0.00     0.274 C 
ATOM     13  N   UNL A   1      32.684  25.222  24.593  1.00  0.00    -0.321 N 
ATOM     14  H   UNL A   1      32.557  25.543  23.671  1.00  0.00     0.170 HD
ATOM     15  O   UNL A   1      32.560  23.174  23.706  1.00  0.00    -0.267 OA
BRANCH  13  16
ATOM     16  C   UNL A   1      32.676  26.242  25.563  1.00  0.00     0.041 A 
ATOM     17  C   UNL A   1      32.694  28.732  26.862  1.00  0.00    -0.048 A 
ATOM     18  C   UNL A   1      31.540  27.946  26.845  1.00  0.00     0.006 A 
ATOM     19  C   UNL A   1      33.884  28.182  26.374  1.00  0.00     0.006 A 
ATOM     20  C   UNL A   1      31.546  26.692  26.237  1.00  0.00     0.026 A 
ATOM     21  C   UNL A   1      33.878  26.937  25.739  1.00  0.00     0.026 A 
BRANCH  17  22
ATOM     22  C   UNL A   1      32.631  30.175  27.293  1.00  0.00     0.032 C 
ATOM     23  C   UNL A   1      33.979  30.875  27.308  1.00  0.00     0.009 C 
ENDBRANCH  17  22
ENDBRANCH  13  16
ENDBRANCH   7  12
ENDBRANCH   3   6
ENDBRANCH   1   2
BRANCH   1  24
ATOM     24  C   UNL A   1      37.673  19.765  24.896  1.00  0.00     0.042 C 
BRANCH  24  25
ATOM     25  C   UNL A   1      38.874  20.268  25.669  1.00  0.00     0.118 C 
BRANCH  25  26
ATOM     26  N   UNL A   1      39.902  19.242  25.827  1.00  0.00    -0.352 N 
ATOM     27  C   UNL A   1      41.252  19.343  26.063  1.00  0.00     0.251 C 
ATOM     28  H   UNL A   1      39.569  18.318  25.754  1.00  0.00     0.163 HD
ATOM     29  O   UNL A   1      41.966  18.355  25.948  1.00  0.00    -0.269 OA
BRANCH  27  30
ATOM     30  C   UNL A   1      41.848  20.644  26.431  1.00  0.00     0.039 A 
ATOM     31  C   UNL A   1      42.229  21.534  25.424  1.00  0.00     0.014 A 
ATOM     32  C   UNL A   1      42.040  20.985  27.770  1.00  0.00     0.014 A 
ATOM     33  C   UNL A   1      42.728  22.793  25.768  1.00  0.00     0.010 A 
ATOM     34  C   UNL A   1      42.398  22.280  28.108  1.00  0.00     0.010 A 
ATOM     35  C   UNL A   1      42.774  23.190  27.113  1.00  0.00    -0.014 A 
BRANCH  35  36
ATOM     36  C   UNL A   1      43.255  24.533  27.520  1.00  0.00     0.031 A 
ATOM     37  C   UNL A   1      42.262  25.591  27.922  1.00  0.00     0.074 A 
ATOM     38  C   UNL A   1      44.568  24.823  27.454  1.00  0.00     0.049 A 
ATOM     39  N   UNL A   1      42.467  26.847  28.229  1.00  0.00    -0.248 NA
ATOM     40  C   UNL A   1      40.844  25.195  27.942  1.00  0.00     0.031 C 
ATOM     41  C   UNL A   1      45.622  23.899  27.032  1.00  0.00     0.029 A 
ATOM     42  N   UNL A   1      45.240  25.984  27.741  1.00  0.00    -0.354 N 
ATOM     43  C   UNL A   1      41.207  27.388  28.454  1.00  0.00     0.074 A 
ATOM     44  C   UNL A   1      40.242  26.351  28.170  1.00  0.00     0.031 C 
ATOM     45  C   UNL A   1      46.811  24.513  27.134  1.00  0.00     0.029 A 
ATOM     46  C   UNL A   1      46.600  25.886  27.581  1.00  0.00     0.049 A 
ATOM     47  H   UNL A   1      44.790  26.808  28.034  1.00  0.00     0.167 HD
ATOM     48  C   UNL A   1      40.881  28.626  28.894  1.00  0.00     0.037 A 
ATOM     49  C   UNL A   1      47.565  26.803  27.777  1.00  0.00     0.037 A 
ATOM     50  C   UNL A   1      41.848  29.646  29.200  1.00  0.00     0.049 A 
ATOM     51  C   UNL A   1      47.180  28.180  28.241  1.00  0.00     0.074 A 
ATOM     52  C   UNL A   1      41.634  30.916  29.703  1.00  0.00     0.029 A 
ATOM     53  N   UNL A   1      43.218  29.507  29.025  1.00  0.00    -0.354 N 
ATOM     54  N   UNL A   1      45.991  28.660  28.518  1.00  0.00    -0.248 NA
ATOM     55  C   UNL A   1      48.275  29.143  28.424  1.00  0.00     0.031 C 
ATOM     56  C   UNL A   1      42.870  31.566  29.784  1.00  0.00     0.029 A 
ATOM     57  C   UNL A   1      43.860  30.680  29.387  1.00  0.00     0.049 A 
ATOM     58  H   UNL A   1      43.667  28.697  28.693  1.00  0.00     0.167 HD
ATOM     59  C   UNL A   1      46.197  29.966  28.944  1.00  0.00     0.074 A 
ATOM     60  C   UNL A   1      47.627  30.198  28.897  1.00  0.00     0.031 C 
ATOM     61  C   UNL A   1      45.287  30.888  29.343  1.00  0.00     0.037 A 
BRANCH  48  62
ATOM     62  C   UNL A   1      39.419  28.931  29.066  1.00  0.00     0.057 A 
ATOM     63  C   UNL A   1      38.761  28.752  30.291  1.00  0.00     0.134 A 
ATOM     64  C   UNL A   1      38.655  29.401  27.990  1.00  0.00     0.134 A 
ATOM     65  F   UNL A   1      39.429  28.291  31.361  1.00  0.00    -0.206 F 
ATOM     66  C   UNL A   1      37.391  28.981  30.429  1.00  0.00     0.040 A 
ATOM     67  C   UNL A   1      37.291  29.669  28.125  1.00  0.00     0.040 A 
ATOM     68  F   UNL A   1      39.218  29.603  26.790  1.00  0.00    -0.206 F 
ATOM     69  C   UNL A   1      36.653  29.447  29.343  1.00  0.00     0.006 A 
ENDBRANCH  48  62
BRANCH  49  70
ATOM     70  C   UNL A   1      48.991  26.436  27.582  1.00  0.00     0.057 A 
ATOM     71  C   UNL A   1      49.740  25.898  28.637  1.00  0.00     0.134 A 
ATOM     72  C   UNL A   1      49.641  26.610  26.355  1.00  0.00     0.134 A 
ATOM     73  F   UNL A   1      49.178  25.720  29.842  1.00  0.00    -0.206 F 
ATOM     74  C   UNL A   1      51.087  25.566  28.484  1.00  0.00     0.040 A 
ATOM     75  C   UNL A   1      50.981  26.258  26.180  1.00  0.00     0.040 A 
ATOM     76  F   UNL A   1      48.977  27.111  25.303  1.00  0.00    -0.206 F 
ATOM     77  C   UNL A   1      51.710  25.742  27.250  1.00  0.00     0.006 A 
ENDBRANCH  49  70
BRANCH  61  78
ATOM     78  C   UNL A   1      45.812  32.216  29.805  1.00  0.00     0.057 A 
ATOM     79  C   UNL A   1      45.946  33.307  28.938  1.00  0.00     0.134 A 
ATOM     80  C   UNL A   1      46.155  32.414  31.149  1.00  0.00     0.134 A 
ATOM     81  F   UNL A   1      45.649  33.182  27.635  1.00  0.00    -0.206 F 
ATOM     82  C   UNL A   1      46.427  34.539  29.385  1.00  0.00     0.040 A 
ATOM     83  C   UNL A   1      46.606  33.648  31.615  1.00  0.00     0.040 A 
ATOM     84  F   UNL A   1      46.041  31.413  32.036  1.00  0.00    -0.206 F 
ATOM     85  C   UNL A   1      46.750  34.713  30.729  1.00  0.00     0.006 A 
ENDBRANCH  61  78
ENDBRANCH  35  36
ENDBRANCH  27  30
ENDBRANCH  25  26
ENDBRANCH  24  25
ENDBRANCH   1  24
TORSDOF 13
ENDMDL
MODEL 3
REMARK VINA RESULT:     -11.4      3.431      8.215
REMARK SMILES CCc1ccc(NC(=O)c2c(C(=O)NCCCNC(=O)c3ccc(-c4c5nc(c(-c6c(F)cccc6F)c6ccc([nH]6)c(-c6c(F)cccc6F)c6nc(c(-c7c(F)cccc7F)c7ccc4[nH]7)C=C6)C=C5)cc3)cnn2C)cc1
REMARK SMILES IDX 15 1 14 2 12 3 13 4 11 6 10 7 77 8 75 9 76 10 78 11 8 12
REMARK SMILES IDX 7 13 9 15 6 16 3 17 4 18 80 19 5 20 79 21 2 22 1 23 16 24
REMARK SMILES IDX 17 25 18 26 19 27 20 29 21 30 22 31 74 32 23 33 73 34 24 35
REMARK SMILES IDX 25 36 26 37 67 38 27 39 72 40 66 41 68 42 28 43 71 44 65 45
REMARK SMILES IDX 64 46 29 48 55 49 38 50 54 51 39 52 42 53 53 54 69 55 40 56
REMARK SMILES IDX 41 57 52 59 70 60 43 61 30 62 31 63 36 64 32 65 33 66 35 67
REMARK SMILES IDX 37 68 34 69 56 70 57 71 62 72 58 73 59 74 61 75 63 76 60 77
REMARK SMILES IDX 44 78 45 79 50 80 46 81 47 82 49 83 51 84 48 85
REMARK H PARENT 14 5 7 14 18 28 68 47 42 58
REMARK Flexibility Score: inf
ROOT
ATOM      1  C   UNL A   1      31.843  29.555  25.498  1.00  0.00     0.118 C 
ENDROOT
BRANCH   1   2
ATOM      2  N   UNL A   1      33.004  29.589  24.654  1.00  0.00    -0.352 N 
ATOM      3  C   UNL A   1      33.771  28.617  24.074  1.00  0.00     0.255 C 
ATOM      4  O   UNL A   1      34.677  29.057  23.358  1.00  0.00    -0.269 OA
ATOM      5  H   UNL A   1      33.313  30.501  24.452  1.00  0.00     0.163 HD
BRANCH   3   6
ATOM      6  C   UNL A   1      33.631  27.169  24.240  1.00  0.00     0.090 A 
ATOM      7  C   UNL A   1      33.198  26.077  23.480  1.00  0.00     0.138 A 
ATOM      8  N   UNL A   1      33.362  24.966  24.280  1.00  0.00    -0.262 N 
ATOM      9  C   UNL A   1      33.972  26.563  25.487  1.00  0.00     0.149 A 
ATOM     10  N   UNL A   1      33.786  25.246  25.519  1.00  0.00    -0.180 NA
ATOM     11  C   UNL A   1      33.048  23.589  23.965  1.00  0.00     0.174 C 
BRANCH   7  12
ATOM     12  C   UNL A   1      32.716  25.941  22.137  1.00  0.00     0.274 C 
ATOM     13  N   UNL A   1      31.668  26.717  21.675  1.00  0.00    -0.321 N 
ATOM     14  H   UNL A   1      31.539  26.678  20.700  1.00  0.00     0.170 HD
ATOM     15  O   UNL A   1      33.201  25.122  21.355  1.00  0.00    -0.267 OA
BRANCH  13  16
ATOM     16  C   UNL A   1      30.752  27.553  22.343  1.00  0.00     0.041 A 
ATOM     17  C   UNL A   1      28.606  29.255  22.963  1.00  0.00    -0.048 A 
ATOM     18  C   UNL A   1      28.625  27.936  23.423  1.00  0.00     0.006 A 
ATOM     19  C   UNL A   1      29.750  29.760  22.338  1.00  0.00     0.006 A 
ATOM     20  C   UNL A   1      29.712  27.107  23.151  1.00  0.00     0.026 A 
ATOM     21  C   UNL A   1      30.824  28.916  22.041  1.00  0.00     0.026 A 
BRANCH  17  22
ATOM     22  C   UNL A   1      27.342  30.073  23.038  1.00  0.00     0.032 C 
ATOM     23  C   UNL A   1      27.545  31.472  23.593  1.00  0.00     0.009 C 
ENDBRANCH  17  22
ENDBRANCH  13  16
ENDBRANCH   7  12
ENDBRANCH   3   6
ENDBRANCH   1   2
BRANCH   1  24
ATOM     24  C   UNL A   1      31.463  30.904  26.071  1.00  0.00     0.042 C 
BRANCH  24  25
ATOM     25  C   UNL A   1      32.511  31.456  27.014  1.00  0.00     0.118 C 
BRANCH  25  26
ATOM     26  N   UNL A   1      32.303  32.872  27.307  1.00  0.00    -0.352 N 
ATOM     27  C   UNL A   1      33.017  33.748  28.089  1.00  0.00     0.251 C 
ATOM     28  H   UNL A   1      31.517  33.267  26.866  1.00  0.00     0.163 HD
ATOM     29  O   UNL A   1      32.543  34.843  28.365  1.00  0.00    -0.269 OA
BRANCH  27  30
ATOM     30  C   UNL A   1      34.343  33.365  28.616  1.00  0.00     0.039 A 
ATOM     31  C   UNL A   1      34.430  32.701  29.842  1.00  0.00     0.014 A 
ATOM     32  C   UNL A   1      35.505  33.668  27.906  1.00  0.00     0.014 A 
ATOM     33  C   UNL A   1      35.674  32.275  30.310  1.00  0.00     0.010 A 
ATOM     34  C   UNL A   1      36.716  33.122  28.299  1.00  0.00     0.010 A 
ATOM     35  C   UNL A   1      36.821  32.444  29.520  1.00  0.00    -0.014 A 
BRANCH  35  36
ATOM     36  C   UNL A   1      38.155  31.968  29.959  1.00  0.00     0.031 A 
ATOM     37  C   UNL A   1      38.687  30.658  29.442  1.00  0.00     0.074 A 
ATOM     38  C   UNL A   1      38.849  32.669  30.875  1.00  0.00     0.049 A 
ATOM     39  N   UNL A   1      39.786  30.024  29.764  1.00  0.00    -0.248 NA
ATOM     40  C   UNL A   1      37.851  29.944  28.463  1.00  0.00     0.031 C 
ATOM     41  C   UNL A   1      38.418  33.927  31.488  1.00  0.00     0.029 A 
ATOM     42  N   UNL A   1      40.068  32.421  31.452  1.00  0.00    -0.354 N 
ATOM     43  C   UNL A   1      39.758  28.835  29.045  1.00  0.00     0.074 A 
ATOM     44  C   UNL A   1      38.500  28.797  28.336  1.00  0.00     0.031 C 
ATOM     45  C   UNL A   1      39.378  34.363  32.318  1.00  0.00     0.029 A 
ATOM     46  C   UNL A   1      40.470  33.395  32.332  1.00  0.00     0.049 A 
ATOM     47  H   UNL A   1      40.605  31.620  31.253  1.00  0.00     0.167 HD
ATOM     48  C   UNL A   1      40.709  27.876  28.952  1.00  0.00     0.037 A 
ATOM     49  C   UNL A   1      41.594  33.493  33.065  1.00  0.00     0.037 A 
ATOM     50  C   UNL A   1      41.971  27.933  29.639  1.00  0.00     0.049 A 
ATOM     51  C   UNL A   1      42.627  32.405  32.967  1.00  0.00     0.074 A 
ATOM     52  C   UNL A   1      43.030  27.046  29.576  1.00  0.00     0.029 A 
ATOM     53  N   UNL A   1      42.340  28.938  30.523  1.00  0.00    -0.354 N 
ATOM     54  N   UNL A   1      42.620  31.320  32.230  1.00  0.00    -0.248 NA
ATOM     55  C   UNL A   1      43.827  32.559  33.800  1.00  0.00     0.031 C 
ATOM     56  C   UNL A   1      44.020  27.485  30.461  1.00  0.00     0.029 A 
ATOM     57  C   UNL A   1      43.602  28.678  31.031  1.00  0.00     0.049 A 
ATOM     58  H   UNL A   1      41.788  29.719  30.754  1.00  0.00     0.167 HD
ATOM     59  C   UNL A   1      43.828  30.681  32.482  1.00  0.00     0.074 A 
ATOM     60  C   UNL A   1      44.545  31.508  33.432  1.00  0.00     0.031 C 
ATOM     61  C   UNL A   1      44.304  29.520  31.969  1.00  0.00     0.037 A 
BRANCH  48  62
ATOM     62  C   UNL A   1      40.409  26.694  28.074  1.00  0.00     0.057 A 
ATOM     63  C   UNL A   1      39.578  25.646  28.496  1.00  0.00     0.134 A 
ATOM     64  C   UNL A   1      40.964  26.595  26.792  1.00  0.00     0.134 A 
ATOM     65  F   UNL A   1      39.023  25.669  29.718  1.00  0.00    -0.206 F 
ATOM     66  C   UNL A   1      39.350  24.523  27.698  1.00  0.00     0.040 A 
ATOM     67  C   UNL A   1      40.714  25.494  25.970  1.00  0.00     0.040 A 
ATOM     68  F   UNL A   1      41.763  27.563  26.318  1.00  0.00    -0.206 F 
ATOM     69  C   UNL A   1      39.916  24.448  26.428  1.00  0.00     0.006 A 
ENDBRANCH  48  62
BRANCH  49  70
ATOM     70  C   UNL A   1      41.825  34.687  33.917  1.00  0.00     0.057 A 
ATOM     71  C   UNL A   1      41.396  34.707  35.251  1.00  0.00     0.134 A 
ATOM     72  C   UNL A   1      42.471  35.830  33.433  1.00  0.00     0.134 A 
ATOM     73  F   UNL A   1      40.757  33.647  35.769  1.00  0.00    -0.206 F 
ATOM     74  C   UNL A   1      41.582  35.825  36.064  1.00  0.00     0.040 A 
ATOM     75  C   UNL A   1      42.687  36.947  34.243  1.00  0.00     0.040 A 
ATOM     76  F   UNL A   1      42.915  35.872  32.168  1.00  0.00    -0.206 F 
ATOM     77  C   UNL A   1      42.234  36.949  35.561  1.00  0.00     0.006 A 
ENDBRANCH  49  70
BRANCH  61  78
ATOM     78  C   UNL A   1      45.682  29.098  32.388  1.00  0.00     0.057 A 
ATOM     79  C   UNL A   1      45.903  28.264  33.491  1.00  0.00     0.134 A 
ATOM     80  C   UNL A   1      46.803  29.506  31.653  1.00  0.00     0.134 A 
ATOM     81  F   UNL A   1      44.875  27.848  34.247  1.00  0.00    -0.206 F 
ATOM     82  C   UNL A   1      47.190  27.872  33.863  1.00  0.00     0.040 A 
ATOM     83  C   UNL A   1      48.091  29.096  31.995  1.00  0.00     0.040 A 
ATOM     84  F   UNL A   1      46.661  30.298  30.579  1.00  0.00    -0.206 F 
ATOM     85  C   UNL A   1      48.287  28.282  33.107  1.00  0.00     0.006 A 
ENDBRANCH  61  78
ENDBRANCH  35  36
ENDBRANCH  27  30
ENDBRANCH  25  26
ENDBRANCH  24  25
ENDBRANCH   1  24
TORSDOF 13
ENDMDL
