MODEL 1
REMARK VINA RESULT:     -12.0      0.000      0.000
REMARK SMILES O=C(NCCCNC(=O)c1cnc2c(ccn2C2CCCCC2)c1)c1ccc(-c2c3nc(c(-c4c(F)cccc4F)c4ccc([nH]4)c(-c4c(F)cccc4F)c4nc(c(-c5c(F)cccc5F)c5ccc2[nH]5)C=C4)C=C3)cc1
REMARK SMILES IDX 4 1 3 2 1 3 2 4 25 6 26 7 78 8 27 9 77 10 28 11 29 12 30 13
REMARK SMILES IDX 71 14 31 15 76 16 70 17 72 18 32 19 75 20 69 21 68 22 33 24
REMARK SMILES IDX 59 25 42 26 58 27 43 28 46 29 57 30 73 31 44 32 45 33 56 35
REMARK SMILES IDX 74 36 47 37 34 38 35 39 40 40 36 41 37 42 39 43 41 44 38 45
REMARK SMILES IDX 60 46 61 47 66 48 62 49 63 50 65 51 67 52 64 53 48 54 49 55
REMARK SMILES IDX 54 56 50 57 51 58 53 59 55 60 52 61 5 62 6 63 7 64 8 65 9 67
REMARK SMILES IDX 10 68 11 69 24 70 12 71 14 72 13 73 15 74 17 75 16 76 18 77
REMARK SMILES IDX 19 78 23 79 20 80 22 81 21 82
REMARK H PARENT 3 5 72 23 46 34 7 66
REMARK Flexibility Score: inf
ROOT
ATOM      1  C   UNL A   1      40.177  21.845  26.410  1.00  0.00     0.118 C 
ENDROOT
BRANCH   1   2
ATOM      2  N   UNL A   1      41.363  22.078  25.604  1.00  0.00    -0.352 N 
ATOM      3  O   UNL A   1      43.312  22.864  24.870  1.00  0.00    -0.269 OA
ATOM      4  C   UNL A   1      42.342  23.036  25.610  1.00  0.00     0.251 C 
ATOM      5  H   UNL A   1      41.490  21.400  24.902  1.00  0.00     0.163 HD
BRANCH   4   6
ATOM      6  C   UNL A   1      42.243  24.304  26.369  1.00  0.00     0.039 A 
ATOM      7  C   UNL A   1      42.853  24.541  27.601  1.00  0.00     0.014 A 
ATOM      8  C   UNL A   1      41.461  25.316  25.784  1.00  0.00     0.014 A 
ATOM      9  C   UNL A   1      42.572  25.708  28.299  1.00  0.00     0.010 A 
ATOM     10  C   UNL A   1      41.203  26.499  26.464  1.00  0.00     0.010 A 
ATOM     11  C   UNL A   1      41.723  26.670  27.742  1.00  0.00    -0.014 A 
BRANCH  11  12
ATOM     12  C   UNL A   1      41.551  27.921  28.472  1.00  0.00     0.031 A 
ATOM     13  C   UNL A   1      42.644  28.910  28.249  1.00  0.00     0.074 A 
ATOM     14  C   UNL A   1      40.459  28.226  29.199  1.00  0.00     0.049 A 
ATOM     15  N   UNL A   1      43.489  29.377  29.111  1.00  0.00    -0.248 NA
ATOM     16  C   UNL A   1      42.903  29.337  26.867  1.00  0.00     0.031 C 
ATOM     17  C   UNL A   1      39.191  27.499  29.281  1.00  0.00     0.029 A 
ATOM     18  N   UNL A   1      40.233  29.326  29.971  1.00  0.00    -0.354 N 
ATOM     19  C   UNL A   1      44.277  30.297  28.418  1.00  0.00     0.074 A 
ATOM     20  C   UNL A   1      43.972  30.119  27.025  1.00  0.00     0.031 C 
ATOM     21  C   UNL A   1      38.267  28.283  29.884  1.00  0.00     0.029 A 
ATOM     22  C   UNL A   1      38.909  29.503  30.346  1.00  0.00     0.049 A 
ATOM     23  H   UNL A   1      40.950  29.945  30.241  1.00  0.00     0.167 HD
ATOM     24  C   UNL A   1      44.951  31.284  29.071  1.00  0.00     0.037 A 
ATOM     25  C   UNL A   1      38.374  30.598  30.945  1.00  0.00     0.037 A 
ATOM     26  C   UNL A   1      45.118  30.961  30.466  1.00  0.00     0.049 A 
ATOM     27  C   UNL A   1      39.485  31.372  31.550  1.00  0.00     0.074 A 
ATOM     28  C   UNL A   1      45.743  29.956  31.178  1.00  0.00     0.029 A 
ATOM     29  N   UNL A   1      44.296  31.590  31.369  1.00  0.00    -0.354 N 
ATOM     30  N   UNL A   1      40.168  30.973  32.586  1.00  0.00    -0.248 NA
ATOM     31  C   UNL A   1      40.124  32.392  30.735  1.00  0.00     0.031 C 
ATOM     32  C   UNL A   1      44.907  29.729  32.312  1.00  0.00     0.029 A 
ATOM     33  C   UNL A   1      43.852  30.640  32.246  1.00  0.00     0.049 A 
ATOM     34  H   UNL A   1      44.070  32.548  31.382  1.00  0.00     0.167 HD
ATOM     35  C   UNL A   1      41.474  31.352  32.312  1.00  0.00     0.074 A 
ATOM     36  C   UNL A   1      41.370  32.305  31.208  1.00  0.00     0.031 C 
ATOM     37  C   UNL A   1      42.527  30.647  32.816  1.00  0.00     0.037 A 
BRANCH  24  38
ATOM     38  C   UNL A   1      45.067  32.712  28.567  1.00  0.00     0.057 A 
ATOM     39  C   UNL A   1      46.233  33.273  28.008  1.00  0.00     0.134 A 
ATOM     40  C   UNL A   1      43.882  33.430  28.306  1.00  0.00     0.134 A 
ATOM     41  F   UNL A   1      47.445  32.734  28.161  1.00  0.00    -0.206 F 
ATOM     42  C   UNL A   1      46.206  34.389  27.165  1.00  0.00     0.040 A 
ATOM     43  C   UNL A   1      43.840  34.520  27.427  1.00  0.00     0.040 A 
ATOM     44  F   UNL A   1      42.706  33.031  28.813  1.00  0.00    -0.206 F 
ATOM     45  C   UNL A   1      45.002  34.986  26.831  1.00  0.00     0.006 A 
ENDBRANCH  24  38
BRANCH  25  46
ATOM     46  C   UNL A   1      37.017  31.171  30.796  1.00  0.00     0.057 A 
ATOM     47  C   UNL A   1      36.593  31.722  29.574  1.00  0.00     0.134 A 
ATOM     48  C   UNL A   1      36.210  31.445  31.909  1.00  0.00     0.134 A 
ATOM     49  F   UNL A   1      37.333  31.590  28.463  1.00  0.00    -0.206 F 
ATOM     50  C   UNL A   1      35.443  32.509  29.467  1.00  0.00     0.040 A 
ATOM     51  C   UNL A   1      35.057  32.237  31.815  1.00  0.00     0.040 A 
ATOM     52  F   UNL A   1      36.555  31.004  33.127  1.00  0.00    -0.206 F 
ATOM     53  C   UNL A   1      34.676  32.780  30.592  1.00  0.00     0.006 A 
ENDBRANCH  25  46
BRANCH  37  54
ATOM     54  C   UNL A   1      42.236  29.624  33.875  1.00  0.00     0.057 A 
ATOM     55  C   UNL A   1      42.444  29.963  35.215  1.00  0.00     0.134 A 
ATOM     56  C   UNL A   1      41.880  28.294  33.603  1.00  0.00     0.134 A 
ATOM     57  F   UNL A   1      42.843  31.201  35.545  1.00  0.00    -0.206 F 
ATOM     58  C   UNL A   1      42.287  29.031  36.243  1.00  0.00     0.040 A 
ATOM     59  C   UNL A   1      41.687  27.360  34.625  1.00  0.00     0.040 A 
ATOM     60  F   UNL A   1      41.761  27.851  32.345  1.00  0.00    -0.206 F 
ATOM     61  C   UNL A   1      41.895  27.728  35.950  1.00  0.00     0.006 A 
ENDBRANCH  37  54
ENDBRANCH  11  12
ENDBRANCH   4   6
ENDBRANCH   1   2
BRANCH   1  62
ATOM     62  C   UNL A   1      39.119  20.935  25.788  1.00  0.00     0.042 C 
BRANCH  62  63
ATOM     63  C   UNL A   1      37.976  21.673  25.091  1.00  0.00     0.118 C 
BRANCH  63  64
ATOM     64  N   UNL A   1      36.820  20.816  24.854  1.00  0.00    -0.352 N 
ATOM     65  C   UNL A   1      35.478  21.072  24.882  1.00  0.00     0.252 C 
ATOM     66  H   UNL A   1      37.047  19.884  24.633  1.00  0.00     0.163 HD
ATOM     67  O   UNL A   1      34.690  20.118  24.867  1.00  0.00    -0.269 OA
BRANCH  65  68
ATOM     68  C   UNL A   1      34.937  22.439  24.925  1.00  0.00     0.058 A 
ATOM     69  C   UNL A   1      34.859  23.150  26.114  1.00  0.00     0.127 A 
ATOM     70  C   UNL A   1      34.610  23.087  23.729  1.00  0.00     0.027 A 
ATOM     71  N   UNL A   1      34.401  24.417  26.248  1.00  0.00    -0.238 NA
ATOM     72  C   UNL A   1      34.161  24.416  23.809  1.00  0.00     0.020 A 
ATOM     73  C   UNL A   1      34.073  24.994  25.074  1.00  0.00     0.140 A 
ATOM     74  C   UNL A   1      33.753  25.402  22.872  1.00  0.00     0.030 A 
ATOM     75  N   UNL A   1      33.598  26.276  24.917  1.00  0.00    -0.329 N 
ATOM     76  C   UNL A   1      33.411  26.535  23.579  1.00  0.00     0.088 A 
BRANCH  75  77
ATOM     77  C   UNL A   1      33.315  27.225  25.993  1.00  0.00     0.088 C 
ATOM     78  C   UNL A   1      33.780  28.647  25.638  1.00  0.00     0.025 C 
ATOM     79  C   UNL A   1      31.846  27.182  26.444  1.00  0.00     0.025 C 
ATOM     80  C   UNL A   1      33.462  29.645  26.749  1.00  0.00     0.002 C 
ATOM     81  C   UNL A   1      31.558  28.202  27.544  1.00  0.00     0.002 C 
ATOM     82  C   UNL A   1      31.986  29.606  27.131  1.00  0.00     0.000 C 
ENDBRANCH  75  77
ENDBRANCH  65  68
ENDBRANCH  63  64
ENDBRANCH  62  63
ENDBRANCH   1  62
TORSDOF 11
ENDMDL
MODEL 2
REMARK VINA RESULT:     -12.0      2.909      8.091
REMARK SMILES O=C(NCCCNC(=O)c1cnc2c(ccn2C2CCCCC2)c1)c1ccc(-c2c3nc(c(-c4c(F)cccc4F)c4ccc([nH]4)c(-c4c(F)cccc4F)c4nc(c(-c5c(F)cccc5F)c5ccc2[nH]5)C=C4)C=C3)cc1
REMARK SMILES IDX 4 1 3 2 1 3 2 4 25 6 26 7 78 8 27 9 77 10 28 11 29 12 30 13
REMARK SMILES IDX 71 14 31 15 76 16 70 17 72 18 32 19 75 20 69 21 68 22 33 24
REMARK SMILES IDX 59 25 42 26 58 27 43 28 46 29 57 30 73 31 44 32 45 33 56 35
REMARK SMILES IDX 74 36 47 37 34 38 35 39 40 40 36 41 37 42 39 43 41 44 38 45
REMARK SMILES IDX 60 46 61 47 66 48 62 49 63 50 65 51 67 52 64 53 48 54 49 55
REMARK SMILES IDX 54 56 50 57 51 58 53 59 55 60 52 61 5 62 6 63 7 64 8 65 9 67
REMARK SMILES IDX 10 68 11 69 24 70 12 71 14 72 13 73 15 74 17 75 16 76 18 77
REMARK SMILES IDX 19 78 23 79 20 80 22 81 21 82
REMARK H PARENT 3 5 72 23 46 34 7 66
REMARK Flexibility Score: inf
ROOT
ATOM      1  C   UNL A   1      34.169  31.028  27.642  1.00  0.00     0.118 C 
ENDROOT
BRANCH   1   2
ATOM      2  N   UNL A   1      34.181  31.766  28.893  1.00  0.00    -0.352 N 
ATOM      3  O   UNL A   1      34.863  32.822  30.730  1.00  0.00    -0.269 OA
ATOM      4  C   UNL A   1      35.141  32.022  29.836  1.00  0.00     0.251 C 
ATOM      5  H   UNL A   1      33.310  32.171  29.110  1.00  0.00     0.163 HD
BRANCH   4   6
ATOM      6  C   UNL A   1      36.440  31.312  29.894  1.00  0.00     0.039 A 
ATOM      7  C   UNL A   1      37.682  31.911  29.684  1.00  0.00     0.014 A 
ATOM      8  C   UNL A   1      36.381  29.935  30.172  1.00  0.00     0.014 A 
ATOM      9  C   UNL A   1      38.825  31.127  29.612  1.00  0.00     0.010 A 
ATOM     10  C   UNL A   1      37.526  29.151  30.133  1.00  0.00     0.010 A 
ATOM     11  C   UNL A   1      38.740  29.744  29.806  1.00  0.00    -0.014 A 
BRANCH  11  12
ATOM     12  C   UNL A   1      39.987  28.988  29.825  1.00  0.00     0.031 A 
ATOM     13  C   UNL A   1      40.597  28.857  31.179  1.00  0.00     0.074 A 
ATOM     14  C   UNL A   1      40.504  28.358  28.754  1.00  0.00     0.049 A 
ATOM     15  N   UNL A   1      41.729  29.323  31.595  1.00  0.00    -0.248 NA
ATOM     16  C   UNL A   1      39.785  28.232  32.234  1.00  0.00     0.031 C 
ATOM     17  C   UNL A   1      39.890  28.147  27.441  1.00  0.00     0.029 A 
ATOM     18  N   UNL A   1      41.688  27.692  28.649  1.00  0.00    -0.354 N 
ATOM     19  C   UNL A   1      41.860  28.898  32.918  1.00  0.00     0.074 A 
ATOM     20  C   UNL A   1      40.578  28.366  33.297  1.00  0.00     0.031 C 
ATOM     21  C   UNL A   1      40.611  27.230  26.755  1.00  0.00     0.029 A 
ATOM     22  C   UNL A   1      41.802  26.895  27.519  1.00  0.00     0.049 A 
ATOM     23  H   UNL A   1      42.405  27.770  29.320  1.00  0.00     0.167 HD
ATOM     24  C   UNL A   1      43.080  28.814  33.518  1.00  0.00     0.037 A 
ATOM     25  C   UNL A   1      42.778  25.988  27.260  1.00  0.00     0.037 A 
ATOM     26  C   UNL A   1      44.052  29.624  32.828  1.00  0.00     0.049 A 
ATOM     27  C   UNL A   1      43.934  26.305  28.132  1.00  0.00     0.074 A 
ATOM     28  C   UNL A   1      44.194  30.969  32.547  1.00  0.00     0.029 A 
ATOM     29  N   UNL A   1      44.949  28.984  32.009  1.00  0.00    -0.354 N 
ATOM     30  N   UNL A   1      44.689  27.358  27.985  1.00  0.00    -0.248 NA
ATOM     31  C   UNL A   1      43.991  25.676  29.442  1.00  0.00     0.031 C 
ATOM     32  C   UNL A   1      44.795  31.016  31.253  1.00  0.00     0.029 A 
ATOM     33  C   UNL A   1      45.024  29.702  30.848  1.00  0.00     0.049 A 
ATOM     34  H   UNL A   1      45.447  28.161  32.219  1.00  0.00     0.167 HD
ATOM     35  C   UNL A   1      44.962  27.777  29.278  1.00  0.00     0.074 A 
ATOM     36  C   UNL A   1      44.589  26.651  30.131  1.00  0.00     0.031 C 
ATOM     37  C   UNL A   1      45.199  29.094  29.551  1.00  0.00     0.037 A 
BRANCH  24  38
ATOM     38  C   UNL A   1      43.500  27.683  34.439  1.00  0.00     0.057 A 
ATOM     39  C   UNL A   1      43.804  26.374  34.015  1.00  0.00     0.134 A 
ATOM     40  C   UNL A   1      43.959  28.005  35.733  1.00  0.00     0.134 A 
ATOM     41  F   UNL A   1      43.439  25.892  32.823  1.00  0.00    -0.206 F 
ATOM     42  C   UNL A   1      44.596  25.499  34.767  1.00  0.00     0.040 A 
ATOM     43  C   UNL A   1      44.790  27.154  36.472  1.00  0.00     0.040 A 
ATOM     44  F   UNL A   1      43.703  29.204  36.278  1.00  0.00    -0.206 F 
ATOM     45  C   UNL A   1      45.134  25.905  35.976  1.00  0.00     0.006 A 
ENDBRANCH  24  38
BRANCH  25  46
ATOM     46  C   UNL A   1      42.686  24.706  26.525  1.00  0.00     0.057 A 
ATOM     47  C   UNL A   1      42.046  23.590  27.091  1.00  0.00     0.134 A 
ATOM     48  C   UNL A   1      43.459  24.459  25.382  1.00  0.00     0.134 A 
ATOM     49  F   UNL A   1      41.349  23.698  28.231  1.00  0.00    -0.206 F 
ATOM     50  C   UNL A   1      42.175  22.303  26.559  1.00  0.00     0.040 A 
ATOM     51  C   UNL A   1      43.601  23.173  24.842  1.00  0.00     0.040 A 
ATOM     52  F   UNL A   1      44.147  25.450  24.797  1.00  0.00    -0.206 F 
ATOM     53  C   UNL A   1      42.965  22.088  25.438  1.00  0.00     0.006 A 
ENDBRANCH  25  46
BRANCH  37  54
ATOM     54  C   UNL A   1      45.412  30.017  28.388  1.00  0.00     0.057 A 
ATOM     55  C   UNL A   1      46.720  30.340  28.015  1.00  0.00     0.134 A 
ATOM     56  C   UNL A   1      44.375  30.684  27.716  1.00  0.00     0.134 A 
ATOM     57  F   UNL A   1      47.762  29.786  28.654  1.00  0.00    -0.206 F 
ATOM     58  C   UNL A   1      46.989  31.269  27.007  1.00  0.00     0.040 A 
ATOM     59  C   UNL A   1      44.630  31.590  26.683  1.00  0.00     0.040 A 
ATOM     60  F   UNL A   1      43.096  30.517  28.075  1.00  0.00    -0.206 F 
ATOM     61  C   UNL A   1      45.942  31.887  26.328  1.00  0.00     0.006 A 
ENDBRANCH  37  54
ENDBRANCH  11  12
ENDBRANCH   4   6
ENDBRANCH   1   2
BRANCH   1  62
ATOM     62  C   UNL A   1      32.787  30.724  27.064  1.00  0.00     0.042 C 
BRANCH  62  63
ATOM     63  C   UNL A   1      32.407  29.244  27.070  1.00  0.00     0.118 C 
BRANCH  63  64
ATOM     64  N   UNL A   1      31.499  28.895  25.984  1.00  0.00    -0.352 N 
ATOM     65  C   UNL A   1      31.487  27.845  25.109  1.00  0.00     0.252 C 
ATOM     66  H   UNL A   1      30.758  29.531  25.858  1.00  0.00     0.163 HD
ATOM     67  O   UNL A   1      30.734  27.895  24.129  1.00  0.00    -0.269 OA
BRANCH  65  68
ATOM     68  C   UNL A   1      32.334  26.657  25.294  1.00  0.00     0.058 A 
ATOM     69  C   UNL A   1      33.624  26.600  24.785  1.00  0.00     0.127 A 
ATOM     70  C   UNL A   1      31.883  25.610  26.104  1.00  0.00     0.027 A 
ATOM     71  N   UNL A   1      34.484  25.564  24.925  1.00  0.00    -0.238 NA
ATOM     72  C   UNL A   1      32.750  24.524  26.310  1.00  0.00     0.020 A 
ATOM     73  C   UNL A   1      33.998  24.566  25.692  1.00  0.00     0.140 A 
ATOM     74  C   UNL A   1      32.691  23.310  27.044  1.00  0.00     0.030 A 
ATOM     75  N   UNL A   1      34.665  23.405  26.010  1.00  0.00    -0.329 N 
ATOM     76  C   UNL A   1      33.879  22.640  26.841  1.00  0.00     0.088 A 
BRANCH  75  77
ATOM     77  C   UNL A   1      35.994  23.020  25.538  1.00  0.00     0.088 C 
ATOM     78  C   UNL A   1      37.108  23.704  26.346  1.00  0.00     0.025 C 
ATOM     79  C   UNL A   1      36.172  21.494  25.465  1.00  0.00     0.025 C 
ATOM     80  C   UNL A   1      38.497  23.282  25.871  1.00  0.00     0.002 C 
ATOM     81  C   UNL A   1      37.575  21.106  25.003  1.00  0.00     0.002 C 
ATOM     82  C   UNL A   1      38.649  21.765  25.862  1.00  0.00     0.000 C 
ENDBRANCH  75  77
ENDBRANCH  65  68
ENDBRANCH  63  64
ENDBRANCH  62  63
ENDBRANCH   1  62
TORSDOF 11
ENDMDL
MODEL 3
REMARK VINA RESULT:     -11.9      4.051      9.942
REMARK SMILES O=C(NCCCNC(=O)c1cnc2c(ccn2C2CCCCC2)c1)c1ccc(-c2c3nc(c(-c4c(F)cccc4F)c4ccc([nH]4)c(-c4c(F)cccc4F)c4nc(c(-c5c(F)cccc5F)c5ccc2[nH]5)C=C4)C=C3)cc1
REMARK SMILES IDX 4 1 3 2 1 3 2 4 25 6 26 7 78 8 27 9 77 10 28 11 29 12 30 13
REMARK SMILES IDX 71 14 31 15 76 16 70 17 72 18 32 19 75 20 69 21 68 22 33 24
REMARK SMILES IDX 59 25 42 26 58 27 43 28 46 29 57 30 73 31 44 32 45 33 56 35
REMARK SMILES IDX 74 36 47 37 34 38 35 39 40 40 36 41 37 42 39 43 41 44 38 45
REMARK SMILES IDX 60 46 61 47 66 48 62 49 63 50 65 51 67 52 64 53 48 54 49 55
REMARK SMILES IDX 54 56 50 57 51 58 53 59 55 60 52 61 5 62 6 63 7 64 8 65 9 67
REMARK SMILES IDX 10 68 11 69 24 70 12 71 14 72 13 73 15 74 17 75 16 76 18 77
REMARK SMILES IDX 19 78 23 79 20 80 22 81 21 82
REMARK H PARENT 3 5 72 23 46 34 7 66
REMARK Flexibility Score: inf
ROOT
ATOM      1  C   UNL A   1      34.759  34.067  28.373  1.00  0.00     0.118 C 
ENDROOT
BRANCH   1   2
ATOM      2  N   UNL A   1      34.084  32.863  27.919  1.00  0.00    -0.352 N 
ATOM      3  O   UNL A   1      33.506  30.733  27.626  1.00  0.00    -0.269 OA
ATOM      4  C   UNL A   1      34.377  31.527  27.987  1.00  0.00     0.251 C 
ATOM      5  H   UNL A   1      33.231  33.048  27.464  1.00  0.00     0.163 HD
BRANCH   4   6
ATOM      6  C   UNL A   1      35.709  30.999  28.364  1.00  0.00     0.039 A 
ATOM      7  C   UNL A   1      36.776  31.780  28.808  1.00  0.00     0.014 A 
ATOM      8  C   UNL A   1      35.880  29.608  28.244  1.00  0.00     0.014 A 
ATOM      9  C   UNL A   1      38.026  31.205  28.990  1.00  0.00     0.010 A 
ATOM     10  C   UNL A   1      37.120  29.023  28.457  1.00  0.00     0.010 A 
ATOM     11  C   UNL A   1      38.202  29.832  28.784  1.00  0.00    -0.014 A 
BRANCH  11  12
ATOM     12  C   UNL A   1      39.510  29.267  29.096  1.00  0.00     0.031 A 
ATOM     13  C   UNL A   1      39.837  29.256  30.550  1.00  0.00     0.074 A 
ATOM     14  C   UNL A   1      40.320  28.695  28.185  1.00  0.00     0.049 A 
ATOM     15  N   UNL A   1      40.783  29.892  31.162  1.00  0.00    -0.248 NA
ATOM     16  C   UNL A   1      38.917  28.544  31.450  1.00  0.00     0.031 C 
ATOM     17  C   UNL A   1      40.028  28.367  26.789  1.00  0.00     0.029 A 
ATOM     18  N   UNL A   1      41.581  28.207  28.358  1.00  0.00    -0.354 N 
ATOM     19  C   UNL A   1      40.692  29.520  32.504  1.00  0.00     0.074 A 
ATOM     20  C   UNL A   1      39.446  28.817  32.643  1.00  0.00     0.031 C 
ATOM     21  C   UNL A   1      40.996  27.550  26.311  1.00  0.00     0.029 A 
ATOM     22  C   UNL A   1      42.036  27.410  27.317  1.00  0.00     0.049 A 
ATOM     23  H   UNL A   1      42.124  28.403  29.156  1.00  0.00     0.167 HD
ATOM     24  C   UNL A   1      41.760  29.630  33.343  1.00  0.00     0.037 A 
ATOM     25  C   UNL A   1      43.161  26.649  27.310  1.00  0.00     0.037 A 
ATOM     26  C   UNL A   1      42.733  30.557  32.822  1.00  0.00     0.049 A 
ATOM     27  C   UNL A   1      44.055  27.151  28.380  1.00  0.00     0.074 A 
ATOM     28  C   UNL A   1      42.744  31.902  32.506  1.00  0.00     0.029 A 
ATOM     29  N   UNL A   1      43.861  30.036  32.237  1.00  0.00    -0.354 N 
ATOM     30  N   UNL A   1      44.671  28.299  28.334  1.00  0.00    -0.248 NA
ATOM     31  C   UNL A   1      43.924  26.566  29.706  1.00  0.00     0.031 C 
ATOM     32  C   UNL A   1      43.589  32.007  31.360  1.00  0.00     0.029 A 
ATOM     33  C   UNL A   1      44.076  30.730  31.079  1.00  0.00     0.049 A 
ATOM     34  H   UNL A   1      44.413  29.300  32.587  1.00  0.00     0.167 HD
ATOM     35  C   UNL A   1      44.609  28.783  29.632  1.00  0.00     0.074 A 
ATOM     36  C   UNL A   1      44.226  27.633  30.449  1.00  0.00     0.031 C 
ATOM     37  C   UNL A   1      44.599  30.125  29.879  1.00  0.00     0.037 A 
BRANCH  24  38
ATOM     38  C   UNL A   1      42.132  28.592  34.387  1.00  0.00     0.057 A 
ATOM     39  C   UNL A   1      41.875  28.716  35.767  1.00  0.00     0.134 A 
ATOM     40  C   UNL A   1      42.428  27.282  33.957  1.00  0.00     0.134 A 
ATOM     41  F   UNL A   1      41.588  29.882  36.352  1.00  0.00    -0.206 F 
ATOM     42  C   UNL A   1      41.807  27.613  36.626  1.00  0.00     0.040 A 
ATOM     43  C   UNL A   1      42.316  26.169  34.799  1.00  0.00     0.040 A 
ATOM     44  F   UNL A   1      42.732  27.028  32.675  1.00  0.00    -0.206 F 
ATOM     45  C   UNL A   1      41.977  26.331  36.134  1.00  0.00     0.006 A 
ENDBRANCH  24  38
BRANCH  25  46
ATOM     46  C   UNL A   1      43.402  25.351  26.639  1.00  0.00     0.057 A 
ATOM     47  C   UNL A   1      44.160  25.275  25.458  1.00  0.00     0.134 A 
ATOM     48  C   UNL A   1      42.670  24.204  26.976  1.00  0.00     0.134 A 
ATOM     49  F   UNL A   1      44.833  26.341  25.000  1.00  0.00    -0.206 F 
ATOM     50  C   UNL A   1      44.181  24.132  24.654  1.00  0.00     0.040 A 
ATOM     51  C   UNL A   1      42.678  23.053  26.175  1.00  0.00     0.040 A 
ATOM     52  F   UNL A   1      41.878  24.193  28.058  1.00  0.00    -0.206 F 
ATOM     53  C   UNL A   1      43.429  23.019  25.004  1.00  0.00     0.006 A 
ENDBRANCH  25  46
BRANCH  37  54
ATOM     54  C   UNL A   1      44.920  31.044  28.736  1.00  0.00     0.057 A 
ATOM     55  C   UNL A   1      46.157  31.694  28.721  1.00  0.00     0.134 A 
ATOM     56  C   UNL A   1      44.005  31.394  27.731  1.00  0.00     0.134 A 
ATOM     57  F   UNL A   1      47.060  31.452  29.685  1.00  0.00    -0.206 F 
ATOM     58  C   UNL A   1      46.482  32.636  27.742  1.00  0.00     0.040 A 
ATOM     59  C   UNL A   1      44.329  32.310  26.726  1.00  0.00     0.040 A 
ATOM     60  F   UNL A   1      42.759  30.902  27.725  1.00  0.00    -0.206 F 
ATOM     61  C   UNL A   1      45.571  32.936  26.733  1.00  0.00     0.006 A 
ENDBRANCH  37  54
ENDBRANCH  11  12
ENDBRANCH   4   6
ENDBRANCH   1   2
BRANCH   1  62
ATOM     62  C   UNL A   1      33.996  35.374  28.162  1.00  0.00     0.042 C 
BRANCH  62  63
ATOM     63  C   UNL A   1      34.111  36.370  29.316  1.00  0.00     0.118 C 
BRANCH  63  64
ATOM     64  N   UNL A   1      33.046  36.213  30.300  1.00  0.00    -0.352 N 
ATOM     65  C   UNL A   1      32.964  35.464  31.440  1.00  0.00     0.252 C 
ATOM     66  H   UNL A   1      32.240  36.745  30.108  1.00  0.00     0.163 HD
ATOM     67  O   UNL A   1      31.861  35.328  31.983  1.00  0.00    -0.269 OA
BRANCH  65  68
ATOM     68  C   UNL A   1      34.138  34.817  32.043  1.00  0.00     0.058 A 
ATOM     69  C   UNL A   1      34.924  35.471  32.982  1.00  0.00     0.127 A 
ATOM     70  C   UNL A   1      34.402  33.472  31.763  1.00  0.00     0.027 A 
ATOM     71  N   UNL A   1      36.005  34.950  33.608  1.00  0.00    -0.238 NA
ATOM     72  C   UNL A   1      35.494  32.872  32.412  1.00  0.00     0.020 A 
ATOM     73  C   UNL A   1      36.238  33.660  33.289  1.00  0.00     0.140 A 
ATOM     74  C   UNL A   1      36.077  31.578  32.420  1.00  0.00     0.030 A 
ATOM     75  N   UNL A   1      37.258  32.883  33.790  1.00  0.00    -0.329 N 
ATOM     76  C   UNL A   1      37.160  31.612  33.273  1.00  0.00     0.088 A 
BRANCH  75  77
ATOM     77  C   UNL A   1      38.300  33.326  34.715  1.00  0.00     0.088 C 
ATOM     78  C   UNL A   1      37.811  33.315  36.173  1.00  0.00     0.025 C 
ATOM     79  C   UNL A   1      39.617  32.553  34.530  1.00  0.00     0.025 C 
ATOM     80  C   UNL A   1      38.907  33.752  37.144  1.00  0.00     0.002 C 
ATOM     81  C   UNL A   1      40.684  33.001  35.525  1.00  0.00     0.002 C 
ATOM     82  C   UNL A   1      40.177  32.927  36.962  1.00  0.00     0.000 C 
ENDBRANCH  75  77
ENDBRANCH  65  68
ENDBRANCH  63  64
ENDBRANCH  62  63
ENDBRANCH   1  62
TORSDOF 11
ENDMDL
