MODEL 1
REMARK VINA RESULT:     -12.7      0.000      0.000
REMARK SMILES CNC(=O)c1cc(S(=O)(=O)N2CCC(C(=O)NCCCNC(=O)c3ccc(-c4c5nc(c(-c6c(F)cccc6F)c6ccc([nH]6)c(-c6c(F)cccc6F)c6nc(c(-c7c(F)cccc7F)c7ccc4[nH]7)C=C6)C=C5)cc3)CC2)ccc1OC
REMARK SMILES IDX 18 1 17 2 15 3 16 4 14 6 11 7 12 8 79 9 13 10 78 11 8 12
REMARK SMILES IDX 9 13 10 14 7 15 5 16 6 17 82 18 81 19 80 20 3 21 1 22 2 23
REMARK SMILES IDX 4 25 83 26 84 27 19 28 20 29 21 30 22 31 23 33 24 34 25 35
REMARK SMILES IDX 77 36 26 37 76 38 27 39 28 40 29 41 70 42 30 43 75 44 69 45
REMARK SMILES IDX 71 46 31 47 74 48 68 49 67 50 32 52 58 53 41 54 57 55 42 56
REMARK SMILES IDX 45 57 56 58 72 59 43 60 44 61 55 63 73 64 46 65 33 66 34 67
REMARK SMILES IDX 39 68 35 69 36 70 38 71 40 72 37 73 59 74 60 75 65 76 61 77
REMARK SMILES IDX 62 78 64 79 66 80 63 81 47 82 48 83 53 84 49 85 50 86 52 87
REMARK SMILES IDX 54 88 51 89
REMARK H PARENT 17 5 2 24 21 32 71 51 45 62
REMARK Flexibility Score: inf
ROOT
ATOM      1  C   UNL A   1      31.643  30.930  26.127  1.00  0.00     0.117 C 
ENDROOT
BRANCH   1   2
ATOM      2  N   UNL A   1      31.531  29.862  27.109  1.00  0.00    -0.356 N 
ATOM      3  C   UNL A   1      31.612  28.513  26.985  1.00  0.00     0.223 C 
ATOM      4  O   UNL A   1      31.443  27.829  27.997  1.00  0.00    -0.275 OA
ATOM      5  H   UNL A   1      31.369  30.175  28.029  1.00  0.00     0.163 HD
BRANCH   3   6
ATOM      6  C   UNL A   1      31.906  27.845  25.655  1.00  0.00     0.081 C 
ATOM      7  N   UNL A   1      32.753  25.665  23.981  1.00  0.00    -0.198 NA
ATOM      8  C   UNL A   1      33.659  26.816  24.184  1.00  0.00     0.103 C 
ATOM      9  C   UNL A   1      31.297  25.909  24.123  1.00  0.00     0.103 C 
ATOM     10  C   UNL A   1      33.380  27.479  25.517  1.00  0.00     0.030 C 
ATOM     11  C   UNL A   1      30.953  26.683  25.383  1.00  0.00     0.030 C 
BRANCH   7  12
ATOM     12  S   UNL A   1      33.205  24.546  22.769  1.00  0.00     0.243 S 
ATOM     13  O   UNL A   1      33.971  25.280  21.786  1.00  0.00    -0.207 OA
ATOM     14  O   UNL A   1      32.031  23.783  22.400  1.00  0.00    -0.207 OA
BRANCH  12  15
ATOM     15  C   UNL A   1      34.341  23.389  23.519  1.00  0.00     0.083 A 
ATOM     16  C   UNL A   1      34.611  21.324  24.759  1.00  0.00     0.083 A 
ATOM     17  C   UNL A   1      33.780  22.306  24.203  1.00  0.00     0.039 A 
ATOM     18  C   UNL A   1      35.995  21.381  24.557  1.00  0.00     0.131 A 
ATOM     19  C   UNL A   1      36.552  22.489  23.921  1.00  0.00     0.048 A 
ATOM     20  C   UNL A   1      35.729  23.493  23.412  1.00  0.00     0.025 A 
BRANCH  16  21
ATOM     21  C   UNL A   1      33.954  20.256  25.536  1.00  0.00     0.254 C 
ATOM     22  C   UNL A   1      33.742  21.681  27.625  1.00  0.00     0.143 C 
ATOM     23  N   UNL A   1      33.599  20.475  26.842  1.00  0.00    -0.355 N 
ATOM     24  H   UNL A   1      33.191  19.709  27.307  1.00  0.00     0.163 HD
ATOM     25  O   UNL A   1      33.705  19.186  24.989  1.00  0.00    -0.269 OA
ENDBRANCH  16  21
BRANCH  18  26
ATOM     26  O   UNL A   1      36.895  20.439  24.972  1.00  0.00    -0.496 OA
ATOM     27  C   UNL A   1      38.138  21.013  25.381  1.00  0.00     0.278 C 
ENDBRANCH  18  26
ENDBRANCH  12  15
ENDBRANCH   7  12
ENDBRANCH   3   6
ENDBRANCH   1   2
BRANCH   1  28
ATOM     28  C   UNL A   1      31.420  32.303  26.741  1.00  0.00     0.042 C 
BRANCH  28  29
ATOM     29  C   UNL A   1      32.696  32.952  27.251  1.00  0.00     0.118 C 
BRANCH  29  30
ATOM     30  N   UNL A   1      32.485  34.325  27.685  1.00  0.00    -0.352 N 
ATOM     31  C   UNL A   1      33.060  35.025  28.716  1.00  0.00     0.251 C 
ATOM     32  H   UNL A   1      31.827  34.832  27.156  1.00  0.00     0.163 HD
ATOM     33  O   UNL A   1      32.594  36.111  29.050  1.00  0.00    -0.269 OA
BRANCH  31  34
ATOM     34  C   UNL A   1      34.225  34.470  29.435  1.00  0.00     0.039 A 
ATOM     35  C   UNL A   1      34.026  33.853  30.673  1.00  0.00     0.014 A 
ATOM     36  C   UNL A   1      35.513  34.576  28.904  1.00  0.00     0.014 A 
ATOM     37  C   UNL A   1      35.111  33.287  31.347  1.00  0.00     0.010 A 
ATOM     38  C   UNL A   1      36.575  33.935  29.530  1.00  0.00     0.010 A 
ATOM     39  C   UNL A   1      36.387  33.293  30.763  1.00  0.00    -0.014 A 
BRANCH  39  40
ATOM     40  C   UNL A   1      37.548  32.654  31.428  1.00  0.00     0.031 A 
ATOM     41  C   UNL A   1      38.257  31.509  30.760  1.00  0.00     0.074 A 
ATOM     42  C   UNL A   1      37.904  33.040  32.668  1.00  0.00     0.049 A 
ATOM     43  N   UNL A   1      39.219  30.750  31.221  1.00  0.00    -0.248 NA
ATOM     44  C   UNL A   1      37.800  31.144  29.410  1.00  0.00     0.031 C 
ATOM     45  C   UNL A   1      37.251  34.094  33.448  1.00  0.00     0.029 A 
ATOM     46  N   UNL A   1      38.893  32.576  33.496  1.00  0.00    -0.354 N 
ATOM     47  C   UNL A   1      39.455  29.801  30.235  1.00  0.00     0.074 A 
ATOM     48  C   UNL A   1      38.509  30.052  29.170  1.00  0.00     0.031 C 
ATOM     49  C   UNL A   1      37.866  34.205  34.636  1.00  0.00     0.029 A 
ATOM     50  C   UNL A   1      38.934  33.212  34.712  1.00  0.00     0.049 A 
ATOM     51  H   UNL A   1      39.513  31.855  33.244  1.00  0.00     0.167 HD
ATOM     52  C   UNL A   1      40.388  28.820  30.211  1.00  0.00     0.037 A 
ATOM     53  C   UNL A   1      39.738  33.013  35.773  1.00  0.00     0.037 A 
ATOM     54  C   UNL A   1      41.362  28.607  31.247  1.00  0.00     0.049 A 
ATOM     55  C   UNL A   1      40.803  31.956  35.701  1.00  0.00     0.074 A 
ATOM     56  C   UNL A   1      42.410  27.705  31.272  1.00  0.00     0.029 A 
ATOM     57  N   UNL A   1      41.407  29.310  32.441  1.00  0.00    -0.354 N 
ATOM     58  N   UNL A   1      41.065  31.114  34.731  1.00  0.00    -0.248 NA
ATOM     59  C   UNL A   1      41.688  31.828  36.866  1.00  0.00     0.031 C 
ATOM     60  C   UNL A   1      43.074  27.842  32.498  1.00  0.00     0.029 A 
ATOM     61  C   UNL A   1      42.457  28.852  33.219  1.00  0.00     0.049 A 
ATOM     62  H   UNL A   1      40.786  30.029  32.698  1.00  0.00     0.167 HD
ATOM     63  C   UNL A   1      42.153  30.368  35.159  1.00  0.00     0.074 A 
ATOM     64  C   UNL A   1      42.512  30.866  36.472  1.00  0.00     0.031 C 
ATOM     65  C   UNL A   1      42.799  29.361  34.522  1.00  0.00     0.037 A 
BRANCH  52  66
ATOM     66  C   UNL A   1      40.398  27.909  29.019  1.00  0.00     0.057 A 
ATOM     67  C   UNL A   1      41.157  28.194  27.877  1.00  0.00     0.134 A 
ATOM     68  C   UNL A   1      39.649  26.726  29.021  1.00  0.00     0.134 A 
ATOM     69  F   UNL A   1      41.883  29.319  27.806  1.00  0.00    -0.206 F 
ATOM     70  C   UNL A   1      41.147  27.348  26.766  1.00  0.00     0.040 A 
ATOM     71  C   UNL A   1      39.652  25.859  27.926  1.00  0.00     0.040 A 
ATOM     72  F   UNL A   1      38.903  26.392  30.085  1.00  0.00    -0.206 F 
ATOM     73  C   UNL A   1      40.397  26.175  26.791  1.00  0.00     0.006 A 
ENDBRANCH  52  66
BRANCH  53  74
ATOM     74  C   UNL A   1      39.583  33.860  36.979  1.00  0.00     0.057 A 
ATOM     75  C   UNL A   1      40.212  35.107  37.069  1.00  0.00     0.134 A 
ATOM     76  C   UNL A   1      38.789  33.456  38.058  1.00  0.00     0.134 A 
ATOM     77  F   UNL A   1      40.999  35.538  36.072  1.00  0.00    -0.206 F 
ATOM     78  C   UNL A   1      40.063  35.920  38.192  1.00  0.00     0.040 A 
ATOM     79  C   UNL A   1      38.615  34.268  39.180  1.00  0.00     0.040 A 
ATOM     80  F   UNL A   1      38.153  32.275  38.026  1.00  0.00    -0.206 F 
ATOM     81  C   UNL A   1      39.257  35.503  39.250  1.00  0.00     0.006 A 
ENDBRANCH  53  74
BRANCH  65  82
ATOM     82  C   UNL A   1      43.968  28.745  35.228  1.00  0.00     0.057 A 
ATOM     83  C   UNL A   1      43.811  27.667  36.107  1.00  0.00     0.134 A 
ATOM     84  C   UNL A   1      45.269  29.209  34.992  1.00  0.00     0.134 A 
ATOM     85  F   UNL A   1      42.589  27.187  36.384  1.00  0.00    -0.206 F 
ATOM     86  C   UNL A   1      44.908  27.082  36.741  1.00  0.00     0.040 A 
ATOM     87  C   UNL A   1      46.374  28.617  35.604  1.00  0.00     0.040 A 
ATOM     88  F   UNL A   1      45.485  30.233  34.154  1.00  0.00    -0.206 F 
ATOM     89  C   UNL A   1      46.194  27.552  36.485  1.00  0.00     0.006 A 
ENDBRANCH  65  82
ENDBRANCH  39  40
ENDBRANCH  31  34
ENDBRANCH  29  30
ENDBRANCH  28  29
ENDBRANCH   1  28
TORSDOF 14
ENDMDL
MODEL 2
REMARK VINA RESULT:     -12.6      4.264      9.600
REMARK SMILES CNC(=O)c1cc(S(=O)(=O)N2CCC(C(=O)NCCCNC(=O)c3ccc(-c4c5nc(c(-c6c(F)cccc6F)c6ccc([nH]6)c(-c6c(F)cccc6F)c6nc(c(-c7c(F)cccc7F)c7ccc4[nH]7)C=C6)C=C5)cc3)CC2)ccc1OC
REMARK SMILES IDX 18 1 17 2 15 3 16 4 14 6 11 7 12 8 79 9 13 10 78 11 8 12
REMARK SMILES IDX 9 13 10 14 7 15 5 16 6 17 82 18 81 19 80 20 3 21 1 22 2 23
REMARK SMILES IDX 4 25 83 26 84 27 19 28 20 29 21 30 22 31 23 33 24 34 25 35
REMARK SMILES IDX 77 36 26 37 76 38 27 39 28 40 29 41 70 42 30 43 75 44 69 45
REMARK SMILES IDX 71 46 31 47 74 48 68 49 67 50 32 52 58 53 41 54 57 55 42 56
REMARK SMILES IDX 45 57 56 58 72 59 43 60 44 61 55 63 73 64 46 65 33 66 34 67
REMARK SMILES IDX 39 68 35 69 36 70 38 71 40 72 37 73 59 74 60 75 65 76 61 77
REMARK SMILES IDX 62 78 64 79 66 80 63 81 47 82 48 83 53 84 49 85 50 86 52 87
REMARK SMILES IDX 54 88 51 89
REMARK H PARENT 17 5 2 24 21 32 71 51 45 62
REMARK Flexibility Score: inf
ROOT
ATOM      1  C   UNL A   1      37.043  20.339  24.982  1.00  0.00     0.117 C 
ENDROOT
BRANCH   1   2
ATOM      2  N   UNL A   1      37.143  21.407  23.998  1.00  0.00    -0.356 N 
ATOM      3  C   UNL A   1      36.363  22.493  23.767  1.00  0.00     0.223 C 
ATOM      4  O   UNL A   1      36.667  23.231  22.827  1.00  0.00    -0.275 OA
ATOM      5  H   UNL A   1      37.915  21.326  23.392  1.00  0.00     0.163 HD
BRANCH   3   6
ATOM      6  C   UNL A   1      35.157  22.814  24.628  1.00  0.00     0.081 C 
ATOM      7  N   UNL A   1      32.715  24.197  25.256  1.00  0.00    -0.198 NA
ATOM      8  C   UNL A   1      33.959  24.567  25.965  1.00  0.00     0.103 C 
ATOM      9  C   UNL A   1      32.616  22.816  24.726  1.00  0.00     0.103 C 
ATOM     10  C   UNL A   1      35.168  24.263  25.104  1.00  0.00     0.030 C 
ATOM     11  C   UNL A   1      33.853  22.395  23.952  1.00  0.00     0.030 C 
BRANCH   7  12
ATOM     12  S   UNL A   1      31.264  24.865  25.868  1.00  0.00     0.243 S 
ATOM     13  O   UNL A   1      31.202  24.518  27.271  1.00  0.00    -0.207 OA
ATOM     14  O   UNL A   1      30.192  24.525  24.957  1.00  0.00    -0.207 OA
BRANCH  12  15
ATOM     15  C   UNL A   1      31.434  26.641  25.804  1.00  0.00     0.083 A 
ATOM     16  C   UNL A   1      31.219  28.655  24.470  1.00  0.00     0.083 A 
ATOM     17  C   UNL A   1      31.170  27.258  24.576  1.00  0.00     0.039 A 
ATOM     18  C   UNL A   1      31.449  29.436  25.608  1.00  0.00     0.131 A 
ATOM     19  C   UNL A   1      31.764  28.815  26.816  1.00  0.00     0.048 A 
ATOM     20  C   UNL A   1      31.766  27.425  26.911  1.00  0.00     0.025 A 
BRANCH  16  21
ATOM     21  C   UNL A   1      31.010  29.229  23.127  1.00  0.00     0.254 C 
ATOM     22  C   UNL A   1      33.432  28.916  22.437  1.00  0.00     0.143 C 
ATOM     23  N   UNL A   1      32.062  29.337  22.254  1.00  0.00    -0.355 N 
ATOM     24  H   UNL A   1      31.855  29.756  21.388  1.00  0.00     0.163 HD
ATOM     25  O   UNL A   1      29.881  29.578  22.796  1.00  0.00    -0.269 OA
ENDBRANCH  16  21
BRANCH  18  26
ATOM     26  O   UNL A   1      31.433  30.803  25.646  1.00  0.00    -0.496 OA
ATOM     27  C   UNL A   1      31.872  31.320  26.904  1.00  0.00     0.278 C 
ENDBRANCH  18  26
ENDBRANCH  12  15
ENDBRANCH   7  12
ENDBRANCH   3   6
ENDBRANCH   1   2
BRANCH   1  28
ATOM     28  C   UNL A   1      38.292  19.473  25.020  1.00  0.00     0.042 C 
BRANCH  28  29
ATOM     29  C   UNL A   1      39.366  20.001  25.956  1.00  0.00     0.118 C 
BRANCH  29  30
ATOM     30  N   UNL A   1      40.572  19.186  25.934  1.00  0.00    -0.352 N 
ATOM     31  C   UNL A   1      41.885  19.544  26.113  1.00  0.00     0.251 C 
ATOM     32  H   UNL A   1      40.423  18.228  25.764  1.00  0.00     0.163 HD
ATOM     33  O   UNL A   1      42.777  18.742  25.848  1.00  0.00    -0.269 OA
BRANCH  31  34
ATOM     34  C   UNL A   1      42.229  20.893  26.607  1.00  0.00     0.039 A 
ATOM     35  C   UNL A   1      42.594  21.879  25.686  1.00  0.00     0.014 A 
ATOM     36  C   UNL A   1      42.216  21.182  27.974  1.00  0.00     0.014 A 
ATOM     37  C   UNL A   1      42.883  23.171  26.132  1.00  0.00     0.010 A 
ATOM     38  C   UNL A   1      42.413  22.487  28.408  1.00  0.00     0.010 A 
ATOM     39  C   UNL A   1      42.761  23.492  27.493  1.00  0.00    -0.014 A 
BRANCH  39  40
ATOM     40  C   UNL A   1      43.007  24.867  27.991  1.00  0.00     0.031 A 
ATOM     41  C   UNL A   1      44.393  25.279  28.399  1.00  0.00     0.074 A 
ATOM     42  C   UNL A   1      41.972  25.710  28.163  1.00  0.00     0.049 A 
ATOM     43  N   UNL A   1      44.794  26.394  28.957  1.00  0.00    -0.248 NA
ATOM     44  C   UNL A   1      45.467  24.294  28.187  1.00  0.00     0.031 C 
ATOM     45  C   UNL A   1      40.570  25.404  27.867  1.00  0.00     0.029 A 
ATOM     46  N   UNL A   1      41.938  26.992  28.647  1.00  0.00    -0.354 N 
ATOM     47  C   UNL A   1      46.153  26.228  29.194  1.00  0.00     0.074 A 
ATOM     48  C   UNL A   1      46.500  24.894  28.758  1.00  0.00     0.031 C 
ATOM     49  C   UNL A   1      39.816  26.474  28.162  1.00  0.00     0.029 A 
ATOM     50  C   UNL A   1      40.674  27.528  28.696  1.00  0.00     0.049 A 
ATOM     51  H   UNL A   1      42.742  27.482  28.933  1.00  0.00     0.167 HD
ATOM     52  C   UNL A   1      47.035  27.116  29.710  1.00  0.00     0.037 A 
ATOM     53  C   UNL A   1      40.254  28.731  29.129  1.00  0.00     0.037 A 
ATOM     54  C   UNL A   1      46.699  28.461  30.091  1.00  0.00     0.049 A 
ATOM     55  C   UNL A   1      41.259  29.719  29.645  1.00  0.00     0.074 A 
ATOM     56  C   UNL A   1      47.538  29.468  30.532  1.00  0.00     0.029 A 
ATOM     57  N   UNL A   1      45.415  28.985  30.073  1.00  0.00    -0.354 N 
ATOM     58  N   UNL A   1      42.554  29.578  29.793  1.00  0.00    -0.248 NA
ATOM     59  C   UNL A   1      40.747  31.037  30.046  1.00  0.00     0.031 C 
ATOM     60  C   UNL A   1      46.756  30.596  30.810  1.00  0.00     0.029 A 
ATOM     61  C   UNL A   1      45.436  30.299  30.511  1.00  0.00     0.049 A 
ATOM     62  H   UNL A   1      44.608  28.497  29.792  1.00  0.00     0.167 HD
ATOM     63  C   UNL A   1      43.015  30.790  30.287  1.00  0.00     0.074 A 
ATOM     64  C   UNL A   1      41.862  31.661  30.401  1.00  0.00     0.031 C 
ATOM     65  C   UNL A   1      44.279  31.150  30.616  1.00  0.00     0.037 A 
BRANCH  52  66
ATOM     66  C   UNL A   1      48.453  26.655  29.884  1.00  0.00     0.057 A 
ATOM     67  C   UNL A   1      49.429  26.882  28.905  1.00  0.00     0.134 A 
ATOM     68  C   UNL A   1      48.848  25.990  31.050  1.00  0.00     0.134 A 
ATOM     69  F   UNL A   1      49.112  27.500  27.758  1.00  0.00    -0.206 F 
ATOM     70  C   UNL A   1      50.742  26.435  29.068  1.00  0.00     0.040 A 
ATOM     71  C   UNL A   1      50.164  25.561  31.236  1.00  0.00     0.040 A 
ATOM     72  F   UNL A   1      47.962  25.744  32.028  1.00  0.00    -0.206 F 
ATOM     73  C   UNL A   1      51.112  25.777  30.238  1.00  0.00     0.006 A 
ENDBRANCH  52  66
BRANCH  53  74
ATOM     74  C   UNL A   1      38.813  29.072  29.059  1.00  0.00     0.057 A 
ATOM     75  C   UNL A   1      37.992  28.963  30.186  1.00  0.00     0.134 A 
ATOM     76  C   UNL A   1      38.229  29.536  27.874  1.00  0.00     0.134 A 
ATOM     77  F   UNL A   1      38.494  28.509  31.344  1.00  0.00    -0.206 F 
ATOM     78  C   UNL A   1      36.638  29.296  30.138  1.00  0.00     0.040 A 
ATOM     79  C   UNL A   1      36.880  29.891  27.816  1.00  0.00     0.040 A 
ATOM     80  F   UNL A   1      38.968  29.670  26.763  1.00  0.00    -0.206 F 
ATOM     81  C   UNL A   1      36.080  29.766  28.951  1.00  0.00     0.006 A 
ENDBRANCH  53  74
BRANCH  65  82
ATOM     82  C   UNL A   1      44.484  32.549  31.112  1.00  0.00     0.057 A 
ATOM     83  C   UNL A   1      44.699  33.617  30.233  1.00  0.00     0.134 A 
ATOM     84  C   UNL A   1      44.424  32.835  32.482  1.00  0.00     0.134 A 
ATOM     85  F   UNL A   1      44.780  33.403  28.911  1.00  0.00    -0.206 F 
ATOM     86  C   UNL A   1      44.863  34.921  30.701  1.00  0.00     0.040 A 
ATOM     87  C   UNL A   1      44.566  34.139  32.959  1.00  0.00     0.040 A 
ATOM     88  F   UNL A   1      44.213  31.856  33.374  1.00  0.00    -0.206 F 
ATOM     89  C   UNL A   1      44.790  35.186  32.067  1.00  0.00     0.006 A 
ENDBRANCH  65  82
ENDBRANCH  39  40
ENDBRANCH  31  34
ENDBRANCH  29  30
ENDBRANCH  28  29
ENDBRANCH   1  28
TORSDOF 14
ENDMDL
MODEL 3
REMARK VINA RESULT:     -12.5      1.383      6.095
REMARK SMILES CNC(=O)c1cc(S(=O)(=O)N2CCC(C(=O)NCCCNC(=O)c3ccc(-c4c5nc(c(-c6c(F)cccc6F)c6ccc([nH]6)c(-c6c(F)cccc6F)c6nc(c(-c7c(F)cccc7F)c7ccc4[nH]7)C=C6)C=C5)cc3)CC2)ccc1OC
REMARK SMILES IDX 18 1 17 2 15 3 16 4 14 6 11 7 12 8 79 9 13 10 78 11 8 12
REMARK SMILES IDX 9 13 10 14 7 15 5 16 6 17 82 18 81 19 80 20 3 21 1 22 2 23
REMARK SMILES IDX 4 25 83 26 84 27 19 28 20 29 21 30 22 31 23 33 24 34 25 35
REMARK SMILES IDX 77 36 26 37 76 38 27 39 28 40 29 41 70 42 30 43 75 44 69 45
REMARK SMILES IDX 71 46 31 47 74 48 68 49 67 50 32 52 58 53 41 54 57 55 42 56
REMARK SMILES IDX 45 57 56 58 72 59 43 60 44 61 55 63 73 64 46 65 33 66 34 67
REMARK SMILES IDX 39 68 35 69 36 70 38 71 40 72 37 73 59 74 60 75 65 76 61 77
REMARK SMILES IDX 62 78 64 79 66 80 63 81 47 82 48 83 53 84 49 85 50 86 52 87
REMARK SMILES IDX 54 88 51 89
REMARK H PARENT 17 5 2 24 21 32 71 51 45 62
REMARK Flexibility Score: inf
ROOT
ATOM      1  C   UNL A   1      31.467  30.974  25.966  1.00  0.00     0.117 C 
ENDROOT
BRANCH   1   2
ATOM      2  N   UNL A   1      31.496  29.949  26.999  1.00  0.00    -0.356 N 
ATOM      3  C   UNL A   1      31.777  28.622  26.943  1.00  0.00     0.223 C 
ATOM      4  O   UNL A   1      31.692  27.970  27.986  1.00  0.00    -0.275 OA
ATOM      5  H   UNL A   1      31.273  30.277  27.900  1.00  0.00     0.163 HD
BRANCH   3   6
ATOM      6  C   UNL A   1      32.191  27.942  25.651  1.00  0.00     0.081 C 
ATOM      7  N   UNL A   1      32.716  25.668  23.972  1.00  0.00    -0.198 NA
ATOM      8  C   UNL A   1      33.852  26.432  24.531  1.00  0.00     0.103 C 
ATOM      9  C   UNL A   1      31.433  26.388  23.786  1.00  0.00     0.103 C 
ATOM     10  C   UNL A   1      33.450  27.101  25.829  1.00  0.00     0.030 C 
ATOM     11  C   UNL A   1      31.027  27.186  25.013  1.00  0.00     0.030 C 
BRANCH   7  12
ATOM     12  S   UNL A   1      33.097  24.507  22.775  1.00  0.00     0.243 S 
ATOM     13  O   UNL A   1      33.890  25.183  21.772  1.00  0.00    -0.207 OA
ATOM     14  O   UNL A   1      31.882  23.801  22.429  1.00  0.00    -0.207 OA
BRANCH  12  15
ATOM     15  C   UNL A   1      34.179  23.305  23.534  1.00  0.00     0.083 A 
ATOM     16  C   UNL A   1      34.354  21.232  24.780  1.00  0.00     0.083 A 
ATOM     17  C   UNL A   1      33.568  22.247  24.217  1.00  0.00     0.039 A 
ATOM     18  C   UNL A   1      35.740  21.231  24.586  1.00  0.00     0.131 A 
ATOM     19  C   UNL A   1      36.347  22.313  23.952  1.00  0.00     0.048 A 
ATOM     20  C   UNL A   1      35.570  23.350  23.436  1.00  0.00     0.025 A 
BRANCH  16  21
ATOM     21  C   UNL A   1      33.648  20.194  25.554  1.00  0.00     0.254 C 
ATOM     22  C   UNL A   1      33.746  21.512  27.720  1.00  0.00     0.143 C 
ATOM     23  N   UNL A   1      33.417  20.374  26.893  1.00  0.00    -0.355 N 
ATOM     24  H   UNL A   1      32.967  19.628  27.352  1.00  0.00     0.163 HD
ATOM     25  O   UNL A   1      33.246  19.188  24.977  1.00  0.00    -0.269 OA
ENDBRANCH  16  21
BRANCH  18  26
ATOM     26  O   UNL A   1      36.597  20.252  25.008  1.00  0.00    -0.496 OA
ATOM     27  C   UNL A   1      37.963  20.669  24.971  1.00  0.00     0.278 C 
ENDBRANCH  18  26
ENDBRANCH  12  15
ENDBRANCH   7  12
ENDBRANCH   3   6
ENDBRANCH   1   2
BRANCH   1  28
ATOM     28  C   UNL A   1      31.364  32.375  26.549  1.00  0.00     0.042 C 
BRANCH  28  29
ATOM     29  C   UNL A   1      32.638  32.839  27.235  1.00  0.00     0.118 C 
BRANCH  29  30
ATOM     30  N   UNL A   1      32.516  34.184  27.780  1.00  0.00    -0.352 N 
ATOM     31  C   UNL A   1      33.234  34.806  28.771  1.00  0.00     0.251 C 
ATOM     32  H   UNL A   1      31.807  34.734  27.374  1.00  0.00     0.163 HD
ATOM     33  O   UNL A   1      32.840  35.873  29.231  1.00  0.00    -0.269 OA
BRANCH  31  34
ATOM     34  C   UNL A   1      34.469  34.187  29.296  1.00  0.00     0.039 A 
ATOM     35  C   UNL A   1      34.403  33.439  30.474  1.00  0.00     0.014 A 
ATOM     36  C   UNL A   1      35.692  34.361  28.644  1.00  0.00     0.014 A 
ATOM     37  C   UNL A   1      35.553  32.813  30.962  1.00  0.00     0.010 A 
ATOM     38  C   UNL A   1      36.814  33.666  29.078  1.00  0.00     0.010 A 
ATOM     39  C   UNL A   1      36.759  32.894  30.249  1.00  0.00    -0.014 A 
BRANCH  39  40
ATOM     40  C   UNL A   1      37.983  32.198  30.711  1.00  0.00     0.031 A 
ATOM     41  C   UNL A   1      38.808  32.787  31.821  1.00  0.00     0.074 A 
ATOM     42  C   UNL A   1      38.401  31.088  30.073  1.00  0.00     0.049 A 
ATOM     43  N   UNL A   1      39.962  32.391  32.294  1.00  0.00    -0.248 NA
ATOM     44  C   UNL A   1      38.285  34.006  32.458  1.00  0.00     0.031 C 
ATOM     45  C   UNL A   1      37.723  30.456  28.939  1.00  0.00     0.029 A 
ATOM     46  N   UNL A   1      39.508  30.306  30.278  1.00  0.00    -0.354 N 
ATOM     47  C   UNL A   1      40.317  33.329  33.255  1.00  0.00     0.074 A 
ATOM     48  C   UNL A   1      39.279  34.335  33.269  1.00  0.00     0.031 C 
ATOM     49  C   UNL A   1      38.422  29.375  28.558  1.00  0.00     0.029 A 
ATOM     50  C   UNL A   1      39.610  29.257  29.398  1.00  0.00     0.049 A 
ATOM     51  H   UNL A   1      40.168  30.481  30.987  1.00  0.00     0.167 HD
ATOM     52  C   UNL A   1      41.401  33.339  34.065  1.00  0.00     0.037 A 
ATOM     53  C   UNL A   1      40.557  28.309  29.279  1.00  0.00     0.037 A 
ATOM     54  C   UNL A   1      42.404  32.310  34.087  1.00  0.00     0.049 A 
ATOM     55  C   UNL A   1      41.723  28.309  30.226  1.00  0.00     0.074 A 
ATOM     56  C   UNL A   1      43.487  32.178  34.937  1.00  0.00     0.029 A 
ATOM     57  N   UNL A   1      42.442  31.231  33.217  1.00  0.00    -0.354 N 
ATOM     58  N   UNL A   1      42.008  29.160  31.182  1.00  0.00    -0.248 NA
ATOM     59  C   UNL A   1      42.692  27.215  30.085  1.00  0.00     0.031 C 
ATOM     60  C   UNL A   1      44.200  31.032  34.561  1.00  0.00     0.029 A 
ATOM     61  C   UNL A   1      43.540  30.435  33.499  1.00  0.00     0.049 A 
ATOM     62  H   UNL A   1      41.786  31.055  32.504  1.00  0.00     0.167 HD
ATOM     63  C   UNL A   1      43.177  28.697  31.767  1.00  0.00     0.074 A 
ATOM     64  C   UNL A   1      43.542  27.481  31.067  1.00  0.00     0.031 C 
ATOM     65  C   UNL A   1      43.886  29.229  32.792  1.00  0.00     0.037 A 
BRANCH  52  66
ATOM     66  C   UNL A   1      41.550  34.504  35.000  1.00  0.00     0.057 A 
ATOM     67  C   UNL A   1      42.203  35.682  34.615  1.00  0.00     0.134 A 
ATOM     68  C   UNL A   1      41.022  34.451  36.295  1.00  0.00     0.134 A 
ATOM     69  F   UNL A   1      42.744  35.792  33.393  1.00  0.00    -0.206 F 
ATOM     70  C   UNL A   1      42.352  36.755  35.496  1.00  0.00     0.040 A 
ATOM     71  C   UNL A   1      41.142  35.527  37.177  1.00  0.00     0.040 A 
ATOM     72  F   UNL A   1      40.382  33.353  36.726  1.00  0.00    -0.206 F 
ATOM     73  C   UNL A   1      41.816  36.680  36.780  1.00  0.00     0.006 A 
ENDBRANCH  52  66
BRANCH  53  74
ATOM     74  C   UNL A   1      40.420  27.262  28.238  1.00  0.00     0.057 A 
ATOM     75  C   UNL A   1      41.074  27.382  27.007  1.00  0.00     0.134 A 
ATOM     76  C   UNL A   1      39.655  26.111  28.456  1.00  0.00     0.134 A 
ATOM     77  F   UNL A   1      41.809  28.472  26.737  1.00  0.00    -0.206 F 
ATOM     78  C   UNL A   1      40.965  26.398  26.024  1.00  0.00     0.040 A 
ATOM     79  C   UNL A   1      39.552  25.109  27.490  1.00  0.00     0.040 A 
ATOM     80  F   UNL A   1      39.012  25.936  29.620  1.00  0.00    -0.206 F 
ATOM     81  C   UNL A   1      40.207  25.255  26.267  1.00  0.00     0.006 A 
ENDBRANCH  53  74
BRANCH  65  82
ATOM     82  C   UNL A   1      45.114  28.491  33.230  1.00  0.00     0.057 A 
ATOM     83  C   UNL A   1      45.056  27.466  34.180  1.00  0.00     0.134 A 
ATOM     84  C   UNL A   1      46.361  28.783  32.662  1.00  0.00     0.134 A 
ATOM     85  F   UNL A   1      43.893  27.149  34.769  1.00  0.00    -0.206 F 
ATOM     86  C   UNL A   1      46.201  26.765  34.564  1.00  0.00     0.040 A 
ATOM     87  C   UNL A   1      47.508  28.076  33.023  1.00  0.00     0.040 A 
ATOM     88  F   UNL A   1      46.481  29.750  31.741  1.00  0.00    -0.206 F 
ATOM     89  C   UNL A   1      47.430  27.065  33.980  1.00  0.00     0.006 A 
ENDBRANCH  65  82
ENDBRANCH  39  40
ENDBRANCH  31  34
ENDBRANCH  29  30
ENDBRANCH  28  29
ENDBRANCH   1  28
TORSDOF 14
ENDMDL
