MODEL 1
REMARK VINA RESULT:     -13.0      0.000      0.000
REMARK SMILES COc1ccc(Cl)c2c1N[C@@H](c1ccc(C(=O)NCCCNC(=O)c3ccc(-c4c5nc(c(-c6c(F)cccc6F)c6ccc([nH]6)c(-c6c(F)cccc6F)c6nc(c(-c7c(F)cccc7F)c7ccc4[nH]7)C=C6)C=C5)cc3)cc1)[C@@H]1CC=C[C@H]21
REMARK SMILES IDX 20 1 19 2 18 3 16 4 17 5 15 7 12 8 13 9 80 10 14 11 79 12
REMARK SMILES IDX 11 13 3 14 4 15 9 16 5 17 8 18 10 19 6 20 85 21 7 23 81 24
REMARK SMILES IDX 84 25 82 26 83 27 2 28 1 29 21 30 22 31 23 32 24 34 25 35
REMARK SMILES IDX 26 36 78 37 27 38 77 39 28 40 29 41 30 42 71 43 31 44 76 45
REMARK SMILES IDX 70 46 72 47 32 48 75 49 69 50 68 51 33 53 59 54 42 55 58 56
REMARK SMILES IDX 43 57 46 58 57 59 73 60 44 61 45 62 56 64 74 65 47 66 34 67
REMARK SMILES IDX 35 68 40 69 36 70 37 71 39 72 41 73 38 74 60 75 61 76 66 77
REMARK SMILES IDX 62 78 63 79 65 80 67 81 64 82 48 83 49 84 54 85 50 86 51 87
REMARK SMILES IDX 53 88 55 89 52 90
REMARK H PARENT 18 6 10 22 22 33 72 52 46 63
REMARK Flexibility Score: inf
ROOT
ATOM      1  C   UNL A   1      40.532  22.074  27.254  1.00  0.00     0.042 C 
ENDROOT
BRANCH   1   2
ATOM      2  C   UNL A   1      39.264  22.475  26.502  1.00  0.00     0.118 C 
BRANCH   2   3
ATOM      3  N   UNL A   1      38.596  21.305  25.967  1.00  0.00    -0.352 N 
ATOM      4  C   UNL A   1      37.372  21.137  25.373  1.00  0.00     0.251 C 
ATOM      5  O   UNL A   1      37.072  20.004  25.000  1.00  0.00    -0.269 OA
ATOM      6  H   UNL A   1      39.120  20.474  26.045  1.00  0.00     0.163 HD
BRANCH   4   7
ATOM      7  C   UNL A   1      36.437  22.263  25.108  1.00  0.00     0.039 A 
ATOM      8  C   UNL A   1      34.777  24.459  24.421  1.00  0.00    -0.025 A 
ATOM      9  C   UNL A   1      35.456  23.730  23.433  1.00  0.00     0.006 A 
ATOM     10  C   UNL A   1      34.899  24.027  25.750  1.00  0.00     0.006 A 
ATOM     11  C   UNL A   1      36.256  22.634  23.769  1.00  0.00     0.014 A 
ATOM     12  C   UNL A   1      35.718  22.946  26.088  1.00  0.00     0.014 A 
BRANCH   8  13
ATOM     13  C   UNL A   1      33.906  25.671  24.112  1.00  0.00     0.114 C 
ATOM     14  C   UNL A   1      33.430  28.789  26.077  1.00  0.00     0.142 A 
ATOM     15  C   UNL A   1      32.621  29.921  26.137  1.00  0.00     0.050 A 
ATOM     16  C   UNL A   1      33.113  27.707  25.233  1.00  0.00     0.083 A 
ATOM     17  C   UNL A   1      31.500  30.002  25.319  1.00  0.00     0.025 A 
ATOM     18  C   UNL A   1      31.988  27.791  24.393  1.00  0.00     0.005 A 
ATOM     19  N   UNL A   1      33.892  26.562  25.255  1.00  0.00    -0.375 N 
ATOM     20  C   UNL A   1      31.185  28.950  24.453  1.00  0.00     0.047 A 
ATOM     21  C   UNL A   1      31.636  26.624  23.500  1.00  0.00     0.051 C 
ATOM     22  H   UNL A   1      34.434  26.353  26.049  1.00  0.00     0.161 HD
ATOM     23  Cl  UNL A   1      29.750  29.124  23.499  1.00  0.00    -0.084 Cl
ATOM     24  C   UNL A   1      32.448  25.321  23.734  1.00  0.00     0.031 C 
ATOM     25  C   UNL A   1      31.880  26.859  22.028  1.00  0.00    -0.023 C 
ATOM     26  C   UNL A   1      32.315  24.595  22.381  1.00  0.00     0.034 C 
ATOM     27  C   UNL A   1      32.248  25.730  21.410  1.00  0.00    -0.030 C 
BRANCH  14  28
ATOM     28  O   UNL A   1      34.510  28.746  26.929  1.00  0.00    -0.495 OA
ATOM     29  C   UNL A   1      34.713  30.002  27.581  1.00  0.00     0.278 C 
ENDBRANCH  14  28
ENDBRANCH   8  13
ENDBRANCH   4   7
ENDBRANCH   2   3
ENDBRANCH   1   2
BRANCH   1  30
ATOM     30  C   UNL A   1      41.474  23.248  27.483  1.00  0.00     0.118 C 
BRANCH  30  31
ATOM     31  N   UNL A   1      41.602  24.072  26.290  1.00  0.00    -0.352 N 
ATOM     32  C   UNL A   1      41.304  25.400  26.123  1.00  0.00     0.251 C 
ATOM     33  H   UNL A   1      41.949  23.610  25.492  1.00  0.00     0.163 HD
ATOM     34  O   UNL A   1      41.194  25.876  25.001  1.00  0.00    -0.269 OA
BRANCH  32  35
ATOM     35  C   UNL A   1      41.120  26.253  27.312  1.00  0.00     0.039 A 
ATOM     36  C   UNL A   1      40.022  26.037  28.148  1.00  0.00     0.014 A 
ATOM     37  C   UNL A   1      42.021  27.290  27.575  1.00  0.00     0.014 A 
ATOM     38  C   UNL A   1      39.846  26.843  29.273  1.00  0.00     0.010 A 
ATOM     39  C   UNL A   1      41.883  28.048  28.730  1.00  0.00     0.010 A 
ATOM     40  C   UNL A   1      40.780  27.845  29.574  1.00  0.00    -0.014 A 
BRANCH  40  41
ATOM     41  C   UNL A   1      40.584  28.759  30.722  1.00  0.00     0.031 A 
ATOM     42  C   UNL A   1      39.538  29.832  30.630  1.00  0.00     0.074 A 
ATOM     43  C   UNL A   1      41.370  28.656  31.809  1.00  0.00     0.049 A 
ATOM     44  N   UNL A   1      39.243  30.778  31.483  1.00  0.00    -0.248 NA
ATOM     45  C   UNL A   1      38.728  29.856  29.400  1.00  0.00     0.031 C 
ATOM     46  C   UNL A   1      42.431  27.666  31.998  1.00  0.00     0.029 A 
ATOM     47  N   UNL A   1      41.403  29.407  32.955  1.00  0.00    -0.354 N 
ATOM     48  C   UNL A   1      38.217  31.507  30.895  1.00  0.00     0.074 A 
ATOM     49  C   UNL A   1      37.988  30.937  29.585  1.00  0.00     0.031 C 
ATOM     50  C   UNL A   1      43.003  27.864  33.198  1.00  0.00     0.029 A 
ATOM     51  C   UNL A   1      42.373  29.012  33.842  1.00  0.00     0.049 A 
ATOM     52  H   UNL A   1      40.789  30.157  33.125  1.00  0.00     0.167 HD
ATOM     53  C   UNL A   1      37.511  32.541  31.409  1.00  0.00     0.037 A 
ATOM     54  C   UNL A   1      42.717  29.532  35.036  1.00  0.00     0.037 A 
ATOM     55  C   UNL A   1      37.750  33.107  32.709  1.00  0.00     0.049 A 
ATOM     56  C   UNL A   1      41.961  30.726  35.555  1.00  0.00     0.074 A 
ATOM     57  C   UNL A   1      37.079  34.138  33.340  1.00  0.00     0.029 A 
ATOM     58  N   UNL A   1      38.753  32.693  33.574  1.00  0.00    -0.354 N 
ATOM     59  N   UNL A   1      40.952  31.370  35.018  1.00  0.00    -0.248 NA
ATOM     60  C   UNL A   1      42.391  31.263  36.854  1.00  0.00     0.031 C 
ATOM     61  C   UNL A   1      37.707  34.382  34.566  1.00  0.00     0.029 A 
ATOM     62  C   UNL A   1      38.735  33.465  34.724  1.00  0.00     0.049 A 
ATOM     63  H   UNL A   1      39.383  31.958  33.398  1.00  0.00     0.167 HD
ATOM     64  C   UNL A   1      40.606  32.364  35.926  1.00  0.00     0.074 A 
ATOM     65  C   UNL A   1      41.502  32.224  37.055  1.00  0.00     0.031 C 
ATOM     66  C   UNL A   1      39.637  33.307  35.837  1.00  0.00     0.037 A 
BRANCH  53  67
ATOM     67  C   UNL A   1      36.424  33.122  30.550  1.00  0.00     0.057 A 
ATOM     68  C   UNL A   1      35.082  32.796  30.774  1.00  0.00     0.134 A 
ATOM     69  C   UNL A   1      36.708  34.009  29.502  1.00  0.00     0.134 A 
ATOM     70  F   UNL A   1      34.739  31.951  31.757  1.00  0.00    -0.206 F 
ATOM     71  C   UNL A   1      34.060  33.337  29.991  1.00  0.00     0.040 A 
ATOM     72  C   UNL A   1      35.692  34.580  28.733  1.00  0.00     0.040 A 
ATOM     73  F   UNL A   1      37.973  34.377  29.243  1.00  0.00    -0.206 F 
ATOM     74  C   UNL A   1      34.364  34.240  28.974  1.00  0.00     0.006 A 
ENDBRANCH  53  67
BRANCH  54  75
ATOM     75  C   UNL A   1      43.816  28.931  35.833  1.00  0.00     0.057 A 
ATOM     76  C   UNL A   1      45.124  29.425  35.769  1.00  0.00     0.134 A 
ATOM     77  C   UNL A   1      43.570  27.873  36.716  1.00  0.00     0.134 A 
ATOM     78  F   UNL A   1      45.429  30.433  34.938  1.00  0.00    -0.206 F 
ATOM     79  C   UNL A   1      46.146  28.893  36.558  1.00  0.00     0.040 A 
ATOM     80  C   UNL A   1      44.575  27.350  37.530  1.00  0.00     0.040 A 
ATOM     81  F   UNL A   1      42.332  27.369  36.836  1.00  0.00    -0.206 F 
ATOM     82  C   UNL A   1      45.869  27.861  37.451  1.00  0.00     0.006 A 
ENDBRANCH  54  75
BRANCH  66  83
ATOM     83  C   UNL A   1      39.474  34.232  37.010  1.00  0.00     0.057 A 
ATOM     84  C   UNL A   1      40.041  35.513  36.988  1.00  0.00     0.134 A 
ATOM     85  C   UNL A   1      38.776  33.852  38.163  1.00  0.00     0.134 A 
ATOM     86  F   UNL A   1      40.731  35.936  35.919  1.00  0.00    -0.206 F 
ATOM     87  C   UNL A   1      39.919  36.382  38.073  1.00  0.00     0.040 A 
ATOM     88  C   UNL A   1      38.620  34.726  39.240  1.00  0.00     0.040 A 
ATOM     89  F   UNL A   1      38.197  32.645  38.242  1.00  0.00    -0.206 F 
ATOM     90  C   UNL A   1      39.198  35.993  39.199  1.00  0.00     0.006 A 
ENDBRANCH  66  83
ENDBRANCH  40  41
ENDBRANCH  32  35
ENDBRANCH  30  31
ENDBRANCH   1  30
TORSDOF 12
ENDMDL
MODEL 2
REMARK VINA RESULT:     -12.8      5.134     10.445
REMARK SMILES COc1ccc(Cl)c2c1N[C@@H](c1ccc(C(=O)NCCCNC(=O)c3ccc(-c4c5nc(c(-c6c(F)cccc6F)c6ccc([nH]6)c(-c6c(F)cccc6F)c6nc(c(-c7c(F)cccc7F)c7ccc4[nH]7)C=C6)C=C5)cc3)cc1)[C@@H]1CC=C[C@H]21
REMARK SMILES IDX 20 1 19 2 18 3 16 4 17 5 15 7 12 8 13 9 80 10 14 11 79 12
REMARK SMILES IDX 11 13 3 14 4 15 9 16 5 17 8 18 10 19 6 20 85 21 7 23 81 24
REMARK SMILES IDX 84 25 82 26 83 27 2 28 1 29 21 30 22 31 23 32 24 34 25 35
REMARK SMILES IDX 26 36 78 37 27 38 77 39 28 40 29 41 30 42 71 43 31 44 76 45
REMARK SMILES IDX 70 46 72 47 32 48 75 49 69 50 68 51 33 53 59 54 42 55 58 56
REMARK SMILES IDX 43 57 46 58 57 59 73 60 44 61 45 62 56 64 74 65 47 66 34 67
REMARK SMILES IDX 35 68 40 69 36 70 37 71 39 72 41 73 38 74 60 75 61 76 66 77
REMARK SMILES IDX 62 78 63 79 65 80 67 81 64 82 48 83 49 84 54 85 50 86 51 87
REMARK SMILES IDX 53 88 55 89 52 90
REMARK H PARENT 18 6 10 22 22 33 72 52 46 63
REMARK Flexibility Score: inf
ROOT
ATOM      1  C   UNL A   1      34.977  32.385  27.983  1.00  0.00     0.042 C 
ENDROOT
BRANCH   1   2
ATOM      2  C   UNL A   1      34.234  31.073  27.739  1.00  0.00     0.118 C 
BRANCH   2   3
ATOM      3  N   UNL A   1      33.011  31.310  26.996  1.00  0.00    -0.352 N 
ATOM      4  C   UNL A   1      32.218  30.482  26.245  1.00  0.00     0.251 C 
ATOM      5  O   UNL A   1      31.213  30.971  25.730  1.00  0.00    -0.269 OA
ATOM      6  H   UNL A   1      32.691  32.240  27.039  1.00  0.00     0.163 HD
BRANCH   4   7
ATOM      7  C   UNL A   1      32.485  29.027  26.084  1.00  0.00     0.039 A 
ATOM      8  C   UNL A   1      32.932  26.228  25.993  1.00  0.00    -0.025 A 
ATOM      9  C   UNL A   1      31.958  26.776  26.841  1.00  0.00     0.006 A 
ATOM     10  C   UNL A   1      33.631  27.104  25.150  1.00  0.00     0.006 A 
ATOM     11  C   UNL A   1      31.722  28.154  26.869  1.00  0.00     0.014 A 
ATOM     12  C   UNL A   1      33.412  28.483  25.196  1.00  0.00     0.014 A 
BRANCH   8  13
ATOM     13  C   UNL A   1      33.241  24.736  25.933  1.00  0.00     0.114 C 
ATOM     14  C   UNL A   1      36.532  23.023  25.724  1.00  0.00     0.142 A 
ATOM     15  C   UNL A   1      37.089  21.767  25.493  1.00  0.00     0.050 A 
ATOM     16  C   UNL A   1      35.162  23.265  25.508  1.00  0.00     0.083 A 
ATOM     17  C   UNL A   1      36.269  20.722  25.079  1.00  0.00     0.025 A 
ATOM     18  C   UNL A   1      34.326  22.208  25.104  1.00  0.00     0.005 A 
ATOM     19  N   UNL A   1      34.653  24.544  25.669  1.00  0.00    -0.375 N 
ATOM     20  C   UNL A   1      34.901  20.938  24.887  1.00  0.00     0.047 A 
ATOM     21  C   UNL A   1      32.860  22.472  24.854  1.00  0.00     0.051 C 
ATOM     22  H   UNL A   1      35.251  25.322  25.601  1.00  0.00     0.161 HD
ATOM     23  Cl  UNL A   1      33.966  19.589  24.336  1.00  0.00    -0.084 Cl
ATOM     24  C   UNL A   1      32.425  23.963  24.872  1.00  0.00     0.031 C 
ATOM     25  C   UNL A   1      31.928  21.885  25.887  1.00  0.00    -0.023 C 
ATOM     26  C   UNL A   1      30.920  23.870  25.193  1.00  0.00     0.034 C 
ATOM     27  C   UNL A   1      30.850  22.658  26.066  1.00  0.00    -0.030 C 
BRANCH  14  28
ATOM     28  O   UNL A   1      37.391  24.027  26.103  1.00  0.00    -0.495 OA
ATOM     29  C   UNL A   1      38.663  23.508  26.498  1.00  0.00     0.278 C 
ENDBRANCH  14  28
ENDBRANCH   8  13
ENDBRANCH   4   7
ENDBRANCH   2   3
ENDBRANCH   1   2
BRANCH   1  30
ATOM     30  C   UNL A   1      36.182  32.215  28.898  1.00  0.00     0.118 C 
BRANCH  30  31
ATOM     31  N   UNL A   1      35.852  31.425  30.075  1.00  0.00    -0.352 N 
ATOM     32  C   UNL A   1      36.476  30.306  30.565  1.00  0.00     0.251 C 
ATOM     33  H   UNL A   1      35.072  31.736  30.589  1.00  0.00     0.163 HD
ATOM     34  O   UNL A   1      35.918  29.594  31.389  1.00  0.00    -0.269 OA
BRANCH  32  35
ATOM     35  C   UNL A   1      37.832  29.970  30.091  1.00  0.00     0.039 A 
ATOM     36  C   UNL A   1      38.057  29.800  28.722  1.00  0.00     0.014 A 
ATOM     37  C   UNL A   1      38.870  29.788  31.010  1.00  0.00     0.014 A 
ATOM     38  C   UNL A   1      39.338  29.482  28.271  1.00  0.00     0.010 A 
ATOM     39  C   UNL A   1      40.157  29.537  30.556  1.00  0.00     0.010 A 
ATOM     40  C   UNL A   1      40.395  29.359  29.185  1.00  0.00    -0.014 A 
BRANCH  40  41
ATOM     41  C   UNL A   1      41.749  28.955  28.744  1.00  0.00     0.031 A 
ATOM     42  C   UNL A   1      41.996  27.525  28.359  1.00  0.00     0.074 A 
ATOM     43  C   UNL A   1      42.752  29.852  28.738  1.00  0.00     0.049 A 
ATOM     44  N   UNL A   1      43.113  26.941  28.008  1.00  0.00    -0.248 NA
ATOM     45  C   UNL A   1      40.831  26.625  28.394  1.00  0.00     0.031 C 
ATOM     46  C   UNL A   1      42.632  31.262  29.111  1.00  0.00     0.029 A 
ATOM     47  N   UNL A   1      44.076  29.701  28.418  1.00  0.00    -0.354 N 
ATOM     48  C   UNL A   1      42.784  25.610  27.783  1.00  0.00     0.074 A 
ATOM     49  C   UNL A   1      41.382  25.458  28.102  1.00  0.00     0.031 C 
ATOM     50  C   UNL A   1      43.834  31.849  28.985  1.00  0.00     0.029 A 
ATOM     51  C   UNL A   1      44.810  30.852  28.559  1.00  0.00     0.049 A 
ATOM     52  H   UNL A   1      44.463  28.848  28.114  1.00  0.00     0.167 HD
ATOM     53  C   UNL A   1      43.574  24.610  27.326  1.00  0.00     0.037 A 
ATOM     54  C   UNL A   1      46.127  31.067  28.372  1.00  0.00     0.037 A 
ATOM     55  C   UNL A   1      44.970  24.767  27.018  1.00  0.00     0.049 A 
ATOM     56  C   UNL A   1      46.996  29.921  27.929  1.00  0.00     0.074 A 
ATOM     57  C   UNL A   1      45.857  23.829  26.524  1.00  0.00     0.029 A 
ATOM     58  N   UNL A   1      45.684  25.944  27.189  1.00  0.00    -0.354 N 
ATOM     59  N   UNL A   1      46.665  28.681  27.660  1.00  0.00    -0.248 NA
ATOM     60  C   UNL A   1      48.428  30.209  27.759  1.00  0.00     0.031 C 
ATOM     61  C   UNL A   1      47.121  24.424  26.444  1.00  0.00     0.029 A 
ATOM     62  C   UNL A   1      47.009  25.750  26.835  1.00  0.00     0.049 A 
ATOM     63  H   UNL A   1      45.305  26.793  27.513  1.00  0.00     0.167 HD
ATOM     64  C   UNL A   1      47.836  28.051  27.258  1.00  0.00     0.074 A 
ATOM     65  C   UNL A   1      48.882  29.052  27.302  1.00  0.00     0.031 C 
ATOM     66  C   UNL A   1      48.033  26.762  26.885  1.00  0.00     0.037 A 
BRANCH  53  67
ATOM     67  C   UNL A   1      42.935  23.263  27.145  1.00  0.00     0.057 A 
ATOM     68  C   UNL A   1      42.707  22.424  28.242  1.00  0.00     0.134 A 
ATOM     69  C   UNL A   1      42.539  22.797  25.883  1.00  0.00     0.134 A 
ATOM     70  F   UNL A   1      43.063  22.804  29.478  1.00  0.00    -0.206 F 
ATOM     71  C   UNL A   1      42.103  21.174  28.092  1.00  0.00     0.040 A 
ATOM     72  C   UNL A   1      41.906  21.563  25.725  1.00  0.00     0.040 A 
ATOM     73  F   UNL A   1      42.713  23.558  24.791  1.00  0.00    -0.206 F 
ATOM     74  C   UNL A   1      41.691  20.746  26.831  1.00  0.00     0.006 A 
ENDBRANCH  53  67
BRANCH  54  75
ATOM     75  C   UNL A   1      46.709  32.415  28.588  1.00  0.00     0.057 A 
ATOM     76  C   UNL A   1      46.776  33.360  27.557  1.00  0.00     0.134 A 
ATOM     77  C   UNL A   1      47.171  32.807  29.851  1.00  0.00     0.134 A 
ATOM     78  F   UNL A   1      46.358  33.047  26.322  1.00  0.00    -0.206 F 
ATOM     79  C   UNL A   1      47.276  34.646  27.775  1.00  0.00     0.040 A 
ATOM     80  C   UNL A   1      47.647  34.097  30.089  1.00  0.00     0.040 A 
ATOM     81  F   UNL A   1      47.114  31.952  30.884  1.00  0.00    -0.206 F 
ATOM     82  C   UNL A   1      47.701  35.020  29.047  1.00  0.00     0.006 A 
ENDBRANCH  54  75
BRANCH  66  83
ATOM     83  C   UNL A   1      49.422  26.379  26.460  1.00  0.00     0.057 A 
ATOM     84  C   UNL A   1      50.311  25.801  27.376  1.00  0.00     0.134 A 
ATOM     85  C   UNL A   1      49.886  26.596  25.157  1.00  0.00     0.134 A 
ATOM     86  F   UNL A   1      49.934  25.575  28.643  1.00  0.00    -0.206 F 
ATOM     87  C   UNL A   1      51.612  25.453  27.009  1.00  0.00     0.040 A 
ATOM     88  C   UNL A   1      51.174  26.222  24.771  1.00  0.00     0.040 A 
ATOM     89  F   UNL A   1      49.080  27.132  24.228  1.00  0.00    -0.206 F 
ATOM     90  C   UNL A   1      52.043  25.654  25.701  1.00  0.00     0.006 A 
ENDBRANCH  66  83
ENDBRANCH  40  41
ENDBRANCH  32  35
ENDBRANCH  30  31
ENDBRANCH   1  30
TORSDOF 12
ENDMDL
MODEL 3
REMARK VINA RESULT:     -12.8      4.404      6.247
REMARK SMILES COc1ccc(Cl)c2c1N[C@@H](c1ccc(C(=O)NCCCNC(=O)c3ccc(-c4c5nc(c(-c6c(F)cccc6F)c6ccc([nH]6)c(-c6c(F)cccc6F)c6nc(c(-c7c(F)cccc7F)c7ccc4[nH]7)C=C6)C=C5)cc3)cc1)[C@@H]1CC=C[C@H]21
REMARK SMILES IDX 20 1 19 2 18 3 16 4 17 5 15 7 12 8 13 9 80 10 14 11 79 12
REMARK SMILES IDX 11 13 3 14 4 15 9 16 5 17 8 18 10 19 6 20 85 21 7 23 81 24
REMARK SMILES IDX 84 25 82 26 83 27 2 28 1 29 21 30 22 31 23 32 24 34 25 35
REMARK SMILES IDX 26 36 78 37 27 38 77 39 28 40 29 41 30 42 71 43 31 44 76 45
REMARK SMILES IDX 70 46 72 47 32 48 75 49 69 50 68 51 33 53 59 54 42 55 58 56
REMARK SMILES IDX 43 57 46 58 57 59 73 60 44 61 45 62 56 64 74 65 47 66 34 67
REMARK SMILES IDX 35 68 40 69 36 70 37 71 39 72 41 73 38 74 60 75 61 76 66 77
REMARK SMILES IDX 62 78 63 79 65 80 67 81 64 82 48 83 49 84 54 85 50 86 51 87
REMARK SMILES IDX 53 88 55 89 52 90
REMARK H PARENT 18 6 10 22 22 33 72 52 46 63
REMARK Flexibility Score: inf
ROOT
ATOM      1  C   UNL A   1      37.247  20.304  24.913  1.00  0.00     0.042 C 
ENDROOT
BRANCH   1   2
ATOM      2  C   UNL A   1      36.144  21.349  25.072  1.00  0.00     0.118 C 
BRANCH   2   3
ATOM      3  N   UNL A   1      35.441  21.162  26.326  1.00  0.00    -0.352 N 
ATOM      4  C   UNL A   1      34.543  21.947  27.002  1.00  0.00     0.251 C 
ATOM      5  O   UNL A   1      34.094  21.514  28.062  1.00  0.00    -0.269 OA
ATOM      6  H   UNL A   1      35.647  20.311  26.778  1.00  0.00     0.163 HD
BRANCH   4   7
ATOM      7  C   UNL A   1      34.050  23.250  26.480  1.00  0.00     0.039 A 
ATOM      8  C   UNL A   1      32.906  25.644  25.478  1.00  0.00    -0.025 A 
ATOM      9  C   UNL A   1      32.156  24.764  26.273  1.00  0.00     0.006 A 
ATOM     10  C   UNL A   1      34.253  25.330  25.248  1.00  0.00     0.006 A 
ATOM     11  C   UNL A   1      32.728  23.595  26.786  1.00  0.00     0.014 A 
ATOM     12  C   UNL A   1      34.816  24.151  25.741  1.00  0.00     0.014 A 
BRANCH   8  13
ATOM     13  C   UNL A   1      32.329  26.923  24.881  1.00  0.00     0.114 C 
ATOM     14  C   UNL A   1      31.971  30.286  26.420  1.00  0.00     0.142 A 
ATOM     15  C   UNL A   1      31.365  31.520  26.202  1.00  0.00     0.050 A 
ATOM     16  C   UNL A   1      31.664  29.168  25.620  1.00  0.00     0.083 A 
ATOM     17  C   UNL A   1      30.468  31.663  25.148  1.00  0.00     0.025 A 
ATOM     18  C   UNL A   1      30.770  29.312  24.544  1.00  0.00     0.005 A 
ATOM     19  N   UNL A   1      32.223  27.935  25.912  1.00  0.00    -0.375 N 
ATOM     20  C   UNL A   1      30.173  30.571  24.325  1.00  0.00     0.047 A 
ATOM     21  C   UNL A   1      30.426  28.110  23.696  1.00  0.00     0.051 C 
ATOM     22  H   UNL A   1      32.545  27.746  26.822  1.00  0.00     0.161 HD
ATOM     23  Cl  UNL A   1      29.018  30.834  23.062  1.00  0.00    -0.084 Cl
ATOM     24  C   UNL A   1      30.945  26.741  24.215  1.00  0.00     0.031 C 
ATOM     25  C   UNL A   1      31.007  28.133  22.302  1.00  0.00    -0.023 C 
ATOM     26  C   UNL A   1      30.981  25.887  22.932  1.00  0.00     0.034 C 
ATOM     27  C   UNL A   1      31.306  26.898  21.880  1.00  0.00    -0.030 C 
BRANCH  14  28
ATOM     28  O   UNL A   1      32.826  30.191  27.493  1.00  0.00    -0.495 OA
ATOM     29  C   UNL A   1      33.635  31.363  27.625  1.00  0.00     0.278 C 
ENDBRANCH  14  28
ENDBRANCH   8  13
ENDBRANCH   4   7
ENDBRANCH   2   3
ENDBRANCH   1   2
BRANCH   1  30
ATOM     30  C   UNL A   1      38.614  20.825  25.336  1.00  0.00     0.118 C 
BRANCH  30  31
ATOM     31  N   UNL A   1      39.540  19.735  25.607  1.00  0.00    -0.352 N 
ATOM     32  C   UNL A   1      40.850  19.798  26.010  1.00  0.00     0.251 C 
ATOM     33  H   UNL A   1      39.176  18.829  25.482  1.00  0.00     0.163 HD
ATOM     34  O   UNL A   1      41.574  18.815  25.920  1.00  0.00    -0.269 OA
BRANCH  32  35
ATOM     35  C   UNL A   1      41.377  21.061  26.559  1.00  0.00     0.039 A 
ATOM     36  C   UNL A   1      41.234  21.329  27.922  1.00  0.00     0.014 A 
ATOM     37  C   UNL A   1      41.981  21.995  25.710  1.00  0.00     0.014 A 
ATOM     38  C   UNL A   1      41.731  22.523  28.444  1.00  0.00     0.010 A 
ATOM     39  C   UNL A   1      42.534  23.152  26.241  1.00  0.00     0.010 A 
ATOM     40  C   UNL A   1      42.391  23.435  27.607  1.00  0.00    -0.014 A 
BRANCH  40  41
ATOM     41  C   UNL A   1      42.869  24.740  28.118  1.00  0.00     0.031 A 
ATOM     42  C   UNL A   1      41.866  25.815  28.424  1.00  0.00     0.074 A 
ATOM     43  C   UNL A   1      44.187  24.970  28.256  1.00  0.00     0.049 A 
ATOM     44  N   UNL A   1      42.065  27.048  28.815  1.00  0.00    -0.248 NA
ATOM     45  C   UNL A   1      40.448  25.461  28.244  1.00  0.00     0.031 C 
ATOM     46  C   UNL A   1      45.250  24.006  27.970  1.00  0.00     0.029 A 
ATOM     47  N   UNL A   1      44.855  26.096  28.661  1.00  0.00    -0.354 N 
ATOM     48  C   UNL A   1      40.801  27.613  28.927  1.00  0.00     0.074 A 
ATOM     49  C   UNL A   1      39.848  26.613  28.498  1.00  0.00     0.031 C 
ATOM     50  C   UNL A   1      46.439  24.581  28.221  1.00  0.00     0.029 A 
ATOM     51  C   UNL A   1      46.220  25.958  28.651  1.00  0.00     0.049 A 
ATOM     52  H   UNL A   1      44.398  26.924  28.934  1.00  0.00     0.167 HD
ATOM     53  C   UNL A   1      40.462  28.846  29.373  1.00  0.00     0.037 A 
ATOM     54  C   UNL A   1      47.182  26.853  28.946  1.00  0.00     0.037 A 
ATOM     55  C   UNL A   1      41.416  29.837  29.791  1.00  0.00     0.049 A 
ATOM     56  C   UNL A   1      46.780  28.240  29.374  1.00  0.00     0.074 A 
ATOM     57  C   UNL A   1      41.182  31.107  30.284  1.00  0.00     0.029 A 
ATOM     58  N   UNL A   1      42.793  29.669  29.751  1.00  0.00    -0.354 N 
ATOM     59  N   UNL A   1      45.581  28.746  29.535  1.00  0.00    -0.248 NA
ATOM     60  C   UNL A   1      47.871  29.180  29.666  1.00  0.00     0.031 C 
ATOM     61  C   UNL A   1      42.419  31.727  30.495  1.00  0.00     0.029 A 
ATOM     62  C   UNL A   1      43.423  30.822  30.186  1.00  0.00     0.049 A 
ATOM     63  H   UNL A   1      43.253  28.850  29.457  1.00  0.00     0.167 HD
ATOM     64  C   UNL A   1      45.772  30.049  29.979  1.00  0.00     0.074 A 
ATOM     65  C   UNL A   1      47.204  30.247  30.077  1.00  0.00     0.031 C 
ATOM     66  C   UNL A   1      44.851  30.997  30.278  1.00  0.00     0.037 A 
BRANCH  53  67
ATOM     67  C   UNL A   1      38.998  29.178  29.417  1.00  0.00     0.057 A 
ATOM     68  C   UNL A   1      38.323  29.598  28.265  1.00  0.00     0.134 A 
ATOM     69  C   UNL A   1      38.253  29.077  30.601  1.00  0.00     0.134 A 
ATOM     70  F   UNL A   1      38.974  29.720  27.098  1.00  0.00    -0.206 F 
ATOM     71  C   UNL A   1      36.960  29.900  28.287  1.00  0.00     0.040 A 
ATOM     72  C   UNL A   1      36.884  29.346  30.628  1.00  0.00     0.040 A 
ATOM     73  F   UNL A   1      38.835  28.664  31.738  1.00  0.00    -0.206 F 
ATOM     74  C   UNL A   1      36.235  29.763  29.469  1.00  0.00     0.006 A 
ENDBRANCH  53  67
BRANCH  54  75
ATOM     75  C   UNL A   1      48.615  26.476  28.863  1.00  0.00     0.057 A 
ATOM     76  C   UNL A   1      49.351  26.644  27.684  1.00  0.00     0.134 A 
ATOM     77  C   UNL A   1      49.296  25.980  29.981  1.00  0.00     0.134 A 
ATOM     78  F   UNL A   1      48.758  27.107  26.574  1.00  0.00    -0.206 F 
ATOM     79  C   UNL A   1      50.712  26.338  27.622  1.00  0.00     0.040 A 
ATOM     80  C   UNL A   1      50.662  25.696  29.941  1.00  0.00     0.040 A 
ATOM     81  F   UNL A   1      48.649  25.816  31.146  1.00  0.00    -0.206 F 
ATOM     82  C   UNL A   1      51.374  25.874  28.757  1.00  0.00     0.006 A 
ENDBRANCH  54  75
BRANCH  66  83
ATOM     83  C   UNL A   1      45.367  32.317  30.776  1.00  0.00     0.057 A 
ATOM     84  C   UNL A   1      45.586  32.523  32.145  1.00  0.00     0.134 A 
ATOM     85  C   UNL A   1      45.628  33.387  29.911  1.00  0.00     0.134 A 
ATOM     86  F   UNL A   1      45.346  31.544  33.029  1.00  0.00    -0.206 F 
ATOM     87  C   UNL A   1      46.047  33.746  32.633  1.00  0.00     0.040 A 
ATOM     88  C   UNL A   1      46.121  34.603  30.385  1.00  0.00     0.040 A 
ATOM     89  F   UNL A   1      45.452  33.250  28.588  1.00  0.00    -0.206 F 
ATOM     90  C   UNL A   1      46.325  34.787  31.751  1.00  0.00     0.006 A 
ENDBRANCH  66  83
ENDBRANCH  40  41
ENDBRANCH  32  35
ENDBRANCH  30  31
ENDBRANCH   1  30
TORSDOF 12
ENDMDL
