MODEL 1
REMARK VINA RESULT:     -12.2      0.000      0.000
REMARK SMILES Cc1nsc(NC(=O)N2CCC[C@@H](C)C2)c1C(=O)NCCCNC(=O)c1ccc(-c2c3nc(c(-c4c(F)cccc4F)c4ccc([nH]4)c(-c4c(F)cccc4F)c4nc(c(-c5c(F)cccc5F)c5ccc2[nH]5)C=C4)C=C3)cc1
REMARK SMILES IDX 21 1 20 2 19 3 17 4 18 5 16 7 1 8 2 9 3 10 4 11 5 12 6 13
REMARK SMILES IDX 7 14 8 16 9 17 10 18 15 19 11 20 13 21 12 22 14 23 22 24
REMARK SMILES IDX 23 25 24 26 25 28 26 29 27 30 79 31 28 32 78 33 29 34 30 35
REMARK SMILES IDX 31 36 72 37 32 38 77 39 71 40 73 41 33 42 76 43 70 44 69 45
REMARK SMILES IDX 34 47 60 48 43 49 59 50 44 51 47 52 58 53 74 54 45 55 46 56
REMARK SMILES IDX 57 58 75 59 48 60 35 61 36 62 41 63 37 64 38 65 40 66 42 67
REMARK SMILES IDX 39 68 61 69 62 70 67 71 63 72 64 73 66 74 68 75 65 76 49 77
REMARK SMILES IDX 50 78 55 79 51 80 52 81 54 82 56 83 53 84
REMARK H PARENT 19 6 6 15 23 27 73 46 47 57
REMARK Flexibility Score: inf
ROOT
ATOM      1  C   UNL A   1      33.658  29.641  26.997  1.00  0.00     0.042 C 
ENDROOT
BRANCH   1   2
ATOM      2  C   UNL A   1      33.101  28.443  26.249  1.00  0.00     0.118 C 
BRANCH   2   3
ATOM      3  N   UNL A   1      33.769  27.165  26.376  1.00  0.00    -0.352 N 
ATOM      4  C   UNL A   1      33.665  26.038  25.581  1.00  0.00     0.256 C 
ATOM      5  O   UNL A   1      34.492  25.142  25.760  1.00  0.00    -0.269 OA
ATOM      6  H   UNL A   1      34.389  27.088  27.137  1.00  0.00     0.163 HD
BRANCH   4   7
ATOM      7  C   UNL A   1      32.510  25.842  24.710  1.00  0.00     0.097 A 
ATOM      8  C   UNL A   1      33.341  25.630  22.181  1.00  0.00     0.069 C 
ATOM      9  C   UNL A   1      32.335  25.848  23.266  1.00  0.00     0.066 A 
ATOM     10  N   UNL A   1      31.092  26.108  22.848  1.00  0.00    -0.195 NA
ATOM     11  S   UNL A   1      30.112  26.132  24.181  1.00  0.00    -0.017 S 
ATOM     12  C   UNL A   1      31.277  25.444  25.218  1.00  0.00     0.130 A 
BRANCH  12  13
ATOM     13  N   UNL A   1      30.945  24.837  26.410  1.00  0.00    -0.297 N 
ATOM     14  C   UNL A   1      31.012  23.516  26.749  1.00  0.00     0.322 C 
ATOM     15  H   UNL A   1      30.614  25.439  27.115  1.00  0.00     0.172 HD
ATOM     16  O   UNL A   1      30.261  23.099  27.634  1.00  0.00    -0.248 OA
BRANCH  14  17
ATOM     17  N   UNL A   1      31.909  22.684  26.114  1.00  0.00    -0.324 N 
ATOM     18  C   UNL A   1      33.093  22.091  26.747  1.00  0.00     0.121 C 
ATOM     19  C   UNL A   1      31.497  22.034  24.881  1.00  0.00     0.124 C 
ATOM     20  C   UNL A   1      34.283  21.959  25.786  1.00  0.00     0.022 C 
ATOM     21  C   UNL A   1      32.620  22.196  23.855  1.00  0.00     0.005 C 
ATOM     22  C   UNL A   1      33.899  21.517  24.370  1.00  0.00     0.007 C 
ATOM     23  C   UNL A   1      32.210  21.653  22.491  1.00  0.00     0.009 C 
ENDBRANCH  14  17
ENDBRANCH  12  13
ENDBRANCH   4   7
ENDBRANCH   2   3
ENDBRANCH   1   2
BRANCH   1  24
ATOM     24  C   UNL A   1      35.054  29.419  27.516  1.00  0.00     0.118 C 
BRANCH  24  25
ATOM     25  N   UNL A   1      35.363  30.164  28.741  1.00  0.00    -0.352 N 
ATOM     26  C   UNL A   1      36.488  30.020  29.535  1.00  0.00     0.251 C 
ATOM     27  H   UNL A   1      34.703  30.837  29.027  1.00  0.00     0.163 HD
ATOM     28  O   UNL A   1      36.543  30.484  30.668  1.00  0.00    -0.269 OA
BRANCH  26  29
ATOM     29  C   UNL A   1      37.613  29.261  28.967  1.00  0.00     0.039 A 
ATOM     30  C   UNL A   1      38.259  29.682  27.806  1.00  0.00     0.014 A 
ATOM     31  C   UNL A   1      38.128  28.236  29.754  1.00  0.00     0.014 A 
ATOM     32  C   UNL A   1      39.506  29.140  27.514  1.00  0.00     0.010 A 
ATOM     33  C   UNL A   1      39.434  27.864  29.576  1.00  0.00     0.010 A 
ATOM     34  C   UNL A   1      40.117  28.268  28.435  1.00  0.00    -0.014 A 
BRANCH  34  35
ATOM     35  C   UNL A   1      41.524  27.893  28.293  1.00  0.00     0.031 A 
ATOM     36  C   UNL A   1      41.738  26.621  27.551  1.00  0.00     0.074 A 
ATOM     37  C   UNL A   1      42.553  28.706  28.628  1.00  0.00     0.049 A 
ATOM     38  N   UNL A   1      42.096  25.484  28.045  1.00  0.00    -0.248 NA
ATOM     39  C   UNL A   1      41.356  26.550  26.131  1.00  0.00     0.031 C 
ATOM     40  C   UNL A   1      42.490  30.102  29.084  1.00  0.00     0.029 A 
ATOM     41  N   UNL A   1      43.898  28.482  28.550  1.00  0.00    -0.354 N 
ATOM     42  C   UNL A   1      42.233  24.621  26.961  1.00  0.00     0.074 A 
ATOM     43  C   UNL A   1      41.568  25.259  25.858  1.00  0.00     0.031 C 
ATOM     44  C   UNL A   1      43.715  30.666  29.015  1.00  0.00     0.029 A 
ATOM     45  C   UNL A   1      44.678  29.625  28.715  1.00  0.00     0.049 A 
ATOM     46  H   UNL A   1      44.283  27.591  28.391  1.00  0.00     0.167 HD
ATOM     47  C   UNL A   1      43.152  23.615  27.004  1.00  0.00     0.037 A 
ATOM     48  C   UNL A   1      46.028  29.715  28.650  1.00  0.00     0.037 A 
ATOM     49  C   UNL A   1      43.639  23.443  28.351  1.00  0.00     0.049 A 
ATOM     50  C   UNL A   1      46.567  28.362  28.890  1.00  0.00     0.074 A 
ATOM     51  C   UNL A   1      43.159  22.941  29.541  1.00  0.00     0.029 A 
ATOM     52  N   UNL A   1      44.706  24.248  28.649  1.00  0.00    -0.354 N 
ATOM     53  N   UNL A   1      46.502  27.761  30.043  1.00  0.00    -0.248 NA
ATOM     54  C   UNL A   1      46.887  27.508  27.755  1.00  0.00     0.031 C 
ATOM     55  C   UNL A   1      43.856  23.639  30.574  1.00  0.00     0.029 A 
ATOM     56  C   UNL A   1      44.776  24.506  29.989  1.00  0.00     0.049 A 
ATOM     57  H   UNL A   1      45.341  24.596  27.982  1.00  0.00     0.167 HD
ATOM     58  C   UNL A   1      46.319  26.433  29.720  1.00  0.00     0.074 A 
ATOM     59  C   UNL A   1      46.761  26.312  28.336  1.00  0.00     0.031 C 
ATOM     60  C   UNL A   1      45.518  25.642  30.489  1.00  0.00     0.037 A 
BRANCH  47  61
ATOM     61  C   UNL A   1      43.999  23.154  25.829  1.00  0.00     0.057 A 
ATOM     62  C   UNL A   1      44.108  21.770  25.577  1.00  0.00     0.134 A 
ATOM     63  C   UNL A   1      44.949  23.950  25.159  1.00  0.00     0.134 A 
ATOM     64  F   UNL A   1      43.270  20.895  26.156  1.00  0.00    -0.206 F 
ATOM     65  C   UNL A   1      45.133  21.221  24.793  1.00  0.00     0.040 A 
ATOM     66  C   UNL A   1      45.949  23.415  24.337  1.00  0.00     0.040 A 
ATOM     67  F   UNL A   1      45.037  25.272  25.336  1.00  0.00    -0.206 F 
ATOM     68  C   UNL A   1      46.064  22.045  24.177  1.00  0.00     0.006 A 
ENDBRANCH  47  61
BRANCH  48  69
ATOM     69  C   UNL A   1      46.910  30.839  28.278  1.00  0.00     0.057 A 
ATOM     70  C   UNL A   1      46.887  31.380  26.985  1.00  0.00     0.134 A 
ATOM     71  C   UNL A   1      47.552  31.605  29.264  1.00  0.00     0.134 A 
ATOM     72  F   UNL A   1      46.282  30.727  25.983  1.00  0.00    -0.206 F 
ATOM     73  C   UNL A   1      47.419  32.642  26.697  1.00  0.00     0.040 A 
ATOM     74  C   UNL A   1      48.090  32.867  28.989  1.00  0.00     0.040 A 
ATOM     75  F   UNL A   1      47.588  31.194  30.540  1.00  0.00    -0.206 F 
ATOM     76  C   UNL A   1      48.004  33.400  27.707  1.00  0.00     0.006 A 
ENDBRANCH  48  69
BRANCH  60  77
ATOM     77  C   UNL A   1      45.283  26.087  31.901  1.00  0.00     0.057 A 
ATOM     78  C   UNL A   1      46.184  25.907  32.960  1.00  0.00     0.134 A 
ATOM     79  C   UNL A   1      44.093  26.762  32.189  1.00  0.00     0.134 A 
ATOM     80  F   UNL A   1      47.382  25.342  32.765  1.00  0.00    -0.206 F 
ATOM     81  C   UNL A   1      45.886  26.330  34.259  1.00  0.00     0.040 A 
ATOM     82  C   UNL A   1      43.798  27.221  33.473  1.00  0.00     0.040 A 
ATOM     83  F   UNL A   1      43.202  27.006  31.215  1.00  0.00    -0.206 F 
ATOM     84  C   UNL A   1      44.689  26.991  34.517  1.00  0.00     0.006 A 
ENDBRANCH  60  77
ENDBRANCH  34  35
ENDBRANCH  26  29
ENDBRANCH  24  25
ENDBRANCH   1  24
TORSDOF 12
ENDMDL
MODEL 2
REMARK VINA RESULT:     -12.1      1.497      2.270
REMARK SMILES Cc1nsc(NC(=O)N2CCC[C@@H](C)C2)c1C(=O)NCCCNC(=O)c1ccc(-c2c3nc(c(-c4c(F)cccc4F)c4ccc([nH]4)c(-c4c(F)cccc4F)c4nc(c(-c5c(F)cccc5F)c5ccc2[nH]5)C=C4)C=C3)cc1
REMARK SMILES IDX 21 1 20 2 19 3 17 4 18 5 16 7 1 8 2 9 3 10 4 11 5 12 6 13
REMARK SMILES IDX 7 14 8 16 9 17 10 18 15 19 11 20 13 21 12 22 14 23 22 24
REMARK SMILES IDX 23 25 24 26 25 28 26 29 27 30 79 31 28 32 78 33 29 34 30 35
REMARK SMILES IDX 31 36 72 37 32 38 77 39 71 40 73 41 33 42 76 43 70 44 69 45
REMARK SMILES IDX 34 47 60 48 43 49 59 50 44 51 47 52 58 53 74 54 45 55 46 56
REMARK SMILES IDX 57 58 75 59 48 60 35 61 36 62 41 63 37 64 38 65 40 66 42 67
REMARK SMILES IDX 39 68 61 69 62 70 67 71 63 72 64 73 66 74 68 75 65 76 49 77
REMARK SMILES IDX 50 78 55 79 51 80 52 81 54 82 56 83 53 84
REMARK H PARENT 19 6 6 15 23 27 73 46 47 57
REMARK Flexibility Score: inf
ROOT
ATOM      1  C   UNL A   1      33.706  28.981  27.105  1.00  0.00     0.042 C 
ENDROOT
BRANCH   1   2
ATOM      2  C   UNL A   1      33.519  27.821  26.143  1.00  0.00     0.118 C 
BRANCH   2   3
ATOM      3  N   UNL A   1      34.023  27.944  24.792  1.00  0.00    -0.352 N 
ATOM      4  C   UNL A   1      33.353  28.300  23.635  1.00  0.00     0.256 C 
ATOM      5  O   UNL A   1      34.036  28.546  22.639  1.00  0.00    -0.269 OA
ATOM      6  H   UNL A   1      34.981  27.747  24.679  1.00  0.00     0.163 HD
BRANCH   4   7
ATOM      7  C   UNL A   1      31.899  28.199  23.551  1.00  0.00     0.097 A 
ATOM      8  C   UNL A   1      30.799  30.379  24.632  1.00  0.00     0.069 C 
ATOM      9  C   UNL A   1      30.808  28.973  24.122  1.00  0.00     0.066 A 
ATOM     10  N   UNL A   1      29.645  28.321  24.224  1.00  0.00    -0.195 NA
ATOM     11  S   UNL A   1      29.815  26.871  23.447  1.00  0.00    -0.017 S 
ATOM     12  C   UNL A   1      31.283  27.294  22.691  1.00  0.00     0.130 A 
BRANCH  12  13
ATOM     13  N   UNL A   1      31.763  26.637  21.578  1.00  0.00    -0.297 N 
ATOM     14  C   UNL A   1      32.604  25.563  21.512  1.00  0.00     0.322 C 
ATOM     15  H   UNL A   1      31.458  26.990  20.712  1.00  0.00     0.172 HD
ATOM     16  O   UNL A   1      33.283  25.413  20.494  1.00  0.00    -0.248 OA
BRANCH  14  17
ATOM     17  N   UNL A   1      32.672  24.672  22.562  1.00  0.00    -0.324 N 
ATOM     18  C   UNL A   1      31.657  23.657  22.865  1.00  0.00     0.121 C 
ATOM     19  C   UNL A   1      33.964  24.438  23.187  1.00  0.00     0.124 C 
ATOM     20  C   UNL A   1      31.487  23.412  24.371  1.00  0.00     0.022 C 
ATOM     21  C   UNL A   1      33.779  24.502  24.704  1.00  0.00     0.005 C 
ATOM     22  C   UNL A   1      32.803  23.405  25.158  1.00  0.00     0.007 C 
ATOM     23  C   UNL A   1      35.114  24.396  25.432  1.00  0.00     0.009 C 
ENDBRANCH  14  17
ENDBRANCH  12  13
ENDBRANCH   4   7
ENDBRANCH   2   3
ENDBRANCH   1   2
BRANCH   1  24
ATOM     24  C   UNL A   1      35.151  29.335  27.333  1.00  0.00     0.118 C 
BRANCH  24  25
ATOM     25  N   UNL A   1      35.407  30.018  28.606  1.00  0.00    -0.352 N 
ATOM     26  C   UNL A   1      36.504  29.845  29.431  1.00  0.00     0.251 C 
ATOM     27  H   UNL A   1      34.728  30.667  28.903  1.00  0.00     0.163 HD
ATOM     28  O   UNL A   1      36.513  30.249  30.588  1.00  0.00    -0.269 OA
BRANCH  26  29
ATOM     29  C   UNL A   1      37.659  29.131  28.866  1.00  0.00     0.039 A 
ATOM     30  C   UNL A   1      38.331  29.614  27.744  1.00  0.00     0.014 A 
ATOM     31  C   UNL A   1      38.169  28.081  29.622  1.00  0.00     0.014 A 
ATOM     32  C   UNL A   1      39.596  29.105  27.466  1.00  0.00     0.010 A 
ATOM     33  C   UNL A   1      39.486  27.739  29.468  1.00  0.00     0.010 A 
ATOM     34  C   UNL A   1      40.195  28.203  28.367  1.00  0.00    -0.014 A 
BRANCH  34  35
ATOM     35  C   UNL A   1      41.612  27.859  28.251  1.00  0.00     0.031 A 
ATOM     36  C   UNL A   1      41.866  26.584  27.526  1.00  0.00     0.074 A 
ATOM     37  C   UNL A   1      42.617  28.698  28.593  1.00  0.00     0.049 A 
ATOM     38  N   UNL A   1      42.241  25.460  28.039  1.00  0.00    -0.248 NA
ATOM     39  C   UNL A   1      41.508  26.490  26.101  1.00  0.00     0.031 C 
ATOM     40  C   UNL A   1      42.516  30.097  29.032  1.00  0.00     0.029 A 
ATOM     41  N   UNL A   1      43.968  28.503  28.539  1.00  0.00    -0.354 N 
ATOM     42  C   UNL A   1      42.415  24.589  26.966  1.00  0.00     0.074 A 
ATOM     43  C   UNL A   1      41.754  25.201  25.847  1.00  0.00     0.031 C 
ATOM     44  C   UNL A   1      43.730  30.687  28.977  1.00  0.00     0.029 A 
ATOM     45  C   UNL A   1      44.720  29.665  28.703  1.00  0.00     0.049 A 
ATOM     46  H   UNL A   1      44.375  27.619  28.396  1.00  0.00     0.167 HD
ATOM     47  C   UNL A   1      43.355  23.605  27.035  1.00  0.00     0.037 A 
ATOM     48  C   UNL A   1      46.068  29.784  28.659  1.00  0.00     0.037 A 
ATOM     49  C   UNL A   1      43.823  23.458  28.392  1.00  0.00     0.049 A 
ATOM     50  C   UNL A   1      46.633  28.446  28.923  1.00  0.00     0.074 A 
ATOM     51  C   UNL A   1      43.336  22.958  29.579  1.00  0.00     0.029 A 
ATOM     52  N   UNL A   1      44.867  24.290  28.697  1.00  0.00    -0.354 N 
ATOM     53  N   UNL A   1      46.563  27.857  30.081  1.00  0.00    -0.248 NA
ATOM     54  C   UNL A   1      46.991  27.587  27.802  1.00  0.00     0.031 C 
ATOM     55  C   UNL A   1      44.000  23.683  30.615  1.00  0.00     0.029 A 
ATOM     56  C   UNL A   1      44.911  24.564  30.036  1.00  0.00     0.049 A 
ATOM     57  H   UNL A   1      45.505  24.645  28.037  1.00  0.00     0.167 HD
ATOM     58  C   UNL A   1      46.415  26.522  29.770  1.00  0.00     0.074 A 
ATOM     59  C   UNL A   1      46.881  26.395  28.394  1.00  0.00     0.031 C 
ATOM     60  C   UNL A   1      45.619  25.721  30.535  1.00  0.00     0.037 A 
BRANCH  47  61
ATOM     61  C   UNL A   1      44.231  23.149  25.879  1.00  0.00     0.057 A 
ATOM     62  C   UNL A   1      44.339  21.767  25.617  1.00  0.00     0.134 A 
ATOM     63  C   UNL A   1      45.203  23.947  25.242  1.00  0.00     0.134 A 
ATOM     64  F   UNL A   1      43.482  20.892  26.164  1.00  0.00    -0.206 F 
ATOM     65  C   UNL A   1      45.382  21.221  24.855  1.00  0.00     0.040 A 
ATOM     66  C   UNL A   1      46.221  23.415  24.442  1.00  0.00     0.040 A 
ATOM     67  F   UNL A   1      45.292  25.267  25.435  1.00  0.00    -0.206 F 
ATOM     68  C   UNL A   1      46.333  22.045  24.273  1.00  0.00     0.006 A 
ENDBRANCH  47  61
BRANCH  48  69
ATOM     69  C   UNL A   1      46.931  30.923  28.289  1.00  0.00     0.057 A 
ATOM     70  C   UNL A   1      46.915  31.452  26.990  1.00  0.00     0.134 A 
ATOM     71  C   UNL A   1      47.542  31.713  29.276  1.00  0.00     0.134 A 
ATOM     72  F   UNL A   1      46.339  30.776  25.986  1.00  0.00    -0.206 F 
ATOM     73  C   UNL A   1      47.424  32.722  26.698  1.00  0.00     0.040 A 
ATOM     74  C   UNL A   1      48.057  32.984  28.997  1.00  0.00     0.040 A 
ATOM     75  F   UNL A   1      47.568  31.315  30.557  1.00  0.00    -0.206 F 
ATOM     76  C   UNL A   1      47.977  33.502  27.709  1.00  0.00     0.006 A 
ENDBRANCH  48  69
BRANCH  60  77
ATOM     77  C   UNL A   1      45.352  26.176  31.938  1.00  0.00     0.057 A 
ATOM     78  C   UNL A   1      44.216  26.889  32.348  1.00  0.00     0.134 A 
ATOM     79  C   UNL A   1      46.283  25.843  32.926  1.00  0.00     0.134 A 
ATOM     80  F   UNL A   1      43.233  27.185  31.489  1.00  0.00    -0.206 F 
ATOM     81  C   UNL A   1      44.046  27.300  33.674  1.00  0.00     0.040 A 
ATOM     82  C   UNL A   1      46.109  26.215  34.259  1.00  0.00     0.040 A 
ATOM     83  F   UNL A   1      47.373  25.125  32.613  1.00  0.00    -0.206 F 
ATOM     84  C   UNL A   1      44.995  26.961  34.634  1.00  0.00     0.006 A 
ENDBRANCH  60  77
ENDBRANCH  34  35
ENDBRANCH  26  29
ENDBRANCH  24  25
ENDBRANCH   1  24
TORSDOF 12
ENDMDL
MODEL 3
REMARK VINA RESULT:     -11.9      2.616      7.208
REMARK SMILES Cc1nsc(NC(=O)N2CCC[C@@H](C)C2)c1C(=O)NCCCNC(=O)c1ccc(-c2c3nc(c(-c4c(F)cccc4F)c4ccc([nH]4)c(-c4c(F)cccc4F)c4nc(c(-c5c(F)cccc5F)c5ccc2[nH]5)C=C4)C=C3)cc1
REMARK SMILES IDX 21 1 20 2 19 3 17 4 18 5 16 7 1 8 2 9 3 10 4 11 5 12 6 13
REMARK SMILES IDX 7 14 8 16 9 17 10 18 15 19 11 20 13 21 12 22 14 23 22 24
REMARK SMILES IDX 23 25 24 26 25 28 26 29 27 30 79 31 28 32 78 33 29 34 30 35
REMARK SMILES IDX 31 36 72 37 32 38 77 39 71 40 73 41 33 42 76 43 70 44 69 45
REMARK SMILES IDX 34 47 60 48 43 49 59 50 44 51 47 52 58 53 74 54 45 55 46 56
REMARK SMILES IDX 57 58 75 59 48 60 35 61 36 62 41 63 37 64 38 65 40 66 42 67
REMARK SMILES IDX 39 68 61 69 62 70 67 71 63 72 64 73 66 74 68 75 65 76 49 77
REMARK SMILES IDX 50 78 55 79 51 80 52 81 54 82 56 83 53 84
REMARK H PARENT 19 6 6 15 23 27 73 46 47 57
REMARK Flexibility Score: inf
ROOT
ATOM      1  C   UNL A   1      37.809  20.577  24.939  1.00  0.00     0.042 C 
ENDROOT
BRANCH   1   2
ATOM      2  C   UNL A   1      36.613  21.302  25.529  1.00  0.00     0.118 C 
BRANCH   2   3
ATOM      3  N   UNL A   1      36.584  22.749  25.497  1.00  0.00    -0.352 N 
ATOM      4  C   UNL A   1      35.499  23.605  25.522  1.00  0.00     0.256 C 
ATOM      5  O   UNL A   1      35.727  24.802  25.702  1.00  0.00    -0.269 OA
ATOM      6  H   UNL A   1      37.465  23.187  25.453  1.00  0.00     0.163 HD
BRANCH   4   7
ATOM      7  C   UNL A   1      34.166  23.135  25.156  1.00  0.00     0.097 A 
ATOM      8  C   UNL A   1      32.781  22.598  27.375  1.00  0.00     0.069 C 
ATOM      9  C   UNL A   1      33.075  22.538  25.910  1.00  0.00     0.066 A 
ATOM     10  N   UNL A   1      32.219  21.810  25.185  1.00  0.00    -0.195 NA
ATOM     11  S   UNL A   1      32.607  22.022  23.591  1.00  0.00    -0.017 S 
ATOM     12  C   UNL A   1      33.649  23.340  23.880  1.00  0.00     0.130 A 
BRANCH  12  13
ATOM     13  N   UNL A   1      34.007  24.235  22.894  1.00  0.00    -0.297 N 
ATOM     14  C   UNL A   1      33.557  25.507  22.686  1.00  0.00     0.322 C 
ATOM     15  H   UNL A   1      34.678  23.912  22.251  1.00  0.00     0.172 HD
ATOM     16  O   UNL A   1      33.610  25.967  21.543  1.00  0.00    -0.248 OA
BRANCH  14  17
ATOM     17  N   UNL A   1      33.069  26.250  23.740  1.00  0.00    -0.324 N 
ATOM     18  C   UNL A   1      33.761  27.390  24.351  1.00  0.00     0.121 C 
ATOM     19  C   UNL A   1      31.648  26.177  24.037  1.00  0.00     0.124 C 
ATOM     20  C   UNL A   1      33.524  27.494  25.864  1.00  0.00     0.022 C 
ATOM     21  C   UNL A   1      31.484  25.980  25.545  1.00  0.00     0.005 C 
ATOM     22  C   UNL A   1      32.087  27.177  26.297  1.00  0.00     0.007 C 
ATOM     23  C   UNL A   1      30.023  25.764  25.922  1.00  0.00     0.009 C 
ENDBRANCH  14  17
ENDBRANCH  12  13
ENDBRANCH   4   7
ENDBRANCH   2   3
ENDBRANCH   1   2
BRANCH   1  24
ATOM     24  C   UNL A   1      39.062  20.737  25.758  1.00  0.00     0.118 C 
BRANCH  24  25
ATOM     25  N   UNL A   1      39.924  19.550  25.772  1.00  0.00    -0.352 N 
ATOM     26  C   UNL A   1      41.295  19.526  25.960  1.00  0.00     0.251 C 
ATOM     27  H   UNL A   1      39.482  18.681  25.633  1.00  0.00     0.163 HD
ATOM     28  O   UNL A   1      41.967  18.536  25.696  1.00  0.00    -0.269 OA
BRANCH  26  29
ATOM     29  C   UNL A   1      41.920  20.755  26.472  1.00  0.00     0.039 A 
ATOM     30  C   UNL A   1      41.986  21.912  25.697  1.00  0.00     0.014 A 
ATOM     31  C   UNL A   1      42.246  20.768  27.824  1.00  0.00     0.014 A 
ATOM     32  C   UNL A   1      42.265  23.116  26.336  1.00  0.00     0.010 A 
ATOM     33  C   UNL A   1      42.310  21.971  28.474  1.00  0.00     0.010 A 
ATOM     34  C   UNL A   1      42.372  23.149  27.740  1.00  0.00    -0.014 A 
BRANCH  34  35
ATOM     35  C   UNL A   1      42.395  24.422  28.460  1.00  0.00     0.031 A 
ATOM     36  C   UNL A   1      41.212  25.286  28.196  1.00  0.00     0.074 A 
ATOM     37  C   UNL A   1      43.297  24.722  29.422  1.00  0.00     0.049 A 
ATOM     38  N   UNL A   1      41.179  26.363  27.486  1.00  0.00    -0.248 NA
ATOM     39  C   UNL A   1      39.881  24.824  28.625  1.00  0.00     0.031 C 
ATOM     40  C   UNL A   1      44.329  23.846  29.998  1.00  0.00     0.029 A 
ATOM     41  N   UNL A   1      43.432  25.861  30.163  1.00  0.00    -0.354 N 
ATOM     42  C   UNL A   1      39.880  26.853  27.593  1.00  0.00     0.074 A 
ATOM     43  C   UNL A   1      39.090  25.773  28.115  1.00  0.00     0.031 C 
ATOM     44  C   UNL A   1      44.815  24.390  31.134  1.00  0.00     0.029 A 
ATOM     45  C   UNL A   1      44.288  25.735  31.256  1.00  0.00     0.049 A 
ATOM     46  H   UNL A   1      42.964  26.699  29.945  1.00  0.00     0.167 HD
ATOM     47  C   UNL A   1      39.653  28.196  27.537  1.00  0.00     0.037 A 
ATOM     48  C   UNL A   1      44.583  26.678  32.182  1.00  0.00     0.037 A 
ATOM     49  C   UNL A   1      40.831  28.881  27.063  1.00  0.00     0.049 A 
ATOM     50  C   UNL A   1      44.273  27.990  31.581  1.00  0.00     0.074 A 
ATOM     51  C   UNL A   1      41.499  29.030  25.868  1.00  0.00     0.029 A 
ATOM     52  N   UNL A   1      41.706  29.208  28.063  1.00  0.00    -0.354 N 
ATOM     53  N   UNL A   1      44.958  28.508  30.604  1.00  0.00    -0.248 NA
ATOM     54  C   UNL A   1      42.976  28.604  31.833  1.00  0.00     0.031 C 
ATOM     55  C   UNL A   1      42.867  29.263  26.207  1.00  0.00     0.029 A 
ATOM     56  C   UNL A   1      42.987  29.303  27.594  1.00  0.00     0.049 A 
ATOM     57  H   UNL A   1      41.447  29.356  29.001  1.00  0.00     0.167 HD
ATOM     58  C   UNL A   1      44.016  29.176  29.850  1.00  0.00     0.074 A 
ATOM     59  C   UNL A   1      42.880  29.370  30.743  1.00  0.00     0.031 C 
ATOM     60  C   UNL A   1      44.117  29.205  28.490  1.00  0.00     0.037 A 
BRANCH  47  61
ATOM     61  C   UNL A   1      38.627  28.945  28.372  1.00  0.00     0.057 A 
ATOM     62  C   UNL A   1      38.609  28.736  29.767  1.00  0.00     0.134 A 
ATOM     63  C   UNL A   1      37.480  29.582  27.857  1.00  0.00     0.134 A 
ATOM     64  F   UNL A   1      39.635  28.134  30.388  1.00  0.00    -0.206 F 
ATOM     65  C   UNL A   1      37.502  29.057  30.566  1.00  0.00     0.040 A 
ATOM     66  C   UNL A   1      36.389  29.948  28.655  1.00  0.00     0.040 A 
ATOM     67  F   UNL A   1      37.298  29.795  26.551  1.00  0.00    -0.206 F 
ATOM     68  C   UNL A   1      36.382  29.656  30.008  1.00  0.00     0.006 A 
ENDBRANCH  47  61
BRANCH  48  69
ATOM     69  C   UNL A   1      44.996  26.557  33.594  1.00  0.00     0.057 A 
ATOM     70  C   UNL A   1      44.091  26.139  34.580  1.00  0.00     0.134 A 
ATOM     71  C   UNL A   1      46.355  26.539  33.946  1.00  0.00     0.134 A 
ATOM     72  F   UNL A   1      42.775  26.107  34.329  1.00  0.00    -0.206 F 
ATOM     73  C   UNL A   1      44.516  25.669  35.828  1.00  0.00     0.040 A 
ATOM     74  C   UNL A   1      46.792  26.074  35.191  1.00  0.00     0.040 A 
ATOM     75  F   UNL A   1      47.300  26.879  33.058  1.00  0.00    -0.206 F 
ATOM     76  C   UNL A   1      45.873  25.615  36.128  1.00  0.00     0.006 A 
ENDBRANCH  48  69
BRANCH  60  77
ATOM     77  C   UNL A   1      45.476  28.962  27.907  1.00  0.00     0.057 A 
ATOM     78  C   UNL A   1      45.964  27.712  27.501  1.00  0.00     0.134 A 
ATOM     79  C   UNL A   1      46.318  30.062  27.722  1.00  0.00     0.134 A 
ATOM     80  F   UNL A   1      45.201  26.613  27.567  1.00  0.00    -0.206 F 
ATOM     81  C   UNL A   1      47.255  27.559  26.985  1.00  0.00     0.040 A 
ATOM     82  C   UNL A   1      47.595  29.930  27.176  1.00  0.00     0.040 A 
ATOM     83  F   UNL A   1      45.901  31.295  28.050  1.00  0.00    -0.206 F 
ATOM     84  C   UNL A   1      48.074  28.672  26.821  1.00  0.00     0.006 A 
ENDBRANCH  60  77
ENDBRANCH  34  35
ENDBRANCH  26  29
ENDBRANCH  24  25
ENDBRANCH   1  24
TORSDOF 12
ENDMDL
