MODEL 1
REMARK VINA RESULT:     -11.5      0.000      0.000
REMARK SMILES COc1ccc(NCc2ccc(C(=O)NCCCNC(=O)c3ccc(-c4c5nc(c(-c6c(F)cccc6F)c6ccc([nH]6)c(-c6c(F)cccc6F)c6nc(c(-c7c(F)cccc7F)c7ccc4[nH]7)C=C6)C=C5)cc3)cn2)cc1Br
REMARK SMILES IDX 16 1 15 2 13 3 14 4 12 6 9 7 10 8 77 9 11 10 76 11 8 12 7 13
REMARK SMILES IDX 6 15 3 16 4 17 79 18 5 19 78 20 80 21 2 22 1 23 17 24 18 25
REMARK SMILES IDX 19 26 20 27 21 29 22 30 23 31 75 32 24 33 74 34 25 35 26 36
REMARK SMILES IDX 27 37 68 38 28 39 73 40 67 41 69 42 29 43 72 44 66 45 65 46
REMARK SMILES IDX 30 48 56 49 39 50 55 51 40 52 43 53 54 54 70 55 41 56 42 57
REMARK SMILES IDX 53 59 71 60 44 61 31 62 32 63 37 64 33 65 34 66 36 67 38 68
REMARK SMILES IDX 35 69 57 70 58 71 63 72 59 73 60 74 62 75 64 76 61 77 45 78
REMARK SMILES IDX 46 79 51 80 47 81 48 82 50 83 52 84 49 85
REMARK H PARENT 15 5 7 14 19 28 69 47 43 58
REMARK Flexibility Score: inf
ROOT
ATOM      1  C   UNL A   1      36.390  20.213  24.946  1.00  0.00     0.118 C 
ENDROOT
BRANCH   1   2
ATOM      2  N   UNL A   1      35.257  19.321  24.780  1.00  0.00    -0.352 N 
ATOM      3  C   UNL A   1      33.913  19.481  24.999  1.00  0.00     0.252 C 
ATOM      4  O   UNL A   1      33.175  18.545  24.688  1.00  0.00    -0.269 OA
ATOM      5  H   UNL A   1      35.501  18.429  24.444  1.00  0.00     0.163 HD
BRANCH   3   6
ATOM      6  C   UNL A   1      33.306  20.714  25.553  1.00  0.00     0.058 A 
ATOM      7  C   UNL A   1      31.989  23.030  26.352  1.00  0.00     0.059 A 
ATOM      8  C   UNL A   1      32.926  22.441  27.197  1.00  0.00     0.026 A 
ATOM      9  N   UNL A   1      31.700  22.500  25.137  1.00  0.00    -0.259 NA
ATOM     10  C   UNL A   1      33.562  21.262  26.806  1.00  0.00     0.017 A 
ATOM     11  C   UNL A   1      32.355  21.364  24.773  1.00  0.00     0.125 A 
BRANCH   7  12
ATOM     12  C   UNL A   1      31.266  24.310  26.734  1.00  0.00     0.169 C 
BRANCH  12  13
ATOM     13  N   UNL A   1      30.306  24.732  25.722  1.00  0.00    -0.379 N 
ATOM     14  H   UNL A   1      29.595  24.090  25.496  1.00  0.00     0.160 HD
BRANCH  13  15
ATOM     15  C   UNL A   1      30.283  25.935  25.048  1.00  0.00     0.036 A 
ATOM     16  C   UNL A   1      30.318  28.464  23.772  1.00  0.00     0.133 A 
ATOM     17  C   UNL A   1      29.446  27.465  23.340  1.00  0.00     0.050 A 
ATOM     18  C   UNL A   1      31.167  28.212  24.847  1.00  0.00     0.062 A 
ATOM     19  C   UNL A   1      29.441  26.211  23.966  1.00  0.00     0.029 A 
ATOM     20  C   UNL A   1      31.152  26.955  25.467  1.00  0.00     0.045 A 
ATOM     21  Br  UNL A   1      32.332  29.534  25.547  1.00  0.00    -0.047 Br
BRANCH  16  22
ATOM     22  O   UNL A   1      30.211  29.691  23.179  1.00  0.00    -0.496 OA
ATOM     23  C   UNL A   1      28.845  30.077  23.020  1.00  0.00     0.278 C 
ENDBRANCH  16  22
ENDBRANCH  13  15
ENDBRANCH  12  13
ENDBRANCH   7  12
ENDBRANCH   3   6
ENDBRANCH   1   2
BRANCH   1  24
ATOM     24  C   UNL A   1      37.713  19.450  24.879  1.00  0.00     0.042 C 
BRANCH  24  25
ATOM     25  C   UNL A   1      38.844  20.125  25.651  1.00  0.00     0.118 C 
BRANCH  25  26
ATOM     26  N   UNL A   1      40.021  19.274  25.745  1.00  0.00    -0.352 N 
ATOM     27  C   UNL A   1      41.325  19.592  26.033  1.00  0.00     0.251 C 
ATOM     28  H   UNL A   1      39.856  18.318  25.573  1.00  0.00     0.163 HD
ATOM     29  O   UNL A   1      42.204  18.758  25.837  1.00  0.00    -0.269 OA
BRANCH  27  30
ATOM     30  C   UNL A   1      41.684  20.921  26.573  1.00  0.00     0.039 A 
ATOM     31  C   UNL A   1      41.606  21.125  27.954  1.00  0.00     0.014 A 
ATOM     32  C   UNL A   1      42.031  21.981  25.731  1.00  0.00     0.014 A 
ATOM     33  C   UNL A   1      41.919  22.376  28.494  1.00  0.00     0.010 A 
ATOM     34  C   UNL A   1      42.404  23.209  26.273  1.00  0.00     0.010 A 
ATOM     35  C   UNL A   1      42.345  23.421  27.659  1.00  0.00    -0.014 A 
BRANCH  35  36
ATOM     36  C   UNL A   1      42.727  24.742  28.217  1.00  0.00     0.031 A 
ATOM     37  C   UNL A   1      41.683  25.802  28.437  1.00  0.00     0.074 A 
ATOM     38  C   UNL A   1      44.023  25.009  28.465  1.00  0.00     0.049 A 
ATOM     39  N   UNL A   1      41.832  27.039  28.840  1.00  0.00    -0.248 NA
ATOM     40  C   UNL A   1      40.290  25.430  28.140  1.00  0.00     0.031 C 
ATOM     41  C   UNL A   1      45.133  24.079  28.253  1.00  0.00     0.029 A 
ATOM     42  N   UNL A   1      44.627  26.147  28.937  1.00  0.00    -0.354 N 
ATOM     43  C   UNL A   1      40.560  27.596  28.826  1.00  0.00     0.074 A 
ATOM     44  C   UNL A   1      39.657  26.578  28.335  1.00  0.00     0.031 C 
ATOM     45  C   UNL A   1      46.280  24.678  28.609  1.00  0.00     0.029 A 
ATOM     46  C   UNL A   1      45.992  26.042  29.039  1.00  0.00     0.049 A 
ATOM     47  H   UNL A   1      44.129  26.961  29.178  1.00  0.00     0.167 HD
ATOM     48  C   UNL A   1      40.176  28.839  29.207  1.00  0.00     0.037 A 
ATOM     49  C   UNL A   1      46.909  26.946  29.429  1.00  0.00     0.037 A 
ATOM     50  C   UNL A   1      41.072  29.840  29.722  1.00  0.00     0.049 A 
ATOM     51  C   UNL A   1      46.459  28.316  29.852  1.00  0.00     0.074 A 
ATOM     52  C   UNL A   1      40.772  31.107  30.193  1.00  0.00     0.029 A 
ATOM     53  N   UNL A   1      42.446  29.688  29.833  1.00  0.00    -0.354 N 
ATOM     54  N   UNL A   1      45.245  28.809  29.892  1.00  0.00    -0.248 NA
ATOM     55  C   UNL A   1      47.504  29.252  30.289  1.00  0.00     0.031 C 
ATOM     56  C   UNL A   1      41.969  31.734  30.555  1.00  0.00     0.029 A 
ATOM     57  C   UNL A   1      43.010  30.844  30.348  1.00  0.00     0.049 A 
ATOM     58  H   UNL A   1      42.947  28.878  29.582  1.00  0.00     0.167 HD
ATOM     59  C   UNL A   1      45.377  30.103  30.381  1.00  0.00     0.074 A 
ATOM     60  C   UNL A   1      46.788  30.312  30.635  1.00  0.00     0.031 C 
ATOM     61  C   UNL A   1      44.416  31.033  30.600  1.00  0.00     0.037 A 
BRANCH  48  62
ATOM     62  C   UNL A   1      38.720  29.181  29.081  1.00  0.00     0.057 A 
ATOM     63  C   UNL A   1      37.848  29.116  30.176  1.00  0.00     0.134 A 
ATOM     64  C   UNL A   1      38.187  29.607  27.857  1.00  0.00     0.134 A 
ATOM     65  F   UNL A   1      38.291  28.705  31.373  1.00  0.00    -0.206 F 
ATOM     66  C   UNL A   1      36.495  29.434  30.052  1.00  0.00     0.040 A 
ATOM     67  C   UNL A   1      36.842  29.953  27.727  1.00  0.00     0.040 A 
ATOM     68  F   UNL A   1      38.968  29.699  26.769  1.00  0.00    -0.206 F 
ATOM     69  C   UNL A   1      35.989  29.860  28.825  1.00  0.00     0.006 A 
ENDBRANCH  48  62
BRANCH  49  70
ATOM     70  C   UNL A   1      48.346  26.575  29.463  1.00  0.00     0.057 A 
ATOM     71  C   UNL A   1      48.915  26.005  30.606  1.00  0.00     0.134 A 
ATOM     72  C   UNL A   1      49.179  26.776  28.356  1.00  0.00     0.134 A 
ATOM     73  F   UNL A   1      48.169  25.805  31.703  1.00  0.00    -0.206 F 
ATOM     74  C   UNL A   1      50.267  25.659  30.655  1.00  0.00     0.040 A 
ATOM     75  C   UNL A   1      50.528  26.414  28.383  1.00  0.00     0.040 A 
ATOM     76  F   UNL A   1      48.691  27.311  27.228  1.00  0.00    -0.206 F 
ATOM     77  C   UNL A   1      51.075  25.860  29.537  1.00  0.00     0.006 A 
ENDBRANCH  49  70
BRANCH  61  78
ATOM     78  C   UNL A   1      44.855  32.349  31.169  1.00  0.00     0.057 A 
ATOM     79  C   UNL A   1      45.196  33.431  30.349  1.00  0.00     0.134 A 
ATOM     80  C   UNL A   1      44.903  32.545  32.555  1.00  0.00     0.134 A 
ATOM     81  F   UNL A   1      45.184  33.303  29.013  1.00  0.00    -0.206 F 
ATOM     82  C   UNL A   1      45.588  34.658  30.887  1.00  0.00     0.040 A 
ATOM     83  C   UNL A   1      45.270  33.774  33.105  1.00  0.00     0.040 A 
ATOM     84  F   UNL A   1      44.582  31.549  33.395  1.00  0.00    -0.206 F 
ATOM     85  C   UNL A   1      45.619  34.833  32.270  1.00  0.00     0.006 A 
ENDBRANCH  61  78
ENDBRANCH  35  36
ENDBRANCH  27  30
ENDBRANCH  25  26
ENDBRANCH  24  25
ENDBRANCH   1  24
TORSDOF 14
ENDMDL
MODEL 2
REMARK VINA RESULT:     -11.5      4.500      9.650
REMARK SMILES COc1ccc(NCc2ccc(C(=O)NCCCNC(=O)c3ccc(-c4c5nc(c(-c6c(F)cccc6F)c6ccc([nH]6)c(-c6c(F)cccc6F)c6nc(c(-c7c(F)cccc7F)c7ccc4[nH]7)C=C6)C=C5)cc3)cn2)cc1Br
REMARK SMILES IDX 16 1 15 2 13 3 14 4 12 6 9 7 10 8 77 9 11 10 76 11 8 12 7 13
REMARK SMILES IDX 6 15 3 16 4 17 79 18 5 19 78 20 80 21 2 22 1 23 17 24 18 25
REMARK SMILES IDX 19 26 20 27 21 29 22 30 23 31 75 32 24 33 74 34 25 35 26 36
REMARK SMILES IDX 27 37 68 38 28 39 73 40 67 41 69 42 29 43 72 44 66 45 65 46
REMARK SMILES IDX 30 48 56 49 39 50 55 51 40 52 43 53 54 54 70 55 41 56 42 57
REMARK SMILES IDX 53 59 71 60 44 61 31 62 32 63 37 64 33 65 34 66 36 67 38 68
REMARK SMILES IDX 35 69 57 70 58 71 63 72 59 73 60 74 62 75 64 76 61 77 45 78
REMARK SMILES IDX 46 79 51 80 47 81 48 82 50 83 52 84 49 85
REMARK H PARENT 15 5 7 14 19 28 69 47 43 58
REMARK Flexibility Score: inf
ROOT
ATOM      1  C   UNL A   1      31.429  30.905  25.878  1.00  0.00     0.118 C 
ENDROOT
BRANCH   1   2
ATOM      2  N   UNL A   1      31.513  29.824  26.842  1.00  0.00    -0.352 N 
ATOM      3  C   UNL A   1      31.737  28.478  26.707  1.00  0.00     0.252 C 
ATOM      4  O   UNL A   1      31.827  27.814  27.741  1.00  0.00    -0.269 OA
ATOM      5  H   UNL A   1      31.384  30.113  27.775  1.00  0.00     0.163 HD
BRANCH   3   6
ATOM      6  C   UNL A   1      31.907  27.794  25.403  1.00  0.00     0.058 A 
ATOM      7  C   UNL A   1      32.521  26.532  23.003  1.00  0.00     0.059 A 
ATOM      8  C   UNL A   1      31.193  26.636  23.409  1.00  0.00     0.026 A 
ATOM      9  N   UNL A   1      33.532  27.037  23.753  1.00  0.00    -0.259 NA
ATOM     10  C   UNL A   1      30.891  27.242  24.630  1.00  0.00     0.017 A 
ATOM     11  C   UNL A   1      33.205  27.645  24.925  1.00  0.00     0.125 A 
BRANCH   7  12
ATOM     12  C   UNL A   1      32.901  25.876  21.686  1.00  0.00     0.169 C 
BRANCH  12  13
ATOM     13  N   UNL A   1      32.565  24.458  21.652  1.00  0.00    -0.379 N 
ATOM     14  H   UNL A   1      32.039  24.150  20.878  1.00  0.00     0.160 HD
BRANCH  13  15
ATOM     15  C   UNL A   1      32.905  23.500  22.583  1.00  0.00     0.036 A 
ATOM     16  C   UNL A   1      33.746  21.553  24.461  1.00  0.00     0.133 A 
ATOM     17  C   UNL A   1      32.403  21.660  24.106  1.00  0.00     0.050 A 
ATOM     18  C   UNL A   1      34.678  22.407  23.874  1.00  0.00     0.062 A 
ATOM     19  C   UNL A   1      31.988  22.632  23.186  1.00  0.00     0.029 A 
ATOM     20  C   UNL A   1      34.254  23.375  22.954  1.00  0.00     0.045 A 
ATOM     21  Br  UNL A   1      36.534  22.284  24.242  1.00  0.00    -0.047 Br
BRANCH  16  22
ATOM     22  O   UNL A   1      34.097  20.527  25.294  1.00  0.00    -0.496 OA
ATOM     23  C   UNL A   1      34.022  19.266  24.629  1.00  0.00     0.278 C 
ENDBRANCH  16  22
ENDBRANCH  13  15
ENDBRANCH  12  13
ENDBRANCH   7  12
ENDBRANCH   3   6
ENDBRANCH   1   2
BRANCH   1  24
ATOM     24  C   UNL A   1      31.320  32.263  26.573  1.00  0.00     0.042 C 
BRANCH  24  25
ATOM     25  C   UNL A   1      32.669  32.833  27.007  1.00  0.00     0.118 C 
BRANCH  25  26
ATOM     26  N   UNL A   1      32.531  34.143  27.626  1.00  0.00    -0.352 N 
ATOM     27  C   UNL A   1      33.142  34.668  28.736  1.00  0.00     0.251 C 
ATOM     28  H   UNL A   1      31.897  34.748  27.177  1.00  0.00     0.163 HD
ATOM     29  O   UNL A   1      32.714  35.711  29.221  1.00  0.00    -0.269 OA
BRANCH  27  30
ATOM     30  C   UNL A   1      34.304  33.996  29.357  1.00  0.00     0.039 A 
ATOM     31  C   UNL A   1      35.590  34.394  28.976  1.00  0.00     0.014 A 
ATOM     32  C   UNL A   1      34.141  32.937  30.255  1.00  0.00     0.014 A 
ATOM     33  C   UNL A   1      36.708  33.765  29.529  1.00  0.00     0.010 A 
ATOM     34  C   UNL A   1      35.255  32.353  30.854  1.00  0.00     0.010 A 
ATOM     35  C   UNL A   1      36.549  32.756  30.491  1.00  0.00    -0.014 A 
BRANCH  35  36
ATOM     36  C   UNL A   1      37.724  32.107  31.124  1.00  0.00     0.031 A 
ATOM     37  C   UNL A   1      38.459  31.006  30.410  1.00  0.00     0.074 A 
ATOM     38  C   UNL A   1      38.091  32.466  32.369  1.00  0.00     0.049 A 
ATOM     39  N   UNL A   1      39.455  30.267  30.830  1.00  0.00    -0.248 NA
ATOM     40  C   UNL A   1      37.995  30.673  29.054  1.00  0.00     0.031 C 
ATOM     41  C   UNL A   1      37.433  33.490  33.181  1.00  0.00     0.029 A 
ATOM     42  N   UNL A   1      39.099  31.998  33.174  1.00  0.00    -0.354 N 
ATOM     43  C   UNL A   1      39.722  29.373  29.802  1.00  0.00     0.074 A 
ATOM     44  C   UNL A   1      38.758  29.632  28.755  1.00  0.00     0.031 C 
ATOM     45  C   UNL A   1      38.065  33.585  34.362  1.00  0.00     0.029 A 
ATOM     46  C   UNL A   1      39.146  32.608  34.404  1.00  0.00     0.049 A 
ATOM     47  H   UNL A   1      39.728  31.294  32.896  1.00  0.00     0.167 HD
ATOM     48  C   UNL A   1      40.697  28.435  29.728  1.00  0.00     0.037 A 
ATOM     49  C   UNL A   1      39.965  32.395  35.451  1.00  0.00     0.037 A 
ATOM     50  C   UNL A   1      41.673  28.199  30.759  1.00  0.00     0.049 A 
ATOM     51  C   UNL A   1      41.042  31.352  35.344  1.00  0.00     0.074 A 
ATOM     52  C   UNL A   1      42.738  27.315  30.754  1.00  0.00     0.029 A 
ATOM     53  N   UNL A   1      41.703  28.852  31.982  1.00  0.00    -0.354 N 
ATOM     54  N   UNL A   1      41.322  30.556  34.341  1.00  0.00    -0.248 NA
ATOM     55  C   UNL A   1      41.919  31.182  36.511  1.00  0.00     0.031 C 
ATOM     56  C   UNL A   1      43.390  27.407  31.988  1.00  0.00     0.029 A 
ATOM     57  C   UNL A   1      42.756  28.378  32.746  1.00  0.00     0.049 A 
ATOM     58  H   UNL A   1      41.069  29.550  32.265  1.00  0.00     0.167 HD
ATOM     59  C   UNL A   1      42.421  29.808  34.745  1.00  0.00     0.074 A 
ATOM     60  C   UNL A   1      42.763  30.256  36.079  1.00  0.00     0.031 C 
ATOM     61  C   UNL A   1      43.086  28.839  34.071  1.00  0.00     0.037 A 
BRANCH  48  62
ATOM     62  C   UNL A   1      40.754  27.593  28.486  1.00  0.00     0.057 A 
ATOM     63  C   UNL A   1      40.027  26.401  28.367  1.00  0.00     0.134 A 
ATOM     64  C   UNL A   1      41.524  27.992  27.386  1.00  0.00     0.134 A 
ATOM     65  F   UNL A   1      39.280  25.957  29.388  1.00  0.00    -0.206 F 
ATOM     66  C   UNL A   1      40.086  25.623  27.210  1.00  0.00     0.040 A 
ATOM     67  C   UNL A   1      41.569  27.235  26.214  1.00  0.00     0.040 A 
ATOM     68  F   UNL A   1      42.239  29.126  27.429  1.00  0.00    -0.206 F 
ATOM     69  C   UNL A   1      40.855  26.042  26.126  1.00  0.00     0.006 A 
ENDBRANCH  48  62
BRANCH  49  70
ATOM     70  C   UNL A   1      39.814  33.207  36.684  1.00  0.00     0.057 A 
ATOM     71  C   UNL A   1      40.580  34.360  36.884  1.00  0.00     0.134 A 
ATOM     72  C   UNL A   1      38.902  32.854  37.685  1.00  0.00     0.134 A 
ATOM     73  F   UNL A   1      41.482  34.738  35.966  1.00  0.00    -0.206 F 
ATOM     74  C   UNL A   1      40.455  35.129  38.042  1.00  0.00     0.040 A 
ATOM     75  C   UNL A   1      38.751  33.625  38.839  1.00  0.00     0.040 A 
ATOM     76  F   UNL A   1      38.134  31.764  37.548  1.00  0.00    -0.206 F 
ATOM     77  C   UNL A   1      39.533  34.763  39.022  1.00  0.00     0.006 A 
ENDBRANCH  49  70
BRANCH  61  78
ATOM     78  C   UNL A   1      44.269  28.220  34.754  1.00  0.00     0.057 A 
ATOM     79  C   UNL A   1      44.155  27.046  35.508  1.00  0.00     0.134 A 
ATOM     80  C   UNL A   1      45.543  28.788  34.626  1.00  0.00     0.134 A 
ATOM     81  F   UNL A   1      42.959  26.462  35.680  1.00  0.00    -0.206 F 
ATOM     82  C   UNL A   1      45.264  26.467  36.127  1.00  0.00     0.040 A 
ATOM     83  C   UNL A   1      46.663  28.206  35.220  1.00  0.00     0.040 A 
ATOM     84  F   UNL A   1      45.720  29.910  33.911  1.00  0.00    -0.206 F 
ATOM     85  C   UNL A   1      46.524  27.045  35.978  1.00  0.00     0.006 A 
ENDBRANCH  61  78
ENDBRANCH  35  36
ENDBRANCH  27  30
ENDBRANCH  25  26
ENDBRANCH  24  25
ENDBRANCH   1  24
TORSDOF 14
ENDMDL
MODEL 3
REMARK VINA RESULT:     -11.5      3.548      9.117
REMARK SMILES COc1ccc(NCc2ccc(C(=O)NCCCNC(=O)c3ccc(-c4c5nc(c(-c6c(F)cccc6F)c6ccc([nH]6)c(-c6c(F)cccc6F)c6nc(c(-c7c(F)cccc7F)c7ccc4[nH]7)C=C6)C=C5)cc3)cn2)cc1Br
REMARK SMILES IDX 16 1 15 2 13 3 14 4 12 6 9 7 10 8 77 9 11 10 76 11 8 12 7 13
REMARK SMILES IDX 6 15 3 16 4 17 79 18 5 19 78 20 80 21 2 22 1 23 17 24 18 25
REMARK SMILES IDX 19 26 20 27 21 29 22 30 23 31 75 32 24 33 74 34 25 35 26 36
REMARK SMILES IDX 27 37 68 38 28 39 73 40 67 41 69 42 29 43 72 44 66 45 65 46
REMARK SMILES IDX 30 48 56 49 39 50 55 51 40 52 43 53 54 54 70 55 41 56 42 57
REMARK SMILES IDX 53 59 71 60 44 61 31 62 32 63 37 64 33 65 34 66 36 67 38 68
REMARK SMILES IDX 35 69 57 70 58 71 63 72 59 73 60 74 62 75 64 76 61 77 45 78
REMARK SMILES IDX 46 79 51 80 47 81 48 82 50 83 52 84 49 85
REMARK H PARENT 15 5 7 14 19 28 69 47 43 58
REMARK Flexibility Score: inf
ROOT
ATOM      1  C   UNL A   1      31.590  30.878  26.113  1.00  0.00     0.118 C 
ENDROOT
BRANCH   1   2
ATOM      2  N   UNL A   1      31.575  29.794  27.077  1.00  0.00    -0.352 N 
ATOM      3  C   UNL A   1      31.724  28.437  26.948  1.00  0.00     0.252 C 
ATOM      4  O   UNL A   1      31.737  27.769  27.983  1.00  0.00    -0.269 OA
ATOM      5  H   UNL A   1      31.429  30.090  28.005  1.00  0.00     0.163 HD
BRANCH   3   6
ATOM      6  C   UNL A   1      31.901  27.744  25.650  1.00  0.00     0.058 A 
ATOM      7  C   UNL A   1      32.528  26.485  23.251  1.00  0.00     0.059 A 
ATOM      8  C   UNL A   1      31.208  26.510  23.694  1.00  0.00     0.026 A 
ATOM      9  N   UNL A   1      33.525  27.065  23.964  1.00  0.00    -0.259 NA
ATOM     10  C   UNL A   1      30.902  27.116  24.914  1.00  0.00     0.017 A 
ATOM     11  C   UNL A   1      33.192  27.671  25.136  1.00  0.00     0.125 A 
BRANCH   7  12
ATOM     12  C   UNL A   1      32.913  25.833  21.934  1.00  0.00     0.169 C 
BRANCH  12  13
ATOM     13  N   UNL A   1      32.563  24.419  21.888  1.00  0.00    -0.379 N 
ATOM     14  H   UNL A   1      31.959  24.139  21.162  1.00  0.00     0.160 HD
BRANCH  13  15
ATOM     15  C   UNL A   1      32.988  23.429  22.748  1.00  0.00     0.036 A 
ATOM     16  C   UNL A   1      33.999  21.426  24.477  1.00  0.00     0.133 A 
ATOM     17  C   UNL A   1      32.640  21.478  24.173  1.00  0.00     0.050 A 
ATOM     18  C   UNL A   1      34.862  22.363  23.913  1.00  0.00     0.062 A 
ATOM     19  C   UNL A   1      32.141  22.477  23.327  1.00  0.00     0.029 A 
ATOM     20  C   UNL A   1      34.353  23.358  23.067  1.00  0.00     0.045 A 
ATOM     21  Br  UNL A   1      36.734  22.324  24.212  1.00  0.00    -0.047 Br
BRANCH  16  22
ATOM     22  O   UNL A   1      34.435  20.374  25.235  1.00  0.00    -0.496 OA
ATOM     23  C   UNL A   1      34.133  19.124  24.616  1.00  0.00     0.278 C 
ENDBRANCH  16  22
ENDBRANCH  13  15
ENDBRANCH  12  13
ENDBRANCH   7  12
ENDBRANCH   3   6
ENDBRANCH   1   2
BRANCH   1  24
ATOM     24  C   UNL A   1      31.390  32.232  26.795  1.00  0.00     0.042 C 
BRANCH  24  25
ATOM     25  C   UNL A   1      32.690  33.008  26.997  1.00  0.00     0.118 C 
BRANCH  25  26
ATOM     26  N   UNL A   1      32.498  34.175  27.845  1.00  0.00    -0.352 N 
ATOM     27  C   UNL A   1      33.190  34.587  28.956  1.00  0.00     0.251 C 
ATOM     28  H   UNL A   1      31.754  34.763  27.580  1.00  0.00     0.163 HD
ATOM     29  O   UNL A   1      32.723  35.478  29.659  1.00  0.00    -0.269 OA
BRANCH  27  30
ATOM     30  C   UNL A   1      34.484  33.970  29.320  1.00  0.00     0.039 A 
ATOM     31  C   UNL A   1      34.514  33.047  30.370  1.00  0.00     0.014 A 
ATOM     32  C   UNL A   1      35.673  34.340  28.684  1.00  0.00     0.014 A 
ATOM     33  C   UNL A   1      35.724  32.463  30.752  1.00  0.00     0.010 A 
ATOM     34  C   UNL A   1      36.869  33.710  29.022  1.00  0.00     0.010 A 
ATOM     35  C   UNL A   1      36.908  32.772  30.064  1.00  0.00    -0.014 A 
BRANCH  35  36
ATOM     36  C   UNL A   1      38.195  32.127  30.424  1.00  0.00     0.031 A 
ATOM     37  C   UNL A   1      39.151  32.812  31.361  1.00  0.00     0.074 A 
ATOM     38  C   UNL A   1      38.532  30.953  29.855  1.00  0.00     0.049 A 
ATOM     39  N   UNL A   1      40.353  32.446  31.731  1.00  0.00    -0.248 NA
ATOM     40  C   UNL A   1      38.708  34.092  31.937  1.00  0.00     0.031 C 
ATOM     41  C   UNL A   1      37.709  30.210  28.900  1.00  0.00     0.029 A 
ATOM     42  N   UNL A   1      39.662  30.186  29.990  1.00  0.00    -0.354 N 
ATOM     43  C   UNL A   1      40.814  33.456  32.565  1.00  0.00     0.074 A 
ATOM     44  C   UNL A   1      39.784  34.470  32.613  1.00  0.00     0.031 C 
ATOM     45  C   UNL A   1      38.355  29.087  28.547  1.00  0.00     0.029 A 
ATOM     46  C   UNL A   1      39.647  29.048  29.222  1.00  0.00     0.049 A 
ATOM     47  H   UNL A   1      40.411  30.429  30.580  1.00  0.00     0.167 HD
ATOM     48  C   UNL A   1      41.985  33.523  33.245  1.00  0.00     0.037 A 
ATOM     49  C   UNL A   1      40.576  28.085  29.073  1.00  0.00     0.037 A 
ATOM     50  C   UNL A   1      42.996  32.499  33.219  1.00  0.00     0.049 A 
ATOM     51  C   UNL A   1      41.863  28.178  29.842  1.00  0.00     0.074 A 
ATOM     52  C   UNL A   1      44.187  32.445  33.921  1.00  0.00     0.029 A 
ATOM     53  N   UNL A   1      42.935  31.349  32.446  1.00  0.00    -0.354 N 
ATOM     54  N   UNL A   1      42.261  29.109  30.674  1.00  0.00    -0.248 NA
ATOM     55  C   UNL A   1      42.828  27.085  29.655  1.00  0.00     0.031 C 
ATOM     56  C   UNL A   1      44.864  31.278  33.546  1.00  0.00     0.029 A 
ATOM     57  C   UNL A   1      44.075  30.587  32.641  1.00  0.00     0.049 A 
ATOM     58  H   UNL A   1      42.190  31.110  31.848  1.00  0.00     0.167 HD
ATOM     59  C   UNL A   1      43.509  28.703  31.130  1.00  0.00     0.074 A 
ATOM     60  C   UNL A   1      43.796  27.436  30.489  1.00  0.00     0.031 C 
ATOM     61  C   UNL A   1      44.342  29.325  32.000  1.00  0.00     0.037 A 
BRANCH  48  62
ATOM     62  C   UNL A   1      42.230  34.747  34.079  1.00  0.00     0.057 A 
ATOM     63  C   UNL A   1      42.831  35.896  33.547  1.00  0.00     0.134 A 
ATOM     64  C   UNL A   1      41.838  34.788  35.424  1.00  0.00     0.134 A 
ATOM     65  F   UNL A   1      43.240  35.918  32.270  1.00  0.00    -0.206 F 
ATOM     66  C   UNL A   1      43.058  37.029  34.328  1.00  0.00     0.040 A 
ATOM     67  C   UNL A   1      42.036  35.926  36.207  1.00  0.00     0.040 A 
ATOM     68  F   UNL A   1      41.251  33.725  35.996  1.00  0.00    -0.206 F 
ATOM     69  C   UNL A   1      42.655  37.049  35.662  1.00  0.00     0.006 A 
ENDBRANCH  48  62
BRANCH  49  70
ATOM     70  C   UNL A   1      40.309  26.933  28.175  1.00  0.00     0.057 A 
ATOM     71  C   UNL A   1      40.859  26.881  26.890  1.00  0.00     0.134 A 
ATOM     72  C   UNL A   1      39.506  25.861  28.579  1.00  0.00     0.134 A 
ATOM     73  F   UNL A   1      41.624  27.888  26.442  1.00  0.00    -0.206 F 
ATOM     74  C   UNL A   1      40.611  25.808  26.032  1.00  0.00     0.040 A 
ATOM     75  C   UNL A   1      39.266  24.772  27.740  1.00  0.00     0.040 A 
ATOM     76  F   UNL A   1      38.956  25.850  29.802  1.00  0.00    -0.206 F 
ATOM     77  C   UNL A   1      39.815  24.747  26.460  1.00  0.00     0.006 A 
ENDBRANCH  49  70
BRANCH  61  78
ATOM     78  C   UNL A   1      45.627  28.628  32.332  1.00  0.00     0.057 A 
ATOM     79  C   UNL A   1      45.715  27.704  33.380  1.00  0.00     0.134 A 
ATOM     80  C   UNL A   1      46.780  28.858  31.571  1.00  0.00     0.134 A 
ATOM     81  F   UNL A   1      44.650  27.450  34.154  1.00  0.00    -0.206 F 
ATOM     82  C   UNL A   1      46.911  27.045  33.672  1.00  0.00     0.040 A 
ATOM     83  C   UNL A   1      47.975  28.189  31.838  1.00  0.00     0.040 A 
ATOM     84  F   UNL A   1      46.759  29.727  30.549  1.00  0.00    -0.206 F 
ATOM     85  C   UNL A   1      48.044  27.284  32.895  1.00  0.00     0.006 A 
ENDBRANCH  61  78
ENDBRANCH  35  36
ENDBRANCH  27  30
ENDBRANCH  25  26
ENDBRANCH  24  25
ENDBRANCH   1  24
TORSDOF 14
ENDMDL
