MODEL 1
REMARK VINA RESULT:     -11.5      0.000      0.000
REMARK SMILES CCCc1cc(OC(F)(F)F)cc2c1O[C@@H](C(F)(F)F)C(C(=O)NCCCNC(=O)c1ccc(-c3c4nc(c(-c5c(F)cccc5F)c5ccc([nH]5)c(-c5c(F)cccc5F)c5nc(c(-c6c(F)cccc6F)c6ccc3[nH]6)C=C5)C=C4)cc1)=C2
REMARK SMILES IDX 26 1 25 2 24 3 22 4 23 5 21 7 4 8 5 9 14 10 6 11 13 12 15 13
REMARK SMILES IDX 12 14 85 15 16 16 3 17 2 18 1 19 7 20 8 21 9 22 10 23 11 24
REMARK SMILES IDX 17 25 18 26 19 27 20 28 27 29 28 30 29 31 30 33 31 34 32 35
REMARK SMILES IDX 84 36 33 37 83 38 34 39 35 40 36 41 77 42 37 43 82 44 76 45
REMARK SMILES IDX 78 46 38 47 81 48 75 49 74 50 39 52 65 53 48 54 64 55 49 56
REMARK SMILES IDX 52 57 63 58 79 59 50 60 51 61 62 63 80 64 53 65 40 66 41 67
REMARK SMILES IDX 46 68 42 69 43 70 45 71 47 72 44 73 66 74 67 75 72 76 68 77
REMARK SMILES IDX 69 78 71 79 73 80 70 81 54 82 55 83 60 84 56 85 57 86 59 87
REMARK SMILES IDX 61 88 58 89
REMARK H PARENT 24 6 28 32 78 51 52 62
REMARK Flexibility Score: inf
ROOT
ATOM      1  C   UNL A   1      33.971  28.319  25.769  1.00  0.00     0.042 C 
ENDROOT
BRANCH   1   2
ATOM      2  C   UNL A   1      32.662  27.965  25.060  1.00  0.00     0.118 C 
BRANCH   2   3
ATOM      3  N   UNL A   1      32.885  27.819  23.630  1.00  0.00    -0.352 N 
ATOM      4  C   UNL A   1      33.326  26.788  22.865  1.00  0.00     0.251 C 
ATOM      5  O   UNL A   1      33.579  27.017  21.685  1.00  0.00    -0.270 OA
ATOM      6  H   UNL A   1      32.674  28.630  23.114  1.00  0.00     0.163 HD
BRANCH   4   7
ATOM      7  C   UNL A   1      33.448  25.399  23.372  1.00  0.00     0.067 C 
ATOM      8  C   UNL A   1      33.454  21.459  24.829  1.00  0.00    -0.002 A 
ATOM      9  C   UNL A   1      34.629  20.947  25.414  1.00  0.00     0.054 A 
ATOM     10  C   UNL A   1      33.443  22.782  24.366  1.00  0.00     0.131 A 
ATOM     11  C   UNL A   1      35.777  21.733  25.513  1.00  0.00     0.130 A 
ATOM     12  C   UNL A   1      34.597  23.559  24.425  1.00  0.00     0.021 A 
ATOM     13  O   UNL A   1      32.254  23.289  23.931  1.00  0.00    -0.475 OA
ATOM     14  C   UNL A   1      35.758  23.032  24.998  1.00  0.00     0.058 A 
ATOM     15  C   UNL A   1      34.568  24.930  23.940  1.00  0.00     0.025 C 
ATOM     16  C   UNL A   1      32.285  24.460  23.067  1.00  0.00     0.314 C 
BRANCH   8  17
ATOM     17  C   UNL A   1      32.247  20.560  24.670  1.00  0.00     0.039 C 
BRANCH  17  18
ATOM     18  C   UNL A   1      32.486  19.355  23.749  1.00  0.00     0.001 C 
ATOM     19  C   UNL A   1      32.474  18.016  24.477  1.00  0.00     0.004 C 
ENDBRANCH  17  18
ENDBRANCH   8  17
BRANCH  11  20
ATOM     20  O   UNL A   1      36.969  21.369  26.072  1.00  0.00    -0.406 OA
BRANCH  20  21
ATOM     21  C   UNL A   1      38.056  21.101  25.202  1.00  0.00     0.573 C 
ATOM     22  F   UNL A   1      37.680  21.189  23.908  1.00  0.00    -0.132 F 
ATOM     23  F   UNL A   1      39.082  21.945  25.436  1.00  0.00    -0.132 F 
ATOM     24  F   UNL A   1      38.488  19.841  25.430  1.00  0.00    -0.132 F 
ENDBRANCH  20  21
ENDBRANCH  11  20
BRANCH  16  25
ATOM     25  C   UNL A   1      30.865  25.071  23.098  1.00  0.00     0.429 C 
ATOM     26  F   UNL A   1      30.658  25.973  22.113  1.00  0.00    -0.167 F 
ATOM     27  F   UNL A   1      29.920  24.109  22.908  1.00  0.00    -0.167 F 
ATOM     28  F   UNL A   1      30.583  25.663  24.282  1.00  0.00    -0.167 F 
ENDBRANCH  16  25
ENDBRANCH   4   7
ENDBRANCH   2   3
ENDBRANCH   1   2
BRANCH   1  29
ATOM     29  C   UNL A   1      33.802  28.516  27.275  1.00  0.00     0.118 C 
BRANCH  29  30
ATOM     30  N   UNL A   1      33.787  29.925  27.635  1.00  0.00    -0.352 N 
ATOM     31  C   UNL A   1      34.726  30.672  28.302  1.00  0.00     0.251 C 
ATOM     32  H   UNL A   1      32.982  30.419  27.357  1.00  0.00     0.163 HD
ATOM     33  O   UNL A   1      34.425  31.779  28.736  1.00  0.00    -0.269 OA
BRANCH  31  34
ATOM     34  C   UNL A   1      36.093  30.147  28.508  1.00  0.00     0.039 A 
ATOM     35  C   UNL A   1      36.998  30.188  27.444  1.00  0.00     0.014 A 
ATOM     36  C   UNL A   1      36.469  29.575  29.727  1.00  0.00     0.014 A 
ATOM     37  C   UNL A   1      38.299  29.710  27.620  1.00  0.00     0.010 A 
ATOM     38  C   UNL A   1      37.783  29.157  29.921  1.00  0.00     0.010 A 
ATOM     39  C   UNL A   1      38.711  29.221  28.870  1.00  0.00    -0.014 A 
BRANCH  39  40
ATOM     40  C   UNL A   1      40.111  28.788  29.104  1.00  0.00     0.031 A 
ATOM     41  C   UNL A   1      41.107  29.736  29.712  1.00  0.00     0.074 A 
ATOM     42  C   UNL A   1      40.502  27.565  28.698  1.00  0.00     0.049 A 
ATOM     43  N   UNL A   1      42.392  29.572  29.905  1.00  0.00    -0.248 NA
ATOM     44  C   UNL A   1      40.598  31.049  30.135  1.00  0.00     0.031 C 
ATOM     45  C   UNL A   1      39.639  26.570  28.059  1.00  0.00     0.029 A 
ATOM     46  N   UNL A   1      41.731  26.956  28.746  1.00  0.00    -0.354 N 
ATOM     47  C   UNL A   1      42.846  30.763  30.458  1.00  0.00     0.074 A 
ATOM     48  C   UNL A   1      41.709  31.656  30.527  1.00  0.00     0.031 C 
ATOM     49  C   UNL A   1      40.360  25.472  27.787  1.00  0.00     0.029 A 
ATOM     50  C   UNL A   1      41.743  25.698  28.194  1.00  0.00     0.049 A 
ATOM     51  H   UNL A   1      42.527  27.381  29.139  1.00  0.00     0.167 HD
ATOM     52  C   UNL A   1      44.092  31.077  30.884  1.00  0.00     0.037 A 
ATOM     53  C   UNL A   1      42.757  24.830  28.023  1.00  0.00     0.037 A 
ATOM     54  C   UNL A   1      45.216  30.178  30.832  1.00  0.00     0.049 A 
ATOM     55  C   UNL A   1      44.135  25.209  28.490  1.00  0.00     0.074 A 
ATOM     56  C   UNL A   1      46.504  30.379  31.297  1.00  0.00     0.029 A 
ATOM     57  N   UNL A   1      45.186  28.908  30.276  1.00  0.00    -0.354 N 
ATOM     58  N   UNL A   1      44.536  26.314  29.069  1.00  0.00    -0.248 NA
ATOM     59  C   UNL A   1      45.200  24.219  28.281  1.00  0.00     0.031 C 
ATOM     60  C   UNL A   1      47.264  29.248  30.983  1.00  0.00     0.029 A 
ATOM     61  C   UNL A   1      46.439  28.324  30.363  1.00  0.00     0.049 A 
ATOM     62  H   UNL A   1      44.391  28.484  29.879  1.00  0.00     0.167 HD
ATOM     63  C   UNL A   1      45.892  26.145  29.313  1.00  0.00     0.074 A 
ATOM     64  C   UNL A   1      46.242  24.824  28.834  1.00  0.00     0.031 C 
ATOM     65  C   UNL A   1      46.770  27.007  29.881  1.00  0.00     0.037 A 
BRANCH  52  66
ATOM     66  C   UNL A   1      44.307  32.452  31.446  1.00  0.00     0.057 A 
ATOM     67  C   UNL A   1      44.686  33.530  30.635  1.00  0.00     0.134 A 
ATOM     68  C   UNL A   1      44.097  32.711  32.806  1.00  0.00     0.134 A 
ATOM     69  F   UNL A   1      44.914  33.349  29.326  1.00  0.00    -0.206 F 
ATOM     70  C   UNL A   1      44.874  34.809  31.162  1.00  0.00     0.040 A 
ATOM     71  C   UNL A   1      44.257  33.991  33.340  1.00  0.00     0.040 A 
ATOM     72  F   UNL A   1      43.724  31.726  33.638  1.00  0.00    -0.206 F 
ATOM     73  C   UNL A   1      44.653  35.044  32.517  1.00  0.00     0.006 A 
ENDBRANCH  52  66
BRANCH  53  74
ATOM     74  C   UNL A   1      42.506  23.512  27.390  1.00  0.00     0.057 A 
ATOM     75  C   UNL A   1      42.085  22.416  28.151  1.00  0.00     0.134 A 
ATOM     76  C   UNL A   1      42.684  23.314  26.016  1.00  0.00     0.134 A 
ATOM     77  F   UNL A   1      41.915  22.539  29.475  1.00  0.00    -0.206 F 
ATOM     78  C   UNL A   1      41.866  21.165  27.572  1.00  0.00     0.040 A 
ATOM     79  C   UNL A   1      42.445  22.074  25.419  1.00  0.00     0.040 A 
ATOM     80  F   UNL A   1      43.079  24.327  25.230  1.00  0.00    -0.206 F 
ATOM     81  C   UNL A   1      42.041  20.993  26.200  1.00  0.00     0.006 A 
ENDBRANCH  53  74
BRANCH  65  82
ATOM     82  C   UNL A   1      48.186  26.538  30.036  1.00  0.00     0.057 A 
ATOM     83  C   UNL A   1      49.152  26.772  29.050  1.00  0.00     0.134 A 
ATOM     84  C   UNL A   1      48.597  25.877  31.201  1.00  0.00     0.134 A 
ATOM     85  F   UNL A   1      48.820  27.387  27.904  1.00  0.00    -0.206 F 
ATOM     86  C   UNL A   1      50.473  26.347  29.208  1.00  0.00     0.040 A 
ATOM     87  C   UNL A   1      49.920  25.470  31.381  1.00  0.00     0.040 A 
ATOM     88  F   UNL A   1      47.723  25.628  32.188  1.00  0.00    -0.206 F 
ATOM     89  C   UNL A   1      50.861  25.701  30.380  1.00  0.00     0.006 A 
ENDBRANCH  65  82
ENDBRANCH  39  40
ENDBRANCH  31  34
ENDBRANCH  29  30
ENDBRANCH   1  29
TORSDOF 15
ENDMDL
MODEL 2
REMARK VINA RESULT:     -11.3      2.824      7.121
REMARK SMILES CCCc1cc(OC(F)(F)F)cc2c1O[C@@H](C(F)(F)F)C(C(=O)NCCCNC(=O)c1ccc(-c3c4nc(c(-c5c(F)cccc5F)c5ccc([nH]5)c(-c5c(F)cccc5F)c5nc(c(-c6c(F)cccc6F)c6ccc3[nH]6)C=C5)C=C4)cc1)=C2
REMARK SMILES IDX 26 1 25 2 24 3 22 4 23 5 21 7 4 8 5 9 14 10 6 11 13 12 15 13
REMARK SMILES IDX 12 14 85 15 16 16 3 17 2 18 1 19 7 20 8 21 9 22 10 23 11 24
REMARK SMILES IDX 17 25 18 26 19 27 20 28 27 29 28 30 29 31 30 33 31 34 32 35
REMARK SMILES IDX 84 36 33 37 83 38 34 39 35 40 36 41 77 42 37 43 82 44 76 45
REMARK SMILES IDX 78 46 38 47 81 48 75 49 74 50 39 52 65 53 48 54 64 55 49 56
REMARK SMILES IDX 52 57 63 58 79 59 50 60 51 61 62 63 80 64 53 65 40 66 41 67
REMARK SMILES IDX 46 68 42 69 43 70 45 71 47 72 44 73 66 74 67 75 72 76 68 77
REMARK SMILES IDX 69 78 71 79 73 80 70 81 54 82 55 83 60 84 56 85 57 86 59 87
REMARK SMILES IDX 61 88 58 89
REMARK H PARENT 24 6 28 32 78 51 52 62
REMARK Flexibility Score: inf
ROOT
ATOM      1  C   UNL A   1      31.703  31.095  25.746  1.00  0.00     0.042 C 
ENDROOT
BRANCH   1   2
ATOM      2  C   UNL A   1      31.959  29.618  25.435  1.00  0.00     0.118 C 
BRANCH   2   3
ATOM      3  N   UNL A   1      31.567  28.788  26.563  1.00  0.00    -0.352 N 
ATOM      4  C   UNL A   1      31.566  27.446  26.766  1.00  0.00     0.251 C 
ATOM      5  O   UNL A   1      31.009  27.018  27.774  1.00  0.00    -0.270 OA
ATOM      6  H   UNL A   1      31.238  29.302  27.335  1.00  0.00     0.163 HD
BRANCH   4   7
ATOM      7  C   UNL A   1      32.259  26.491  25.866  1.00  0.00     0.067 C 
ATOM      8  C   UNL A   1      33.919  23.702  23.200  1.00  0.00    -0.002 A 
ATOM      9  C   UNL A   1      35.215  23.208  23.443  1.00  0.00     0.054 A 
ATOM     10  C   UNL A   1      33.355  24.613  24.102  1.00  0.00     0.131 A 
ATOM     11  C   UNL A   1      35.943  23.635  24.554  1.00  0.00     0.130 A 
ATOM     12  C   UNL A   1      34.090  25.074  25.191  1.00  0.00     0.021 A 
ATOM     13  O   UNL A   1      32.051  24.966  23.912  1.00  0.00    -0.475 OA
ATOM     14  C   UNL A   1      35.380  24.583  25.413  1.00  0.00     0.058 A 
ATOM     15  C   UNL A   1      33.489  26.019  26.119  1.00  0.00     0.025 C 
ATOM     16  C   UNL A   1      31.576  26.192  24.536  1.00  0.00     0.314 C 
BRANCH   8  17
ATOM     17  C   UNL A   1      33.183  23.277  21.948  1.00  0.00     0.039 C 
BRANCH  17  18
ATOM     18  C   UNL A   1      32.384  21.975  22.107  1.00  0.00     0.001 C 
ATOM     19  C   UNL A   1      32.390  21.423  23.527  1.00  0.00     0.004 C 
ENDBRANCH  17  18
ENDBRANCH   8  17
BRANCH  11  20
ATOM     20  O   UNL A   1      37.194  23.224  24.917  1.00  0.00    -0.406 OA
BRANCH  20  21
ATOM     21  C   UNL A   1      37.352  21.886  25.357  1.00  0.00     0.573 C 
ATOM     22  F   UNL A   1      38.453  21.750  26.126  1.00  0.00    -0.132 F 
ATOM     23  F   UNL A   1      36.266  21.471  26.041  1.00  0.00    -0.132 F 
ATOM     24  F   UNL A   1      37.495  21.091  24.273  1.00  0.00    -0.132 F 
ENDBRANCH  20  21
ENDBRANCH  11  20
BRANCH  16  25
ATOM     25  C   UNL A   1      30.031  26.116  24.544  1.00  0.00     0.429 C 
ATOM     26  F   UNL A   1      29.444  27.318  24.358  1.00  0.00    -0.167 F 
ATOM     27  F   UNL A   1      29.580  25.333  23.525  1.00  0.00    -0.167 F 
ATOM     28  F   UNL A   1      29.547  25.579  25.688  1.00  0.00    -0.167 F 
ENDBRANCH  16  25
ENDBRANCH   4   7
ENDBRANCH   2   3
ENDBRANCH   1   2
BRANCH   1  29
ATOM     29  C   UNL A   1      32.297  31.537  27.083  1.00  0.00     0.118 C 
BRANCH  29  30
ATOM     30  N   UNL A   1      32.148  32.969  27.289  1.00  0.00    -0.352 N 
ATOM     31  C   UNL A   1      32.897  33.830  28.050  1.00  0.00     0.251 C 
ATOM     32  H   UNL A   1      31.394  33.384  26.811  1.00  0.00     0.163 HD
ATOM     33  O   UNL A   1      32.467  34.951  28.303  1.00  0.00    -0.269 OA
BRANCH  31  34
ATOM     34  C   UNL A   1      34.217  33.414  28.574  1.00  0.00     0.039 A 
ATOM     35  C   UNL A   1      34.270  32.684  29.764  1.00  0.00     0.014 A 
ATOM     36  C   UNL A   1      35.398  33.780  27.922  1.00  0.00     0.014 A 
ATOM     37  C   UNL A   1      35.504  32.269  30.270  1.00  0.00     0.010 A 
ATOM     38  C   UNL A   1      36.623  33.313  28.393  1.00  0.00     0.010 A 
ATOM     39  C   UNL A   1      36.688  32.553  29.570  1.00  0.00    -0.014 A 
BRANCH  39  40
ATOM     40  C   UNL A   1      38.001  32.048  30.042  1.00  0.00     0.031 A 
ATOM     41  C   UNL A   1      38.554  30.755  29.512  1.00  0.00     0.074 A 
ATOM     42  C   UNL A   1      38.659  32.719  31.008  1.00  0.00     0.049 A 
ATOM     43  N   UNL A   1      39.634  30.109  29.872  1.00  0.00    -0.248 NA
ATOM     44  C   UNL A   1      37.778  30.088  28.455  1.00  0.00     0.031 C 
ATOM     45  C   UNL A   1      38.206  33.964  31.631  1.00  0.00     0.029 A 
ATOM     46  N   UNL A   1      39.841  32.439  31.646  1.00  0.00    -0.354 N 
ATOM     47  C   UNL A   1      39.660  28.955  29.098  1.00  0.00     0.074 A 
ATOM     48  C   UNL A   1      38.465  28.968  28.282  1.00  0.00     0.031 C 
ATOM     49  C   UNL A   1      39.104  34.347  32.551  1.00  0.00     0.029 A 
ATOM     50  C   UNL A   1      40.175  33.357  32.612  1.00  0.00     0.049 A 
ATOM     51  H   UNL A   1      40.397  31.656  31.431  1.00  0.00     0.167 HD
ATOM     52  C   UNL A   1      40.602  27.983  29.059  1.00  0.00     0.037 A 
ATOM     53  C   UNL A   1      41.219  33.390  33.461  1.00  0.00     0.037 A 
ATOM     54  C   UNL A   1      41.800  27.985  29.859  1.00  0.00     0.049 A 
ATOM     55  C   UNL A   1      42.242  32.291  33.410  1.00  0.00     0.074 A 
ATOM     56  C   UNL A   1      42.847  27.079  29.847  1.00  0.00     0.029 A 
ATOM     57  N   UNL A   1      42.108  28.938  30.818  1.00  0.00    -0.354 N 
ATOM     58  N   UNL A   1      42.287  31.240  32.628  1.00  0.00    -0.248 NA
ATOM     59  C   UNL A   1      43.362  32.383  34.358  1.00  0.00     0.031 C 
ATOM     60  C   UNL A   1      43.766  27.459  30.829  1.00  0.00     0.029 A 
ATOM     61  C   UNL A   1      43.315  28.627  31.422  1.00  0.00     0.049 A 
ATOM     62  H   UNL A   1      41.551  29.719  31.038  1.00  0.00     0.167 HD
ATOM     63  C   UNL A   1      43.446  30.558  32.973  1.00  0.00     0.074 A 
ATOM     64  C   UNL A   1      44.084  31.324  34.024  1.00  0.00     0.031 C 
ATOM     65  C   UNL A   1      43.937  29.401  32.467  1.00  0.00     0.037 A 
BRANCH  52  66
ATOM     66  C   UNL A   1      40.376  26.835  28.120  1.00  0.00     0.057 A 
ATOM     67  C   UNL A   1      40.982  26.784  26.858  1.00  0.00     0.134 A 
ATOM     68  C   UNL A   1      39.572  25.751  28.493  1.00  0.00     0.134 A 
ATOM     69  F   UNL A   1      41.756  27.794  26.433  1.00  0.00    -0.206 F 
ATOM     70  C   UNL A   1      40.777  25.708  25.992  1.00  0.00     0.040 A 
ATOM     71  C   UNL A   1      39.379  24.658  27.646  1.00  0.00     0.040 A 
ATOM     72  F   UNL A   1      38.967  25.732  29.691  1.00  0.00    -0.206 F 
ATOM     73  C   UNL A   1      39.978  24.638  26.388  1.00  0.00     0.006 A 
ENDBRANCH  52  66
BRANCH  53  74
ATOM     74  C   UNL A   1      41.354  34.509  34.426  1.00  0.00     0.057 A 
ATOM     75  C   UNL A   1      42.001  35.697  34.066  1.00  0.00     0.134 A 
ATOM     76  C   UNL A   1      40.849  34.419  35.728  1.00  0.00     0.134 A 
ATOM     77  F   UNL A   1      42.523  35.835  32.838  1.00  0.00    -0.206 F 
ATOM     78  C   UNL A   1      42.155  36.749  34.969  1.00  0.00     0.040 A 
ATOM     79  C   UNL A   1      40.974  35.473  36.635  1.00  0.00     0.040 A 
ATOM     80  F   UNL A   1      40.211  33.310  36.133  1.00  0.00    -0.206 F 
ATOM     81  C   UNL A   1      41.635  36.641  36.258  1.00  0.00     0.006 A 
ENDBRANCH  53  74
BRANCH  65  82
ATOM     82  C   UNL A   1      45.238  28.907  33.027  1.00  0.00     0.057 A 
ATOM     83  C   UNL A   1      46.470  29.316  32.500  1.00  0.00     0.134 A 
ATOM     84  C   UNL A   1      45.260  28.039  34.126  1.00  0.00     0.134 A 
ATOM     85  F   UNL A   1      46.518  30.133  31.437  1.00  0.00    -0.206 F 
ATOM     86  C   UNL A   1      47.678  28.864  33.036  1.00  0.00     0.040 A 
ATOM     87  C   UNL A   1      46.461  27.602  34.687  1.00  0.00     0.040 A 
ATOM     88  F   UNL A   1      44.115  27.616  34.683  1.00  0.00    -0.206 F 
ATOM     89  C   UNL A   1      47.674  28.011  34.137  1.00  0.00     0.006 A 
ENDBRANCH  65  82
ENDBRANCH  39  40
ENDBRANCH  31  34
ENDBRANCH  29  30
ENDBRANCH   1  29
TORSDOF 15
ENDMDL
MODEL 3
REMARK VINA RESULT:     -11.3      1.637      2.654
REMARK SMILES CCCc1cc(OC(F)(F)F)cc2c1O[C@@H](C(F)(F)F)C(C(=O)NCCCNC(=O)c1ccc(-c3c4nc(c(-c5c(F)cccc5F)c5ccc([nH]5)c(-c5c(F)cccc5F)c5nc(c(-c6c(F)cccc6F)c6ccc3[nH]6)C=C5)C=C4)cc1)=C2
REMARK SMILES IDX 26 1 25 2 24 3 22 4 23 5 21 7 4 8 5 9 14 10 6 11 13 12 15 13
REMARK SMILES IDX 12 14 85 15 16 16 3 17 2 18 1 19 7 20 8 21 9 22 10 23 11 24
REMARK SMILES IDX 17 25 18 26 19 27 20 28 27 29 28 30 29 31 30 33 31 34 32 35
REMARK SMILES IDX 84 36 33 37 83 38 34 39 35 40 36 41 77 42 37 43 82 44 76 45
REMARK SMILES IDX 78 46 38 47 81 48 75 49 74 50 39 52 65 53 48 54 64 55 49 56
REMARK SMILES IDX 52 57 63 58 79 59 50 60 51 61 62 63 80 64 53 65 40 66 41 67
REMARK SMILES IDX 46 68 42 69 43 70 45 71 47 72 44 73 66 74 67 75 72 76 68 77
REMARK SMILES IDX 69 78 71 79 73 80 70 81 54 82 55 83 60 84 56 85 57 86 59 87
REMARK SMILES IDX 61 88 58 89
REMARK H PARENT 24 6 28 32 78 51 52 62
REMARK Flexibility Score: inf
ROOT
ATOM      1  C   UNL A   1      32.614  28.319  26.299  1.00  0.00     0.042 C 
ENDROOT
BRANCH   1   2
ATOM      2  C   UNL A   1      31.677  27.208  26.778  1.00  0.00     0.118 C 
BRANCH   2   3
ATOM      3  N   UNL A   1      30.751  26.836  25.721  1.00  0.00    -0.352 N 
ATOM      4  C   UNL A   1      30.803  25.906  24.732  1.00  0.00     0.251 C 
ATOM      5  O   UNL A   1      29.930  25.938  23.868  1.00  0.00    -0.270 OA
ATOM      6  H   UNL A   1      29.920  27.363  25.721  1.00  0.00     0.163 HD
BRANCH   4   7
ATOM      7  C   UNL A   1      31.818  24.825  24.692  1.00  0.00     0.067 C 
ATOM      8  C   UNL A   1      34.858  21.947  24.348  1.00  0.00    -0.002 A 
ATOM      9  C   UNL A   1      34.600  20.624  24.758  1.00  0.00     0.054 A 
ATOM     10  C   UNL A   1      33.836  22.901  24.438  1.00  0.00     0.131 A 
ATOM     11  C   UNL A   1      33.353  20.269  25.273  1.00  0.00     0.130 A 
ATOM     12  C   UNL A   1      32.602  22.563  24.987  1.00  0.00     0.021 A 
ATOM     13  O   UNL A   1      34.076  24.135  23.907  1.00  0.00    -0.475 OA
ATOM     14  C   UNL A   1      32.365  21.249  25.401  1.00  0.00     0.058 A 
ATOM     15  C   UNL A   1      31.553  23.566  25.074  1.00  0.00     0.025 C 
ATOM     16  C   UNL A   1      33.244  25.244  24.351  1.00  0.00     0.314 C 
BRANCH   8  17
ATOM     17  C   UNL A   1      36.242  22.319  23.862  1.00  0.00     0.039 C 
BRANCH  17  18
ATOM     18  C   UNL A   1      37.298  22.378  24.976  1.00  0.00     0.001 C 
ATOM     19  C   UNL A   1      37.327  23.706  25.722  1.00  0.00     0.004 C 
ENDBRANCH  17  18
ENDBRANCH   8  17
BRANCH  11  20
ATOM     20  O   UNL A   1      32.965  19.026  25.687  1.00  0.00    -0.406 OA
BRANCH  20  21
ATOM     21  C   UNL A   1      32.727  18.041  24.696  1.00  0.00     0.573 C 
ATOM     22  F   UNL A   1      32.008  18.542  23.670  1.00  0.00    -0.132 F 
ATOM     23  F   UNL A   1      33.888  17.532  24.232  1.00  0.00    -0.132 F 
ATOM     24  F   UNL A   1      32.020  17.033  25.253  1.00  0.00    -0.132 F 
ENDBRANCH  20  21
ENDBRANCH  11  20
BRANCH  16  25
ATOM     25  C   UNL A   1      33.412  26.370  23.305  1.00  0.00     0.429 C 
ATOM     26  F   UNL A   1      34.171  27.395  23.752  1.00  0.00    -0.167 F 
ATOM     27  F   UNL A   1      34.050  25.908  22.194  1.00  0.00    -0.167 F 
ATOM     28  F   UNL A   1      32.225  26.870  22.890  1.00  0.00    -0.167 F 
ENDBRANCH  16  25
ENDBRANCH   4   7
ENDBRANCH   2   3
ENDBRANCH   1   2
BRANCH   1  29
ATOM     29  C   UNL A   1      33.725  28.638  27.298  1.00  0.00     0.118 C 
BRANCH  29  30
ATOM     30  N   UNL A   1      33.712  30.039  27.687  1.00  0.00    -0.352 N 
ATOM     31  C   UNL A   1      34.650  30.770  28.373  1.00  0.00     0.251 C 
ATOM     32  H   UNL A   1      32.909  30.540  27.418  1.00  0.00     0.163 HD
ATOM     33  O   UNL A   1      34.350  31.869  28.829  1.00  0.00    -0.269 OA
BRANCH  31  34
ATOM     34  C   UNL A   1      36.016  30.239  28.572  1.00  0.00     0.039 A 
ATOM     35  C   UNL A   1      36.926  30.305  27.513  1.00  0.00     0.014 A 
ATOM     36  C   UNL A   1      36.385  29.635  29.777  1.00  0.00     0.014 A 
ATOM     37  C   UNL A   1      38.225  29.821  27.683  1.00  0.00     0.010 A 
ATOM     38  C   UNL A   1      37.698  29.211  29.967  1.00  0.00     0.010 A 
ATOM     39  C   UNL A   1      38.631  29.300  28.922  1.00  0.00    -0.014 A 
BRANCH  39  40
ATOM     40  C   UNL A   1      40.029  28.860  29.152  1.00  0.00     0.031 A 
ATOM     41  C   UNL A   1      41.037  29.808  29.739  1.00  0.00     0.074 A 
ATOM     42  C   UNL A   1      40.408  27.628  28.759  1.00  0.00     0.049 A 
ATOM     43  N   UNL A   1      42.322  29.637  29.925  1.00  0.00    -0.248 NA
ATOM     44  C   UNL A   1      40.541  31.131  30.148  1.00  0.00     0.031 C 
ATOM     45  C   UNL A   1      39.532  26.631  28.140  1.00  0.00     0.029 A 
ATOM     46  N   UNL A   1      41.633  27.011  28.807  1.00  0.00    -0.354 N 
ATOM     47  C   UNL A   1      42.789  30.832  30.458  1.00  0.00     0.074 A 
ATOM     48  C   UNL A   1      41.660  31.735  30.523  1.00  0.00     0.031 C 
ATOM     49  C   UNL A   1      40.243  25.524  27.879  1.00  0.00     0.029 A 
ATOM     50  C   UNL A   1      41.630  25.745  28.272  1.00  0.00     0.049 A 
ATOM     51  H   UNL A   1      42.435  27.434  29.188  1.00  0.00     0.167 HD
ATOM     52  C   UNL A   1      44.041  31.142  30.871  1.00  0.00     0.037 A 
ATOM     53  C   UNL A   1      42.637  24.867  28.105  1.00  0.00     0.037 A 
ATOM     54  C   UNL A   1      45.157  30.233  30.823  1.00  0.00     0.049 A 
ATOM     55  C   UNL A   1      44.021  25.241  28.557  1.00  0.00     0.074 A 
ATOM     56  C   UNL A   1      46.451  30.431  31.275  1.00  0.00     0.029 A 
ATOM     57  N   UNL A   1      45.113  28.956  30.284  1.00  0.00    -0.354 N 
ATOM     58  N   UNL A   1      44.435  26.351  29.117  1.00  0.00    -0.248 NA
ATOM     59  C   UNL A   1      45.077  24.240  28.353  1.00  0.00     0.031 C 
ATOM     60  C   UNL A   1      47.200  29.290  30.971  1.00  0.00     0.029 A 
ATOM     61  C   UNL A   1      46.363  28.364  30.370  1.00  0.00     0.049 A 
ATOM     62  H   UNL A   1      44.313  28.533  29.898  1.00  0.00     0.167 HD
ATOM     63  C   UNL A   1      45.792  26.175  29.354  1.00  0.00     0.074 A 
ATOM     64  C   UNL A   1      46.127  24.845  28.890  1.00  0.00     0.031 C 
ATOM     65  C   UNL A   1      46.681  27.038  29.903  1.00  0.00     0.037 A 
BRANCH  52  66
ATOM     66  C   UNL A   1      44.270  32.523  31.412  1.00  0.00     0.057 A 
ATOM     67  C   UNL A   1      44.660  33.584  30.585  1.00  0.00     0.134 A 
ATOM     68  C   UNL A   1      44.064  32.804  32.769  1.00  0.00     0.134 A 
ATOM     69  F   UNL A   1      44.885  33.382  29.278  1.00  0.00    -0.206 F 
ATOM     70  C   UNL A   1      44.862  34.869  31.093  1.00  0.00     0.040 A 
ATOM     71  C   UNL A   1      44.238  34.090  33.283  1.00  0.00     0.040 A 
ATOM     72  F   UNL A   1      43.682  31.835  33.615  1.00  0.00    -0.206 F 
ATOM     73  C   UNL A   1      44.645  35.126  32.445  1.00  0.00     0.006 A 
ENDBRANCH  52  66
BRANCH  53  74
ATOM     74  C   UNL A   1      42.371  23.543  27.491  1.00  0.00     0.057 A 
ATOM     75  C   UNL A   1      42.355  23.384  26.101  1.00  0.00     0.134 A 
ATOM     76  C   UNL A   1      42.122  22.409  28.273  1.00  0.00     0.134 A 
ATOM     77  F   UNL A   1      42.568  24.437  25.299  1.00  0.00    -0.206 F 
ATOM     78  C   UNL A   1      42.085  22.149  25.509  1.00  0.00     0.040 A 
ATOM     79  C   UNL A   1      41.875  21.162  27.695  1.00  0.00     0.040 A 
ATOM     80  F   UNL A   1      42.131  22.493  29.612  1.00  0.00    -0.206 F 
ATOM     81  C   UNL A   1      41.850  21.032  26.308  1.00  0.00     0.006 A 
ENDBRANCH  53  74
BRANCH  65  82
ATOM     82  C   UNL A   1      48.094  26.560  30.054  1.00  0.00     0.057 A 
ATOM     83  C   UNL A   1      48.515  25.848  31.184  1.00  0.00     0.134 A 
ATOM     84  C   UNL A   1      49.036  26.785  29.042  1.00  0.00     0.134 A 
ATOM     85  F   UNL A   1      47.665  25.614  32.196  1.00  0.00    -0.206 F 
ATOM     86  C   UNL A   1      49.829  25.393  31.312  1.00  0.00     0.040 A 
ATOM     87  C   UNL A   1      50.345  26.313  29.146  1.00  0.00     0.040 A 
ATOM     88  F   UNL A   1      48.696  27.454  27.931  1.00  0.00    -0.206 F 
ATOM     89  C   UNL A   1      50.746  25.619  30.287  1.00  0.00     0.006 A 
ENDBRANCH  65  82
ENDBRANCH  39  40
ENDBRANCH  31  34
ENDBRANCH  29  30
ENDBRANCH   1  29
TORSDOF 15
ENDMDL
