MODEL 1
REMARK VINA RESULT:     -11.8      0.000      0.000
REMARK SMILES Cc1ccc(Cl)cc1NC(=O)N[C@@](C)(C(=O)NCCCNC(=O)c1ccc(-c2c3nc(c(-c4c(F)cccc4F)c4ccc([nH]4)c(-c4c(F)cccc4F)c4nc(c(-c5c(F)cccc5F)c5ccc2[nH]5)C=C4)C=C3)cc1)C(F)(F)F
REMARK SMILES IDX 19 1 18 2 17 3 15 4 16 5 13 7 14 8 12 9 9 10 10 11 11 13
REMARK SMILES IDX 8 15 1 16 2 17 3 18 4 19 7 20 5 21 6 22 78 23 79 24 80 25
REMARK SMILES IDX 81 26 20 27 21 28 22 29 23 31 24 32 25 33 77 34 26 35 76 36
REMARK SMILES IDX 27 37 28 38 29 39 70 40 30 41 75 42 69 43 71 44 31 45 74 46
REMARK SMILES IDX 68 47 67 48 32 50 58 51 41 52 57 53 42 54 45 55 56 56 72 57
REMARK SMILES IDX 43 58 44 59 55 61 73 62 46 63 33 64 34 65 39 66 35 67 36 68
REMARK SMILES IDX 38 69 40 70 37 71 59 72 60 73 65 74 61 75 62 76 64 77 66 78
REMARK SMILES IDX 63 79 47 80 48 81 53 82 49 83 50 84 52 85 54 86 51 87
REMARK H PARENT 17 6 9 12 12 14 21 30 71 49 45 60
REMARK Flexibility Score: inf
ROOT
ATOM      1  C   UNL A   1      37.218  20.883  24.971  1.00  0.00     0.042 C 
ENDROOT
BRANCH   1   2
ATOM      2  C   UNL A   1      36.138  21.893  25.344  1.00  0.00     0.117 C 
BRANCH   2   3
ATOM      3  N   UNL A   1      35.293  22.213  24.208  1.00  0.00    -0.354 N 
ATOM      4  C   UNL A   1      33.933  22.309  24.367  1.00  0.00     0.255 C 
ATOM      5  O   UNL A   1      33.272  21.276  24.258  1.00  0.00    -0.272 OA
ATOM      6  H   UNL A   1      35.696  22.361  23.322  1.00  0.00     0.163 HD
BRANCH   4   7
ATOM      7  C   UNL A   1      33.340  23.669  24.824  1.00  0.00     0.213 C 
ATOM      8  C   UNL A   1      34.462  24.612  25.294  1.00  0.00     0.056 C 
BRANCH   7   9
ATOM      9  N   UNL A   1      32.421  23.331  25.958  1.00  0.00    -0.316 N 
ATOM     10  N   UNL A   1      30.861  25.071  26.493  1.00  0.00    -0.308 N 
ATOM     11  C   UNL A   1      31.427  23.870  26.666  1.00  0.00     0.320 C 
ATOM     12  H   UNL A   1      29.980  25.129  26.930  1.00  0.00     0.171 HD
ATOM     13  O   UNL A   1      30.901  23.120  27.497  1.00  0.00    -0.248 OA
ATOM     14  H   UNL A   1      32.610  22.421  26.285  1.00  0.00     0.166 HD
BRANCH  10  15
ATOM     15  C   UNL A   1      31.204  26.263  25.850  1.00  0.00     0.047 A 
ATOM     16  C   UNL A   1      29.074  26.131  24.422  1.00  0.00     0.046 C 
ATOM     17  C   UNL A   1      30.399  26.741  24.796  1.00  0.00    -0.027 A 
ATOM     18  C   UNL A   1      30.834  27.855  24.057  1.00  0.00     0.007 A 
ATOM     19  C   UNL A   1      32.013  28.519  24.392  1.00  0.00     0.021 A 
ATOM     20  C   UNL A   1      32.290  27.025  26.271  1.00  0.00     0.047 A 
ATOM     21  C   UNL A   1      32.712  28.127  25.525  1.00  0.00     0.043 A 
ATOM     22  Cl  UNL A   1      34.131  28.983  25.991  1.00  0.00    -0.084 Cl
ENDBRANCH  10  15
ENDBRANCH   7   9
BRANCH   7  23
ATOM     23  C   UNL A   1      32.700  24.117  23.487  1.00  0.00     0.420 C 
ATOM     24  F   UNL A   1      32.865  25.434  23.231  1.00  0.00    -0.168 F 
ATOM     25  F   UNL A   1      33.180  23.454  22.419  1.00  0.00    -0.168 F 
ATOM     26  F   UNL A   1      31.362  23.864  23.485  1.00  0.00    -0.168 F 
ENDBRANCH   7  23
ENDBRANCH   4   7
ENDBRANCH   2   3
ENDBRANCH   1   2
BRANCH   1  27
ATOM     27  C   UNL A   1      38.542  21.106  25.695  1.00  0.00     0.118 C 
BRANCH  27  28
ATOM     28  N   UNL A   1      39.414  19.936  25.648  1.00  0.00    -0.352 N 
ATOM     29  C   UNL A   1      40.751  19.860  25.952  1.00  0.00     0.251 C 
ATOM     30  H   UNL A   1      38.990  19.094  25.363  1.00  0.00     0.163 HD
ATOM     31  O   UNL A   1      41.397  18.844  25.717  1.00  0.00    -0.269 OA
BRANCH  29  32
ATOM     32  C   UNL A   1      41.400  21.044  26.539  1.00  0.00     0.039 A 
ATOM     33  C   UNL A   1      41.928  22.024  25.698  1.00  0.00     0.014 A 
ATOM     34  C   UNL A   1      41.390  21.215  27.926  1.00  0.00     0.014 A 
ATOM     35  C   UNL A   1      42.386  23.222  26.249  1.00  0.00     0.010 A 
ATOM     36  C   UNL A   1      41.763  22.437  28.460  1.00  0.00     0.010 A 
ATOM     37  C   UNL A   1      42.271  23.450  27.628  1.00  0.00    -0.014 A 
BRANCH  37  38
ATOM     38  C   UNL A   1      42.708  24.719  28.258  1.00  0.00     0.031 A 
ATOM     39  C   UNL A   1      41.681  25.783  28.528  1.00  0.00     0.074 A 
ATOM     40  C   UNL A   1      44.015  24.957  28.479  1.00  0.00     0.049 A 
ATOM     41  N   UNL A   1      41.852  27.035  28.864  1.00  0.00    -0.248 NA
ATOM     42  C   UNL A   1      40.272  25.396  28.344  1.00  0.00     0.031 C 
ATOM     43  C   UNL A   1      45.108  24.017  28.225  1.00  0.00     0.029 A 
ATOM     44  N   UNL A   1      44.647  26.083  28.945  1.00  0.00    -0.354 N 
ATOM     45  C   UNL A   1      40.580  27.592  28.887  1.00  0.00     0.074 A 
ATOM     46  C   UNL A   1      39.652  26.557  28.490  1.00  0.00     0.031 C 
ATOM     47  C   UNL A   1      46.274  24.603  28.545  1.00  0.00     0.029 A 
ATOM     48  C   UNL A   1      46.016  25.971  28.982  1.00  0.00     0.049 A 
ATOM     49  H   UNL A   1      44.165  26.894  29.225  1.00  0.00     0.167 HD
ATOM     50  C   UNL A   1      40.218  28.850  29.226  1.00  0.00     0.037 A 
ATOM     51  C   UNL A   1      46.954  26.879  29.314  1.00  0.00     0.037 A 
ATOM     52  C   UNL A   1      41.140  29.855  29.678  1.00  0.00     0.049 A 
ATOM     53  C   UNL A   1      46.522  28.262  29.721  1.00  0.00     0.074 A 
ATOM     54  C   UNL A   1      40.871  31.141  30.110  1.00  0.00     0.029 A 
ATOM     55  N   UNL A   1      42.512  29.677  29.767  1.00  0.00    -0.354 N 
ATOM     56  N   UNL A   1      45.313  28.766  29.779  1.00  0.00    -0.248 NA
ATOM     57  C   UNL A   1      47.583  29.203  30.109  1.00  0.00     0.031 C 
ATOM     58  C   UNL A   1      42.084  31.752  30.438  1.00  0.00     0.029 A 
ATOM     59  C   UNL A   1      43.104  30.832  30.247  1.00  0.00     0.049 A 
ATOM     60  H   UNL A   1      42.994  28.853  29.525  1.00  0.00     0.167 HD
ATOM     61  C   UNL A   1      45.464  30.065  30.247  1.00  0.00     0.074 A 
ATOM     62  C   UNL A   1      46.881  30.274  30.454  1.00  0.00     0.031 C 
ATOM     63  C   UNL A   1      44.514  31.001  30.484  1.00  0.00     0.037 A 
BRANCH  50  64
ATOM     64  C   UNL A   1      38.763  29.202  29.132  1.00  0.00     0.057 A 
ATOM     65  C   UNL A   1      37.916  29.149  30.247  1.00  0.00     0.134 A 
ATOM     66  C   UNL A   1      38.208  29.622  27.917  1.00  0.00     0.134 A 
ATOM     67  F   UNL A   1      38.382  28.739  31.436  1.00  0.00    -0.206 F 
ATOM     68  C   UNL A   1      36.562  29.476  30.150  1.00  0.00     0.040 A 
ATOM     69  C   UNL A   1      36.863  29.979  27.814  1.00  0.00     0.040 A 
ATOM     70  F   UNL A   1      38.965  29.698  26.812  1.00  0.00    -0.206 F 
ATOM     71  C   UNL A   1      36.035  29.900  28.932  1.00  0.00     0.006 A 
ENDBRANCH  50  64
BRANCH  51  72
ATOM     72  C   UNL A   1      48.391  26.510  29.295  1.00  0.00     0.057 A 
ATOM     73  C   UNL A   1      48.988  25.889  30.398  1.00  0.00     0.134 A 
ATOM     74  C   UNL A   1      49.205  26.777  28.189  1.00  0.00     0.134 A 
ATOM     75  F   UNL A   1      48.264  25.623  31.496  1.00  0.00    -0.206 F 
ATOM     76  C   UNL A   1      50.346  25.566  30.413  1.00  0.00     0.040 A 
ATOM     77  C   UNL A   1      50.560  26.439  28.179  1.00  0.00     0.040 A 
ATOM     78  F   UNL A   1      48.693  27.363  27.096  1.00  0.00    -0.206 F 
ATOM     79  C   UNL A   1      51.136  25.839  29.297  1.00  0.00     0.006 A 
ENDBRANCH  51  72
BRANCH  63  80
ATOM     80  C   UNL A   1      44.959  32.310  31.059  1.00  0.00     0.057 A 
ATOM     81  C   UNL A   1      45.279  33.405  30.249  1.00  0.00     0.134 A 
ATOM     82  C   UNL A   1      44.983  32.497  32.448  1.00  0.00     0.134 A 
ATOM     83  F   UNL A   1      45.284  33.284  28.913  1.00  0.00    -0.206 F 
ATOM     84  C   UNL A   1      45.615  34.641  30.801  1.00  0.00     0.040 A 
ATOM     85  C   UNL A   1      45.296  33.734  33.011  1.00  0.00     0.040 A 
ATOM     86  F   UNL A   1      44.676  31.487  33.276  1.00  0.00    -0.206 F 
ATOM     87  C   UNL A   1      45.613  34.811  32.185  1.00  0.00     0.006 A 
ENDBRANCH  63  80
ENDBRANCH  37  38
ENDBRANCH  29  32
ENDBRANCH  27  28
ENDBRANCH   1  27
TORSDOF 13
ENDMDL
MODEL 2
REMARK VINA RESULT:     -11.8      1.991      2.635
REMARK SMILES Cc1ccc(Cl)cc1NC(=O)N[C@@](C)(C(=O)NCCCNC(=O)c1ccc(-c2c3nc(c(-c4c(F)cccc4F)c4ccc([nH]4)c(-c4c(F)cccc4F)c4nc(c(-c5c(F)cccc5F)c5ccc2[nH]5)C=C4)C=C3)cc1)C(F)(F)F
REMARK SMILES IDX 19 1 18 2 17 3 15 4 16 5 13 7 14 8 12 9 9 10 10 11 11 13
REMARK SMILES IDX 8 15 1 16 2 17 3 18 4 19 7 20 5 21 6 22 78 23 79 24 80 25
REMARK SMILES IDX 81 26 20 27 21 28 22 29 23 31 24 32 25 33 77 34 26 35 76 36
REMARK SMILES IDX 27 37 28 38 29 39 70 40 30 41 75 42 69 43 71 44 31 45 74 46
REMARK SMILES IDX 68 47 67 48 32 50 58 51 41 52 57 53 42 54 45 55 56 56 72 57
REMARK SMILES IDX 43 58 44 59 55 61 73 62 46 63 33 64 34 65 39 66 35 67 36 68
REMARK SMILES IDX 38 69 40 70 37 71 59 72 60 73 65 74 61 75 62 76 64 77 66 78
REMARK SMILES IDX 63 79 47 80 48 81 53 82 49 83 50 84 52 85 54 86 51 87
REMARK H PARENT 17 6 9 12 12 14 21 30 71 49 45 60
REMARK Flexibility Score: inf
ROOT
ATOM      1  C   UNL A   1      37.748  19.594  24.749  1.00  0.00     0.042 C 
ENDROOT
BRANCH   1   2
ATOM      2  C   UNL A   1      36.399  20.260  25.001  1.00  0.00     0.117 C 
BRANCH   2   3
ATOM      3  N   UNL A   1      36.550  21.675  25.289  1.00  0.00    -0.354 N 
ATOM      4  C   UNL A   1      36.139  22.612  24.374  1.00  0.00     0.255 C 
ATOM      5  O   UNL A   1      36.942  22.952  23.505  1.00  0.00    -0.272 OA
ATOM      6  H   UNL A   1      36.949  21.963  26.142  1.00  0.00     0.163 HD
BRANCH   4   7
ATOM      7  C   UNL A   1      34.652  23.061  24.399  1.00  0.00     0.213 C 
ATOM      8  C   UNL A   1      33.808  22.072  25.222  1.00  0.00     0.056 C 
BRANCH   7   9
ATOM      9  N   UNL A   1      34.222  23.059  22.963  1.00  0.00    -0.316 N 
ATOM     10  N   UNL A   1      32.265  24.376  22.537  1.00  0.00    -0.308 N 
ATOM     11  C   UNL A   1      33.264  23.559  22.181  1.00  0.00     0.320 C 
ATOM     12  H   UNL A   1      31.869  24.834  21.759  1.00  0.00     0.171 HD
ATOM     13  O   UNL A   1      33.393  23.328  20.972  1.00  0.00    -0.248 OA
ATOM     14  H   UNL A   1      34.844  22.516  22.425  1.00  0.00     0.166 HD
BRANCH  10  15
ATOM     15  C   UNL A   1      31.641  24.745  23.731  1.00  0.00     0.047 A 
ATOM     16  C   UNL A   1      31.950  27.227  23.154  1.00  0.00     0.046 C 
ATOM     17  C   UNL A   1      31.558  26.107  24.080  1.00  0.00    -0.027 A 
ATOM     18  C   UNL A   1      31.067  26.456  25.352  1.00  0.00     0.007 A 
ATOM     19  C   UNL A   1      30.613  25.479  26.236  1.00  0.00     0.021 A 
ATOM     20  C   UNL A   1      31.042  23.796  24.556  1.00  0.00     0.047 A 
ATOM     21  C   UNL A   1      30.562  24.157  25.816  1.00  0.00     0.043 A 
ATOM     22  Cl  UNL A   1      29.938  22.949  26.872  1.00  0.00    -0.084 Cl
ENDBRANCH  10  15
ENDBRANCH   7   9
BRANCH   7  23
ATOM     23  C   UNL A   1      34.823  24.432  25.098  1.00  0.00     0.420 C 
ATOM     24  F   UNL A   1      34.775  25.477  24.241  1.00  0.00    -0.168 F 
ATOM     25  F   UNL A   1      33.895  24.666  26.044  1.00  0.00    -0.168 F 
ATOM     26  F   UNL A   1      36.015  24.493  25.752  1.00  0.00    -0.168 F 
ENDBRANCH   7  23
ENDBRANCH   4   7
ENDBRANCH   2   3
ENDBRANCH   1   2
BRANCH   1  27
ATOM     27  C   UNL A   1      38.832  20.016  25.734  1.00  0.00     0.118 C 
BRANCH  27  28
ATOM     28  N   UNL A   1      39.966  19.096  25.754  1.00  0.00    -0.352 N 
ATOM     29  C   UNL A   1      41.283  19.375  26.022  1.00  0.00     0.251 C 
ATOM     30  H   UNL A   1      39.759  18.155  25.550  1.00  0.00     0.163 HD
ATOM     31  O   UNL A   1      42.157  18.533  25.850  1.00  0.00    -0.269 OA
BRANCH  29  32
ATOM     32  C   UNL A   1      41.626  20.727  26.494  1.00  0.00     0.039 A 
ATOM     33  C   UNL A   1      41.828  20.946  27.858  1.00  0.00     0.014 A 
ATOM     34  C   UNL A   1      41.839  21.746  25.563  1.00  0.00     0.014 A 
ATOM     35  C   UNL A   1      42.319  22.180  28.285  1.00  0.00     0.010 A 
ATOM     36  C   UNL A   1      42.409  22.938  25.981  1.00  0.00     0.010 A 
ATOM     37  C   UNL A   1      42.648  23.169  27.346  1.00  0.00    -0.014 A 
BRANCH  37  38
ATOM     38  C   UNL A   1      43.208  24.483  27.745  1.00  0.00     0.031 A 
ATOM     39  C   UNL A   1      42.263  25.571  28.172  1.00  0.00     0.074 A 
ATOM     40  C   UNL A   1      44.525  24.732  27.617  1.00  0.00     0.049 A 
ATOM     41  N   UNL A   1      42.492  26.845  28.354  1.00  0.00    -0.248 NA
ATOM     42  C   UNL A   1      40.858  25.177  28.373  1.00  0.00     0.031 C 
ATOM     43  C   UNL A   1      45.536  23.769  27.178  1.00  0.00     0.029 A 
ATOM     44  N   UNL A   1      45.234  25.889  27.821  1.00  0.00    -0.354 N 
ATOM     45  C   UNL A   1      41.256  27.409  28.644  1.00  0.00     0.074 A 
ATOM     46  C   UNL A   1      40.274  26.349  28.573  1.00  0.00     0.031 C 
ATOM     47  C   UNL A   1      46.736  24.373  27.153  1.00  0.00     0.029 A 
ATOM     48  C   UNL A   1      46.573  25.773  27.528  1.00  0.00     0.049 A 
ATOM     49  H   UNL A   1      44.824  26.723  28.144  1.00  0.00     0.167 HD
ATOM     50  C   UNL A   1      40.969  28.692  28.960  1.00  0.00     0.037 A 
ATOM     51  C   UNL A   1      47.549  26.701  27.545  1.00  0.00     0.037 A 
ATOM     52  C   UNL A   1      41.959  29.726  29.088  1.00  0.00     0.049 A 
ATOM     53  C   UNL A   1      47.210  28.115  27.933  1.00  0.00     0.074 A 
ATOM     54  C   UNL A   1      41.785  31.044  29.469  1.00  0.00     0.029 A 
ATOM     55  N   UNL A   1      43.313  29.549  28.851  1.00  0.00    -0.354 N 
ATOM     56  N   UNL A   1      46.045  28.627  28.246  1.00  0.00    -0.248 NA
ATOM     57  C   UNL A   1      48.319  29.078  27.970  1.00  0.00     0.031 C 
ATOM     58  C   UNL A   1      43.032  31.674  29.438  1.00  0.00     0.029 A 
ATOM     59  C   UNL A   1      43.987  30.736  29.076  1.00  0.00     0.049 A 
ATOM     60  H   UNL A   1      43.733  28.706  28.565  1.00  0.00     0.167 HD
ATOM     61  C   UNL A   1      46.286  29.960  28.556  1.00  0.00     0.074 A 
ATOM     62  C   UNL A   1      47.708  30.178  28.391  1.00  0.00     0.031 C 
ATOM     63  C   UNL A   1      45.409  30.917  28.943  1.00  0.00     0.037 A 
BRANCH  50  64
ATOM     64  C   UNL A   1      39.531  29.043  29.199  1.00  0.00     0.057 A 
ATOM     65  C   UNL A   1      38.694  29.478  28.162  1.00  0.00     0.134 A 
ATOM     66  C   UNL A   1      38.969  28.921  30.476  1.00  0.00     0.134 A 
ATOM     67  F   UNL A   1      39.176  29.631  26.919  1.00  0.00    -0.206 F 
ATOM     68  C   UNL A   1      37.357  29.804  28.393  1.00  0.00     0.040 A 
ATOM     69  C   UNL A   1      37.626  29.217  30.713  1.00  0.00     0.040 A 
ATOM     70  F   UNL A   1      39.714  28.507  31.512  1.00  0.00    -0.206 F 
ATOM     71  C   UNL A   1      36.818  29.667  29.670  1.00  0.00     0.006 A 
ENDBRANCH  50  64
BRANCH  51  72
ATOM     72  C   UNL A   1      48.943  26.324  27.202  1.00  0.00     0.057 A 
ATOM     73  C   UNL A   1      49.839  25.905  28.194  1.00  0.00     0.134 A 
ATOM     74  C   UNL A   1      49.421  26.384  25.888  1.00  0.00     0.134 A 
ATOM     75  F   UNL A   1      49.446  25.844  29.474  1.00  0.00    -0.206 F 
ATOM     76  C   UNL A   1      51.163  25.581  27.896  1.00  0.00     0.040 A 
ATOM     77  C   UNL A   1      50.736  26.040  25.571  1.00  0.00     0.040 A 
ATOM     78  F   UNL A   1      48.611  26.769  24.891  1.00  0.00    -0.206 F 
ATOM     79  C   UNL A   1      51.614  25.645  26.578  1.00  0.00     0.006 A 
ENDBRANCH  51  72
BRANCH  63  80
ATOM     80  C   UNL A   1      45.962  32.267  29.285  1.00  0.00     0.057 A 
ATOM     81  C   UNL A   1      46.035  33.296  28.341  1.00  0.00     0.134 A 
ATOM     82  C   UNL A   1      46.346  32.558  30.600  1.00  0.00     0.134 A 
ATOM     83  F   UNL A   1      45.692  33.074  27.063  1.00  0.00    -0.206 F 
ATOM     84  C   UNL A   1      46.478  34.571  28.693  1.00  0.00     0.040 A 
ATOM     85  C   UNL A   1      46.769  33.834  30.969  1.00  0.00     0.040 A 
ATOM     86  F   UNL A   1      46.288  31.614  31.552  1.00  0.00    -0.206 F 
ATOM     87  C   UNL A   1      46.836  34.846  30.012  1.00  0.00     0.006 A 
ENDBRANCH  63  80
ENDBRANCH  37  38
ENDBRANCH  29  32
ENDBRANCH  27  28
ENDBRANCH   1  27
TORSDOF 13
ENDMDL
MODEL 3
REMARK VINA RESULT:     -11.7      4.460      9.134
REMARK SMILES Cc1ccc(Cl)cc1NC(=O)N[C@@](C)(C(=O)NCCCNC(=O)c1ccc(-c2c3nc(c(-c4c(F)cccc4F)c4ccc([nH]4)c(-c4c(F)cccc4F)c4nc(c(-c5c(F)cccc5F)c5ccc2[nH]5)C=C4)C=C3)cc1)C(F)(F)F
REMARK SMILES IDX 19 1 18 2 17 3 15 4 16 5 13 7 14 8 12 9 9 10 10 11 11 13
REMARK SMILES IDX 8 15 1 16 2 17 3 18 4 19 7 20 5 21 6 22 78 23 79 24 80 25
REMARK SMILES IDX 81 26 20 27 21 28 22 29 23 31 24 32 25 33 77 34 26 35 76 36
REMARK SMILES IDX 27 37 28 38 29 39 70 40 30 41 75 42 69 43 71 44 31 45 74 46
REMARK SMILES IDX 68 47 67 48 32 50 58 51 41 52 57 53 42 54 45 55 56 56 72 57
REMARK SMILES IDX 43 58 44 59 55 61 73 62 46 63 33 64 34 65 39 66 35 67 36 68
REMARK SMILES IDX 38 69 40 70 37 71 59 72 60 73 65 74 61 75 62 76 64 77 66 78
REMARK SMILES IDX 63 79 47 80 48 81 53 82 49 83 50 84 52 85 54 86 51 87
REMARK H PARENT 17 6 9 12 12 14 21 30 71 49 45 60
REMARK Flexibility Score: inf
ROOT
ATOM      1  C   UNL A   1      31.053  31.858  26.272  1.00  0.00     0.042 C 
ENDROOT
BRANCH   1   2
ATOM      2  C   UNL A   1      31.288  30.637  25.387  1.00  0.00     0.117 C 
BRANCH   2   3
ATOM      3  N   UNL A   1      32.364  29.808  25.899  1.00  0.00    -0.354 N 
ATOM      4  C   UNL A   1      32.086  28.581  26.448  1.00  0.00     0.255 C 
ATOM      5  O   UNL A   1      31.812  28.541  27.647  1.00  0.00    -0.272 OA
ATOM      6  H   UNL A   1      33.295  30.126  25.853  1.00  0.00     0.163 HD
BRANCH   4   7
ATOM      7  C   UNL A   1      31.982  27.357  25.497  1.00  0.00     0.213 C 
ATOM      8  C   UNL A   1      31.824  27.823  24.039  1.00  0.00     0.056 C 
BRANCH   7   9
ATOM      9  N   UNL A   1      30.763  26.613  25.953  1.00  0.00    -0.316 N 
ATOM     10  N   UNL A   1      30.652  24.355  25.157  1.00  0.00    -0.308 N 
ATOM     11  C   UNL A   1      30.187  25.418  25.825  1.00  0.00     0.320 C 
ATOM     12  H   UNL A   1      30.212  23.520  25.440  1.00  0.00     0.171 HD
ATOM     13  O   UNL A   1      29.165  25.248  26.501  1.00  0.00    -0.248 OA
ATOM     14  H   UNL A   1      30.212  27.191  26.530  1.00  0.00     0.166 HD
BRANCH  10  15
ATOM     15  C   UNL A   1      31.604  24.130  24.158  1.00  0.00     0.047 A 
ATOM     16  C   UNL A   1      32.652  22.246  25.551  1.00  0.00     0.046 C 
ATOM     17  C   UNL A   1      32.621  23.178  24.370  1.00  0.00    -0.027 A 
ATOM     18  C   UNL A   1      33.659  23.069  23.428  1.00  0.00     0.007 A 
ATOM     19  C   UNL A   1      33.659  23.846  22.270  1.00  0.00     0.021 A 
ATOM     20  C   UNL A   1      31.531  24.783  22.931  1.00  0.00     0.047 A 
ATOM     21  C   UNL A   1      32.571  24.667  22.006  1.00  0.00     0.043 A 
ATOM     22  Cl  UNL A   1      32.523  25.578  20.547  1.00  0.00    -0.084 Cl
ENDBRANCH  10  15
ENDBRANCH   7   9
BRANCH   7  23
ATOM     23  C   UNL A   1      33.364  26.714  25.776  1.00  0.00     0.420 C 
ATOM     24  F   UNL A   1      34.212  27.538  26.432  1.00  0.00    -0.168 F 
ATOM     25  F   UNL A   1      33.287  25.583  26.501  1.00  0.00    -0.168 F 
ATOM     26  F   UNL A   1      33.967  26.346  24.613  1.00  0.00    -0.168 F 
ENDBRANCH   7  23
ENDBRANCH   4   7
ENDBRANCH   2   3
ENDBRANCH   1   2
BRANCH   1  27
ATOM     27  C   UNL A   1      32.331  32.430  26.876  1.00  0.00     0.118 C 
BRANCH  27  28
ATOM     28  N   UNL A   1      32.153  33.785  27.390  1.00  0.00    -0.352 N 
ATOM     29  C   UNL A   1      32.902  34.441  28.336  1.00  0.00     0.251 C 
ATOM     30  H   UNL A   1      31.402  34.295  27.008  1.00  0.00     0.163 HD
ATOM     31  O   UNL A   1      32.545  35.524  28.787  1.00  0.00    -0.269 OA
BRANCH  29  32
ATOM     32  C   UNL A   1      34.133  33.794  28.821  1.00  0.00     0.039 A 
ATOM     33  C   UNL A   1      35.372  34.335  28.477  1.00  0.00     0.014 A 
ATOM     34  C   UNL A   1      34.038  32.709  29.696  1.00  0.00     0.014 A 
ATOM     35  C   UNL A   1      36.527  33.827  29.074  1.00  0.00     0.010 A 
ATOM     36  C   UNL A   1      35.176  32.267  30.352  1.00  0.00     0.010 A 
ATOM     37  C   UNL A   1      36.432  32.817  30.042  1.00  0.00    -0.014 A 
BRANCH  37  38
ATOM     38  C   UNL A   1      37.624  32.270  30.733  1.00  0.00     0.031 A 
ATOM     39  C   UNL A   1      38.390  31.154  30.078  1.00  0.00     0.074 A 
ATOM     40  C   UNL A   1      37.946  32.685  31.973  1.00  0.00     0.049 A 
ATOM     41  N   UNL A   1      39.319  30.381  30.576  1.00  0.00    -0.248 NA
ATOM     42  C   UNL A   1      38.024  30.836  28.688  1.00  0.00     0.031 C 
ATOM     43  C   UNL A   1      37.258  33.734  32.727  1.00  0.00     0.029 A 
ATOM     44  N   UNL A   1      38.926  32.249  32.830  1.00  0.00    -0.354 N 
ATOM     45  C   UNL A   1      39.612  29.460  29.579  1.00  0.00     0.074 A 
ATOM     46  C   UNL A   1      38.735  29.742  28.464  1.00  0.00     0.031 C 
ATOM     47  C   UNL A   1      37.841  33.865  33.930  1.00  0.00     0.029 A 
ATOM     48  C   UNL A   1      38.912  32.881  34.050  1.00  0.00     0.049 A 
ATOM     49  H   UNL A   1      39.576  31.549  32.593  1.00  0.00     0.167 HD
ATOM     50  C   UNL A   1      40.542  28.478  29.587  1.00  0.00     0.037 A 
ATOM     51  C   UNL A   1      39.668  32.673  35.145  1.00  0.00     0.037 A 
ATOM     52  C   UNL A   1      41.450  28.243  30.675  1.00  0.00     0.049 A 
ATOM     53  C   UNL A   1      40.719  31.597  35.116  1.00  0.00     0.074 A 
ATOM     54  C   UNL A   1      42.475  27.318  30.759  1.00  0.00     0.029 A 
ATOM     55  N   UNL A   1      41.447  28.953  31.866  1.00  0.00    -0.354 N 
ATOM     56  N   UNL A   1      41.016  30.759  34.152  1.00  0.00    -0.248 NA
ATOM     57  C   UNL A   1      41.541  31.437  36.325  1.00  0.00     0.031 C 
ATOM     58  C   UNL A   1      43.078  27.451  32.012  1.00  0.00     0.029 A 
ATOM     59  C   UNL A   1      42.454  28.485  32.693  1.00  0.00     0.049 A 
ATOM     60  H   UNL A   1      40.823  29.681  32.091  1.00  0.00     0.167 HD
ATOM     61  C   UNL A   1      42.082  30.001  34.621  1.00  0.00     0.074 A 
ATOM     62  C   UNL A   1      42.378  30.476  35.956  1.00  0.00     0.031 C 
ATOM     63  C   UNL A   1      42.755  29.002  34.002  1.00  0.00     0.037 A 
BRANCH  50  64
ATOM     64  C   UNL A   1      40.628  27.595  28.377  1.00  0.00     0.057 A 
ATOM     65  C   UNL A   1      41.413  27.936  27.268  1.00  0.00     0.134 A 
ATOM     66  C   UNL A   1      39.937  26.378  28.331  1.00  0.00     0.134 A 
ATOM     67  F   UNL A   1      42.087  29.095  27.242  1.00  0.00    -0.206 F 
ATOM     68  C   UNL A   1      41.486  27.110  26.145  1.00  0.00     0.040 A 
ATOM     69  C   UNL A   1      40.025  25.531  27.226  1.00  0.00     0.040 A 
ATOM     70  F   UNL A   1      39.169  25.991  29.361  1.00  0.00    -0.206 F 
ATOM     71  C   UNL A   1      40.797  25.900  26.126  1.00  0.00     0.006 A 
ENDBRANCH  50  64
BRANCH  51  72
ATOM     72  C   UNL A   1      39.475  33.510  36.356  1.00  0.00     0.057 A 
ATOM     73  C   UNL A   1      40.120  34.746  36.485  1.00  0.00     0.134 A 
ATOM     74  C   UNL A   1      38.659  33.096  37.415  1.00  0.00     0.134 A 
ATOM     75  F   UNL A   1      40.929  35.189  35.512  1.00  0.00    -0.206 F 
ATOM     76  C   UNL A   1      39.979  35.530  37.631  1.00  0.00     0.040 A 
ATOM     77  C   UNL A   1      38.490  33.880  38.557  1.00  0.00     0.040 A 
ATOM     78  F   UNL A   1      38.007  31.926  37.350  1.00  0.00    -0.206 F 
ATOM     79  C   UNL A   1      39.157  35.098  38.671  1.00  0.00     0.006 A 
ENDBRANCH  51  72
BRANCH  63  80
ATOM     80  C   UNL A   1      43.921  28.400  34.723  1.00  0.00     0.057 A 
ATOM     81  C   UNL A   1      43.795  27.238  35.492  1.00  0.00     0.134 A 
ATOM     82  C   UNL A   1      45.201  28.948  34.572  1.00  0.00     0.134 A 
ATOM     83  F   UNL A   1      42.593  26.674  35.682  1.00  0.00    -0.206 F 
ATOM     84  C   UNL A   1      44.905  26.644  36.094  1.00  0.00     0.040 A 
ATOM     85  C   UNL A   1      46.321  28.351  35.151  1.00  0.00     0.040 A 
ATOM     86  F   UNL A   1      45.386  30.056  33.839  1.00  0.00    -0.206 F 
ATOM     87  C   UNL A   1      46.174  27.195  35.915  1.00  0.00     0.006 A 
ENDBRANCH  63  80
ENDBRANCH  37  38
ENDBRANCH  29  32
ENDBRANCH  27  28
ENDBRANCH   1  27
TORSDOF 13
ENDMDL
