MODEL 1
REMARK VINA RESULT:     -12.2      0.000      0.000
REMARK SMILES Cc1nc(C)c(C(=O)N2CCC([C@H](C)C(=O)NCCCNC(=O)c3ccc(-c4c5nc(c(-c6c(F)cccc6F)c6ccc([nH]6)c(-c6c(F)cccc6F)c6nc(c(-c7c(F)cccc7F)c7ccc4[nH]7)C=C6)C=C5)cc3)CC2)s1
REMARK SMILES IDX 19 1 18 2 17 3 15 4 16 5 13 7 14 8 12 9 7 10 8 11 9 12 10 13
REMARK SMILES IDX 79 14 11 15 78 16 6 17 1 18 2 19 3 20 80 21 4 22 5 23 20 24
REMARK SMILES IDX 21 25 22 26 23 28 24 29 25 30 77 31 26 32 76 33 27 34 28 35
REMARK SMILES IDX 29 36 70 37 30 38 75 39 69 40 71 41 31 42 74 43 68 44 67 45
REMARK SMILES IDX 32 47 58 48 41 49 57 50 42 51 45 52 56 53 72 54 43 55 44 56
REMARK SMILES IDX 55 58 73 59 46 60 33 61 34 62 39 63 35 64 36 65 38 66 40 67
REMARK SMILES IDX 37 68 59 69 60 70 65 71 61 72 62 73 64 74 66 75 63 76 47 77
REMARK SMILES IDX 48 78 53 79 49 80 50 81 52 82 54 83 51 84
REMARK H PARENT 17 6 21 27 71 46 45 57
REMARK Flexibility Score: inf
ROOT
ATOM      1  C   UNL A   1      37.688  19.855  24.985  1.00  0.00     0.042 C 
ENDROOT
BRANCH   1   2
ATOM      2  C   UNL A   1      36.668  20.943  24.754  1.00  0.00     0.117 C 
BRANCH   2   3
ATOM      3  N   UNL A   1      35.714  21.076  25.832  1.00  0.00    -0.356 N 
ATOM      4  C   UNL A   1      34.357  21.135  25.777  1.00  0.00     0.223 C 
ATOM      5  O   UNL A   1      33.744  21.091  26.846  1.00  0.00    -0.275 OA
ATOM      6  H   UNL A   1      36.103  21.134  26.734  1.00  0.00     0.163 HD
BRANCH   4   7
ATOM      7  C   UNL A   1      33.599  21.279  24.452  1.00  0.00     0.078 C 
ATOM      8  C   UNL A   1      32.678  20.068  24.254  1.00  0.00     0.018 C 
BRANCH   7   9
ATOM      9  C   UNL A   1      32.993  22.687  24.116  1.00  0.00     0.005 C 
ATOM     10  C   UNL A   1      30.944  25.927  25.803  1.00  0.00     0.265 C 
ATOM     11  O   UNL A   1      30.042  25.419  26.472  1.00  0.00    -0.268 OA
ATOM     12  N   UNL A   1      31.641  25.137  24.885  1.00  0.00    -0.338 N 
ATOM     13  C   UNL A   1      30.904  24.185  24.080  1.00  0.00     0.120 C 
ATOM     14  C   UNL A   1      33.070  25.220  24.618  1.00  0.00     0.120 C 
ATOM     15  C   UNL A   1      31.451  22.775  24.209  1.00  0.00     0.026 C 
ATOM     16  C   UNL A   1      33.729  23.857  24.812  1.00  0.00     0.026 C 
BRANCH  10  17
ATOM     17  C   UNL A   1      31.234  27.355  25.856  1.00  0.00     0.115 A 
ATOM     18  C   UNL A   1      32.856  30.695  27.021  1.00  0.00     0.079 C 
ATOM     19  C   UNL A   1      32.161  29.544  26.385  1.00  0.00     0.091 A 
ATOM     20  N   UNL A   1      31.553  29.590  25.223  1.00  0.00    -0.246 NA
ATOM     21  S   UNL A   1      32.157  28.022  27.150  1.00  0.00    -0.113 S 
ATOM     22  C   UNL A   1      31.048  28.336  24.888  1.00  0.00     0.061 A 
ATOM     23  C   UNL A   1      30.423  28.206  23.542  1.00  0.00     0.068 C 
ENDBRANCH  10  17
ENDBRANCH   7   9
ENDBRANCH   4   7
ENDBRANCH   2   3
ENDBRANCH   1   2
BRANCH   1  24
ATOM     24  C   UNL A   1      38.918  20.361  25.712  1.00  0.00     0.118 C 
BRANCH  24  25
ATOM     25  N   UNL A   1      39.982  19.365  25.786  1.00  0.00    -0.352 N 
ATOM     26  C   UNL A   1      41.312  19.519  26.088  1.00  0.00     0.251 C 
ATOM     27  H   UNL A   1      39.703  18.441  25.589  1.00  0.00     0.163 HD
ATOM     28  O   UNL A   1      42.098  18.590  25.925  1.00  0.00    -0.269 OA
BRANCH  26  29
ATOM     29  C   UNL A   1      41.794  20.819  26.590  1.00  0.00     0.039 A 
ATOM     30  C   UNL A   1      42.285  21.763  25.687  1.00  0.00     0.014 A 
ATOM     31  C   UNL A   1      41.721  21.115  27.951  1.00  0.00     0.014 A 
ATOM     32  C   UNL A   1      42.629  23.034  26.146  1.00  0.00     0.010 A 
ATOM     33  C   UNL A   1      41.944  22.411  28.385  1.00  0.00     0.010 A 
ATOM     34  C   UNL A   1      42.417  23.382  27.490  1.00  0.00    -0.014 A 
BRANCH  34  35
ATOM     35  C   UNL A   1      42.703  24.743  27.998  1.00  0.00     0.031 A 
ATOM     36  C   UNL A   1      44.109  25.114  28.385  1.00  0.00     0.074 A 
ATOM     37  C   UNL A   1      41.693  25.613  28.186  1.00  0.00     0.049 A 
ATOM     38  N   UNL A   1      44.553  26.218  28.928  1.00  0.00    -0.248 NA
ATOM     39  C   UNL A   1      45.147  24.092  28.169  1.00  0.00     0.031 C 
ATOM     40  C   UNL A   1      40.280  25.347  27.903  1.00  0.00     0.029 A 
ATOM     41  N   UNL A   1      41.699  26.896  28.669  1.00  0.00    -0.354 N 
ATOM     42  C   UNL A   1      45.911  26.013  29.136  1.00  0.00     0.074 A 
ATOM     43  C   UNL A   1      46.204  24.657  28.729  1.00  0.00     0.031 C 
ATOM     44  C   UNL A   1      39.562  26.447  28.184  1.00  0.00     0.029 A 
ATOM     45  C   UNL A   1      40.454  27.476  28.706  1.00  0.00     0.049 A 
ATOM     46  H   UNL A   1      42.518  27.358  28.962  1.00  0.00     0.167 HD
ATOM     47  C   UNL A   1      46.838  26.885  29.595  1.00  0.00     0.037 A 
ATOM     48  C   UNL A   1      40.078  28.701  29.119  1.00  0.00     0.037 A 
ATOM     49  C   UNL A   1      46.544  28.242  29.971  1.00  0.00     0.049 A 
ATOM     50  C   UNL A   1      41.124  29.652  29.627  1.00  0.00     0.074 A 
ATOM     51  C   UNL A   1      47.418  29.230  30.386  1.00  0.00     0.029 A 
ATOM     52  N   UNL A   1      45.274  28.799  29.979  1.00  0.00    -0.354 N 
ATOM     53  N   UNL A   1      42.417  29.473  29.750  1.00  0.00    -0.248 NA
ATOM     54  C   UNL A   1      40.658  30.980  30.051  1.00  0.00     0.031 C 
ATOM     55  C   UNL A   1      46.669  30.373  30.692  1.00  0.00     0.029 A 
ATOM     56  C   UNL A   1      45.336  30.111  30.416  1.00  0.00     0.049 A 
ATOM     57  H   UNL A   1      44.450  28.330  29.713  1.00  0.00     0.167 HD
ATOM     58  C   UNL A   1      42.923  30.670  30.238  1.00  0.00     0.074 A 
ATOM     59  C   UNL A   1      41.799  31.573  30.375  1.00  0.00     0.031 C 
ATOM     60  C   UNL A   1      44.204  30.994  30.543  1.00  0.00     0.037 A 
BRANCH  47  61
ATOM     61  C   UNL A   1      48.252  26.390  29.710  1.00  0.00     0.057 A 
ATOM     62  C   UNL A   1      48.734  25.789  30.881  1.00  0.00     0.134 A 
ATOM     63  C   UNL A   1      49.143  26.516  28.636  1.00  0.00     0.134 A 
ATOM     64  F   UNL A   1      47.940  25.651  31.953  1.00  0.00    -0.206 F 
ATOM     65  C   UNL A   1      50.060  25.364  30.993  1.00  0.00     0.040 A 
ATOM     66  C   UNL A   1      50.461  26.065  28.725  1.00  0.00     0.040 A 
ATOM     67  F   UNL A   1      48.747  27.077  27.485  1.00  0.00    -0.206 F 
ATOM     68  C   UNL A   1      50.926  25.498  29.909  1.00  0.00     0.006 A 
ENDBRANCH  47  61
BRANCH  48  69
ATOM     69  C   UNL A   1      38.652  29.106  29.030  1.00  0.00     0.057 A 
ATOM     70  C   UNL A   1      37.807  29.008  30.141  1.00  0.00     0.134 A 
ATOM     71  C   UNL A   1      38.103  29.607  27.843  1.00  0.00     0.134 A 
ATOM     72  F   UNL A   1      38.270  28.520  31.300  1.00  0.00    -0.206 F 
ATOM     73  C   UNL A   1      36.463  29.378  30.073  1.00  0.00     0.040 A 
ATOM     74  C   UNL A   1      36.768  30.005  27.768  1.00  0.00     0.040 A 
ATOM     75  F   UNL A   1      38.864  29.735  26.747  1.00  0.00    -0.206 F 
ATOM     76  C   UNL A   1      35.941  29.884  28.883  1.00  0.00     0.006 A 
ENDBRANCH  48  69
BRANCH  60  77
ATOM     77  C   UNL A   1      44.460  32.392  31.026  1.00  0.00     0.057 A 
ATOM     78  C   UNL A   1      44.701  33.449  30.139  1.00  0.00     0.134 A 
ATOM     79  C   UNL A   1      44.424  32.689  32.395  1.00  0.00     0.134 A 
ATOM     80  F   UNL A   1      44.760  33.229  28.817  1.00  0.00    -0.206 F 
ATOM     81  C   UNL A   1      44.920  34.749  30.600  1.00  0.00     0.040 A 
ATOM     82  C   UNL A   1      44.613  33.990  32.863  1.00  0.00     0.040 A 
ATOM     83  F   UNL A   1      44.189  31.724  33.296  1.00  0.00    -0.206 F 
ATOM     84  C   UNL A   1      44.869  35.023  31.965  1.00  0.00     0.006 A 
ENDBRANCH  60  77
ENDBRANCH  34  35
ENDBRANCH  26  29
ENDBRANCH  24  25
ENDBRANCH   1  24
TORSDOF 12
ENDMDL
MODEL 2
REMARK VINA RESULT:     -12.1      2.147      7.781
REMARK SMILES Cc1nc(C)c(C(=O)N2CCC([C@H](C)C(=O)NCCCNC(=O)c3ccc(-c4c5nc(c(-c6c(F)cccc6F)c6ccc([nH]6)c(-c6c(F)cccc6F)c6nc(c(-c7c(F)cccc7F)c7ccc4[nH]7)C=C6)C=C5)cc3)CC2)s1
REMARK SMILES IDX 19 1 18 2 17 3 15 4 16 5 13 7 14 8 12 9 7 10 8 11 9 12 10 13
REMARK SMILES IDX 79 14 11 15 78 16 6 17 1 18 2 19 3 20 80 21 4 22 5 23 20 24
REMARK SMILES IDX 21 25 22 26 23 28 24 29 25 30 77 31 26 32 76 33 27 34 28 35
REMARK SMILES IDX 29 36 70 37 30 38 75 39 69 40 71 41 31 42 74 43 68 44 67 45
REMARK SMILES IDX 32 47 58 48 41 49 57 50 42 51 45 52 56 53 72 54 43 55 44 56
REMARK SMILES IDX 55 58 73 59 46 60 33 61 34 62 39 63 35 64 36 65 38 66 40 67
REMARK SMILES IDX 37 68 59 69 60 70 65 71 61 72 62 73 64 74 66 75 63 76 47 77
REMARK SMILES IDX 48 78 53 79 49 80 50 81 52 82 54 83 51 84
REMARK H PARENT 17 6 21 27 71 46 45 57
REMARK Flexibility Score: inf
ROOT
ATOM      1  C   UNL A   1      33.461  28.757  25.512  1.00  0.00     0.042 C 
ENDROOT
BRANCH   1   2
ATOM      2  C   UNL A   1      31.989  28.922  25.222  1.00  0.00     0.117 C 
BRANCH   2   3
ATOM      3  N   UNL A   1      31.635  28.627  23.852  1.00  0.00    -0.356 N 
ATOM      4  C   UNL A   1      30.729  27.735  23.371  1.00  0.00     0.223 C 
ATOM      5  O   UNL A   1      30.484  27.771  22.162  1.00  0.00    -0.275 OA
ATOM      6  H   UNL A   1      32.120  29.145  23.170  1.00  0.00     0.163 HD
BRANCH   4   7
ATOM      7  C   UNL A   1      30.046  26.698  24.271  1.00  0.00     0.078 C 
ATOM      8  C   UNL A   1      28.547  26.646  23.949  1.00  0.00     0.018 C 
BRANCH   7   9
ATOM      9  C   UNL A   1      30.773  25.321  24.466  1.00  0.00     0.005 C 
ATOM     10  C   UNL A   1      34.130  23.120  23.268  1.00  0.00     0.265 C 
ATOM     11  O   UNL A   1      34.182  23.260  22.045  1.00  0.00    -0.268 OA
ATOM     12  N   UNL A   1      32.968  23.494  23.950  1.00  0.00    -0.338 N 
ATOM     13  C   UNL A   1      31.682  23.184  23.362  1.00  0.00     0.120 C 
ATOM     14  C   UNL A   1      32.930  24.138  25.255  1.00  0.00     0.120 C 
ATOM     15  C   UNL A   1      30.804  24.414  23.212  1.00  0.00     0.026 C 
ATOM     16  C   UNL A   1      32.138  25.441  25.185  1.00  0.00     0.026 C 
BRANCH  10  17
ATOM     17  C   UNL A   1      35.199  22.472  24.017  1.00  0.00     0.115 A 
ATOM     18  C   UNL A   1      38.550  22.057  25.951  1.00  0.00     0.079 C 
ATOM     19  C   UNL A   1      37.213  22.000  25.302  1.00  0.00     0.091 A 
ATOM     20  N   UNL A   1      36.352  21.022  25.455  1.00  0.00    -0.246 NA
ATOM     21  S   UNL A   1      36.690  23.285  24.313  1.00  0.00    -0.113 S 
ATOM     22  C   UNL A   1      35.178  21.293  24.756  1.00  0.00     0.061 A 
ATOM     23  C   UNL A   1      34.062  20.321  24.923  1.00  0.00     0.068 C 
ENDBRANCH  10  17
ENDBRANCH   7   9
ENDBRANCH   4   7
ENDBRANCH   2   3
ENDBRANCH   1   2
BRANCH   1  24
ATOM     24  C   UNL A   1      33.757  28.721  26.998  1.00  0.00     0.118 C 
BRANCH  24  25
ATOM     25  N   UNL A   1      33.737  30.046  27.610  1.00  0.00    -0.352 N 
ATOM     26  C   UNL A   1      34.694  30.684  28.360  1.00  0.00     0.251 C 
ATOM     27  H   UNL A   1      32.910  30.561  27.464  1.00  0.00     0.163 HD
ATOM     28  O   UNL A   1      34.430  31.729  28.946  1.00  0.00    -0.269 OA
BRANCH  26  29
ATOM     29  C   UNL A   1      36.039  30.089  28.472  1.00  0.00     0.039 A 
ATOM     30  C   UNL A   1      36.922  30.183  27.396  1.00  0.00     0.014 A 
ATOM     31  C   UNL A   1      36.434  29.471  29.659  1.00  0.00     0.014 A 
ATOM     32  C   UNL A   1      38.232  29.726  27.544  1.00  0.00     0.010 A 
ATOM     33  C   UNL A   1      37.764  29.133  29.846  1.00  0.00     0.010 A 
ATOM     34  C   UNL A   1      38.675  29.241  28.785  1.00  0.00    -0.014 A 
BRANCH  34  35
ATOM     35  C   UNL A   1      40.076  28.813  29.000  1.00  0.00     0.031 A 
ATOM     36  C   UNL A   1      41.063  29.772  29.607  1.00  0.00     0.074 A 
ATOM     37  C   UNL A   1      40.477  27.599  28.578  1.00  0.00     0.049 A 
ATOM     38  N   UNL A   1      42.348  29.625  29.799  1.00  0.00    -0.248 NA
ATOM     39  C   UNL A   1      40.542  31.088  30.016  1.00  0.00     0.031 C 
ATOM     40  C   UNL A   1      39.626  26.604  27.921  1.00  0.00     0.029 A 
ATOM     41  N   UNL A   1      41.710  26.999  28.631  1.00  0.00    -0.354 N 
ATOM     42  C   UNL A   1      42.789  30.832  30.329  1.00  0.00     0.074 A 
ATOM     43  C   UNL A   1      41.651  31.723  30.360  1.00  0.00     0.031 C 
ATOM     44  C   UNL A   1      40.353  25.504  27.666  1.00  0.00     0.029 A 
ATOM     45  C   UNL A   1      41.727  25.732  28.100  1.00  0.00     0.049 A 
ATOM     46  H   UNL A   1      42.505  27.434  29.014  1.00  0.00     0.167 HD
ATOM     47  C   UNL A   1      44.022  31.159  30.778  1.00  0.00     0.037 A 
ATOM     48  C   UNL A   1      42.741  24.856  27.975  1.00  0.00     0.037 A 
ATOM     49  C   UNL A   1      45.143  30.257  30.771  1.00  0.00     0.049 A 
ATOM     50  C   UNL A   1      44.104  25.241  28.479  1.00  0.00     0.074 A 
ATOM     51  C   UNL A   1      46.419  30.463  31.262  1.00  0.00     0.029 A 
ATOM     52  N   UNL A   1      45.118  28.976  30.239  1.00  0.00    -0.354 N 
ATOM     53  N   UNL A   1      44.491  26.358  29.046  1.00  0.00    -0.248 NA
ATOM     54  C   UNL A   1      45.170  24.241  28.329  1.00  0.00     0.031 C 
ATOM     55  C   UNL A   1      47.181  29.322  30.985  1.00  0.00     0.029 A 
ATOM     56  C   UNL A   1      46.364  28.387  30.368  1.00  0.00     0.049 A 
ATOM     57  H   UNL A   1      44.331  28.548  29.832  1.00  0.00     0.167 HD
ATOM     58  C   UNL A   1      45.837  26.186  29.345  1.00  0.00     0.074 A 
ATOM     59  C   UNL A   1      46.194  24.852  28.909  1.00  0.00     0.031 C 
ATOM     60  C   UNL A   1      46.699  27.055  29.930  1.00  0.00     0.037 A 
BRANCH  47  61
ATOM     61  C   UNL A   1      44.213  32.548  31.316  1.00  0.00     0.057 A 
ATOM     62  C   UNL A   1      44.032  32.850  32.673  1.00  0.00     0.134 A 
ATOM     63  C   UNL A   1      44.585  33.599  30.467  1.00  0.00     0.134 A 
ATOM     64  F   UNL A   1      43.660  31.896  33.539  1.00  0.00    -0.206 F 
ATOM     65  C   UNL A   1      44.176  34.151  33.159  1.00  0.00     0.040 A 
ATOM     66  C   UNL A   1      44.764  34.897  30.947  1.00  0.00     0.040 A 
ATOM     67  F   UNL A   1      44.780  33.381  29.158  1.00  0.00    -0.206 F 
ATOM     68  C   UNL A   1      44.549  35.178  32.294  1.00  0.00     0.006 A 
ENDBRANCH  47  61
BRANCH  48  69
ATOM     69  C   UNL A   1      42.495  23.517  27.382  1.00  0.00     0.057 A 
ATOM     70  C   UNL A   1      42.072  22.446  28.177  1.00  0.00     0.134 A 
ATOM     71  C   UNL A   1      42.666  23.277  26.013  1.00  0.00     0.134 A 
ATOM     72  F   UNL A   1      41.906  22.610  29.497  1.00  0.00    -0.206 F 
ATOM     73  C   UNL A   1      41.842  21.180  27.637  1.00  0.00     0.040 A 
ATOM     74  C   UNL A   1      42.416  22.023  25.455  1.00  0.00     0.040 A 
ATOM     75  F   UNL A   1      43.061  24.265  25.196  1.00  0.00    -0.206 F 
ATOM     76  C   UNL A   1      42.010  20.968  26.269  1.00  0.00     0.006 A 
ENDBRANCH  48  69
BRANCH  60  77
ATOM     77  C   UNL A   1      48.102  26.576  30.160  1.00  0.00     0.057 A 
ATOM     78  C   UNL A   1      48.474  25.908  31.334  1.00  0.00     0.134 A 
ATOM     79  C   UNL A   1      49.083  26.750  29.175  1.00  0.00     0.134 A 
ATOM     80  F   UNL A   1      47.585  25.720  32.321  1.00  0.00    -0.206 F 
ATOM     81  C   UNL A   1      49.779  25.452  31.529  1.00  0.00     0.040 A 
ATOM     82  C   UNL A   1      50.382  26.272  29.348  1.00  0.00     0.040 A 
ATOM     83  F   UNL A   1      48.790  27.373  28.023  1.00  0.00    -0.206 F 
ATOM     84  C   UNL A   1      50.735  25.627  30.531  1.00  0.00     0.006 A 
ENDBRANCH  60  77
ENDBRANCH  34  35
ENDBRANCH  26  29
ENDBRANCH  24  25
ENDBRANCH   1  24
TORSDOF 12
ENDMDL
MODEL 3
REMARK VINA RESULT:     -12.0      1.626      6.301
REMARK SMILES Cc1nc(C)c(C(=O)N2CCC([C@H](C)C(=O)NCCCNC(=O)c3ccc(-c4c5nc(c(-c6c(F)cccc6F)c6ccc([nH]6)c(-c6c(F)cccc6F)c6nc(c(-c7c(F)cccc7F)c7ccc4[nH]7)C=C6)C=C5)cc3)CC2)s1
REMARK SMILES IDX 19 1 18 2 17 3 15 4 16 5 13 7 14 8 12 9 7 10 8 11 9 12 10 13
REMARK SMILES IDX 79 14 11 15 78 16 6 17 1 18 2 19 3 20 80 21 4 22 5 23 20 24
REMARK SMILES IDX 21 25 22 26 23 28 24 29 25 30 77 31 26 32 76 33 27 34 28 35
REMARK SMILES IDX 29 36 70 37 30 38 75 39 69 40 71 41 31 42 74 43 68 44 67 45
REMARK SMILES IDX 32 47 58 48 41 49 57 50 42 51 45 52 56 53 72 54 43 55 44 56
REMARK SMILES IDX 55 58 73 59 46 60 33 61 34 62 39 63 35 64 36 65 38 66 40 67
REMARK SMILES IDX 37 68 59 69 60 70 65 71 61 72 62 73 64 74 66 75 63 76 47 77
REMARK SMILES IDX 48 78 53 79 49 80 50 81 52 82 54 83 51 84
REMARK H PARENT 17 6 21 27 71 46 45 57
REMARK Flexibility Score: inf
ROOT
ATOM      1  C   UNL A   1      38.041  20.042  25.001  1.00  0.00     0.042 C 
ENDROOT
BRANCH   1   2
ATOM      2  C   UNL A   1      37.128  21.236  24.858  1.00  0.00     0.117 C 
BRANCH   2   3
ATOM      3  N   UNL A   1      36.256  21.434  25.994  1.00  0.00    -0.356 N 
ATOM      4  C   UNL A   1      34.899  21.414  26.050  1.00  0.00     0.223 C 
ATOM      5  O   UNL A   1      34.376  21.453  27.167  1.00  0.00    -0.275 OA
ATOM      6  H   UNL A   1      36.712  21.610  26.849  1.00  0.00     0.163 HD
BRANCH   4   7
ATOM      7  C   UNL A   1      34.030  21.372  24.787  1.00  0.00     0.078 C 
ATOM      8  C   UNL A   1      33.170  20.102  24.797  1.00  0.00     0.018 C 
BRANCH   7   9
ATOM      9  C   UNL A   1      33.316  22.702  24.357  1.00  0.00     0.005 C 
ATOM     10  C   UNL A   1      30.973  25.854  25.815  1.00  0.00     0.265 C 
ATOM     11  O   UNL A   1      30.104  25.312  26.501  1.00  0.00    -0.268 OA
ATOM     12  N   UNL A   1      31.751  25.072  24.957  1.00  0.00    -0.338 N 
ATOM     13  C   UNL A   1      31.112  24.016  24.200  1.00  0.00     0.120 C 
ATOM     14  C   UNL A   1      33.174  25.258  24.707  1.00  0.00     0.120 C 
ATOM     15  C   UNL A   1      31.771  22.666  24.422  1.00  0.00     0.026 C 
ATOM     16  C   UNL A   1      33.940  23.969  24.992  1.00  0.00     0.026 C 
BRANCH  10  17
ATOM     17  C   UNL A   1      31.144  27.301  25.787  1.00  0.00     0.115 A 
ATOM     18  C   UNL A   1      32.320  30.847  26.876  1.00  0.00     0.079 C 
ATOM     19  C   UNL A   1      31.815  29.596  26.250  1.00  0.00     0.091 A 
ATOM     20  N   UNL A   1      31.380  29.503  25.015  1.00  0.00    -0.246 NA
ATOM     21  S   UNL A   1      31.816  28.140  27.134  1.00  0.00    -0.113 S 
ATOM     22  C   UNL A   1      31.027  28.188  24.722  1.00  0.00     0.061 A 
ATOM     23  C   UNL A   1      30.616  27.906  23.318  1.00  0.00     0.068 C 
ENDBRANCH  10  17
ENDBRANCH   7   9
ENDBRANCH   4   7
ENDBRANCH   2   3
ENDBRANCH   1   2
BRANCH   1  24
ATOM     24  C   UNL A   1      39.183  20.300  25.963  1.00  0.00     0.118 C 
BRANCH  24  25
ATOM     25  N   UNL A   1      40.144  19.202  26.008  1.00  0.00    -0.352 N 
ATOM     26  C   UNL A   1      41.511  19.234  26.125  1.00  0.00     0.251 C 
ATOM     27  H   UNL A   1      39.751  18.301  25.944  1.00  0.00     0.163 HD
ATOM     28  O   UNL A   1      42.172  18.212  25.964  1.00  0.00    -0.269 OA
BRANCH  26  29
ATOM     29  C   UNL A   1      42.182  20.512  26.425  1.00  0.00     0.039 A 
ATOM     30  C   UNL A   1      42.682  21.286  25.378  1.00  0.00     0.014 A 
ATOM     31  C   UNL A   1      42.279  20.959  27.744  1.00  0.00     0.014 A 
ATOM     32  C   UNL A   1      43.209  22.548  25.651  1.00  0.00     0.010 A 
ATOM     33  C   UNL A   1      42.687  22.258  27.999  1.00  0.00     0.010 A 
ATOM     34  C   UNL A   1      43.172  23.062  26.957  1.00  0.00    -0.014 A 
BRANCH  34  35
ATOM     35  C   UNL A   1      43.657  24.425  27.274  1.00  0.00     0.031 A 
ATOM     36  C   UNL A   1      42.683  25.475  27.732  1.00  0.00     0.074 A 
ATOM     37  C   UNL A   1      44.951  24.738  27.073  1.00  0.00     0.049 A 
ATOM     38  N   UNL A   1      42.887  26.744  27.975  1.00  0.00    -0.248 NA
ATOM     39  C   UNL A   1      41.283  25.051  27.900  1.00  0.00     0.031 C 
ATOM     40  C   UNL A   1      45.979  23.820  26.575  1.00  0.00     0.029 A 
ATOM     41  N   UNL A   1      45.621  25.921  27.255  1.00  0.00    -0.354 N 
ATOM     42  C   UNL A   1      41.643  27.268  28.303  1.00  0.00     0.074 A 
ATOM     43  C   UNL A   1      40.680  26.200  28.157  1.00  0.00     0.031 C 
ATOM     44  C   UNL A   1      47.157  24.465  26.527  1.00  0.00     0.029 A 
ATOM     45  C   UNL A   1      46.958  25.848  26.947  1.00  0.00     0.049 A 
ATOM     46  H   UNL A   1      45.186  26.743  27.576  1.00  0.00     0.167 HD
ATOM     47  C   UNL A   1      41.334  28.518  28.718  1.00  0.00     0.037 A 
ATOM     48  C   UNL A   1      47.914  26.795  26.995  1.00  0.00     0.037 A 
ATOM     49  C   UNL A   1      42.303  29.567  28.889  1.00  0.00     0.049 A 
ATOM     50  C   UNL A   1      47.548  28.177  27.457  1.00  0.00     0.074 A 
ATOM     51  C   UNL A   1      42.110  30.851  29.367  1.00  0.00     0.029 A 
ATOM     52  N   UNL A   1      43.651  29.452  28.582  1.00  0.00    -0.354 N 
ATOM     53  N   UNL A   1      46.382  28.642  27.836  1.00  0.00    -0.248 NA
ATOM     54  C   UNL A   1      48.634  29.166  27.504  1.00  0.00     0.031 C 
ATOM     55  C   UNL A   1      43.333  31.528  29.305  1.00  0.00     0.029 A 
ATOM     56  C   UNL A   1      44.299  30.649  28.837  1.00  0.00     0.049 A 
ATOM     57  H   UNL A   1      44.084  28.639  28.235  1.00  0.00     0.167 HD
ATOM     58  C   UNL A   1      46.597  29.967  28.190  1.00  0.00     0.074 A 
ATOM     59  C   UNL A   1      48.008  30.227  27.995  1.00  0.00     0.031 C 
ATOM     60  C   UNL A   1      45.707  30.886  28.639  1.00  0.00     0.037 A 
BRANCH  47  61
ATOM     61  C   UNL A   1      39.891  28.808  29.016  1.00  0.00     0.057 A 
ATOM     62  C   UNL A   1      39.365  28.699  30.311  1.00  0.00     0.134 A 
ATOM     63  C   UNL A   1      39.015  29.203  27.997  1.00  0.00     0.134 A 
ATOM     64  F   UNL A   1      40.144  28.310  31.332  1.00  0.00    -0.206 F 
ATOM     65  C   UNL A   1      38.015  28.934  30.575  1.00  0.00     0.040 A 
ATOM     66  C   UNL A   1      37.670  29.473  28.254  1.00  0.00     0.040 A 
ATOM     67  F   UNL A   1      39.452  29.332  26.736  1.00  0.00    -0.206 F 
ATOM     68  C   UNL A   1      37.164  29.328  29.544  1.00  0.00     0.006 A 
ENDBRANCH  47  61
BRANCH  48  69
ATOM     69  C   UNL A   1      49.313  26.454  26.632  1.00  0.00     0.057 A 
ATOM     70  C   UNL A   1      50.185  25.898  27.575  1.00  0.00     0.134 A 
ATOM     71  C   UNL A   1      49.809  26.666  25.340  1.00  0.00     0.134 A 
ATOM     72  F   UNL A   1      49.772  25.686  28.833  1.00  0.00    -0.206 F 
ATOM     73  C   UNL A   1      51.504  25.578  27.252  1.00  0.00     0.040 A 
ATOM     74  C   UNL A   1      51.119  26.328  24.997  1.00  0.00     0.040 A 
ATOM     75  F   UNL A   1      49.020  27.187  24.389  1.00  0.00    -0.206 F 
ATOM     76  C   UNL A   1      51.973  25.789  25.956  1.00  0.00     0.006 A 
ENDBRANCH  48  69
BRANCH  60  77
ATOM     77  C   UNL A   1      46.239  32.247  28.979  1.00  0.00     0.057 A 
ATOM     78  C   UNL A   1      46.270  33.287  28.041  1.00  0.00     0.134 A 
ATOM     79  C   UNL A   1      46.688  32.531  30.276  1.00  0.00     0.134 A 
ATOM     80  F   UNL A   1      45.866  33.076  26.779  1.00  0.00    -0.206 F 
ATOM     81  C   UNL A   1      46.752  34.554  28.375  1.00  0.00     0.040 A 
ATOM     82  C   UNL A   1      47.143  33.802  30.628  1.00  0.00     0.040 A 
ATOM     83  F   UNL A   1      46.675  31.582  31.225  1.00  0.00    -0.206 F 
ATOM     84  C   UNL A   1      47.183  34.815  29.674  1.00  0.00     0.006 A 
ENDBRANCH  60  77
ENDBRANCH  34  35
ENDBRANCH  26  29
ENDBRANCH  24  25
ENDBRANCH   1  24
TORSDOF 12
ENDMDL
