MODEL 1
REMARK VINA RESULT:     -12.2      0.000      0.000
REMARK SMILES COC(=O)C[C@@H](NC(=O)c1ccccc1C(=O)NCCCNC(=O)c1ccc(-c2c3nc(c(-c4c(F)cccc4F)c4ccc([nH]4)c(-c4c(F)cccc4F)c4nc(c(-c5c(F)cccc5F)c5ccc2[nH]5)C=C4)C=C3)cc1)c1cccc(C)c1C
REMARK SMILES IDX 16 1 17 2 18 3 15 5 10 6 11 7 12 8 14 9 13 10 8 11 7 12 9 14
REMARK SMILES IDX 6 15 5 16 3 17 4 18 2 19 1 20 79 21 80 22 85 23 81 24 83 25
REMARK SMILES IDX 86 26 82 27 84 28 19 29 20 30 21 31 22 32 23 33 24 35 25 36
REMARK SMILES IDX 26 37 78 38 27 39 77 40 28 41 29 42 30 43 71 44 31 45 76 46
REMARK SMILES IDX 70 47 72 48 32 49 75 50 69 51 68 52 33 54 59 55 42 56 58 57
REMARK SMILES IDX 43 58 46 59 57 60 73 61 44 62 45 63 56 65 74 66 47 67 34 68
REMARK SMILES IDX 35 69 40 70 36 71 37 72 39 73 41 74 38 75 60 76 61 77 66 78
REMARK SMILES IDX 62 79 63 80 65 81 67 82 64 83 48 84 49 85 54 86 50 87 51 88
REMARK SMILES IDX 53 89 55 90 52 91
REMARK H PARENT 18 4 7 13 22 34 72 53 46 64
REMARK Flexibility Score: inf
ROOT
ATOM      1  C   UNL A   1      34.004  22.318  26.541  1.00  0.00     0.252 C 
ATOM      2  O   UNL A   1      33.672  21.433  27.335  1.00  0.00    -0.269 OA
ATOM      3  N   UNL A   1      35.190  22.944  26.825  1.00  0.00    -0.352 N 
ATOM      4  H   UNL A   1      35.503  22.856  27.754  1.00  0.00     0.163 HD
ENDROOT
BRANCH   1   5
ATOM      5  C   UNL A   1      33.038  22.725  25.462  1.00  0.00     0.052 A 
ATOM      6  C   UNL A   1      31.799  23.393  25.504  1.00  0.00     0.052 A 
ATOM      7  C   UNL A   1      31.039  23.513  24.309  1.00  0.00     0.014 A 
ATOM      8  C   UNL A   1      31.511  23.071  23.079  1.00  0.00     0.001 A 
ATOM      9  C   UNL A   1      33.499  22.306  24.183  1.00  0.00     0.014 A 
ATOM     10  C   UNL A   1      32.759  22.484  23.011  1.00  0.00     0.001 A 
BRANCH   6  11
ATOM     11  C   UNL A   1      31.075  24.042  26.626  1.00  0.00     0.252 C 
ATOM     12  N   UNL A   1      31.036  25.387  26.877  1.00  0.00    -0.345 N 
ATOM     13  H   UNL A   1      30.337  25.638  27.524  1.00  0.00     0.164 HD
ATOM     14  O   UNL A   1      30.403  23.321  27.369  1.00  0.00    -0.269 OA
BRANCH  12  15
ATOM     15  C   UNL A   1      31.812  26.540  26.392  1.00  0.00     0.124 C 
BRANCH  15  16
ATOM     16  C   UNL A   1      31.541  27.758  27.281  1.00  0.00     0.152 C 
BRANCH  16  17
ATOM     17  C   UNL A   1      32.574  28.819  27.006  1.00  0.00     0.307 C 
ATOM     18  O   UNL A   1      32.299  29.939  26.599  1.00  0.00    -0.252 OA
BRANCH  17  19
ATOM     19  O   UNL A   1      33.825  28.334  27.228  1.00  0.00    -0.469 OA
ATOM     20  C   UNL A   1      34.882  29.300  27.310  1.00  0.00     0.282 C 
ENDBRANCH  17  19
ENDBRANCH  16  17
ENDBRANCH  15  16
BRANCH  15  21
ATOM     21  C   UNL A   1      31.597  26.872  24.926  1.00  0.00    -0.022 A 
ATOM     22  C   UNL A   1      30.364  27.399  24.505  1.00  0.00     0.006 A 
ATOM     23  C   UNL A   1      32.590  26.574  23.955  1.00  0.00    -0.043 A 
ATOM     24  C   UNL A   1      30.030  27.439  23.159  1.00  0.00     0.001 A 
ATOM     25  C   UNL A   1      32.262  26.684  22.583  1.00  0.00    -0.048 A 
ATOM     26  C   UNL A   1      34.007  26.213  24.347  1.00  0.00     0.045 C 
ATOM     27  C   UNL A   1      30.963  27.053  22.207  1.00  0.00     0.004 A 
ATOM     28  C   UNL A   1      33.240  26.340  21.492  1.00  0.00     0.044 C 
ENDBRANCH  15  21
ENDBRANCH  12  15
ENDBRANCH   6  11
ENDBRANCH   1   5
BRANCH   3  29
ATOM     29  C   UNL A   1      36.033  23.705  25.961  1.00  0.00     0.118 C 
BRANCH  29  30
ATOM     30  C   UNL A   1      37.469  23.290  25.858  1.00  0.00     0.042 C 
BRANCH  30  31
ATOM     31  C   UNL A   1      38.411  24.263  26.517  1.00  0.00     0.118 C 
BRANCH  31  32
ATOM     32  N   UNL A   1      39.640  24.554  25.769  1.00  0.00    -0.352 N 
ATOM     33  C   UNL A   1      40.604  25.498  26.023  1.00  0.00     0.251 C 
ATOM     34  H   UNL A   1      39.793  23.994  24.974  1.00  0.00     0.163 HD
ATOM     35  O   UNL A   1      41.579  25.636  25.290  1.00  0.00    -0.269 OA
BRANCH  33  36
ATOM     36  C   UNL A   1      40.440  26.379  27.182  1.00  0.00     0.039 A 
ATOM     37  C   UNL A   1      39.800  25.898  28.324  1.00  0.00     0.014 A 
ATOM     38  C   UNL A   1      40.991  27.659  27.147  1.00  0.00     0.014 A 
ATOM     39  C   UNL A   1      39.761  26.699  29.458  1.00  0.00     0.010 A 
ATOM     40  C   UNL A   1      41.117  28.367  28.319  1.00  0.00     0.010 A 
ATOM     41  C   UNL A   1      40.443  27.925  29.463  1.00  0.00    -0.014 A 
BRANCH  41  42
ATOM     42  C   UNL A   1      40.348  28.863  30.593  1.00  0.00     0.031 A 
ATOM     43  C   UNL A   1      39.266  29.908  30.549  1.00  0.00     0.074 A 
ATOM     44  C   UNL A   1      41.255  28.813  31.582  1.00  0.00     0.049 A 
ATOM     45  N   UNL A   1      39.074  30.936  31.329  1.00  0.00    -0.248 NA
ATOM     46  C   UNL A   1      38.309  29.826  29.427  1.00  0.00     0.031 C 
ATOM     47  C   UNL A   1      42.370  27.866  31.671  1.00  0.00     0.029 A 
ATOM     48  N   UNL A   1      41.380  29.583  32.704  1.00  0.00    -0.354 N 
ATOM     49  C   UNL A   1      38.018  31.637  30.763  1.00  0.00     0.074 A 
ATOM     50  C   UNL A   1      37.670  30.978  29.529  1.00  0.00     0.031 C 
ATOM     51  C   UNL A   1      43.039  28.085  32.814  1.00  0.00     0.029 A 
ATOM     52  C   UNL A   1      42.425  29.209  33.510  1.00  0.00     0.049 A 
ATOM     53  H   UNL A   1      40.780  30.334  32.913  1.00  0.00     0.167 HD
ATOM     54  C   UNL A   1      37.363  32.710  31.258  1.00  0.00     0.037 A 
ATOM     55  C   UNL A   1      42.822  29.725  34.687  1.00  0.00     0.037 A 
ATOM     56  C   UNL A   1      37.681  33.292  32.531  1.00  0.00     0.049 A 
ATOM     57  C   UNL A   1      42.034  30.875  35.252  1.00  0.00     0.074 A 
ATOM     58  C   UNL A   1      37.064  34.341  33.183  1.00  0.00     0.029 A 
ATOM     59  N   UNL A   1      38.702  32.842  33.358  1.00  0.00    -0.354 N 
ATOM     60  N   UNL A   1      41.011  31.512  34.732  1.00  0.00    -0.248 NA
ATOM     61  C   UNL A   1      42.443  31.365  36.573  1.00  0.00     0.031 C 
ATOM     62  C   UNL A   1      37.732  34.543  34.397  1.00  0.00     0.029 A 
ATOM     63  C   UNL A   1      38.732  33.589  34.518  1.00  0.00     0.049 A 
ATOM     64  H   UNL A   1      39.314  32.101  33.147  1.00  0.00     0.167 HD
ATOM     65  C   UNL A   1      40.629  32.455  35.676  1.00  0.00     0.074 A 
ATOM     66  C   UNL A   1      41.526  32.294  36.804  1.00  0.00     0.031 C 
ATOM     67  C   UNL A   1      39.632  33.374  35.622  1.00  0.00     0.037 A 
BRANCH  54  68
ATOM     68  C   UNL A   1      36.247  33.284  30.432  1.00  0.00     0.057 A 
ATOM     69  C   UNL A   1      34.898  33.047  30.734  1.00  0.00     0.134 A 
ATOM     70  C   UNL A   1      36.523  34.067  29.305  1.00  0.00     0.134 A 
ATOM     71  F   UNL A   1      34.559  32.283  31.784  1.00  0.00    -0.206 F 
ATOM     72  C   UNL A   1      33.869  33.533  29.925  1.00  0.00     0.040 A 
ATOM     73  C   UNL A   1      35.502  34.589  28.508  1.00  0.00     0.040 A 
ATOM     74  F   UNL A   1      37.791  34.332  28.953  1.00  0.00    -0.206 F 
ATOM     75  C   UNL A   1      34.170  34.313  28.811  1.00  0.00     0.006 A 
ENDBRANCH  54  68
BRANCH  55  76
ATOM     76  C   UNL A   1      43.963  29.122  35.420  1.00  0.00     0.057 A 
ATOM     77  C   UNL A   1      45.267  29.596  35.237  1.00  0.00     0.134 A 
ATOM     78  C   UNL A   1      43.782  28.073  36.330  1.00  0.00     0.134 A 
ATOM     79  F   UNL A   1      45.507  30.595  34.375  1.00  0.00    -0.206 F 
ATOM     80  C   UNL A   1      46.354  29.033  35.910  1.00  0.00     0.040 A 
ATOM     81  C   UNL A   1      44.855  27.518  37.029  1.00  0.00     0.040 A 
ATOM     82  F   UNL A   1      42.556  27.585  36.565  1.00  0.00    -0.206 F 
ATOM     83  C   UNL A   1      46.147  27.993  36.814  1.00  0.00     0.006 A 
ENDBRANCH  55  76
BRANCH  67  84
ATOM     84  C   UNL A   1      39.433  34.222  36.842  1.00  0.00     0.057 A 
ATOM     85  C   UNL A   1      38.754  33.749  37.970  1.00  0.00     0.134 A 
ATOM     86  C   UNL A   1      39.962  35.518  36.892  1.00  0.00     0.134 A 
ATOM     87  F   UNL A   1      38.218  32.519  37.975  1.00  0.00    -0.206 F 
ATOM     88  C   UNL A   1      38.579  34.549  39.098  1.00  0.00     0.040 A 
ATOM     89  C   UNL A   1      39.820  36.316  38.026  1.00  0.00     0.040 A 
ATOM     90  F   UNL A   1      40.635  36.021  35.846  1.00  0.00    -0.206 F 
ATOM     91  C   UNL A   1      39.119  35.834  39.129  1.00  0.00     0.006 A 
ENDBRANCH  67  84
ENDBRANCH  41  42
ENDBRANCH  33  36
ENDBRANCH  31  32
ENDBRANCH  30  31
ENDBRANCH  29  30
ENDBRANCH   3  29
TORSDOF 16
ENDMDL
MODEL 2
REMARK VINA RESULT:     -12.1      5.135      7.576
REMARK SMILES COC(=O)C[C@@H](NC(=O)c1ccccc1C(=O)NCCCNC(=O)c1ccc(-c2c3nc(c(-c4c(F)cccc4F)c4ccc([nH]4)c(-c4c(F)cccc4F)c4nc(c(-c5c(F)cccc5F)c5ccc2[nH]5)C=C4)C=C3)cc1)c1cccc(C)c1C
REMARK SMILES IDX 16 1 17 2 18 3 15 5 10 6 11 7 12 8 14 9 13 10 8 11 7 12 9 14
REMARK SMILES IDX 6 15 5 16 3 17 4 18 2 19 1 20 79 21 80 22 85 23 81 24 83 25
REMARK SMILES IDX 86 26 82 27 84 28 19 29 20 30 21 31 22 32 23 33 24 35 25 36
REMARK SMILES IDX 26 37 78 38 27 39 77 40 28 41 29 42 30 43 71 44 31 45 76 46
REMARK SMILES IDX 70 47 72 48 32 49 75 50 69 51 68 52 33 54 59 55 42 56 58 57
REMARK SMILES IDX 43 58 46 59 57 60 73 61 44 62 45 63 56 65 74 66 47 67 34 68
REMARK SMILES IDX 35 69 40 70 36 71 37 72 39 73 41 74 38 75 60 76 61 77 66 78
REMARK SMILES IDX 62 79 63 80 65 81 67 82 64 83 48 84 49 85 54 86 50 87 51 88
REMARK SMILES IDX 53 89 55 90 52 91
REMARK H PARENT 18 4 7 13 22 34 72 53 46 64
REMARK Flexibility Score: inf
ROOT
ATOM      1  C   UNL A   1      35.102  21.676  26.073  1.00  0.00     0.252 C 
ATOM      2  O   UNL A   1      34.609  21.663  27.206  1.00  0.00    -0.269 OA
ATOM      3  N   UNL A   1      36.451  21.910  26.026  1.00  0.00    -0.352 N 
ATOM      4  H   UNL A   1      36.836  22.334  26.827  1.00  0.00     0.163 HD
ENDROOT
BRANCH   1   5
ATOM      5  C   UNL A   1      34.187  21.593  24.882  1.00  0.00     0.052 A 
ATOM      6  C   UNL A   1      33.963  22.464  23.799  1.00  0.00     0.052 A 
ATOM      7  C   UNL A   1      32.913  22.173  22.885  1.00  0.00     0.014 A 
ATOM      8  C   UNL A   1      32.153  21.013  22.970  1.00  0.00     0.001 A 
ATOM      9  C   UNL A   1      33.405  20.405  24.924  1.00  0.00     0.014 A 
ATOM     10  C   UNL A   1      32.415  20.112  23.982  1.00  0.00     0.001 A 
BRANCH   6  11
ATOM     11  C   UNL A   1      34.650  23.716  23.392  1.00  0.00     0.252 C 
ATOM     12  N   UNL A   1      34.181  24.985  23.598  1.00  0.00    -0.345 N 
ATOM     13  H   UNL A   1      34.868  25.677  23.457  1.00  0.00     0.164 HD
ATOM     14  O   UNL A   1      35.765  23.615  22.870  1.00  0.00    -0.269 OA
BRANCH  12  15
ATOM     15  C   UNL A   1      32.874  25.542  23.983  1.00  0.00     0.124 C 
BRANCH  15  16
ATOM     16  C   UNL A   1      32.062  25.874  22.728  1.00  0.00     0.152 C 
BRANCH  16  17
ATOM     17  C   UNL A   1      33.000  26.193  21.594  1.00  0.00     0.307 C 
ATOM     18  O   UNL A   1      33.654  27.224  21.528  1.00  0.00    -0.252 OA
BRANCH  17  19
ATOM     19  O   UNL A   1      32.971  25.205  20.660  1.00  0.00    -0.469 OA
ATOM     20  C   UNL A   1      32.527  25.577  19.347  1.00  0.00     0.282 C 
ENDBRANCH  17  19
ENDBRANCH  16  17
ENDBRANCH  15  16
BRANCH  15  21
ATOM     21  C   UNL A   1      32.949  26.734  24.920  1.00  0.00    -0.022 A 
ATOM     22  C   UNL A   1      34.070  27.582  24.881  1.00  0.00     0.006 A 
ATOM     23  C   UNL A   1      31.947  26.959  25.901  1.00  0.00    -0.043 A 
ATOM     24  C   UNL A   1      34.310  28.492  25.900  1.00  0.00     0.001 A 
ATOM     25  C   UNL A   1      32.169  27.938  26.897  1.00  0.00    -0.048 A 
ATOM     26  C   UNL A   1      30.619  26.231  25.866  1.00  0.00     0.045 C 
ATOM     27  C   UNL A   1      33.380  28.644  26.918  1.00  0.00     0.004 A 
ATOM     28  C   UNL A   1      31.180  28.203  28.000  1.00  0.00     0.044 C 
ENDBRANCH  15  21
ENDBRANCH  12  15
ENDBRANCH   6  11
ENDBRANCH   1   5
BRANCH   3  29
ATOM     29  C   UNL A   1      37.376  21.626  24.976  1.00  0.00     0.118 C 
BRANCH  29  30
ATOM     30  C   UNL A   1      38.058  20.293  25.002  1.00  0.00     0.042 C 
BRANCH  30  31
ATOM     31  C   UNL A   1      39.041  20.156  26.135  1.00  0.00     0.118 C 
BRANCH  31  32
ATOM     32  N   UNL A   1      40.137  19.208  25.906  1.00  0.00    -0.352 N 
ATOM     33  C   UNL A   1      41.491  19.412  26.003  1.00  0.00     0.251 C 
ATOM     34  H   UNL A   1      39.863  18.298  25.647  1.00  0.00     0.163 HD
ATOM     35  O   UNL A   1      42.297  18.517  25.762  1.00  0.00    -0.269 OA
BRANCH  33  36
ATOM     36  C   UNL A   1      41.980  20.743  26.370  1.00  0.00     0.039 A 
ATOM     37  C   UNL A   1      42.333  21.002  27.695  1.00  0.00     0.014 A 
ATOM     38  C   UNL A   1      42.150  21.705  25.376  1.00  0.00     0.014 A 
ATOM     39  C   UNL A   1      42.910  22.226  28.009  1.00  0.00     0.010 A 
ATOM     40  C   UNL A   1      42.891  22.831  25.652  1.00  0.00     0.010 A 
ATOM     41  C   UNL A   1      43.212  23.131  26.980  1.00  0.00    -0.014 A 
BRANCH  41  42
ATOM     42  C   UNL A   1      43.724  24.482  27.260  1.00  0.00     0.031 A 
ATOM     43  C   UNL A   1      42.740  25.524  27.720  1.00  0.00     0.074 A 
ATOM     44  C   UNL A   1      45.016  24.770  27.032  1.00  0.00     0.049 A 
ATOM     45  N   UNL A   1      42.904  26.809  27.876  1.00  0.00    -0.248 NA
ATOM     46  C   UNL A   1      41.358  25.067  27.970  1.00  0.00     0.031 C 
ATOM     47  C   UNL A   1      46.023  23.831  26.532  1.00  0.00     0.029 A 
ATOM     48  N   UNL A   1      45.700  25.941  27.194  1.00  0.00    -0.354 N 
ATOM     49  C   UNL A   1      41.647  27.307  28.189  1.00  0.00     0.074 A 
ATOM     50  C   UNL A   1      40.712  26.211  28.110  1.00  0.00     0.031 C 
ATOM     51  C   UNL A   1      47.211  24.456  26.471  1.00  0.00     0.029 A 
ATOM     52  C   UNL A   1      47.034  25.842  26.887  1.00  0.00     0.049 A 
ATOM     53  H   UNL A   1      45.278  26.776  27.500  1.00  0.00     0.167 HD
ATOM     54  C   UNL A   1      41.311  28.562  28.559  1.00  0.00     0.037 A 
ATOM     55  C   UNL A   1      47.997  26.779  26.951  1.00  0.00     0.037 A 
ATOM     56  C   UNL A   1      42.279  29.611  28.709  1.00  0.00     0.049 A 
ATOM     57  C   UNL A   1      47.612  28.151  27.433  1.00  0.00     0.074 A 
ATOM     58  C   UNL A   1      42.090  30.912  29.133  1.00  0.00     0.029 A 
ATOM     59  N   UNL A   1      43.636  29.457  28.458  1.00  0.00    -0.354 N 
ATOM     60  N   UNL A   1      46.427  28.609  27.764  1.00  0.00    -0.248 NA
ATOM     61  C   UNL A   1      48.696  29.128  27.567  1.00  0.00     0.031 C 
ATOM     62  C   UNL A   1      43.334  31.553  29.113  1.00  0.00     0.029 A 
ATOM     63  C   UNL A   1      44.301  30.638  28.722  1.00  0.00     0.049 A 
ATOM     64  H   UNL A   1      44.060  28.629  28.138  1.00  0.00     0.167 HD
ATOM     65  C   UNL A   1      46.627  29.918  28.182  1.00  0.00     0.074 A 
ATOM     66  C   UNL A   1      48.051  30.171  28.071  1.00  0.00     0.031 C 
ATOM     67  C   UNL A   1      45.724  30.832  28.616  1.00  0.00     0.037 A 
BRANCH  54  68
ATOM     68  C   UNL A   1      39.861  28.838  28.840  1.00  0.00     0.057 A 
ATOM     69  C   UNL A   1      39.316  28.720  30.128  1.00  0.00     0.134 A 
ATOM     70  C   UNL A   1      38.990  29.204  27.807  1.00  0.00     0.134 A 
ATOM     71  F   UNL A   1      40.086  28.348  31.161  1.00  0.00    -0.206 F 
ATOM     72  C   UNL A   1      37.955  28.919  30.369  1.00  0.00     0.040 A 
ATOM     73  C   UNL A   1      37.634  29.440  28.042  1.00  0.00     0.040 A 
ATOM     74  F   UNL A   1      39.440  29.331  26.550  1.00  0.00    -0.206 F 
ATOM     75  C   UNL A   1      37.110  29.286  29.324  1.00  0.00     0.006 A 
ENDBRANCH  54  68
BRANCH  55  76
ATOM     76  C   UNL A   1      49.400  26.432  26.616  1.00  0.00     0.057 A 
ATOM     77  C   UNL A   1      49.908  26.653  25.330  1.00  0.00     0.134 A 
ATOM     78  C   UNL A   1      50.272  25.889  27.567  1.00  0.00     0.134 A 
ATOM     79  F   UNL A   1      49.121  27.165  24.372  1.00  0.00    -0.206 F 
ATOM     80  C   UNL A   1      51.223  26.323  24.993  1.00  0.00     0.040 A 
ATOM     81  C   UNL A   1      51.596  25.578  27.252  1.00  0.00     0.040 A 
ATOM     82  F   UNL A   1      49.854  25.670  28.822  1.00  0.00    -0.206 F 
ATOM     83  C   UNL A   1      52.073  25.787  25.959  1.00  0.00     0.006 A 
ENDBRANCH  55  76
BRANCH  67  84
ATOM     84  C   UNL A   1      46.267  32.158  29.055  1.00  0.00     0.057 A 
ATOM     85  C   UNL A   1      46.389  33.237  28.173  1.00  0.00     0.134 A 
ATOM     86  C   UNL A   1      46.638  32.359  30.391  1.00  0.00     0.134 A 
ATOM     87  F   UNL A   1      46.058  33.100  26.880  1.00  0.00    -0.206 F 
ATOM     88  C   UNL A   1      46.893  34.466  28.598  1.00  0.00     0.040 A 
ATOM     89  C   UNL A   1      47.115  33.592  30.833  1.00  0.00     0.040 A 
ATOM     90  F   UNL A   1      46.531  31.365  31.286  1.00  0.00    -0.206 F 
ATOM     91  C   UNL A   1      47.252  34.646  29.933  1.00  0.00     0.006 A 
ENDBRANCH  67  84
ENDBRANCH  41  42
ENDBRANCH  33  36
ENDBRANCH  31  32
ENDBRANCH  30  31
ENDBRANCH  29  30
ENDBRANCH   3  29
TORSDOF 16
ENDMDL
MODEL 3
REMARK VINA RESULT:     -12.1      0.705      6.162
REMARK SMILES COC(=O)C[C@@H](NC(=O)c1ccccc1C(=O)NCCCNC(=O)c1ccc(-c2c3nc(c(-c4c(F)cccc4F)c4ccc([nH]4)c(-c4c(F)cccc4F)c4nc(c(-c5c(F)cccc5F)c5ccc2[nH]5)C=C4)C=C3)cc1)c1cccc(C)c1C
REMARK SMILES IDX 16 1 17 2 18 3 15 5 10 6 11 7 12 8 14 9 13 10 8 11 7 12 9 14
REMARK SMILES IDX 6 15 5 16 3 17 4 18 2 19 1 20 79 21 80 22 85 23 81 24 83 25
REMARK SMILES IDX 86 26 82 27 84 28 19 29 20 30 21 31 22 32 23 33 24 35 25 36
REMARK SMILES IDX 26 37 78 38 27 39 77 40 28 41 29 42 30 43 71 44 31 45 76 46
REMARK SMILES IDX 70 47 72 48 32 49 75 50 69 51 68 52 33 54 59 55 42 56 58 57
REMARK SMILES IDX 43 58 46 59 57 60 73 61 44 62 45 63 56 65 74 66 47 67 34 68
REMARK SMILES IDX 35 69 40 70 36 71 37 72 39 73 41 74 38 75 60 76 61 77 66 78
REMARK SMILES IDX 62 79 63 80 65 81 67 82 64 83 48 84 49 85 54 86 50 87 51 88
REMARK SMILES IDX 53 89 55 90 52 91
REMARK H PARENT 18 4 7 13 22 34 72 53 46 64
REMARK Flexibility Score: inf
ROOT
ATOM      1  C   UNL A   1      34.272  22.206  26.638  1.00  0.00     0.252 C 
ATOM      2  O   UNL A   1      33.999  21.309  27.442  1.00  0.00    -0.269 OA
ATOM      3  N   UNL A   1      35.432  22.889  26.897  1.00  0.00    -0.352 N 
ATOM      4  H   UNL A   1      35.767  22.820  27.821  1.00  0.00     0.163 HD
ENDROOT
BRANCH   1   5
ATOM      5  C   UNL A   1      33.268  22.561  25.577  1.00  0.00     0.052 A 
ATOM      6  C   UNL A   1      32.050  23.266  25.624  1.00  0.00     0.052 A 
ATOM      7  C   UNL A   1      31.238  23.321  24.459  1.00  0.00     0.014 A 
ATOM      8  C   UNL A   1      31.640  22.776  23.245  1.00  0.00     0.001 A 
ATOM      9  C   UNL A   1      33.657  22.036  24.313  1.00  0.00     0.014 A 
ATOM     10  C   UNL A   1      32.868  22.150  23.165  1.00  0.00     0.001 A 
BRANCH   6  11
ATOM     11  C   UNL A   1      31.396  24.017  26.727  1.00  0.00     0.252 C 
ATOM     12  N   UNL A   1      31.400  25.377  26.876  1.00  0.00    -0.345 N 
ATOM     13  H   UNL A   1      30.740  25.694  27.534  1.00  0.00     0.164 HD
ATOM     14  O   UNL A   1      30.746  23.371  27.554  1.00  0.00    -0.269 OA
BRANCH  12  15
ATOM     15  C   UNL A   1      32.177  26.470  26.269  1.00  0.00     0.124 C 
BRANCH  15  16
ATOM     16  C   UNL A   1      32.089  27.720  27.149  1.00  0.00     0.152 C 
BRANCH  16  17
ATOM     17  C   UNL A   1      33.208  28.663  26.793  1.00  0.00     0.307 C 
ATOM     18  O   UNL A   1      34.392  28.368  26.876  1.00  0.00    -0.252 OA
BRANCH  17  19
ATOM     19  O   UNL A   1      32.710  29.873  26.423  1.00  0.00    -0.469 OA
ATOM     20  C   UNL A   1      33.061  30.991  27.250  1.00  0.00     0.282 C 
ENDBRANCH  17  19
ENDBRANCH  16  17
ENDBRANCH  15  16
BRANCH  15  21
ATOM     21  C   UNL A   1      31.804  26.783  24.830  1.00  0.00    -0.022 A 
ATOM     22  C   UNL A   1      30.590  27.437  24.552  1.00  0.00     0.006 A 
ATOM     23  C   UNL A   1      32.618  26.347  23.751  1.00  0.00    -0.043 A 
ATOM     24  C   UNL A   1      30.084  27.478  23.261  1.00  0.00     0.001 A 
ATOM     25  C   UNL A   1      32.122  26.456  22.431  1.00  0.00    -0.048 A 
ATOM     26  C   UNL A   1      34.027  25.838  23.969  1.00  0.00     0.045 C 
ATOM     27  C   UNL A   1      30.832  26.961  22.213  1.00  0.00     0.004 A 
ATOM     28  C   UNL A   1      32.900  25.973  21.237  1.00  0.00     0.044 C 
ENDBRANCH  15  21
ENDBRANCH  12  15
ENDBRANCH   6  11
ENDBRANCH   1   5
BRANCH   3  29
ATOM     29  C   UNL A   1      36.222  23.686  26.015  1.00  0.00     0.118 C 
BRANCH  29  30
ATOM     30  C   UNL A   1      37.618  23.225  25.734  1.00  0.00     0.042 C 
BRANCH  30  31
ATOM     31  C   UNL A   1      38.659  24.002  26.497  1.00  0.00     0.118 C 
BRANCH  31  32
ATOM     32  N   UNL A   1      40.046  23.780  26.074  1.00  0.00    -0.352 N 
ATOM     33  C   UNL A   1      41.192  24.399  26.508  1.00  0.00     0.251 C 
ATOM     34  H   UNL A   1      40.173  23.092  25.381  1.00  0.00     0.163 HD
ATOM     35  O   UNL A   1      42.293  24.116  26.043  1.00  0.00    -0.269 OA
BRANCH  33  36
ATOM     36  C   UNL A   1      41.086  25.445  27.528  1.00  0.00     0.039 A 
ATOM     37  C   UNL A   1      41.935  26.551  27.466  1.00  0.00     0.014 A 
ATOM     38  C   UNL A   1      40.092  25.350  28.500  1.00  0.00     0.014 A 
ATOM     39  C   UNL A   1      41.743  27.594  28.364  1.00  0.00     0.010 A 
ATOM     40  C   UNL A   1      39.785  26.458  29.256  1.00  0.00     0.010 A 
ATOM     41  C   UNL A   1      40.650  27.557  29.243  1.00  0.00    -0.014 A 
BRANCH  41  42
ATOM     42  C   UNL A   1      40.458  28.577  30.286  1.00  0.00     0.031 A 
ATOM     43  C   UNL A   1      41.330  28.502  31.511  1.00  0.00     0.074 A 
ATOM     44  C   UNL A   1      39.480  29.489  30.159  1.00  0.00     0.049 A 
ATOM     45  N   UNL A   1      41.251  29.173  32.627  1.00  0.00    -0.248 NA
ATOM     46  C   UNL A   1      42.393  27.477  31.507  1.00  0.00     0.031 C 
ATOM     47  C   UNL A   1      38.554  29.594  29.028  1.00  0.00     0.029 A 
ATOM     48  N   UNL A   1      39.104  30.502  30.995  1.00  0.00    -0.354 N 
ATOM     49  C   UNL A   1      42.213  28.618  33.460  1.00  0.00     0.074 A 
ATOM     50  C   UNL A   1      42.798  27.499  32.764  1.00  0.00     0.031 C 
ATOM     51  C   UNL A   1      37.744  30.648  29.223  1.00  0.00     0.029 A 
ATOM     52  C   UNL A   1      38.069  31.259  30.507  1.00  0.00     0.049 A 
ATOM     53  H   UNL A   1      39.533  30.672  31.864  1.00  0.00     0.167 HD
ATOM     54  C   UNL A   1      42.607  29.039  34.682  1.00  0.00     0.037 A 
ATOM     55  C   UNL A   1      37.468  32.334  31.048  1.00  0.00     0.037 A 
ATOM     56  C   UNL A   1      42.062  30.208  35.312  1.00  0.00     0.049 A 
ATOM     57  C   UNL A   1      37.971  32.826  32.377  1.00  0.00     0.074 A 
ATOM     58  C   UNL A   1      42.408  30.784  36.518  1.00  0.00     0.029 A 
ATOM     59  N   UNL A   1      41.062  30.995  34.756  1.00  0.00    -0.354 N 
ATOM     60  N   UNL A   1      38.908  32.320  33.146  1.00  0.00    -0.248 NA
ATOM     61  C   UNL A   1      37.349  34.044  32.905  1.00  0.00     0.031 C 
ATOM     62  C   UNL A   1      41.596  31.908  36.704  1.00  0.00     0.029 A 
ATOM     63  C   UNL A   1      40.779  32.057  35.591  1.00  0.00     0.049 A 
ATOM     64  H   UNL A   1      40.620  30.821  33.894  1.00  0.00     0.167 HD
ATOM     65  C   UNL A   1      39.015  33.179  34.232  1.00  0.00     0.074 A 
ATOM     66  C   UNL A   1      38.053  34.242  34.011  1.00  0.00     0.031 C 
ATOM     67  C   UNL A   1      39.827  33.101  35.315  1.00  0.00     0.037 A 
BRANCH  54  68
ATOM     68  C   UNL A   1      43.677  28.245  35.377  1.00  0.00     0.057 A 
ATOM     69  C   UNL A   1      45.042  28.487  35.163  1.00  0.00     0.134 A 
ATOM     70  C   UNL A   1      43.340  27.210  36.256  1.00  0.00     0.134 A 
ATOM     71  F   UNL A   1      45.439  29.448  34.314  1.00  0.00    -0.206 F 
ATOM     72  C   UNL A   1      46.029  27.705  35.766  1.00  0.00     0.040 A 
ATOM     73  C   UNL A   1      44.318  26.443  36.892  1.00  0.00     0.040 A 
ATOM     74  F   UNL A   1      42.054  26.918  36.505  1.00  0.00    -0.206 F 
ATOM     75  C   UNL A   1      45.667  26.682  36.640  1.00  0.00     0.006 A 
ENDBRANCH  54  68
BRANCH  55  76
ATOM     76  C   UNL A   1      36.389  33.036  30.311  1.00  0.00     0.057 A 
ATOM     77  C   UNL A   1      35.045  32.862  30.663  1.00  0.00     0.134 A 
ATOM     78  C   UNL A   1      36.667  33.907  29.251  1.00  0.00     0.134 A 
ATOM     79  F   UNL A   1      34.712  32.035  31.666  1.00  0.00    -0.206 F 
ATOM     80  C   UNL A   1      34.016  33.506  29.973  1.00  0.00     0.040 A 
ATOM     81  C   UNL A   1      35.650  34.578  28.569  1.00  0.00     0.040 A 
ATOM     82  F   UNL A   1      37.934  34.133  28.874  1.00  0.00    -0.206 F 
ATOM     83  C   UNL A   1      34.319  34.372  28.924  1.00  0.00     0.006 A 
ENDBRANCH  55  76
BRANCH  67  84
ATOM     84  C   UNL A   1      39.744  34.228  36.299  1.00  0.00     0.057 A 
ATOM     85  C   UNL A   1      38.968  34.143  37.460  1.00  0.00     0.134 A 
ATOM     86  C   UNL A   1      40.485  35.399  36.092  1.00  0.00     0.134 A 
ATOM     87  F   UNL A   1      38.231  33.050  37.706  1.00  0.00    -0.206 F 
ATOM     88  C   UNL A   1      38.904  35.199  38.368  1.00  0.00     0.040 A 
ATOM     89  C   UNL A   1      40.452  36.449  37.008  1.00  0.00     0.040 A 
ATOM     90  F   UNL A   1      41.259  35.534  35.004  1.00  0.00    -0.206 F 
ATOM     91  C   UNL A   1      39.653  36.354  38.145  1.00  0.00     0.006 A 
ENDBRANCH  67  84
ENDBRANCH  41  42
ENDBRANCH  33  36
ENDBRANCH  31  32
ENDBRANCH  30  31
ENDBRANCH  29  30
ENDBRANCH   3  29
TORSDOF 16
ENDMDL
