MODEL 1
REMARK VINA RESULT:     -12.5      0.000      0.000
REMARK SMILES O=C(NCCCNC(=O)c1cccc(S(=O)(=O)NC[C@@H]2COc3ccccc3O2)c1)c1ccc(-c2c3nc(c(-c4c(F)cccc4F)c4ccc([nH]4)c(-c4c(F)cccc4F)c4nc(c(-c5c(F)cccc5F)c5ccc2[nH]5)C=C4)C=C3)cc1
REMARK SMILES IDX 6 1 5 2 4 3 3 4 1 5 2 6 31 8 32 9 84 10 33 11 83 12 34 13
REMARK SMILES IDX 35 14 36 15 77 16 37 17 82 18 76 19 78 20 38 21 81 22 75 23
REMARK SMILES IDX 74 24 39 26 65 27 48 28 64 29 49 30 52 31 63 32 79 33 50 34
REMARK SMILES IDX 51 35 62 37 80 38 53 39 40 40 41 41 46 42 42 43 43 44 45 45
REMARK SMILES IDX 47 46 44 47 66 48 67 49 72 50 68 51 69 52 71 53 73 54 70 55
REMARK SMILES IDX 54 56 55 57 60 58 56 59 57 60 59 61 61 62 58 63 7 64 8 65
REMARK SMILES IDX 9 67 10 68 11 69 30 70 12 71 14 72 13 73 15 74 16 75 17 76
REMARK SMILES IDX 18 77 19 79 20 80 21 81 29 82 22 83 28 84 23 85 27 86 24 87
REMARK SMILES IDX 26 88 25 89
REMARK H PARENT 3 7 78 25 52 36 7 66 18 78
REMARK Flexibility Score: inf
ROOT
ATOM      1  C   UNL A   1      37.065  20.765  24.817  1.00  0.00     0.118 C 
ENDROOT
BRANCH   1   2
ATOM      2  C   UNL A   1      38.107  19.666  24.938  1.00  0.00     0.042 C 
BRANCH   2   3
ATOM      3  C   UNL A   1      39.103  19.905  26.062  1.00  0.00     0.118 C 
BRANCH   3   4
ATOM      4  N   UNL A   1      40.350  19.176  25.868  1.00  0.00    -0.352 N 
ATOM      5  O   UNL A   1      42.554  18.875  25.532  1.00  0.00    -0.269 OA
ATOM      6  C   UNL A   1      41.654  19.604  25.940  1.00  0.00     0.251 C 
ATOM      7  H   UNL A   1      40.240  18.221  25.652  1.00  0.00     0.163 HD
BRANCH   6   8
ATOM      8  C   UNL A   1      41.978  20.942  26.479  1.00  0.00     0.039 A 
ATOM      9  C   UNL A   1      42.027  21.166  27.855  1.00  0.00     0.014 A 
ATOM     10  C   UNL A   1      42.281  21.984  25.596  1.00  0.00     0.014 A 
ATOM     11  C   UNL A   1      42.198  22.455  28.343  1.00  0.00     0.010 A 
ATOM     12  C   UNL A   1      42.570  23.258  26.092  1.00  0.00     0.010 A 
ATOM     13  C   UNL A   1      42.499  23.512  27.470  1.00  0.00    -0.014 A 
BRANCH  13  14
ATOM     14  C   UNL A   1      42.812  24.846  28.041  1.00  0.00     0.031 A 
ATOM     15  C   UNL A   1      41.733  25.859  28.300  1.00  0.00     0.074 A 
ATOM     16  C   UNL A   1      44.092  25.122  28.362  1.00  0.00     0.049 A 
ATOM     17  N   UNL A   1      41.840  27.059  28.813  1.00  0.00    -0.248 NA
ATOM     18  C   UNL A   1      40.359  25.485  27.932  1.00  0.00     0.031 C 
ATOM     19  C   UNL A   1      45.228  24.220  28.143  1.00  0.00     0.029 A 
ATOM     20  N   UNL A   1      44.653  26.220  28.960  1.00  0.00    -0.354 N 
ATOM     21  C   UNL A   1      40.558  27.592  28.808  1.00  0.00     0.074 A 
ATOM     22  C   UNL A   1      39.689  26.592  28.224  1.00  0.00     0.031 C 
ATOM     23  C   UNL A   1      46.337  24.778  28.649  1.00  0.00     0.029 A 
ATOM     24  C   UNL A   1      46.007  26.101  29.164  1.00  0.00     0.049 A 
ATOM     25  H   UNL A   1      44.137  27.018  29.217  1.00  0.00     0.167 HD
ATOM     26  C   UNL A   1      40.144  28.801  29.258  1.00  0.00     0.037 A 
ATOM     27  C   UNL A   1      46.891  26.967  29.689  1.00  0.00     0.037 A 
ATOM     28  C   UNL A   1      41.011  29.783  29.859  1.00  0.00     0.049 A 
ATOM     29  C   UNL A   1      46.406  28.302  30.168  1.00  0.00     0.074 A 
ATOM     30  C   UNL A   1      40.679  31.024  30.377  1.00  0.00     0.029 A 
ATOM     31  N   UNL A   1      42.380  29.636  30.023  1.00  0.00    -0.354 N 
ATOM     32  N   UNL A   1      45.185  28.778  30.180  1.00  0.00    -0.248 NA
ATOM     33  C   UNL A   1      47.420  29.222  30.696  1.00  0.00     0.031 C 
ATOM     34  C   UNL A   1      41.853  31.643  30.819  1.00  0.00     0.029 A 
ATOM     35  C   UNL A   1      42.910  30.770  30.616  1.00  0.00     0.049 A 
ATOM     36  H   UNL A   1      42.899  28.842  29.758  1.00  0.00     0.167 HD
ATOM     37  C   UNL A   1      45.280  30.048  30.728  1.00  0.00     0.074 A 
ATOM     38  C   UNL A   1      46.676  30.259  31.056  1.00  0.00     0.031 C 
ATOM     39  C   UNL A   1      44.301  30.961  30.936  1.00  0.00     0.037 A 
BRANCH  26  40
ATOM     40  C   UNL A   1      38.692  29.144  29.107  1.00  0.00     0.057 A 
ATOM     41  C   UNL A   1      37.801  29.091  30.185  1.00  0.00     0.134 A 
ATOM     42  C   UNL A   1      38.190  29.592  27.877  1.00  0.00     0.134 A 
ATOM     43  F   UNL A   1      38.214  28.660  31.387  1.00  0.00    -0.206 F 
ATOM     44  C   UNL A   1      36.461  29.459  30.046  1.00  0.00     0.040 A 
ATOM     45  C   UNL A   1      36.858  29.983  27.729  1.00  0.00     0.040 A 
ATOM     46  F   UNL A   1      38.990  29.673  26.804  1.00  0.00    -0.206 F 
ATOM     47  C   UNL A   1      35.989  29.914  28.815  1.00  0.00     0.006 A 
ENDBRANCH  26  40
BRANCH  27  48
ATOM     48  C   UNL A   1      48.325  26.594  29.778  1.00  0.00     0.057 A 
ATOM     49  C   UNL A   1      49.226  26.929  28.762  1.00  0.00     0.134 A 
ATOM     50  C   UNL A   1      48.828  25.904  30.888  1.00  0.00     0.134 A 
ATOM     51  F   UNL A   1      48.799  27.577  27.668  1.00  0.00    -0.206 F 
ATOM     52  C   UNL A   1      50.575  26.580  28.839  1.00  0.00     0.040 A 
ATOM     53  C   UNL A   1      50.180  25.572  30.990  1.00  0.00     0.040 A 
ATOM     54  F   UNL A   1      48.016  25.562  31.899  1.00  0.00    -0.206 F 
ATOM     55  C   UNL A   1      51.056  25.905  29.959  1.00  0.00     0.006 A 
ENDBRANCH  27  48
BRANCH  39  56
ATOM     56  C   UNL A   1      44.707  32.256  31.571  1.00  0.00     0.057 A 
ATOM     57  C   UNL A   1      44.726  32.419  32.962  1.00  0.00     0.134 A 
ATOM     58  C   UNL A   1      45.105  33.344  30.784  1.00  0.00     0.134 A 
ATOM     59  F   UNL A   1      44.342  31.419  33.769  1.00  0.00    -0.206 F 
ATOM     60  C   UNL A   1      45.104  33.628  33.548  1.00  0.00     0.040 A 
ATOM     61  C   UNL A   1      45.507  34.549  31.358  1.00  0.00     0.040 A 
ATOM     62  F   UNL A   1      45.114  33.248  29.446  1.00  0.00    -0.206 F 
ATOM     63  C   UNL A   1      45.501  34.695  32.743  1.00  0.00     0.006 A 
ENDBRANCH  39  56
ENDBRANCH  13  14
ENDBRANCH   6   8
ENDBRANCH   3   4
ENDBRANCH   2   3
ENDBRANCH   1   2
BRANCH   1  64
ATOM     64  N   UNL A   1      35.715  20.247  25.005  1.00  0.00    -0.352 N 
ATOM     65  C   UNL A   1      34.548  20.885  25.336  1.00  0.00     0.251 C 
ATOM     66  H   UNL A   1      35.628  19.275  24.872  1.00  0.00     0.163 HD
ATOM     67  O   UNL A   1      33.595  20.221  25.733  1.00  0.00    -0.269 OA
BRANCH  65  68
ATOM     68  C   UNL A   1      34.385  22.342  25.139  1.00  0.00     0.041 A 
ATOM     69  C   UNL A   1      34.384  23.206  26.236  1.00  0.00     0.014 A 
ATOM     70  C   UNL A   1      34.063  22.843  23.882  1.00  0.00     0.035 A 
ATOM     71  C   UNL A   1      34.094  24.565  26.056  1.00  0.00     0.002 A 
ATOM     72  C   UNL A   1      33.730  24.181  23.705  1.00  0.00     0.083 A 
ATOM     73  C   UNL A   1      33.760  25.057  24.788  1.00  0.00     0.022 A 
BRANCH  72  74
ATOM     74  S   UNL A   1      33.238  24.748  22.096  1.00  0.00     0.240 S 
ATOM     75  O   UNL A   1      34.007  25.924  21.774  1.00  0.00    -0.207 OA
ATOM     76  O   UNL A   1      33.200  23.579  21.246  1.00  0.00    -0.207 OA
BRANCH  74  77
ATOM     77  N   UNL A   1      31.617  25.196  22.311  1.00  0.00    -0.207 NA
ATOM     78  H   UNL A   1      31.323  24.793  23.201  1.00  0.00     0.141 HD
BRANCH  77  79
ATOM     79  C   UNL A   1      31.200  26.627  22.339  1.00  0.00     0.147 C 
BRANCH  79  80
ATOM     80  C   UNL A   1      30.051  27.002  23.301  1.00  0.00     0.226 C 
ATOM     81  C   UNL A   1      29.649  28.481  23.280  1.00  0.00     0.276 C 
ATOM     82  O   UNL A   1      30.418  26.612  24.642  1.00  0.00    -0.482 OA
ATOM     83  O   UNL A   1      30.725  29.327  23.685  1.00  0.00    -0.486 OA
ATOM     84  C   UNL A   1      31.031  27.601  25.364  1.00  0.00     0.161 A 
ATOM     85  C   UNL A   1      31.194  28.910  24.903  1.00  0.00     0.161 A 
ATOM     86  C   UNL A   1      31.488  27.255  26.631  1.00  0.00     0.050 A 
ATOM     87  C   UNL A   1      31.845  29.861  25.684  1.00  0.00     0.050 A 
ATOM     88  C   UNL A   1      32.116  28.213  27.431  1.00  0.00     0.004 A 
ATOM     89  C   UNL A   1      32.298  29.513  26.955  1.00  0.00     0.004 A 
ENDBRANCH  79  80
ENDBRANCH  77  79
ENDBRANCH  74  77
ENDBRANCH  72  74
ENDBRANCH  65  68
ENDBRANCH   1  64
TORSDOF 14
ENDMDL
MODEL 2
REMARK VINA RESULT:     -12.5      0.842      6.180
REMARK SMILES O=C(NCCCNC(=O)c1cccc(S(=O)(=O)NC[C@@H]2COc3ccccc3O2)c1)c1ccc(-c2c3nc(c(-c4c(F)cccc4F)c4ccc([nH]4)c(-c4c(F)cccc4F)c4nc(c(-c5c(F)cccc5F)c5ccc2[nH]5)C=C4)C=C3)cc1
REMARK SMILES IDX 6 1 5 2 4 3 3 4 1 5 2 6 31 8 32 9 84 10 33 11 83 12 34 13
REMARK SMILES IDX 35 14 36 15 77 16 37 17 82 18 76 19 78 20 38 21 81 22 75 23
REMARK SMILES IDX 74 24 39 26 65 27 48 28 64 29 49 30 52 31 63 32 79 33 50 34
REMARK SMILES IDX 51 35 62 37 80 38 53 39 40 40 41 41 46 42 42 43 43 44 45 45
REMARK SMILES IDX 47 46 44 47 66 48 67 49 72 50 68 51 69 52 71 53 73 54 70 55
REMARK SMILES IDX 54 56 55 57 60 58 56 59 57 60 59 61 61 62 58 63 7 64 8 65
REMARK SMILES IDX 9 67 10 68 11 69 30 70 12 71 14 72 13 73 15 74 16 75 17 76
REMARK SMILES IDX 18 77 19 79 20 80 21 81 29 82 22 83 28 84 23 85 27 86 24 87
REMARK SMILES IDX 26 88 25 89
REMARK H PARENT 3 7 78 25 52 36 7 66 18 78
REMARK Flexibility Score: inf
ROOT
ATOM      1  C   UNL A   1      36.723  20.753  24.578  1.00  0.00     0.118 C 
ENDROOT
BRANCH   1   2
ATOM      2  C   UNL A   1      37.865  19.757  24.681  1.00  0.00     0.042 C 
BRANCH   2   3
ATOM      3  C   UNL A   1      38.785  20.019  25.863  1.00  0.00     0.118 C 
BRANCH   3   4
ATOM      4  N   UNL A   1      40.011  19.233  25.802  1.00  0.00    -0.352 N 
ATOM      5  O   UNL A   1      42.222  18.831  25.702  1.00  0.00    -0.269 OA
ATOM      6  C   UNL A   1      41.318  19.602  26.011  1.00  0.00     0.251 C 
ATOM      7  H   UNL A   1      39.881  18.283  25.576  1.00  0.00     0.163 HD
BRANCH   6   8
ATOM      8  C   UNL A   1      41.644  20.927  26.582  1.00  0.00     0.039 A 
ATOM      9  C   UNL A   1      41.937  22.010  25.753  1.00  0.00     0.014 A 
ATOM     10  C   UNL A   1      41.618  21.102  27.969  1.00  0.00     0.014 A 
ATOM     11  C   UNL A   1      42.373  23.208  26.304  1.00  0.00     0.010 A 
ATOM     12  C   UNL A   1      41.944  22.345  28.522  1.00  0.00     0.010 A 
ATOM     13  C   UNL A   1      42.356  23.399  27.694  1.00  0.00    -0.014 A 
BRANCH  13  14
ATOM     14  C   UNL A   1      42.697  24.738  28.237  1.00  0.00     0.031 A 
ATOM     15  C   UNL A   1      44.116  25.114  28.558  1.00  0.00     0.074 A 
ATOM     16  C   UNL A   1      41.704  25.634  28.404  1.00  0.00     0.049 A 
ATOM     17  N   UNL A   1      44.580  26.249  29.018  1.00  0.00    -0.248 NA
ATOM     18  C   UNL A   1      45.147  24.088  28.342  1.00  0.00     0.031 C 
ATOM     19  C   UNL A   1      40.284  25.377  28.140  1.00  0.00     0.029 A 
ATOM     20  N   UNL A   1      41.732  26.943  28.810  1.00  0.00    -0.354 N 
ATOM     21  C   UNL A   1      45.949  26.068  29.170  1.00  0.00     0.074 A 
ATOM     22  C   UNL A   1      46.240  24.707  28.770  1.00  0.00     0.031 C 
ATOM     23  C   UNL A   1      39.588  26.505  28.336  1.00  0.00     0.029 A 
ATOM     24  C   UNL A   1      40.496  27.544  28.806  1.00  0.00     0.049 A 
ATOM     25  H   UNL A   1      42.557  27.408  29.079  1.00  0.00     0.167 HD
ATOM     26  C   UNL A   1      46.876  26.959  29.596  1.00  0.00     0.037 A 
ATOM     27  C   UNL A   1      40.128  28.788  29.160  1.00  0.00     0.037 A 
ATOM     28  C   UNL A   1      46.582  28.319  29.970  1.00  0.00     0.049 A 
ATOM     29  C   UNL A   1      41.175  29.748  29.639  1.00  0.00     0.074 A 
ATOM     30  C   UNL A   1      47.460  29.308  30.382  1.00  0.00     0.029 A 
ATOM     31  N   UNL A   1      45.315  28.881  29.979  1.00  0.00    -0.354 N 
ATOM     32  N   UNL A   1      42.468  29.568  29.750  1.00  0.00    -0.248 NA
ATOM     33  C   UNL A   1      40.712  31.079  30.049  1.00  0.00     0.031 C 
ATOM     34  C   UNL A   1      46.719  30.457  30.676  1.00  0.00     0.029 A 
ATOM     35  C   UNL A   1      45.385  30.197  30.408  1.00  0.00     0.049 A 
ATOM     36  H   UNL A   1      44.488  28.415  29.719  1.00  0.00     0.167 HD
ATOM     37  C   UNL A   1      42.977  30.765  30.231  1.00  0.00     0.074 A 
ATOM     38  C   UNL A   1      41.855  31.671  30.368  1.00  0.00     0.031 C 
ATOM     39  C   UNL A   1      44.257  31.084  30.536  1.00  0.00     0.037 A 
BRANCH  26  40
ATOM     40  C   UNL A   1      48.299  26.493  29.696  1.00  0.00     0.057 A 
ATOM     41  C   UNL A   1      49.223  26.704  28.665  1.00  0.00     0.134 A 
ATOM     42  C   UNL A   1      48.766  25.879  30.866  1.00  0.00     0.134 A 
ATOM     43  F   UNL A   1      48.837  27.276  27.514  1.00  0.00    -0.206 F 
ATOM     44  C   UNL A   1      50.557  26.310  28.788  1.00  0.00     0.040 A 
ATOM     45  C   UNL A   1      50.102  25.499  31.010  1.00  0.00     0.040 A 
ATOM     46  F   UNL A   1      47.936  25.652  31.894  1.00  0.00    -0.206 F 
ATOM     47  C   UNL A   1      51.001  25.713  29.967  1.00  0.00     0.006 A 
ENDBRANCH  26  40
BRANCH  27  48
ATOM     48  C   UNL A   1      38.701  29.185  29.081  1.00  0.00     0.057 A 
ATOM     49  C   UNL A   1      38.137  29.635  27.883  1.00  0.00     0.134 A 
ATOM     50  C   UNL A   1      37.864  29.113  30.202  1.00  0.00     0.134 A 
ATOM     51  F   UNL A   1      38.893  29.740  26.780  1.00  0.00    -0.206 F 
ATOM     52  C   UNL A   1      36.796  30.012  27.803  1.00  0.00     0.040 A 
ATOM     53  C   UNL A   1      36.514  29.461  30.130  1.00  0.00     0.040 A 
ATOM     54  F   UNL A   1      38.343  28.680  31.378  1.00  0.00    -0.206 F 
ATOM     55  C   UNL A   1      35.979  29.919  28.928  1.00  0.00     0.006 A 
ENDBRANCH  27  48
BRANCH  39  56
ATOM     56  C   UNL A   1      44.509  32.479  31.023  1.00  0.00     0.057 A 
ATOM     57  C   UNL A   1      44.501  32.794  32.387  1.00  0.00     0.134 A 
ATOM     58  C   UNL A   1      44.785  33.512  30.118  1.00  0.00     0.134 A 
ATOM     59  F   UNL A   1      44.228  31.851  33.302  1.00  0.00    -0.206 F 
ATOM     60  C   UNL A   1      44.735  34.095  32.835  1.00  0.00     0.040 A 
ATOM     61  C   UNL A   1      45.043  34.811  30.554  1.00  0.00     0.040 A 
ATOM     62  F   UNL A   1      44.813  33.272  28.799  1.00  0.00    -0.206 F 
ATOM     63  C   UNL A   1      45.013  35.106  31.916  1.00  0.00     0.006 A 
ENDBRANCH  39  56
ENDBRANCH  13  14
ENDBRANCH   6   8
ENDBRANCH   3   4
ENDBRANCH   2   3
ENDBRANCH   1   2
BRANCH   1  64
ATOM     64  N   UNL A   1      35.872  20.717  25.761  1.00  0.00    -0.352 N 
ATOM     65  C   UNL A   1      34.592  21.168  25.959  1.00  0.00     0.251 C 
ATOM     66  H   UNL A   1      36.286  20.298  26.549  1.00  0.00     0.163 HD
ATOM     67  O   UNL A   1      34.177  21.307  27.106  1.00  0.00    -0.269 OA
BRANCH  65  68
ATOM     68  C   UNL A   1      33.675  21.404  24.822  1.00  0.00     0.041 A 
ATOM     69  C   UNL A   1      32.956  20.345  24.264  1.00  0.00     0.014 A 
ATOM     70  C   UNL A   1      33.651  22.644  24.193  1.00  0.00     0.035 A 
ATOM     71  C   UNL A   1      32.198  20.549  23.104  1.00  0.00     0.002 A 
ATOM     72  C   UNL A   1      32.937  22.841  23.016  1.00  0.00     0.083 A 
ATOM     73  C   UNL A   1      32.190  21.798  22.472  1.00  0.00     0.022 A 
BRANCH  72  74
ATOM     74  S   UNL A   1      33.015  24.418  22.206  1.00  0.00     0.240 S 
ATOM     75  O   UNL A   1      33.861  25.288  22.985  1.00  0.00    -0.207 OA
ATOM     76  O   UNL A   1      33.248  24.145  20.806  1.00  0.00    -0.207 OA
BRANCH  74  77
ATOM     77  N   UNL A   1      31.420  24.987  22.290  1.00  0.00    -0.207 NA
ATOM     78  H   UNL A   1      30.880  24.428  21.628  1.00  0.00     0.141 HD
BRANCH  77  79
ATOM     79  C   UNL A   1      30.655  24.979  23.569  1.00  0.00     0.147 C 
BRANCH  79  80
ATOM     80  C   UNL A   1      29.974  26.302  23.986  1.00  0.00     0.226 C 
ATOM     81  C   UNL A   1      30.358  27.520  23.139  1.00  0.00     0.276 C 
ATOM     82  O   UNL A   1      30.266  26.558  25.377  1.00  0.00    -0.482 OA
ATOM     83  O   UNL A   1      31.754  27.809  23.231  1.00  0.00    -0.486 OA
ATOM     84  C   UNL A   1      31.374  27.337  25.581  1.00  0.00     0.161 A 
ATOM     85  C   UNL A   1      32.104  27.932  24.549  1.00  0.00     0.161 A 
ATOM     86  C   UNL A   1      31.755  27.543  26.903  1.00  0.00     0.050 A 
ATOM     87  C   UNL A   1      33.233  28.697  24.829  1.00  0.00     0.050 A 
ATOM     88  C   UNL A   1      32.870  28.333  27.191  1.00  0.00     0.004 A 
ATOM     89  C   UNL A   1      33.611  28.905  26.154  1.00  0.00     0.004 A 
ENDBRANCH  79  80
ENDBRANCH  77  79
ENDBRANCH  74  77
ENDBRANCH  72  74
ENDBRANCH  65  68
ENDBRANCH   1  64
TORSDOF 14
ENDMDL
MODEL 3
REMARK VINA RESULT:     -12.4      3.321      8.829
REMARK SMILES O=C(NCCCNC(=O)c1cccc(S(=O)(=O)NC[C@@H]2COc3ccccc3O2)c1)c1ccc(-c2c3nc(c(-c4c(F)cccc4F)c4ccc([nH]4)c(-c4c(F)cccc4F)c4nc(c(-c5c(F)cccc5F)c5ccc2[nH]5)C=C4)C=C3)cc1
REMARK SMILES IDX 6 1 5 2 4 3 3 4 1 5 2 6 31 8 32 9 84 10 33 11 83 12 34 13
REMARK SMILES IDX 35 14 36 15 77 16 37 17 82 18 76 19 78 20 38 21 81 22 75 23
REMARK SMILES IDX 74 24 39 26 65 27 48 28 64 29 49 30 52 31 63 32 79 33 50 34
REMARK SMILES IDX 51 35 62 37 80 38 53 39 40 40 41 41 46 42 42 43 43 44 45 45
REMARK SMILES IDX 47 46 44 47 66 48 67 49 72 50 68 51 69 52 71 53 73 54 70 55
REMARK SMILES IDX 54 56 55 57 60 58 56 59 57 60 59 61 61 62 58 63 7 64 8 65
REMARK SMILES IDX 9 67 10 68 11 69 30 70 12 71 14 72 13 73 15 74 16 75 17 76
REMARK SMILES IDX 18 77 19 79 20 80 21 81 29 82 22 83 28 84 23 85 27 86 24 87
REMARK SMILES IDX 26 88 25 89
REMARK H PARENT 3 7 78 25 52 36 7 66 18 78
REMARK Flexibility Score: inf
ROOT
ATOM      1  C   UNL A   1      31.786  30.489  26.594  1.00  0.00     0.118 C 
ENDROOT
BRANCH   1   2
ATOM      2  C   UNL A   1      31.461  31.946  26.872  1.00  0.00     0.042 C 
BRANCH   2   3
ATOM      3  C   UNL A   1      32.687  32.846  26.871  1.00  0.00     0.118 C 
BRANCH   3   4
ATOM      4  N   UNL A   1      32.481  34.074  27.627  1.00  0.00    -0.352 N 
ATOM      5  O   UNL A   1      32.701  35.536  29.323  1.00  0.00    -0.269 OA
ATOM      6  C   UNL A   1      33.171  34.589  28.698  1.00  0.00     0.251 C 
ATOM      7  H   UNL A   1      31.725  34.626  27.319  1.00  0.00     0.163 HD
BRANCH   6   8
ATOM      8  C   UNL A   1      34.459  33.997  29.118  1.00  0.00     0.039 A 
ATOM      9  C   UNL A   1      35.654  34.373  28.505  1.00  0.00     0.014 A 
ATOM     10  C   UNL A   1      34.481  33.079  30.173  1.00  0.00     0.014 A 
ATOM     11  C   UNL A   1      36.834  33.710  28.816  1.00  0.00     0.010 A 
ATOM     12  C   UNL A   1      35.690  32.497  30.568  1.00  0.00     0.010 A 
ATOM     13  C   UNL A   1      36.872  32.784  29.870  1.00  0.00    -0.014 A 
BRANCH  13  14
ATOM     14  C   UNL A   1      38.179  32.200  30.263  1.00  0.00     0.031 A 
ATOM     15  C   UNL A   1      39.057  32.862  31.286  1.00  0.00     0.074 A 
ATOM     16  C   UNL A   1      38.551  31.029  29.706  1.00  0.00     0.049 A 
ATOM     17  N   UNL A   1      40.215  32.467  31.752  1.00  0.00    -0.248 NA
ATOM     18  C   UNL A   1      38.582  34.132  31.857  1.00  0.00     0.031 C 
ATOM     19  C   UNL A   1      37.786  30.300  28.690  1.00  0.00     0.029 A 
ATOM     20  N   UNL A   1      39.645  30.235  29.927  1.00  0.00    -0.354 N 
ATOM     21  C   UNL A   1      40.619  33.447  32.650  1.00  0.00     0.074 A 
ATOM     22  C   UNL A   1      39.590  34.467  32.651  1.00  0.00     0.031 C 
ATOM     23  C   UNL A   1      38.405  29.142  28.418  1.00  0.00     0.029 A 
ATOM     24  C   UNL A   1      39.643  29.079  29.185  1.00  0.00     0.049 A 
ATOM     25  H   UNL A   1      40.365  30.470  30.557  1.00  0.00     0.167 HD
ATOM     26  C   UNL A   1      41.741  33.487  33.409  1.00  0.00     0.037 A 
ATOM     27  C   UNL A   1      40.544  28.084  29.113  1.00  0.00     0.037 A 
ATOM     28  C   UNL A   1      42.749  32.458  33.420  1.00  0.00     0.049 A 
ATOM     29  C   UNL A   1      41.782  28.161  29.956  1.00  0.00     0.074 A 
ATOM     30  C   UNL A   1      43.904  32.392  34.180  1.00  0.00     0.029 A 
ATOM     31  N   UNL A   1      42.723  31.316  32.634  1.00  0.00    -0.354 N 
ATOM     32  N   UNL A   1      42.134  29.083  30.819  1.00  0.00    -0.248 NA
ATOM     33  C   UNL A   1      42.750  27.068  29.808  1.00  0.00     0.031 C 
ATOM     34  C   UNL A   1      44.597  31.228  33.827  1.00  0.00     0.029 A 
ATOM     35  C   UNL A   1      43.851  30.548  32.877  1.00  0.00     0.049 A 
ATOM     36  H   UNL A   1      42.009  31.083  31.997  1.00  0.00     0.167 HD
ATOM     37  C   UNL A   1      43.358  28.675  31.328  1.00  0.00     0.074 A 
ATOM     38  C   UNL A   1      43.675  27.412  30.693  1.00  0.00     0.031 C 
ATOM     39  C   UNL A   1      44.150  29.293  32.236  1.00  0.00     0.037 A 
BRANCH  26  40
ATOM     40  C   UNL A   1      41.951  34.687  34.284  1.00  0.00     0.057 A 
ATOM     41  C   UNL A   1      41.541  34.711  35.622  1.00  0.00     0.134 A 
ATOM     42  C   UNL A   1      42.628  35.813  33.796  1.00  0.00     0.134 A 
ATOM     43  F   UNL A   1      40.878  33.669  36.148  1.00  0.00    -0.206 F 
ATOM     44  C   UNL A   1      41.785  35.815  36.442  1.00  0.00     0.040 A 
ATOM     45  C   UNL A   1      42.898  36.915  34.611  1.00  0.00     0.040 A 
ATOM     46  F   UNL A   1      43.054  35.855  32.525  1.00  0.00    -0.206 F 
ATOM     47  C   UNL A   1      42.473  36.918  35.938  1.00  0.00     0.006 A 
ENDBRANCH  26  40
BRANCH  27  48
ATOM     48  C   UNL A   1      40.307  26.938  28.201  1.00  0.00     0.057 A 
ATOM     49  C   UNL A   1      39.513  25.854  28.587  1.00  0.00     0.134 A 
ATOM     50  C   UNL A   1      40.862  26.908  26.915  1.00  0.00     0.134 A 
ATOM     51  F   UNL A   1      38.967  25.820  29.812  1.00  0.00    -0.206 F 
ATOM     52  C   UNL A   1      39.288  24.773  27.734  1.00  0.00     0.040 A 
ATOM     53  C   UNL A   1      40.624  25.846  26.041  1.00  0.00     0.040 A 
ATOM     54  F   UNL A   1      41.625  27.922  26.482  1.00  0.00    -0.206 F 
ATOM     55  C   UNL A   1      39.839  24.771  26.454  1.00  0.00     0.006 A 
ENDBRANCH  27  48
BRANCH  39  56
ATOM     56  C   UNL A   1      45.422  28.596  32.611  1.00  0.00     0.057 A 
ATOM     57  C   UNL A   1      46.627  28.857  31.947  1.00  0.00     0.134 A 
ATOM     58  C   UNL A   1      45.445  27.670  33.662  1.00  0.00     0.134 A 
ATOM     59  F   UNL A   1      46.665  29.722  30.922  1.00  0.00    -0.206 F 
ATOM     60  C   UNL A   1      47.808  28.202  32.300  1.00  0.00     0.040 A 
ATOM     61  C   UNL A   1      46.624  27.027  34.039  1.00  0.00     0.040 A 
ATOM     62  F   UNL A   1      44.325  27.382  34.340  1.00  0.00    -0.206 F 
ATOM     63  C   UNL A   1      47.808  27.289  33.353  1.00  0.00     0.006 A 
ENDBRANCH  39  56
ENDBRANCH  13  14
ENDBRANCH   6   8
ENDBRANCH   3   4
ENDBRANCH   2   3
ENDBRANCH   1   2
BRANCH   1  64
ATOM     64  N   UNL A   1      33.177  30.181  26.906  1.00  0.00    -0.352 N 
ATOM     65  C   UNL A   1      33.885  29.013  26.788  1.00  0.00     0.251 C 
ATOM     66  H   UNL A   1      33.693  30.940  27.262  1.00  0.00     0.163 HD
ATOM     67  O   UNL A   1      34.951  28.897  27.384  1.00  0.00    -0.269 OA
BRANCH  65  68
ATOM     68  C   UNL A   1      33.434  27.928  25.888  1.00  0.00     0.041 A 
ATOM     69  C   UNL A   1      33.677  28.005  24.515  1.00  0.00     0.014 A 
ATOM     70  C   UNL A   1      32.619  26.912  26.376  1.00  0.00     0.035 A 
ATOM     71  C   UNL A   1      33.129  27.046  23.654  1.00  0.00     0.002 A 
ATOM     72  C   UNL A   1      32.036  25.984  25.521  1.00  0.00     0.083 A 
ATOM     73  C   UNL A   1      32.301  26.033  24.154  1.00  0.00     0.022 A 
BRANCH  72  74
ATOM     74  S   UNL A   1      30.932  24.764  26.186  1.00  0.00     0.240 S 
ATOM     75  O   UNL A   1      31.581  24.125  27.304  1.00  0.00    -0.207 OA
ATOM     76  O   UNL A   1      29.638  25.398  26.289  1.00  0.00    -0.207 OA
BRANCH  74  77
ATOM     77  N   UNL A   1      30.778  23.639  24.927  1.00  0.00    -0.207 NA
ATOM     78  H   UNL A   1      31.246  24.048  24.118  1.00  0.00     0.141 HD
BRANCH  77  79
ATOM     79  C   UNL A   1      31.299  22.247  25.055  1.00  0.00     0.147 C 
BRANCH  79  80
ATOM     80  C   UNL A   1      32.218  21.737  23.923  1.00  0.00     0.226 C 
ATOM     81  C   UNL A   1      32.942  20.420  24.224  1.00  0.00     0.276 C 
ATOM     82  O   UNL A   1      33.180  22.765  23.603  1.00  0.00    -0.482 OA
ATOM     83  O   UNL A   1      33.817  20.543  25.346  1.00  0.00    -0.486 OA
ATOM     84  C   UNL A   1      34.360  22.659  24.290  1.00  0.00     0.161 A 
ATOM     85  C   UNL A   1      34.668  21.596  25.143  1.00  0.00     0.161 A 
ATOM     86  C   UNL A   1      35.291  23.673  24.090  1.00  0.00     0.050 A 
ATOM     87  C   UNL A   1      35.881  21.562  25.824  1.00  0.00     0.050 A 
ATOM     88  C   UNL A   1      36.521  23.630  24.748  1.00  0.00     0.004 A 
ATOM     89  C   UNL A   1      36.814  22.578  25.619  1.00  0.00     0.004 A 
ENDBRANCH  79  80
ENDBRANCH  77  79
ENDBRANCH  74  77
ENDBRANCH  72  74
ENDBRANCH  65  68
ENDBRANCH   1  64
TORSDOF 14
ENDMDL
