MODEL 1
REMARK VINA RESULT:     -11.5      0.000      0.000
REMARK SMILES CCOC(=O)C1=NN(c2ccc(C)cc2Cl)[C@@](C)(C(=O)NCCCNC(=O)c2ccc(-c3c4nc(c(-c5c(F)cccc5F)c5ccc([nH]5)c(-c5c(F)cccc5F)c5nc(c(-c6c(F)cccc6F)c6ccc3[nH]6)C=C5)C=C4)cc2)C1
REMARK SMILES IDX 22 1 21 2 19 3 20 4 17 6 6 7 7 8 82 9 8 10 18 11 4 12 5 13
REMARK SMILES IDX 3 14 2 15 1 16 9 17 10 18 15 19 11 20 14 21 16 22 12 23
REMARK SMILES IDX 13 24 23 25 24 26 25 27 26 28 27 30 28 31 29 32 81 33 30 34
REMARK SMILES IDX 80 35 31 36 32 37 33 38 74 39 34 40 79 41 73 42 75 43 35 44
REMARK SMILES IDX 78 45 72 46 71 47 36 49 62 50 45 51 61 52 46 53 49 54 60 55
REMARK SMILES IDX 76 56 47 57 48 58 59 60 77 61 50 62 37 63 38 64 43 65 39 66
REMARK SMILES IDX 40 67 42 68 44 69 41 70 63 71 64 72 69 73 65 74 66 75 68 76
REMARK SMILES IDX 70 77 67 78 51 79 52 80 57 81 53 82 54 83 56 84 58 85 55 86
REMARK H PARENT 21 5 25 29 75 48 49 59
REMARK Flexibility Score: inf
ROOT
ATOM      1  C   UNL A   1      31.414  27.437  26.748  1.00  0.00     0.117 C 
ENDROOT
BRANCH   1   2
ATOM      2  N   UNL A   1      31.450  26.031  27.100  1.00  0.00    -0.354 N 
ATOM      3  C   UNL A   1      31.910  24.906  26.494  1.00  0.00     0.248 C 
ATOM      4  O   UNL A   1      31.663  23.868  27.128  1.00  0.00    -0.272 OA
ATOM      5  H   UNL A   1      31.051  25.850  27.981  1.00  0.00     0.163 HD
BRANCH   3   6
ATOM      6  C   UNL A   1      32.703  24.854  25.151  1.00  0.00     0.144 C 
ATOM      7  C   UNL A   1      32.197  22.839  24.110  1.00  0.00     0.149 C 
ATOM      8  N   UNL A   1      31.451  23.699  23.492  1.00  0.00    -0.169 NA
ATOM      9  C   UNL A   1      33.251  23.404  24.995  1.00  0.00     0.106 C 
ATOM     10  N   UNL A   1      31.803  24.935  23.970  1.00  0.00    -0.248 N 
ATOM     11  C   UNL A   1      33.917  25.778  25.112  1.00  0.00     0.048 C 
BRANCH   7  12
ATOM     12  C   UNL A   1      32.093  21.349  23.932  1.00  0.00     0.354 C 
ATOM     13  O   UNL A   1      32.115  20.836  22.827  1.00  0.00    -0.245 OA
BRANCH  12  14
ATOM     14  O   UNL A   1      31.913  20.746  25.121  1.00  0.00    -0.461 OA
BRANCH  14  15
ATOM     15  C   UNL A   1      32.940  19.820  25.501  1.00  0.00     0.230 C 
ATOM     16  C   UNL A   1      32.546  18.400  25.140  1.00  0.00     0.049 C 
ENDBRANCH  14  15
ENDBRANCH  12  14
ENDBRANCH   7  12
BRANCH  10  17
ATOM     17  C   UNL A   1      31.084  26.038  23.520  1.00  0.00     0.079 A 
ATOM     18  C   UNL A   1      29.745  26.204  23.914  1.00  0.00     0.030 A 
ATOM     19  C   UNL A   1      31.640  27.066  22.726  1.00  0.00     0.066 A 
ATOM     20  C   UNL A   1      28.978  27.304  23.508  1.00  0.00     0.006 A 
ATOM     21  C   UNL A   1      30.877  28.178  22.328  1.00  0.00     0.026 A 
ATOM     22  Cl  UNL A   1      33.243  26.972  22.063  1.00  0.00    -0.082 Cl
ATOM     23  C   UNL A   1      29.540  28.303  22.714  1.00  0.00    -0.049 A 
ATOM     24  C   UNL A   1      28.718  29.459  22.228  1.00  0.00     0.044 C 
ENDBRANCH  10  17
ENDBRANCH   3   6
ENDBRANCH   1   2
BRANCH   1  25
ATOM     25  C   UNL A   1      32.331  28.289  27.622  1.00  0.00     0.042 C 
BRANCH  25  26
ATOM     26  C   UNL A   1      33.471  28.998  26.900  1.00  0.00     0.118 C 
BRANCH  26  27
ATOM     27  N   UNL A   1      33.490  30.429  27.148  1.00  0.00    -0.352 N 
ATOM     28  C   UNL A   1      34.399  31.197  27.833  1.00  0.00     0.251 C 
ATOM     29  H   UNL A   1      32.732  30.927  26.764  1.00  0.00     0.163 HD
ATOM     30  O   UNL A   1      34.131  32.372  28.071  1.00  0.00    -0.269 OA
BRANCH  28  31
ATOM     31  C   UNL A   1      35.686  30.636  28.310  1.00  0.00     0.039 A 
ATOM     32  C   UNL A   1      35.664  29.775  29.414  1.00  0.00     0.014 A 
ATOM     33  C   UNL A   1      36.912  30.999  27.742  1.00  0.00     0.014 A 
ATOM     34  C   UNL A   1      36.855  29.242  29.914  1.00  0.00     0.010 A 
ATOM     35  C   UNL A   1      38.098  30.431  28.212  1.00  0.00     0.010 A 
ATOM     36  C   UNL A   1      38.081  29.552  29.306  1.00  0.00    -0.014 A 
BRANCH  36  37
ATOM     37  C   UNL A   1      39.350  28.983  29.825  1.00  0.00     0.031 A 
ATOM     38  C   UNL A   1      39.968  29.525  31.084  1.00  0.00     0.074 A 
ATOM     39  C   UNL A   1      39.970  27.998  29.150  1.00  0.00     0.049 A 
ATOM     40  N   UNL A   1      41.103  29.201  31.651  1.00  0.00    -0.248 NA
ATOM     41  C   UNL A   1      39.221  30.580  31.787  1.00  0.00     0.031 C 
ATOM     42  C   UNL A   1      39.504  27.399  27.899  1.00  0.00     0.029 A 
ATOM     43  N   UNL A   1      41.135  27.327  29.429  1.00  0.00    -0.354 N 
ATOM     44  C   UNL A   1      41.231  30.044  32.745  1.00  0.00     0.074 A 
ATOM     45  C   UNL A   1      40.052  30.885  32.775  1.00  0.00     0.031 C 
ATOM     46  C   UNL A   1      40.361  26.433  27.530  1.00  0.00     0.029 A 
ATOM     47  C   UNL A   1      41.443  26.356  28.509  1.00  0.00     0.049 A 
ATOM     48  H   UNL A   1      41.696  27.523  30.214  1.00  0.00     0.167 HD
ATOM     49  C   UNL A   1      42.241  30.117  33.645  1.00  0.00     0.037 A 
ATOM     50  C   UNL A   1      42.477  25.498  28.461  1.00  0.00     0.037 A 
ATOM     51  C   UNL A   1      43.386  29.251  33.670  1.00  0.00     0.049 A 
ATOM     52  C   UNL A   1      43.529  25.527  29.530  1.00  0.00     0.074 A 
ATOM     53  C   UNL A   1      44.436  29.230  34.573  1.00  0.00     0.029 A 
ATOM     54  N   UNL A   1      43.622  28.236  32.758  1.00  0.00    -0.354 N 
ATOM     55  N   UNL A   1      43.633  26.328  30.559  1.00  0.00    -0.248 NA
ATOM     56  C   UNL A   1      44.606  24.531  29.426  1.00  0.00     0.031 C 
ATOM     57  C   UNL A   1      45.307  28.196  34.209  1.00  0.00     0.029 A 
ATOM     58  C   UNL A   1      44.796  27.576  33.082  1.00  0.00     0.049 A 
ATOM     59  H   UNL A   1      43.043  28.016  31.993  1.00  0.00     0.167 HD
ATOM     60  C   UNL A   1      44.783  25.936  31.228  1.00  0.00     0.074 A 
ATOM     61  C   UNL A   1      45.340  24.819  30.493  1.00  0.00     0.031 C 
ATOM     62  C   UNL A   1      45.331  26.461  32.349  1.00  0.00     0.037 A 
BRANCH  49  63
ATOM     63  C   UNL A   1      42.150  31.195  34.676  1.00  0.00     0.057 A 
ATOM     64  C   UNL A   1      41.536  30.973  35.914  1.00  0.00     0.134 A 
ATOM     65  C   UNL A   1      42.699  32.459  34.434  1.00  0.00     0.134 A 
ATOM     66  F   UNL A   1      40.981  29.785  36.194  1.00  0.00    -0.206 F 
ATOM     67  C   UNL A   1      41.466  31.980  36.877  1.00  0.00     0.040 A 
ATOM     68  C   UNL A   1      42.639  33.472  35.391  1.00  0.00     0.040 A 
ATOM     69  F   UNL A   1      43.294  32.729  33.263  1.00  0.00    -0.206 F 
ATOM     70  C   UNL A   1      42.020  33.233  36.617  1.00  0.00     0.006 A 
ENDBRANCH  49  63
BRANCH  50  71
ATOM     71  C   UNL A   1      42.557  24.510  27.364  1.00  0.00     0.057 A 
ATOM     72  C   UNL A   1      42.029  23.224  27.520  1.00  0.00     0.134 A 
ATOM     73  C   UNL A   1      43.159  24.828  26.144  1.00  0.00     0.134 A 
ATOM     74  F   UNL A   1      41.453  22.866  28.676  1.00  0.00    -0.206 F 
ATOM     75  C   UNL A   1      42.100  22.282  26.494  1.00  0.00     0.040 A 
ATOM     76  C   UNL A   1      43.233  23.897  25.108  1.00  0.00     0.040 A 
ATOM     77  F   UNL A   1      43.685  26.046  25.946  1.00  0.00    -0.206 F 
ATOM     78  C   UNL A   1      42.703  22.618  25.283  1.00  0.00     0.006 A 
ENDBRANCH  50  71
BRANCH  62  79
ATOM     79  C   UNL A   1      46.585  25.825  32.852  1.00  0.00     0.057 A 
ATOM     80  C   UNL A   1      46.546  24.806  33.809  1.00  0.00     0.134 A 
ATOM     81  C   UNL A   1      47.836  26.217  32.361  1.00  0.00     0.134 A 
ATOM     82  F   UNL A   1      45.375  24.398  34.321  1.00  0.00    -0.206 F 
ATOM     83  C   UNL A   1      47.714  24.195  34.265  1.00  0.00     0.040 A 
ATOM     84  C   UNL A   1      49.010  25.611  32.809  1.00  0.00     0.040 A 
ATOM     85  F   UNL A   1      47.933  27.195  31.449  1.00  0.00    -0.206 F 
ATOM     86  C   UNL A   1      48.951  24.596  33.763  1.00  0.00     0.006 A 
ENDBRANCH  62  79
ENDBRANCH  36  37
ENDBRANCH  28  31
ENDBRANCH  26  27
ENDBRANCH  25  26
ENDBRANCH   1  25
TORSDOF 14
ENDMDL
MODEL 2
REMARK VINA RESULT:     -11.5      2.793      7.590
REMARK SMILES CCOC(=O)C1=NN(c2ccc(C)cc2Cl)[C@@](C)(C(=O)NCCCNC(=O)c2ccc(-c3c4nc(c(-c5c(F)cccc5F)c5ccc([nH]5)c(-c5c(F)cccc5F)c5nc(c(-c6c(F)cccc6F)c6ccc3[nH]6)C=C5)C=C4)cc2)C1
REMARK SMILES IDX 22 1 21 2 19 3 20 4 17 6 6 7 7 8 82 9 8 10 18 11 4 12 5 13
REMARK SMILES IDX 3 14 2 15 1 16 9 17 10 18 15 19 11 20 14 21 16 22 12 23
REMARK SMILES IDX 13 24 23 25 24 26 25 27 26 28 27 30 28 31 29 32 81 33 30 34
REMARK SMILES IDX 80 35 31 36 32 37 33 38 74 39 34 40 79 41 73 42 75 43 35 44
REMARK SMILES IDX 78 45 72 46 71 47 36 49 62 50 45 51 61 52 46 53 49 54 60 55
REMARK SMILES IDX 76 56 47 57 48 58 59 60 77 61 50 62 37 63 38 64 43 65 39 66
REMARK SMILES IDX 40 67 42 68 44 69 41 70 63 71 64 72 69 73 65 74 66 75 68 76
REMARK SMILES IDX 70 77 67 78 51 79 52 80 57 81 53 82 54 83 56 84 58 85 55 86
REMARK H PARENT 21 5 25 29 75 48 49 59
REMARK Flexibility Score: inf
ROOT
ATOM      1  C   UNL A   1      33.341  30.190  27.297  1.00  0.00     0.117 C 
ENDROOT
BRANCH   1   2
ATOM      2  N   UNL A   1      33.700  29.720  25.973  1.00  0.00    -0.354 N 
ATOM      3  C   UNL A   1      33.194  28.796  25.117  1.00  0.00     0.248 C 
ATOM      4  O   UNL A   1      33.873  28.650  24.090  1.00  0.00    -0.272 OA
ATOM      5  H   UNL A   1      34.492  30.178  25.611  1.00  0.00     0.163 HD
BRANCH   3   6
ATOM      6  C   UNL A   1      31.879  27.982  25.329  1.00  0.00     0.144 C 
ATOM      7  C   UNL A   1      30.538  28.308  23.461  1.00  0.00     0.149 C 
ATOM      8  N   UNL A   1      31.076  27.147  23.253  1.00  0.00    -0.169 NA
ATOM      9  C   UNL A   1      30.701  28.870  24.828  1.00  0.00     0.106 C 
ATOM     10  N   UNL A   1      31.777  26.834  24.389  1.00  0.00    -0.248 N 
ATOM     11  C   UNL A   1      31.580  27.658  26.790  1.00  0.00     0.048 C 
BRANCH   7  12
ATOM     12  C   UNL A   1      29.731  29.058  22.437  1.00  0.00     0.354 C 
ATOM     13  O   UNL A   1      30.262  29.650  21.515  1.00  0.00    -0.245 OA
BRANCH  12  14
ATOM     14  O   UNL A   1      28.422  29.016  22.748  1.00  0.00    -0.461 OA
BRANCH  14  15
ATOM     15  C   UNL A   1      27.683  30.209  22.454  1.00  0.00     0.230 C 
ATOM     16  C   UNL A   1      27.733  31.175  23.623  1.00  0.00     0.049 C 
ENDBRANCH  14  15
ENDBRANCH  12  14
ENDBRANCH   7  12
BRANCH  10  17
ATOM     17  C   UNL A   1      32.522  25.659  24.394  1.00  0.00     0.079 A 
ATOM     18  C   UNL A   1      33.720  25.592  23.662  1.00  0.00     0.030 A 
ATOM     19  C   UNL A   1      32.183  24.518  25.156  1.00  0.00     0.066 A 
ATOM     20  C   UNL A   1      34.521  24.443  23.645  1.00  0.00     0.006 A 
ATOM     21  C   UNL A   1      32.991  23.369  25.150  1.00  0.00     0.026 A 
ATOM     22  Cl  UNL A   1      30.688  24.389  26.030  1.00  0.00    -0.082 Cl
ATOM     23  C   UNL A   1      34.165  23.322  24.394  1.00  0.00    -0.049 A 
ATOM     24  C   UNL A   1      34.984  22.067  24.344  1.00  0.00     0.044 C 
ENDBRANCH  10  17
ENDBRANCH   3   6
ENDBRANCH   1   2
BRANCH   1  25
ATOM     25  C   UNL A   1      32.257  31.265  27.269  1.00  0.00     0.042 C 
BRANCH  25  26
ATOM     26  C   UNL A   1      32.651  32.593  26.635  1.00  0.00     0.118 C 
BRANCH  26  27
ATOM     27  N   UNL A   1      32.368  33.732  27.491  1.00  0.00    -0.352 N 
ATOM     28  C   UNL A   1      33.061  34.222  28.570  1.00  0.00     0.251 C 
ATOM     29  H   UNL A   1      31.551  34.231  27.262  1.00  0.00     0.163 HD
ATOM     30  O   UNL A   1      32.550  35.099  29.262  1.00  0.00    -0.269 OA
BRANCH  28  31
ATOM     31  C   UNL A   1      34.403  33.703  28.932  1.00  0.00     0.039 A 
ATOM     32  C   UNL A   1      34.492  32.762  29.964  1.00  0.00     0.014 A 
ATOM     33  C   UNL A   1      35.572  34.178  28.328  1.00  0.00     0.014 A 
ATOM     34  C   UNL A   1      35.738  32.264  30.356  1.00  0.00     0.010 A 
ATOM     35  C   UNL A   1      36.813  33.647  28.688  1.00  0.00     0.010 A 
ATOM     36  C   UNL A   1      36.907  32.690  29.709  1.00  0.00    -0.014 A 
BRANCH  36  37
ATOM     37  C   UNL A   1      38.233  32.158  30.113  1.00  0.00     0.031 A 
ATOM     38  C   UNL A   1      38.748  30.873  29.527  1.00  0.00     0.074 A 
ATOM     39  C   UNL A   1      38.966  32.811  31.033  1.00  0.00     0.049 A 
ATOM     40  N   UNL A   1      39.848  30.221  29.809  1.00  0.00    -0.248 NA
ATOM     41  C   UNL A   1      37.909  30.228  28.506  1.00  0.00     0.031 C 
ATOM     42  C   UNL A   1      38.577  34.049  31.709  1.00  0.00     0.029 A 
ATOM     43  N   UNL A   1      40.200  32.516  31.558  1.00  0.00    -0.354 N 
ATOM     44  C   UNL A   1      39.810  29.067  29.040  1.00  0.00     0.074 A 
ATOM     45  C   UNL A   1      38.586  29.113  28.266  1.00  0.00     0.031 C 
ATOM     46  C   UNL A   1      39.563  34.422  32.541  1.00  0.00     0.029 A 
ATOM     47  C   UNL A   1      40.644  33.441  32.470  1.00  0.00     0.049 A 
ATOM     48  H   UNL A   1      40.717  31.718  31.305  1.00  0.00     0.167 HD
ATOM     49  C   UNL A   1      40.709  28.056  28.983  1.00  0.00     0.037 A 
ATOM     50  C   UNL A   1      41.793  33.496  33.166  1.00  0.00     0.037 A 
ATOM     51  C   UNL A   1      41.957  28.023  29.693  1.00  0.00     0.049 A 
ATOM     52  C   UNL A   1      42.822  32.417  33.005  1.00  0.00     0.074 A 
ATOM     53  C   UNL A   1      42.947  27.055  29.659  1.00  0.00     0.029 A 
ATOM     54  N   UNL A   1      42.397  29.015  30.553  1.00  0.00    -0.354 N 
ATOM     55  N   UNL A   1      42.772  31.335  32.271  1.00  0.00    -0.248 NA
ATOM     56  C   UNL A   1      44.068  32.570  33.773  1.00  0.00     0.031 C 
ATOM     57  C   UNL A   1      43.990  27.465  30.498  1.00  0.00     0.029 A 
ATOM     58  C   UNL A   1      43.648  28.687  31.050  1.00  0.00     0.049 A 
ATOM     59  H   UNL A   1      41.896  29.831  30.779  1.00  0.00     0.167 HD
ATOM     60  C   UNL A   1      43.974  30.678  32.484  1.00  0.00     0.074 A 
ATOM     61  C   UNL A   1      44.740  31.486  33.411  1.00  0.00     0.031 C 
ATOM     62  C   UNL A   1      44.401  29.505  31.960  1.00  0.00     0.037 A 
BRANCH  49  63
ATOM     63  C   UNL A   1      40.357  26.887  28.122  1.00  0.00     0.057 A 
ATOM     64  C   UNL A   1      40.880  26.744  26.832  1.00  0.00     0.134 A 
ATOM     65  C   UNL A   1      39.502  25.886  28.597  1.00  0.00     0.134 A 
ATOM     66  F   UNL A   1      41.694  27.679  26.321  1.00  0.00    -0.206 F 
ATOM     67  C   UNL A   1      40.557  25.643  26.038  1.00  0.00     0.040 A 
ATOM     68  C   UNL A   1      39.176  24.778  27.815  1.00  0.00     0.040 A 
ATOM     69  F   UNL A   1      38.967  25.975  29.824  1.00  0.00    -0.206 F 
ATOM     70  C   UNL A   1      39.704  24.655  26.531  1.00  0.00     0.006 A 
ENDBRANCH  49  63
BRANCH  50  71
ATOM     71  C   UNL A   1      42.046  34.638  34.071  1.00  0.00     0.057 A 
ATOM     72  C   UNL A   1      42.595  35.828  33.583  1.00  0.00     0.134 A 
ATOM     73  C   UNL A   1      41.745  34.564  35.433  1.00  0.00     0.134 A 
ATOM     74  F   UNL A   1      42.913  35.943  32.286  1.00  0.00    -0.206 F 
ATOM     75  C   UNL A   1      42.842  36.912  34.425  1.00  0.00     0.040 A 
ATOM     76  C   UNL A   1      41.982  35.642  36.286  1.00  0.00     0.040 A 
ATOM     77  F   UNL A   1      41.221  33.444  35.951  1.00  0.00    -0.206 F 
ATOM     78  C   UNL A   1      42.533  36.821  35.782  1.00  0.00     0.006 A 
ENDBRANCH  50  71
BRANCH  62  79
ATOM     79  C   UNL A   1      45.759  29.035  32.369  1.00  0.00     0.057 A 
ATOM     80  C   UNL A   1      45.933  28.198  33.476  1.00  0.00     0.134 A 
ATOM     81  C   UNL A   1      46.896  29.401  31.638  1.00  0.00     0.134 A 
ATOM     82  F   UNL A   1      44.879  27.825  34.217  1.00  0.00    -0.206 F 
ATOM     83  C   UNL A   1      47.197  27.741  33.847  1.00  0.00     0.040 A 
ATOM     84  C   UNL A   1      48.164  28.947  31.999  1.00  0.00     0.040 A 
ATOM     85  F   UNL A   1      46.788  30.208  30.572  1.00  0.00    -0.206 F 
ATOM     86  C   UNL A   1      48.318  28.114  33.106  1.00  0.00     0.006 A 
ENDBRANCH  62  79
ENDBRANCH  36  37
ENDBRANCH  28  31
ENDBRANCH  26  27
ENDBRANCH  25  26
ENDBRANCH   1  25
TORSDOF 14
ENDMDL
MODEL 3
REMARK VINA RESULT:     -11.4      1.426      3.343
REMARK SMILES CCOC(=O)C1=NN(c2ccc(C)cc2Cl)[C@@](C)(C(=O)NCCCNC(=O)c2ccc(-c3c4nc(c(-c5c(F)cccc5F)c5ccc([nH]5)c(-c5c(F)cccc5F)c5nc(c(-c6c(F)cccc6F)c6ccc3[nH]6)C=C5)C=C4)cc2)C1
REMARK SMILES IDX 22 1 21 2 19 3 20 4 17 6 6 7 7 8 82 9 8 10 18 11 4 12 5 13
REMARK SMILES IDX 3 14 2 15 1 16 9 17 10 18 15 19 11 20 14 21 16 22 12 23
REMARK SMILES IDX 13 24 23 25 24 26 25 27 26 28 27 30 28 31 29 32 81 33 30 34
REMARK SMILES IDX 80 35 31 36 32 37 33 38 74 39 34 40 79 41 73 42 75 43 35 44
REMARK SMILES IDX 78 45 72 46 71 47 36 49 62 50 45 51 61 52 46 53 49 54 60 55
REMARK SMILES IDX 76 56 47 57 48 58 59 60 77 61 50 62 37 63 38 64 43 65 39 66
REMARK SMILES IDX 40 67 42 68 44 69 41 70 63 71 64 72 69 73 65 74 66 75 68 76
REMARK SMILES IDX 70 77 67 78 51 79 52 80 57 81 53 82 54 83 56 84 58 85 55 86
REMARK H PARENT 21 5 25 29 75 48 49 59
REMARK Flexibility Score: inf
ROOT
ATOM      1  C   UNL A   1      31.858  27.614  26.418  1.00  0.00     0.117 C 
ENDROOT
BRANCH   1   2
ATOM      2  N   UNL A   1      31.440  26.279  26.797  1.00  0.00    -0.354 N 
ATOM      3  C   UNL A   1      31.113  25.150  26.116  1.00  0.00     0.248 C 
ATOM      4  O   UNL A   1      30.725  24.227  26.848  1.00  0.00    -0.272 OA
ATOM      5  H   UNL A   1      31.380  26.163  27.773  1.00  0.00     0.163 HD
BRANCH   3   6
ATOM      6  C   UNL A   1      31.219  24.956  24.571  1.00  0.00     0.144 C 
ATOM      7  C   UNL A   1      31.429  27.060  23.608  1.00  0.00     0.149 C 
ATOM      8  N   UNL A   1      32.643  26.607  23.622  1.00  0.00    -0.169 NA
ATOM      9  C   UNL A   1      30.358  26.072  23.906  1.00  0.00     0.106 C 
ATOM     10  N   UNL A   1      32.569  25.308  24.057  1.00  0.00    -0.248 N 
ATOM     11  C   UNL A   1      30.657  23.628  24.074  1.00  0.00     0.048 C 
BRANCH   7  12
ATOM     12  C   UNL A   1      31.061  28.474  23.253  1.00  0.00     0.354 C 
ATOM     13  O   UNL A   1      31.857  29.226  22.719  1.00  0.00    -0.245 OA
BRANCH  12  14
ATOM     14  O   UNL A   1      29.811  28.753  23.668  1.00  0.00    -0.461 OA
BRANCH  14  15
ATOM     15  C   UNL A   1      29.008  29.494  22.741  1.00  0.00     0.230 C 
ATOM     16  C   UNL A   1      27.541  29.136  22.892  1.00  0.00     0.049 C 
ENDBRANCH  14  15
ENDBRANCH  12  14
ENDBRANCH   7  12
BRANCH  10  17
ATOM     17  C   UNL A   1      33.760  24.612  24.241  1.00  0.00     0.079 A 
ATOM     18  C   UNL A   1      34.549  24.871  25.374  1.00  0.00     0.030 A 
ATOM     19  C   UNL A   1      34.211  23.588  23.378  1.00  0.00     0.066 A 
ATOM     20  C   UNL A   1      35.747  24.188  25.621  1.00  0.00     0.006 A 
ATOM     21  C   UNL A   1      35.405  22.892  23.630  1.00  0.00     0.026 A 
ATOM     22  Cl  UNL A   1      33.417  23.212  21.879  1.00  0.00    -0.082 Cl
ATOM     23  C   UNL A   1      36.184  23.189  24.752  1.00  0.00    -0.049 A 
ATOM     24  C   UNL A   1      37.489  22.487  24.975  1.00  0.00     0.044 C 
ENDBRANCH  10  17
ENDBRANCH   3   6
ENDBRANCH   1   2
BRANCH   1  25
ATOM     25  C   UNL A   1      33.292  27.927  26.839  1.00  0.00     0.042 C 
BRANCH  25  26
ATOM     26  C   UNL A   1      33.983  29.048  26.073  1.00  0.00     0.118 C 
BRANCH  26  27
ATOM     27  N   UNL A   1      33.799  30.349  26.692  1.00  0.00    -0.352 N 
ATOM     28  C   UNL A   1      34.522  30.970  27.680  1.00  0.00     0.251 C 
ATOM     29  H   UNL A   1      33.035  30.867  26.349  1.00  0.00     0.163 HD
ATOM     30  O   UNL A   1      34.087  32.005  28.179  1.00  0.00    -0.269 OA
BRANCH  28  31
ATOM     31  C   UNL A   1      35.804  30.410  28.172  1.00  0.00     0.039 A 
ATOM     32  C   UNL A   1      35.792  29.681  29.367  1.00  0.00     0.014 A 
ATOM     33  C   UNL A   1      37.019  30.652  27.523  1.00  0.00     0.014 A 
ATOM     34  C   UNL A   1      36.981  29.156  29.882  1.00  0.00     0.010 A 
ATOM     35  C   UNL A   1      38.200  30.089  28.013  1.00  0.00     0.010 A 
ATOM     36  C   UNL A   1      38.192  29.341  29.199  1.00  0.00    -0.014 A 
BRANCH  36  37
ATOM     37  C   UNL A   1      39.457  28.779  29.735  1.00  0.00     0.031 A 
ATOM     38  C   UNL A   1      40.070  29.342  30.987  1.00  0.00     0.074 A 
ATOM     39  C   UNL A   1      40.079  27.780  29.081  1.00  0.00     0.049 A 
ATOM     40  N   UNL A   1      41.202  29.027  31.566  1.00  0.00    -0.248 NA
ATOM     41  C   UNL A   1      39.323  30.411  31.667  1.00  0.00     0.031 C 
ATOM     42  C   UNL A   1      39.617  27.161  27.839  1.00  0.00     0.029 A 
ATOM     43  N   UNL A   1      41.241  27.112  29.378  1.00  0.00    -0.354 N 
ATOM     44  C   UNL A   1      41.327  29.889  32.645  1.00  0.00     0.074 A 
ATOM     45  C   UNL A   1      40.149  30.732  32.653  1.00  0.00     0.031 C 
ATOM     46  C   UNL A   1      40.474  26.186  27.492  1.00  0.00     0.029 A 
ATOM     47  C   UNL A   1      41.551  26.124  28.477  1.00  0.00     0.049 A 
ATOM     48  H   UNL A   1      41.799  27.321  30.162  1.00  0.00     0.167 HD
ATOM     49  C   UNL A   1      42.332  29.976  33.548  1.00  0.00     0.037 A 
ATOM     50  C   UNL A   1      42.584  25.263  28.450  1.00  0.00     0.037 A 
ATOM     51  C   UNL A   1      43.476  29.108  33.594  1.00  0.00     0.049 A 
ATOM     52  C   UNL A   1      43.630  25.310  29.523  1.00  0.00     0.074 A 
ATOM     53  C   UNL A   1      44.521  29.101  34.503  1.00  0.00     0.029 A 
ATOM     54  N   UNL A   1      43.714  28.077  32.702  1.00  0.00    -0.354 N 
ATOM     55  N   UNL A   1      43.731  26.129  30.538  1.00  0.00    -0.248 NA
ATOM     56  C   UNL A   1      44.706  24.310  29.443  1.00  0.00     0.031 C 
ATOM     57  C   UNL A   1      45.392  28.059  34.161  1.00  0.00     0.029 A 
ATOM     58  C   UNL A   1      44.885  27.420  33.043  1.00  0.00     0.049 A 
ATOM     59  H   UNL A   1      43.138  27.844  31.938  1.00  0.00     0.167 HD
ATOM     60  C   UNL A   1      44.878  25.747  31.219  1.00  0.00     0.074 A 
ATOM     61  C   UNL A   1      45.436  24.616  30.507  1.00  0.00     0.031 C 
ATOM     62  C   UNL A   1      45.421  26.291  32.333  1.00  0.00     0.037 A 
BRANCH  49  63
ATOM     63  C   UNL A   1      42.239  31.072  34.559  1.00  0.00     0.057 A 
ATOM     64  C   UNL A   1      41.630  30.871  35.802  1.00  0.00     0.134 A 
ATOM     65  C   UNL A   1      42.781  32.335  34.291  1.00  0.00     0.134 A 
ATOM     66  F   UNL A   1      41.083  29.685  36.107  1.00  0.00    -0.206 F 
ATOM     67  C   UNL A   1      41.557  31.896  36.747  1.00  0.00     0.040 A 
ATOM     68  C   UNL A   1      42.718  33.365  35.229  1.00  0.00     0.040 A 
ATOM     69  F   UNL A   1      43.370  32.586  33.113  1.00  0.00    -0.206 F 
ATOM     70  C   UNL A   1      42.104  33.146  36.461  1.00  0.00     0.006 A 
ENDBRANCH  49  63
BRANCH  50  71
ATOM     71  C   UNL A   1      42.667  24.256  27.371  1.00  0.00     0.057 A 
ATOM     72  C   UNL A   1      42.132  22.975  27.546  1.00  0.00     0.134 A 
ATOM     73  C   UNL A   1      43.278  24.549  26.150  1.00  0.00     0.134 A 
ATOM     74  F   UNL A   1      41.547  22.641  28.705  1.00  0.00    -0.206 F 
ATOM     75  C   UNL A   1      42.207  22.014  26.539  1.00  0.00     0.040 A 
ATOM     76  C   UNL A   1      43.356  23.599  25.132  1.00  0.00     0.040 A 
ATOM     77  F   UNL A   1      43.811  25.761  25.934  1.00  0.00    -0.206 F 
ATOM     78  C   UNL A   1      42.819  22.326  25.325  1.00  0.00     0.006 A 
ENDBRANCH  50  71
BRANCH  62  79
ATOM     79  C   UNL A   1      46.671  25.662  32.854  1.00  0.00     0.057 A 
ATOM     80  C   UNL A   1      46.625  24.658  33.827  1.00  0.00     0.134 A 
ATOM     81  C   UNL A   1      47.926  26.044  32.364  1.00  0.00     0.134 A 
ATOM     82  F   UNL A   1      45.451  24.261  34.339  1.00  0.00    -0.206 F 
ATOM     83  C   UNL A   1      47.790  24.053  34.300  1.00  0.00     0.040 A 
ATOM     84  C   UNL A   1      49.096  25.444  32.828  1.00  0.00     0.040 A 
ATOM     85  F   UNL A   1      48.029  27.007  31.437  1.00  0.00    -0.206 F 
ATOM     86  C   UNL A   1      49.031  24.445  33.799  1.00  0.00     0.006 A 
ENDBRANCH  62  79
ENDBRANCH  36  37
ENDBRANCH  28  31
ENDBRANCH  26  27
ENDBRANCH  25  26
ENDBRANCH   1  25
TORSDOF 14
ENDMDL
