MODEL 1
REMARK VINA RESULT:     -13.2      0.000      0.000
REMARK SMILES COc1ccccc1[C@@H]1C[N@@H+](Cc2cn3cc(C)ccc3n2)C[C@H]1C(=O)NCCCNC(=O)c1ccc(-c2c3nc(c(-c4c(F)cccc4F)c4ccc([nH]4)c(-c4c(F)cccc4F)c4nc(c(-c5c(F)cccc5F)c5ccc2[nH]5)C=C4)C=C3)cc1
REMARK SMILES IDX 29 1 28 2 27 3 25 4 26 5 24 7 9 8 10 9 11 10 23 11 8 13 3 14
REMARK SMILES IDX 4 15 5 16 7 17 6 18 2 19 1 20 12 21 13 22 14 23 22 24 15 25
REMARK SMILES IDX 21 26 16 27 20 28 17 29 19 30 18 31 30 32 31 33 32 34 33 36
REMARK SMILES IDX 34 37 35 38 87 39 36 40 86 41 37 42 38 43 39 44 80 45 40 46
REMARK SMILES IDX 85 47 79 48 81 49 41 50 84 51 78 52 77 53 42 55 68 56 51 57
REMARK SMILES IDX 67 58 52 59 55 60 66 61 82 62 53 63 54 64 65 66 83 67 56 68
REMARK SMILES IDX 43 69 44 70 49 71 45 72 46 73 48 74 50 75 47 76 69 77 70 78
REMARK SMILES IDX 75 79 71 80 72 81 74 82 76 83 73 84 57 85 58 86 63 87 59 88
REMARK SMILES IDX 60 89 62 90 64 91 61 92
REMARK H PARENT 27 6 11 12 31 35 81 54 55 65
REMARK Flexibility Score: inf
ROOT
ATOM      1  C   UNL A   1      32.691  30.142  26.669  1.00  0.00     0.042 C 
ENDROOT
BRANCH   1   2
ATOM      2  C   UNL A   1      32.407  28.691  27.118  1.00  0.00     0.117 C 
BRANCH   2   3
ATOM      3  N   UNL A   1      33.275  27.640  26.586  1.00  0.00    -0.356 N 
ATOM      4  C   UNL A   1      33.169  26.376  26.095  1.00  0.00     0.229 C 
ATOM      5  O   UNL A   1      34.260  25.908  25.720  1.00  0.00    -0.275 OA
ATOM      6  H   UNL A   1      34.215  27.935  26.582  1.00  0.00     0.163 HD
BRANCH   4   7
ATOM      7  C   UNL A   1      31.914  25.506  25.888  1.00  0.00     0.146 C 
ATOM      8  C   UNL A   1      31.486  25.392  24.393  1.00  0.00     0.096 C 
ATOM      9  C   UNL A   1      30.985  23.947  24.232  1.00  0.00     0.272 C 
ATOM     10  N   UNL A   1      31.744  23.160  25.206  1.00  0.00    -0.329 N 
ATOM     11  C   UNL A   1      31.885  24.055  26.361  1.00  0.00     0.276 C 
ATOM     12  H   UNL A   1      31.249  22.304  25.460  1.00  0.00     0.348 HD
BRANCH   8  13
ATOM     13  C   UNL A   1      30.654  26.430  23.662  1.00  0.00     0.004 A 
ATOM     14  C   UNL A   1      31.150  27.483  22.885  1.00  0.00     0.122 A 
ATOM     15  C   UNL A   1      30.301  28.515  22.454  1.00  0.00     0.047 A 
ATOM     16  C   UNL A   1      28.944  28.507  22.777  1.00  0.00     0.004 A 
ATOM     17  C   UNL A   1      29.266  26.430  23.943  1.00  0.00     0.008 A 
ATOM     18  C   UNL A   1      28.423  27.458  23.521  1.00  0.00     0.001 A 
BRANCH  14  19
ATOM     19  O   UNL A   1      32.484  27.655  22.643  1.00  0.00    -0.496 OA
ATOM     20  C   UNL A   1      32.960  28.900  23.142  1.00  0.00     0.278 C 
ENDBRANCH  14  19
ENDBRANCH   8  13
BRANCH  10  21
ATOM     21  C   UNL A   1      32.989  22.529  24.710  1.00  0.00     0.321 C 
BRANCH  21  22
ATOM     22  C   UNL A   1      33.119  21.033  24.841  1.00  0.00     0.114 A 
ATOM     23  C   UNL A   1      32.175  20.063  25.140  1.00  0.00     0.122 A 
ATOM     24  N   UNL A   1      34.337  20.426  24.683  1.00  0.00    -0.228 NA
ATOM     25  N   UNL A   1      32.826  18.849  25.054  1.00  0.00    -0.306 N 
ATOM     26  C   UNL A   1      34.123  19.134  24.674  1.00  0.00     0.137 A 
ATOM     27  C   UNL A   1      32.382  17.548  25.284  1.00  0.00     0.096 A 
ATOM     28  C   UNL A   1      34.977  18.052  24.338  1.00  0.00     0.048 A 
ATOM     29  C   UNL A   1      33.226  16.513  25.080  1.00  0.00    -0.034 A 
ATOM     30  C   UNL A   1      34.549  16.794  24.526  1.00  0.00     0.009 A 
ATOM     31  C   UNL A   1      32.880  15.090  25.380  1.00  0.00     0.046 C 
ENDBRANCH  21  22
ENDBRANCH  10  21
ENDBRANCH   4   7
ENDBRANCH   2   3
ENDBRANCH   1   2
BRANCH   1  32
ATOM     32  C   UNL A   1      34.014  30.671  27.197  1.00  0.00     0.118 C 
BRANCH  32  33
ATOM     33  N   UNL A   1      33.893  31.578  28.330  1.00  0.00    -0.352 N 
ATOM     34  C   UNL A   1      34.793  31.880  29.322  1.00  0.00     0.251 C 
ATOM     35  H   UNL A   1      33.031  32.049  28.394  1.00  0.00     0.163 HD
ATOM     36  O   UNL A   1      34.456  32.707  30.186  1.00  0.00    -0.269 OA
BRANCH  34  37
ATOM     37  C   UNL A   1      36.131  31.239  29.426  1.00  0.00     0.039 A 
ATOM     38  C   UNL A   1      36.202  29.877  29.756  1.00  0.00     0.014 A 
ATOM     39  C   UNL A   1      37.323  31.936  29.229  1.00  0.00     0.014 A 
ATOM     40  C   UNL A   1      37.440  29.235  29.855  1.00  0.00     0.010 A 
ATOM     41  C   UNL A   1      38.544  31.283  29.239  1.00  0.00     0.010 A 
ATOM     42  C   UNL A   1      38.620  29.942  29.598  1.00  0.00    -0.014 A 
BRANCH  42  43
ATOM     43  C   UNL A   1      39.921  29.271  29.662  1.00  0.00     0.031 A 
ATOM     44  C   UNL A   1      40.528  29.075  31.009  1.00  0.00     0.074 A 
ATOM     45  C   UNL A   1      40.498  28.616  28.631  1.00  0.00     0.049 A 
ATOM     46  N   UNL A   1      41.652  29.529  31.462  1.00  0.00    -0.248 NA
ATOM     47  C   UNL A   1      39.780  28.264  31.976  1.00  0.00     0.031 C 
ATOM     48  C   UNL A   1      39.958  28.340  27.297  1.00  0.00     0.029 A 
ATOM     49  N   UNL A   1      41.689  27.951  28.624  1.00  0.00    -0.354 N 
ATOM     50  C   UNL A   1      41.834  28.948  32.717  1.00  0.00     0.074 A 
ATOM     51  C   UNL A   1      40.605  28.259  33.024  1.00  0.00     0.031 C 
ATOM     52  C   UNL A   1      40.711  27.392  26.697  1.00  0.00     0.029 A 
ATOM     53  C   UNL A   1      41.871  27.124  27.529  1.00  0.00     0.049 A 
ATOM     54  H   UNL A   1      42.363  28.050  29.336  1.00  0.00     0.167 HD
ATOM     55  C   UNL A   1      43.040  28.933  33.350  1.00  0.00     0.037 A 
ATOM     56  C   UNL A   1      42.890  26.261  27.319  1.00  0.00     0.037 A 
ATOM     57  C   UNL A   1      43.977  29.848  32.757  1.00  0.00     0.049 A 
ATOM     58  C   UNL A   1      44.023  26.670  28.181  1.00  0.00     0.074 A 
ATOM     59  C   UNL A   1      43.998  31.207  32.506  1.00  0.00     0.029 A 
ATOM     60  N   UNL A   1      45.016  29.333  32.021  1.00  0.00    -0.354 N 
ATOM     61  N   UNL A   1      44.738  27.744  27.998  1.00  0.00    -0.248 NA
ATOM     62  C   UNL A   1      44.157  26.048  29.489  1.00  0.00     0.031 C 
ATOM     63  C   UNL A   1      44.692  31.344  31.267  1.00  0.00     0.029 A 
ATOM     64  C   UNL A   1      45.061  30.061  30.862  1.00  0.00     0.049 A 
ATOM     65  H   UNL A   1      45.609  28.589  32.276  1.00  0.00     0.167 HD
ATOM     66  C   UNL A   1      45.081  28.163  29.274  1.00  0.00     0.074 A 
ATOM     67  C   UNL A   1      44.815  27.014  30.132  1.00  0.00     0.031 C 
ATOM     68  C   UNL A   1      45.281  29.484  29.557  1.00  0.00     0.037 A 
BRANCH  55  69
ATOM     69  C   UNL A   1      43.483  27.889  34.343  1.00  0.00     0.057 A 
ATOM     70  C   UNL A   1      43.618  26.548  33.936  1.00  0.00     0.134 A 
ATOM     71  C   UNL A   1      43.522  28.101  35.735  1.00  0.00     0.134 A 
ATOM     72  F   UNL A   1      43.563  26.214  32.638  1.00  0.00    -0.206 F 
ATOM     73  C   UNL A   1      43.738  25.492  34.848  1.00  0.00     0.040 A 
ATOM     74  C   UNL A   1      43.694  27.060  36.653  1.00  0.00     0.040 A 
ATOM     75  F   UNL A   1      43.298  29.307  36.272  1.00  0.00    -0.206 F 
ATOM     76  C   UNL A   1      43.776  25.747  36.214  1.00  0.00     0.006 A 
ENDBRANCH  55  69
BRANCH  56  77
ATOM     77  C   UNL A   1      42.902  25.020  26.522  1.00  0.00     0.057 A 
ATOM     78  C   UNL A   1      43.697  24.895  25.376  1.00  0.00     0.134 A 
ATOM     79  C   UNL A   1      42.309  23.837  26.999  1.00  0.00     0.134 A 
ATOM     80  F   UNL A   1      44.340  25.958  24.873  1.00  0.00    -0.206 F 
ATOM     81  C   UNL A   1      43.899  23.662  24.744  1.00  0.00     0.040 A 
ATOM     82  C   UNL A   1      42.493  22.602  26.372  1.00  0.00     0.040 A 
ATOM     83  F   UNL A   1      41.596  23.831  28.135  1.00  0.00    -0.206 F 
ATOM     84  C   UNL A   1      43.300  22.510  25.245  1.00  0.00     0.006 A 
ENDBRANCH  56  77
BRANCH  68  85
ATOM     85  C   UNL A   1      45.427  30.441  28.409  1.00  0.00     0.057 A 
ATOM     86  C   UNL A   1      44.345  31.059  27.765  1.00  0.00     0.134 A 
ATOM     87  C   UNL A   1      46.709  30.866  28.041  1.00  0.00     0.134 A 
ATOM     88  F   UNL A   1      43.082  30.800  28.128  1.00  0.00    -0.206 F 
ATOM     89  C   UNL A   1      44.531  32.015  26.763  1.00  0.00     0.040 A 
ATOM     90  C   UNL A   1      46.908  31.845  27.064  1.00  0.00     0.040 A 
ATOM     91  F   UNL A   1      47.792  30.366  28.658  1.00  0.00    -0.206 F 
ATOM     92  C   UNL A   1      45.818  32.415  26.413  1.00  0.00     0.006 A 
ENDBRANCH  68  85
ENDBRANCH  42  43
ENDBRANCH  34  37
ENDBRANCH  32  33
ENDBRANCH   1  32
TORSDOF 14
ENDMDL
MODEL 2
REMARK VINA RESULT:     -13.2      1.943      5.083
REMARK SMILES COc1ccccc1[C@@H]1C[N@@H+](Cc2cn3cc(C)ccc3n2)C[C@H]1C(=O)NCCCNC(=O)c1ccc(-c2c3nc(c(-c4c(F)cccc4F)c4ccc([nH]4)c(-c4c(F)cccc4F)c4nc(c(-c5c(F)cccc5F)c5ccc2[nH]5)C=C4)C=C3)cc1
REMARK SMILES IDX 29 1 28 2 27 3 25 4 26 5 24 7 9 8 10 9 11 10 23 11 8 13 3 14
REMARK SMILES IDX 4 15 5 16 7 17 6 18 2 19 1 20 12 21 13 22 14 23 22 24 15 25
REMARK SMILES IDX 21 26 16 27 20 28 17 29 19 30 18 31 30 32 31 33 32 34 33 36
REMARK SMILES IDX 34 37 35 38 87 39 36 40 86 41 37 42 38 43 39 44 80 45 40 46
REMARK SMILES IDX 85 47 79 48 81 49 41 50 84 51 78 52 77 53 42 55 68 56 51 57
REMARK SMILES IDX 67 58 52 59 55 60 66 61 82 62 53 63 54 64 65 66 83 67 56 68
REMARK SMILES IDX 43 69 44 70 49 71 45 72 46 73 48 74 50 75 47 76 69 77 70 78
REMARK SMILES IDX 75 79 71 80 72 81 74 82 76 83 73 84 57 85 58 86 63 87 59 88
REMARK SMILES IDX 60 89 62 90 64 91 61 92
REMARK H PARENT 27 6 11 12 31 35 81 54 55 65
REMARK Flexibility Score: inf
ROOT
ATOM      1  C   UNL A   1      31.997  29.420  26.797  1.00  0.00     0.042 C 
ENDROOT
BRANCH   1   2
ATOM      2  C   UNL A   1      31.528  28.235  27.670  1.00  0.00     0.117 C 
BRANCH   2   3
ATOM      3  N   UNL A   1      31.039  27.041  26.978  1.00  0.00    -0.356 N 
ATOM      4  C   UNL A   1      31.501  26.096  26.116  1.00  0.00     0.229 C 
ATOM      5  O   UNL A   1      30.652  25.226  25.850  1.00  0.00    -0.275 OA
ATOM      6  H   UNL A   1      30.096  26.872  27.204  1.00  0.00     0.163 HD
BRANCH   4   7
ATOM      7  C   UNL A   1      32.904  25.931  25.501  1.00  0.00     0.146 C 
ATOM      8  C   UNL A   1      33.095  24.569  24.766  1.00  0.00     0.096 C 
ATOM      9  C   UNL A   1      33.965  24.898  23.541  1.00  0.00     0.272 C 
ATOM     10  N   UNL A   1      33.641  26.283  23.192  1.00  0.00    -0.329 N 
ATOM     11  C   UNL A   1      33.436  26.942  24.488  1.00  0.00     0.276 C 
ATOM     12  H   UNL A   1      34.400  26.722  22.671  1.00  0.00     0.348 HD
BRANCH   8  13
ATOM     13  C   UNL A   1      33.453  23.268  25.459  1.00  0.00     0.004 A 
ATOM     14  C   UNL A   1      33.113  21.982  25.022  1.00  0.00     0.122 A 
ATOM     15  C   UNL A   1      33.291  20.871  25.862  1.00  0.00     0.047 A 
ATOM     16  C   UNL A   1      33.823  21.021  27.142  1.00  0.00     0.004 A 
ATOM     17  C   UNL A   1      34.025  23.382  26.749  1.00  0.00     0.008 A 
ATOM     18  C   UNL A   1      34.196  22.281  27.587  1.00  0.00     0.001 A 
BRANCH  14  19
ATOM     19  O   UNL A   1      32.452  21.755  23.848  1.00  0.00    -0.496 OA
ATOM     20  C   UNL A   1      32.409  20.370  23.520  1.00  0.00     0.278 C 
ENDBRANCH  14  19
ENDBRANCH   8  13
BRANCH  10  21
ATOM     21  C   UNL A   1      32.573  26.472  22.184  1.00  0.00     0.321 C 
BRANCH  21  22
ATOM     22  C   UNL A   1      31.457  27.429  22.514  1.00  0.00     0.114 A 
ATOM     23  C   UNL A   1      31.418  28.815  22.506  1.00  0.00     0.122 A 
ATOM     24  N   UNL A   1      30.239  26.957  22.929  1.00  0.00    -0.228 NA
ATOM     25  N   UNL A   1      30.120  29.167  22.821  1.00  0.00    -0.306 N 
ATOM     26  C   UNL A   1      29.425  27.982  22.971  1.00  0.00     0.137 A 
ATOM     27  C   UNL A   1      29.520  30.414  22.988  1.00  0.00     0.096 A 
ATOM     28  C   UNL A   1      28.017  28.046  23.127  1.00  0.00     0.048 A 
ATOM     29  C   UNL A   1      28.197  30.483  23.255  1.00  0.00    -0.034 A 
ATOM     30  C   UNL A   1      27.423  29.243  23.258  1.00  0.00     0.009 A 
ATOM     31  C   UNL A   1      27.475  31.760  23.538  1.00  0.00     0.046 C 
ENDBRANCH  21  22
ENDBRANCH  10  21
ENDBRANCH   4   7
ENDBRANCH   2   3
ENDBRANCH   1   2
BRANCH   1  32
ATOM     32  C   UNL A   1      33.434  29.824  27.080  1.00  0.00     0.118 C 
BRANCH  32  33
ATOM     33  N   UNL A   1      33.611  31.230  27.414  1.00  0.00    -0.352 N 
ATOM     34  C   UNL A   1      34.722  31.898  27.869  1.00  0.00     0.251 C 
ATOM     35  H   UNL A   1      32.810  31.790  27.293  1.00  0.00     0.163 HD
ATOM     36  O   UNL A   1      34.626  33.121  28.074  1.00  0.00    -0.269 OA
BRANCH  34  37
ATOM     37  C   UNL A   1      36.014  31.222  28.157  1.00  0.00     0.039 A 
ATOM     38  C   UNL A   1      37.009  31.934  28.843  1.00  0.00     0.014 A 
ATOM     39  C   UNL A   1      36.292  29.915  27.757  1.00  0.00     0.014 A 
ATOM     40  C   UNL A   1      38.236  31.332  29.141  1.00  0.00     0.010 A 
ATOM     41  C   UNL A   1      37.469  29.288  28.128  1.00  0.00     0.010 A 
ATOM     42  C   UNL A   1      38.470  30.001  28.779  1.00  0.00    -0.014 A 
BRANCH  42  43
ATOM     43  C   UNL A   1      39.736  29.347  29.119  1.00  0.00     0.031 A 
ATOM     44  C   UNL A   1      40.058  29.183  30.565  1.00  0.00     0.074 A 
ATOM     45  C   UNL A   1      40.517  28.681  28.240  1.00  0.00     0.049 A 
ATOM     46  N   UNL A   1      41.062  29.659  31.228  1.00  0.00    -0.248 NA
ATOM     47  C   UNL A   1      39.136  28.379  31.376  1.00  0.00     0.031 C 
ATOM     48  C   UNL A   1      40.262  28.375  26.830  1.00  0.00     0.029 A 
ATOM     49  N   UNL A   1      41.690  28.031  28.489  1.00  0.00    -0.354 N 
ATOM     50  C   UNL A   1      40.989  29.102  32.505  1.00  0.00     0.074 A 
ATOM     51  C   UNL A   1      39.730  28.403  32.570  1.00  0.00     0.031 C 
ATOM     52  C   UNL A   1      41.130  27.426  26.415  1.00  0.00     0.029 A 
ATOM     53  C   UNL A   1      42.098  27.187  27.471  1.00  0.00     0.049 A 
ATOM     54  H   UNL A   1      42.204  28.152  29.321  1.00  0.00     0.167 HD
ATOM     55  C   UNL A   1      42.042  29.114  33.371  1.00  0.00     0.037 A 
ATOM     56  C   UNL A   1      43.147  26.334  27.489  1.00  0.00     0.037 A 
ATOM     57  C   UNL A   1      43.071  30.030  32.962  1.00  0.00     0.049 A 
ATOM     58  C   UNL A   1      44.077  26.773  28.556  1.00  0.00     0.074 A 
ATOM     59  C   UNL A   1      43.131  31.385  32.694  1.00  0.00     0.029 A 
ATOM     60  N   UNL A   1      44.243  29.515  32.464  1.00  0.00    -0.354 N 
ATOM     61  N   UNL A   1      44.805  27.852  28.501  1.00  0.00    -0.248 NA
ATOM     62  C   UNL A   1      43.946  26.175  29.876  1.00  0.00     0.031 C 
ATOM     63  C   UNL A   1      44.062  31.508  31.620  1.00  0.00     0.029 A 
ATOM     64  C   UNL A   1      44.517  30.223  31.324  1.00  0.00     0.049 A 
ATOM     65  H   UNL A   1      44.778  28.783  32.849  1.00  0.00     0.167 HD
ATOM     66  C   UNL A   1      44.877  28.298  29.811  1.00  0.00     0.074 A 
ATOM     67  C   UNL A   1      44.451  27.161  30.620  1.00  0.00     0.031 C 
ATOM     68  C   UNL A   1      45.003  29.626  30.103  1.00  0.00     0.037 A 
BRANCH  55  69
ATOM     69  C   UNL A   1      42.282  28.093  34.453  1.00  0.00     0.057 A 
ATOM     70  C   UNL A   1      42.766  26.815  34.116  1.00  0.00     0.134 A 
ATOM     71  C   UNL A   1      41.805  28.226  35.772  1.00  0.00     0.134 A 
ATOM     72  F   UNL A   1      43.216  26.554  32.880  1.00  0.00    -0.206 F 
ATOM     73  C   UNL A   1      42.738  25.738  35.011  1.00  0.00     0.040 A 
ATOM     74  C   UNL A   1      41.821  27.171  36.691  1.00  0.00     0.040 A 
ATOM     75  F   UNL A   1      41.216  29.349  36.201  1.00  0.00    -0.206 F 
ATOM     76  C   UNL A   1      42.263  25.915  36.305  1.00  0.00     0.006 A 
ENDBRANCH  55  69
BRANCH  56  77
ATOM     77  C   UNL A   1      43.332  25.079  26.737  1.00  0.00     0.057 A 
ATOM     78  C   UNL A   1      42.612  23.922  27.058  1.00  0.00     0.134 A 
ATOM     79  C   UNL A   1      44.053  25.048  25.530  1.00  0.00     0.134 A 
ATOM     80  F   UNL A   1      41.859  23.872  28.166  1.00  0.00    -0.206 F 
ATOM     81  C   UNL A   1      42.602  22.799  26.222  1.00  0.00     0.040 A 
ATOM     82  C   UNL A   1      44.060  23.931  24.691  1.00  0.00     0.040 A 
ATOM     83  F   UNL A   1      44.709  26.132  25.089  1.00  0.00    -0.206 F 
ATOM     84  C   UNL A   1      43.323  22.803  25.031  1.00  0.00     0.006 A 
ENDBRANCH  56  77
BRANCH  68  85
ATOM     85  C   UNL A   1      45.371  30.565  28.990  1.00  0.00     0.057 A 
ATOM     86  C   UNL A   1      46.691  30.848  28.611  1.00  0.00     0.134 A 
ATOM     87  C   UNL A   1      44.355  31.084  28.179  1.00  0.00     0.134 A 
ATOM     88  F   UNL A   1      47.730  30.306  29.259  1.00  0.00    -0.206 F 
ATOM     89  C   UNL A   1      46.985  31.655  27.509  1.00  0.00     0.040 A 
ATOM     90  C   UNL A   1      44.636  31.864  27.054  1.00  0.00     0.040 A 
ATOM     91  F   UNL A   1      43.068  30.802  28.442  1.00  0.00    -0.206 F 
ATOM     92  C   UNL A   1      45.954  32.163  26.723  1.00  0.00     0.006 A 
ENDBRANCH  68  85
ENDBRANCH  42  43
ENDBRANCH  34  37
ENDBRANCH  32  33
ENDBRANCH   1  32
TORSDOF 14
ENDMDL
MODEL 3
REMARK VINA RESULT:     -13.1      2.767      8.711
REMARK SMILES COc1ccccc1[C@@H]1C[N@@H+](Cc2cn3cc(C)ccc3n2)C[C@H]1C(=O)NCCCNC(=O)c1ccc(-c2c3nc(c(-c4c(F)cccc4F)c4ccc([nH]4)c(-c4c(F)cccc4F)c4nc(c(-c5c(F)cccc5F)c5ccc2[nH]5)C=C4)C=C3)cc1
REMARK SMILES IDX 29 1 28 2 27 3 25 4 26 5 24 7 9 8 10 9 11 10 23 11 8 13 3 14
REMARK SMILES IDX 4 15 5 16 7 17 6 18 2 19 1 20 12 21 13 22 14 23 22 24 15 25
REMARK SMILES IDX 21 26 16 27 20 28 17 29 19 30 18 31 30 32 31 33 32 34 33 36
REMARK SMILES IDX 34 37 35 38 87 39 36 40 86 41 37 42 38 43 39 44 80 45 40 46
REMARK SMILES IDX 85 47 79 48 81 49 41 50 84 51 78 52 77 53 42 55 68 56 51 57
REMARK SMILES IDX 67 58 52 59 55 60 66 61 82 62 53 63 54 64 65 66 83 67 56 68
REMARK SMILES IDX 43 69 44 70 49 71 45 72 46 73 48 74 50 75 47 76 69 77 70 78
REMARK SMILES IDX 75 79 71 80 72 81 74 82 76 83 73 84 57 85 58 86 63 87 59 88
REMARK SMILES IDX 60 89 62 90 64 91 61 92
REMARK H PARENT 27 6 11 12 31 35 81 54 55 65
REMARK Flexibility Score: inf
ROOT
ATOM      1  C   UNL A   1      37.546  22.128  25.262  1.00  0.00     0.042 C 
ENDROOT
BRANCH   1   2
ATOM      2  C   UNL A   1      37.052  23.453  24.640  1.00  0.00     0.117 C 
BRANCH   2   3
ATOM      3  N   UNL A   1      35.973  24.160  25.330  1.00  0.00    -0.356 N 
ATOM      4  C   UNL A   1      34.728  24.637  25.064  1.00  0.00     0.229 C 
ATOM      5  O   UNL A   1      34.183  25.152  26.059  1.00  0.00    -0.275 OA
ATOM      6  H   UNL A   1      36.223  24.346  26.265  1.00  0.00     0.163 HD
BRANCH   4   7
ATOM      7  C   UNL A   1      33.907  24.567  23.762  1.00  0.00     0.146 C 
ATOM      8  C   UNL A   1      32.523  23.873  23.945  1.00  0.00     0.096 C 
ATOM      9  C   UNL A   1      31.562  24.655  23.034  1.00  0.00     0.272 C 
ATOM     10  N   UNL A   1      32.094  26.019  22.987  1.00  0.00    -0.329 N 
ATOM     11  C   UNL A   1      33.551  25.838  22.996  1.00  0.00     0.276 C 
ATOM     12  H   UNL A   1      31.787  26.508  22.145  1.00  0.00     0.348 HD
BRANCH   8  13
ATOM     13  C   UNL A   1      32.315  22.369  23.933  1.00  0.00     0.004 A 
ATOM     14  C   UNL A   1      32.462  21.510  25.027  1.00  0.00     0.122 A 
ATOM     15  C   UNL A   1      32.476  20.117  24.846  1.00  0.00     0.047 A 
ATOM     16  C   UNL A   1      32.329  19.560  23.576  1.00  0.00     0.004 A 
ATOM     17  C   UNL A   1      32.131  21.773  22.661  1.00  0.00     0.008 A 
ATOM     18  C   UNL A   1      32.151  20.391  22.479  1.00  0.00     0.001 A 
BRANCH  14  19
ATOM     19  O   UNL A   1      32.759  21.960  26.283  1.00  0.00    -0.496 OA
ATOM     20  C   UNL A   1      33.938  21.354  26.802  1.00  0.00     0.278 C 
ENDBRANCH  14  19
ENDBRANCH   8  13
BRANCH  10  21
ATOM     21  C   UNL A   1      31.545  26.971  23.980  1.00  0.00     0.321 C 
BRANCH  21  22
ATOM     22  C   UNL A   1      30.828  28.191  23.462  1.00  0.00     0.114 A 
ATOM     23  C   UNL A   1      30.242  28.446  22.232  1.00  0.00     0.122 A 
ATOM     24  N   UNL A   1      30.700  29.306  24.248  1.00  0.00    -0.228 NA
ATOM     25  N   UNL A   1      29.665  29.696  22.329  1.00  0.00    -0.306 N 
ATOM     26  C   UNL A   1      29.896  30.127  23.621  1.00  0.00     0.137 A 
ATOM     27  C   UNL A   1      28.976  30.467  21.394  1.00  0.00     0.096 A 
ATOM     28  C   UNL A   1      29.258  31.318  24.055  1.00  0.00     0.048 A 
ATOM     29  C   UNL A   1      28.463  31.660  21.767  1.00  0.00    -0.034 A 
ATOM     30  C   UNL A   1      28.566  32.053  23.171  1.00  0.00     0.009 A 
ATOM     31  C   UNL A   1      27.787  32.602  20.823  1.00  0.00     0.046 C 
ENDBRANCH  21  22
ENDBRANCH  10  21
ENDBRANCH   4   7
ENDBRANCH   2   3
ENDBRANCH   1   2
BRANCH   1  32
ATOM     32  C   UNL A   1      38.625  22.339  26.311  1.00  0.00     0.118 C 
BRANCH  32  33
ATOM     33  N   UNL A   1      39.977  22.057  25.850  1.00  0.00    -0.352 N 
ATOM     34  C   UNL A   1      41.135  22.778  26.011  1.00  0.00     0.251 C 
ATOM     35  H   UNL A   1      40.077  21.218  25.344  1.00  0.00     0.163 HD
ATOM     36  O   UNL A   1      42.184  22.317  25.528  1.00  0.00    -0.269 OA
BRANCH  34  37
ATOM     37  C   UNL A   1      41.183  24.092  26.706  1.00  0.00     0.039 A 
ATOM     38  C   UNL A   1      40.517  25.183  26.128  1.00  0.00     0.014 A 
ATOM     39  C   UNL A   1      41.878  24.295  27.898  1.00  0.00     0.014 A 
ATOM     40  C   UNL A   1      40.530  26.434  26.753  1.00  0.00     0.010 A 
ATOM     41  C   UNL A   1      41.818  25.508  28.563  1.00  0.00     0.010 A 
ATOM     42  C   UNL A   1      41.187  26.600  27.978  1.00  0.00    -0.014 A 
BRANCH  42  43
ATOM     43  C   UNL A   1      41.176  27.895  28.661  1.00  0.00     0.031 A 
ATOM     44  C   UNL A   1      42.265  28.858  28.329  1.00  0.00     0.074 A 
ATOM     45  C   UNL A   1      40.140  28.373  29.385  1.00  0.00     0.049 A 
ATOM     46  N   UNL A   1      43.159  29.367  29.112  1.00  0.00    -0.248 NA
ATOM     47  C   UNL A   1      42.365  29.310  26.936  1.00  0.00     0.031 C 
ATOM     48  C   UNL A   1      38.807  27.795  29.577  1.00  0.00     0.029 A 
ATOM     49  N   UNL A   1      40.049  29.574  30.026  1.00  0.00    -0.354 N 
ATOM     50  C   UNL A   1      43.849  30.317  28.357  1.00  0.00     0.074 A 
ATOM     51  C   UNL A   1      43.385  30.167  27.000  1.00  0.00     0.031 C 
ATOM     52  C   UNL A   1      37.983  28.734  30.091  1.00  0.00     0.029 A 
ATOM     53  C   UNL A   1      38.767  29.912  30.419  1.00  0.00     0.049 A 
ATOM     54  H   UNL A   1      40.830  30.151  30.195  1.00  0.00     0.167 HD
ATOM     55  C   UNL A   1      44.634  31.274  28.925  1.00  0.00     0.037 A 
ATOM     56  C   UNL A   1      38.361  31.082  30.960  1.00  0.00     0.037 A 
ATOM     57  C   UNL A   1      44.932  30.988  30.301  1.00  0.00     0.049 A 
ATOM     58  C   UNL A   1      39.551  31.767  31.517  1.00  0.00     0.074 A 
ATOM     59  C   UNL A   1      45.523  29.939  30.981  1.00  0.00     0.029 A 
ATOM     60  N   UNL A   1      44.322  31.744  31.272  1.00  0.00    -0.354 N 
ATOM     61  N   UNL A   1      40.205  31.369  32.572  1.00  0.00    -0.248 NA
ATOM     62  C   UNL A   1      40.246  32.734  30.682  1.00  0.00     0.031 C 
ATOM     63  C   UNL A   1      44.809  29.848  32.213  1.00  0.00     0.029 A 
ATOM     64  C   UNL A   1      43.848  30.860  32.204  1.00  0.00     0.049 A 
ATOM     65  H   UNL A   1      44.241  32.726  31.292  1.00  0.00     0.167 HD
ATOM     66  C   UNL A   1      41.525  31.704  32.318  1.00  0.00     0.074 A 
ATOM     67  C   UNL A   1      41.467  32.656  31.214  1.00  0.00     0.031 C 
ATOM     68  C   UNL A   1      42.555  30.971  32.836  1.00  0.00     0.037 A 
BRANCH  55  69
ATOM     69  C   UNL A   1      44.919  32.627  28.325  1.00  0.00     0.057 A 
ATOM     70  C   UNL A   1      43.889  33.582  28.228  1.00  0.00     0.134 A 
ATOM     71  C   UNL A   1      46.087  32.929  27.597  1.00  0.00     0.134 A 
ATOM     72  F   UNL A   1      42.714  33.390  28.849  1.00  0.00    -0.206 F 
ATOM     73  C   UNL A   1      43.996  34.730  27.434  1.00  0.00     0.040 A 
ATOM     74  C   UNL A   1      46.225  34.099  26.842  1.00  0.00     0.040 A 
ATOM     75  F   UNL A   1      47.106  32.065  27.506  1.00  0.00    -0.206 F 
ATOM     76  C   UNL A   1      45.169  34.992  26.737  1.00  0.00     0.006 A 
ENDBRANCH  55  69
BRANCH  56  77
ATOM     77  C   UNL A   1      37.030  31.716  30.906  1.00  0.00     0.057 A 
ATOM     78  C   UNL A   1      36.207  31.783  32.036  1.00  0.00     0.134 A 
ATOM     79  C   UNL A   1      36.627  32.480  29.797  1.00  0.00     0.134 A 
ATOM     80  F   UNL A   1      36.532  31.124  33.157  1.00  0.00    -0.206 F 
ATOM     81  C   UNL A   1      35.051  32.573  32.067  1.00  0.00     0.040 A 
ATOM     82  C   UNL A   1      35.471  33.265  29.810  1.00  0.00     0.040 A 
ATOM     83  F   UNL A   1      37.387  32.551  28.694  1.00  0.00    -0.206 F 
ATOM     84  C   UNL A   1      34.683  33.322  30.952  1.00  0.00     0.006 A 
ENDBRANCH  56  77
BRANCH  68  85
ATOM     85  C   UNL A   1      42.247  29.987  33.927  1.00  0.00     0.057 A 
ATOM     86  C   UNL A   1      41.841  28.665  33.695  1.00  0.00     0.134 A 
ATOM     87  C   UNL A   1      42.512  30.344  35.254  1.00  0.00     0.134 A 
ATOM     88  F   UNL A   1      41.670  28.200  32.451  1.00  0.00    -0.206 F 
ATOM     89  C   UNL A   1      41.655  27.756  34.740  1.00  0.00     0.040 A 
ATOM     90  C   UNL A   1      42.364  29.435  36.305  1.00  0.00     0.040 A 
ATOM     91  F   UNL A   1      42.966  31.574  35.548  1.00  0.00    -0.206 F 
ATOM     92  C   UNL A   1      41.922  28.140  36.052  1.00  0.00     0.006 A 
ENDBRANCH  68  85
ENDBRANCH  42  43
ENDBRANCH  34  37
ENDBRANCH  32  33
ENDBRANCH   1  32
TORSDOF 14
ENDMDL
