MODEL 1
REMARK VINA RESULT:     -11.9      0.000      0.000
REMARK SMILES O=C(NCCCNC(=O)[C@H]1[NH2+]CC[C@@H]1c1cc(Br)ccc1F)c1ccc(-c2c3nc(c(-c4c(F)cccc4F)c4ccc([nH]4)c(-c4c(F)cccc4F)c4nc(c(-c5c(F)cccc5F)c5ccc2[nH]5)C=C4)C=C3)cc1
REMARK SMILES IDX 4 1 3 2 1 3 2 4 23 6 24 7 76 8 25 9 75 10 26 11 27 12 28 13
REMARK SMILES IDX 69 14 29 15 74 16 68 17 70 18 30 19 73 20 67 21 66 22 31 24
REMARK SMILES IDX 57 25 40 26 56 27 41 28 44 29 55 30 71 31 42 32 43 33 54 35
REMARK SMILES IDX 72 36 45 37 32 38 33 39 38 40 34 41 35 42 37 43 39 44 36 45
REMARK SMILES IDX 58 46 59 47 64 48 60 49 61 50 63 51 65 52 62 53 46 54 47 55
REMARK SMILES IDX 52 56 48 57 49 58 51 59 53 60 50 61 5 62 6 63 7 64 8 65 9 67
REMARK SMILES IDX 10 68 11 69 14 70 12 71 13 74 15 75 16 76 21 77 17 78 20 79
REMARK SMILES IDX 22 80 18 81 19 82
REMARK H PARENT 3 5 70 23 44 34 7 66 11 72 11 73
REMARK Flexibility Score: inf
ROOT
ATOM      1  C   UNL A   1      32.479  32.444  26.915  1.00  0.00     0.118 C 
ENDROOT
BRANCH   1   2
ATOM      2  N   UNL A   1      32.388  33.828  27.354  1.00  0.00    -0.352 N 
ATOM      3  O   UNL A   1      32.662  35.574  28.746  1.00  0.00    -0.269 OA
ATOM      4  C   UNL A   1      33.045  34.469  28.376  1.00  0.00     0.251 C 
ATOM      5  H   UNL A   1      31.763  34.390  26.842  1.00  0.00     0.163 HD
BRANCH   4   6
ATOM      6  C   UNL A   1      34.207  33.832  29.034  1.00  0.00     0.039 A 
ATOM      7  C   UNL A   1      34.030  32.767  29.920  1.00  0.00     0.014 A 
ATOM      8  C   UNL A   1      35.496  34.270  28.714  1.00  0.00     0.014 A 
ATOM      9  C   UNL A   1      35.128  32.222  30.576  1.00  0.00     0.010 A 
ATOM     10  C   UNL A   1      36.605  33.662  29.309  1.00  0.00     0.010 A 
ATOM     11  C   UNL A   1      36.429  32.643  30.258  1.00  0.00    -0.014 A 
BRANCH  11  12
ATOM     12  C   UNL A   1      37.589  31.946  30.867  1.00  0.00     0.031 A 
ATOM     13  C   UNL A   1      38.035  32.251  32.268  1.00  0.00     0.074 A 
ATOM     14  C   UNL A   1      38.229  31.009  30.140  1.00  0.00     0.049 A 
ATOM     15  N   UNL A   1      39.024  31.729  32.949  1.00  0.00    -0.248 NA
ATOM     16  C   UNL A   1      37.280  33.280  32.999  1.00  0.00     0.031 C 
ATOM     17  C   UNL A   1      37.888  30.634  28.764  1.00  0.00     0.029 A 
ATOM     18  N   UNL A   1      39.285  30.193  30.454  1.00  0.00    -0.354 N 
ATOM     19  C   UNL A   1      39.017  32.369  34.182  1.00  0.00     0.074 A 
ATOM     20  C   UNL A   1      37.946  33.343  34.143  1.00  0.00     0.031 C 
ATOM     21  C   UNL A   1      38.688  29.633  28.371  1.00  0.00     0.029 A 
ATOM     22  C   UNL A   1      39.639  29.341  29.436  1.00  0.00     0.049 A 
ATOM     23  H   UNL A   1      39.744  30.216  31.324  1.00  0.00     0.167 HD
ATOM     24  C   UNL A   1      39.825  32.154  35.249  1.00  0.00     0.037 A 
ATOM     25  C   UNL A   1      40.632  28.437  29.359  1.00  0.00     0.037 A 
ATOM     26  C   UNL A   1      40.889  31.181  35.276  1.00  0.00     0.049 A 
ATOM     27  C   UNL A   1      41.543  28.257  30.538  1.00  0.00     0.074 A 
ATOM     28  C   UNL A   1      41.749  30.872  36.315  1.00  0.00     0.029 A 
ATOM     29  N   UNL A   1      41.243  30.364  34.211  1.00  0.00    -0.354 N 
ATOM     30  N   UNL A   1      41.507  28.848  31.707  1.00  0.00    -0.248 NA
ATOM     31  C   UNL A   1      42.636  27.288  30.385  1.00  0.00     0.031 C 
ATOM     32  C   UNL A   1      42.655  29.907  35.864  1.00  0.00     0.029 A 
ATOM     33  C   UNL A   1      42.324  29.570  34.561  1.00  0.00     0.049 A 
ATOM     34  H   UNL A   1      40.792  30.349  33.336  1.00  0.00     0.167 HD
ATOM     35  C   UNL A   1      42.555  28.308  32.438  1.00  0.00     0.074 A 
ATOM     36  C   UNL A   1      43.197  27.328  31.585  1.00  0.00     0.031 C 
ATOM     37  C   UNL A   1      42.952  28.599  33.701  1.00  0.00     0.037 A 
BRANCH  24  38
ATOM     38  C   UNL A   1      39.604  32.999  36.471  1.00  0.00     0.057 A 
ATOM     39  C   UNL A   1      40.314  34.187  36.691  1.00  0.00     0.134 A 
ATOM     40  C   UNL A   1      38.635  32.644  37.419  1.00  0.00     0.134 A 
ATOM     41  F   UNL A   1      41.263  34.580  35.829  1.00  0.00    -0.206 F 
ATOM     42  C   UNL A   1      40.084  34.978  37.818  1.00  0.00     0.040 A 
ATOM     43  C   UNL A   1      38.377  33.441  38.536  1.00  0.00     0.040 A 
ATOM     44  F   UNL A   1      37.911  31.524  37.269  1.00  0.00    -0.206 F 
ATOM     45  C   UNL A   1      39.108  34.609  38.742  1.00  0.00     0.006 A 
ENDBRANCH  24  38
BRANCH  25  46
ATOM     46  C   UNL A   1      40.816  27.645  28.118  1.00  0.00     0.057 A 
ATOM     47  C   UNL A   1      40.222  26.387  27.966  1.00  0.00     0.134 A 
ATOM     48  C   UNL A   1      41.585  28.128  27.050  1.00  0.00     0.134 A 
ATOM     49  F   UNL A   1      39.487  25.864  28.959  1.00  0.00    -0.206 F 
ATOM     50  C   UNL A   1      40.395  25.632  26.805  1.00  0.00     0.040 A 
ATOM     51  C   UNL A   1      41.742  27.397  25.873  1.00  0.00     0.040 A 
ATOM     52  F   UNL A   1      42.174  29.330  27.130  1.00  0.00    -0.206 F 
ATOM     53  C   UNL A   1      41.153  26.141  25.751  1.00  0.00     0.006 A 
ENDBRANCH  25  46
BRANCH  37  54
ATOM     54  C   UNL A   1      44.114  27.823  34.246  1.00  0.00     0.057 A 
ATOM     55  C   UNL A   1      45.427  28.308  34.180  1.00  0.00     0.134 A 
ATOM     56  C   UNL A   1      43.914  26.583  34.867  1.00  0.00     0.134 A 
ATOM     57  F   UNL A   1      45.689  29.481  33.583  1.00  0.00    -0.206 F 
ATOM     58  C   UNL A   1      46.501  27.579  34.691  1.00  0.00     0.040 A 
ATOM     59  C   UNL A   1      44.976  25.857  35.408  1.00  0.00     0.040 A 
ATOM     60  F   UNL A   1      42.681  26.063  34.970  1.00  0.00    -0.206 F 
ATOM     61  C   UNL A   1      46.275  26.352  35.315  1.00  0.00     0.006 A 
ENDBRANCH  37  54
ENDBRANCH  11  12
ENDBRANCH   4   6
ENDBRANCH   1   2
BRANCH   1  62
ATOM     62  C   UNL A   1      31.122  31.879  26.501  1.00  0.00     0.042 C 
BRANCH  62  63
ATOM     63  C   UNL A   1      31.208  30.825  25.395  1.00  0.00     0.118 C 
BRANCH  63  64
ATOM     64  N   UNL A   1      31.999  29.693  25.830  1.00  0.00    -0.351 N 
ATOM     65  C   UNL A   1      32.334  28.516  25.238  1.00  0.00     0.278 C 
ATOM     66  H   UNL A   1      32.370  29.798  26.736  1.00  0.00     0.163 HD
ATOM     67  O   UNL A   1      32.785  27.661  26.008  1.00  0.00    -0.268 OA
BRANCH  65  68
ATOM     68  C   UNL A   1      32.298  28.269  23.718  1.00  0.00     0.280 C 
ATOM     69  N   UNL A   1      33.502  27.621  23.145  1.00  0.00    -0.335 N 
ATOM     70  C   UNL A   1      31.084  27.426  23.305  1.00  0.00     0.096 C 
ATOM     71  C   UNL A   1      33.062  26.607  22.191  1.00  0.00     0.262 C 
ATOM     72  H   UNL A   1      34.044  27.182  23.889  1.00  0.00     0.346 HD
ATOM     73  H   UNL A   1      34.088  28.312  22.679  1.00  0.00     0.346 HD
ATOM     74  C   UNL A   1      31.569  26.791  22.001  1.00  0.00     0.076 C 
BRANCH  70  75
ATOM     75  C   UNL A   1      29.730  28.097  23.119  1.00  0.00    -0.001 A 
ATOM     76  C   UNL A   1      29.691  29.380  22.537  1.00  0.00     0.023 A 
ATOM     77  C   UNL A   1      28.504  27.534  23.502  1.00  0.00     0.127 A 
ATOM     78  C   UNL A   1      28.479  30.059  22.367  1.00  0.00     0.018 A 
ATOM     79  C   UNL A   1      27.295  28.203  23.317  1.00  0.00     0.041 A 
ATOM     80  F   UNL A   1      28.439  26.335  24.087  1.00  0.00    -0.207 F 
ATOM     81  Br  UNL A   1      28.474  31.796  21.622  1.00  0.00    -0.051 Br
ATOM     82  C   UNL A   1      27.278  29.474  22.753  1.00  0.00     0.019 A 
ENDBRANCH  70  75
ENDBRANCH  65  68
ENDBRANCH  63  64
ENDBRANCH  62  63
ENDBRANCH   1  62
TORSDOF 11
ENDMDL
MODEL 2
REMARK VINA RESULT:     -11.8      5.596      9.988
REMARK SMILES O=C(NCCCNC(=O)[C@H]1[NH2+]CC[C@@H]1c1cc(Br)ccc1F)c1ccc(-c2c3nc(c(-c4c(F)cccc4F)c4ccc([nH]4)c(-c4c(F)cccc4F)c4nc(c(-c5c(F)cccc5F)c5ccc2[nH]5)C=C4)C=C3)cc1
REMARK SMILES IDX 4 1 3 2 1 3 2 4 23 6 24 7 76 8 25 9 75 10 26 11 27 12 28 13
REMARK SMILES IDX 69 14 29 15 74 16 68 17 70 18 30 19 73 20 67 21 66 22 31 24
REMARK SMILES IDX 57 25 40 26 56 27 41 28 44 29 55 30 71 31 42 32 43 33 54 35
REMARK SMILES IDX 72 36 45 37 32 38 33 39 38 40 34 41 35 42 37 43 39 44 36 45
REMARK SMILES IDX 58 46 59 47 64 48 60 49 61 50 63 51 65 52 62 53 46 54 47 55
REMARK SMILES IDX 52 56 48 57 49 58 51 59 53 60 50 61 5 62 6 63 7 64 8 65 9 67
REMARK SMILES IDX 10 68 11 69 14 70 12 71 13 74 15 75 16 76 21 77 17 78 20 79
REMARK SMILES IDX 22 80 18 81 19 82
REMARK H PARENT 3 5 70 23 44 34 7 66 11 72 11 73
REMARK Flexibility Score: inf
ROOT
ATOM      1  C   UNL A   1      38.780  20.245  25.694  1.00  0.00     0.118 C 
ENDROOT
BRANCH   1   2
ATOM      2  N   UNL A   1      39.919  19.341  25.756  1.00  0.00    -0.352 N 
ATOM      3  O   UNL A   1      42.091  18.757  25.793  1.00  0.00    -0.269 OA
ATOM      4  C   UNL A   1      41.239  19.610  26.020  1.00  0.00     0.251 C 
ATOM      5  H   UNL A   1      39.711  18.394  25.583  1.00  0.00     0.163 HD
BRANCH   4   6
ATOM      6  C   UNL A   1      41.640  20.923  26.572  1.00  0.00     0.039 A 
ATOM      7  C   UNL A   1      42.040  21.960  25.727  1.00  0.00     0.014 A 
ATOM      8  C   UNL A   1      41.554  21.138  27.951  1.00  0.00     0.014 A 
ATOM      9  C   UNL A   1      42.472  23.166  26.266  1.00  0.00     0.010 A 
ATOM     10  C   UNL A   1      41.906  22.381  28.484  1.00  0.00     0.010 A 
ATOM     11  C   UNL A   1      42.384  23.400  27.647  1.00  0.00    -0.014 A 
BRANCH  11  12
ATOM     12  C   UNL A   1      42.715  24.746  28.180  1.00  0.00     0.031 A 
ATOM     13  C   UNL A   1      44.128  25.123  28.521  1.00  0.00     0.074 A 
ATOM     14  C   UNL A   1      41.718  25.639  28.334  1.00  0.00     0.049 A 
ATOM     15  N   UNL A   1      44.587  26.256  28.991  1.00  0.00    -0.248 NA
ATOM     16  C   UNL A   1      45.160  24.096  28.318  1.00  0.00     0.031 C 
ATOM     17  C   UNL A   1      40.305  25.381  28.041  1.00  0.00     0.029 A 
ATOM     18  N   UNL A   1      41.735  26.943  28.758  1.00  0.00    -0.354 N 
ATOM     19  C   UNL A   1      45.955  26.078  29.147  1.00  0.00     0.074 A 
ATOM     20  C   UNL A   1      46.248  24.715  28.754  1.00  0.00     0.031 C 
ATOM     21  C   UNL A   1      39.600  26.501  28.250  1.00  0.00     0.029 A 
ATOM     22  C   UNL A   1      40.497  27.535  28.755  1.00  0.00     0.049 A 
ATOM     23  H   UNL A   1      42.557  27.408  29.037  1.00  0.00     0.167 HD
ATOM     24  C   UNL A   1      46.880  26.974  29.570  1.00  0.00     0.037 A 
ATOM     25  C   UNL A   1      40.117  28.769  29.134  1.00  0.00     0.037 A 
ATOM     26  C   UNL A   1      46.577  28.329  29.958  1.00  0.00     0.049 A 
ATOM     27  C   UNL A   1      41.156  29.723  29.646  1.00  0.00     0.074 A 
ATOM     28  C   UNL A   1      47.446  29.320  30.380  1.00  0.00     0.029 A 
ATOM     29  N   UNL A   1      45.304  28.881  29.980  1.00  0.00    -0.354 N 
ATOM     30  N   UNL A   1      42.450  29.550  29.761  1.00  0.00    -0.248 NA
ATOM     31  C   UNL A   1      40.681  31.041  30.087  1.00  0.00     0.031 C 
ATOM     32  C   UNL A   1      46.694  30.453  30.706  1.00  0.00     0.029 A 
ATOM     33  C   UNL A   1      45.362  30.190  30.432  1.00  0.00     0.049 A 
ATOM     34  H   UNL A   1      44.480  28.412  29.712  1.00  0.00     0.167 HD
ATOM     35  C   UNL A   1      42.949  30.743  30.264  1.00  0.00     0.074 A 
ATOM     36  C   UNL A   1      41.819  31.637  30.415  1.00  0.00     0.031 C 
ATOM     37  C   UNL A   1      44.228  31.068  30.576  1.00  0.00     0.037 A 
BRANCH  24  38
ATOM     38  C   UNL A   1      48.308  26.514  29.653  1.00  0.00     0.057 A 
ATOM     39  C   UNL A   1      49.221  26.735  28.613  1.00  0.00     0.134 A 
ATOM     40  C   UNL A   1      48.789  25.882  30.807  1.00  0.00     0.134 A 
ATOM     41  F   UNL A   1      48.825  27.325  27.475  1.00  0.00    -0.206 F 
ATOM     42  C   UNL A   1      50.553  26.325  28.709  1.00  0.00     0.040 A 
ATOM     43  C   UNL A   1      50.125  25.492  30.926  1.00  0.00     0.040 A 
ATOM     44  F   UNL A   1      47.973  25.646  31.846  1.00  0.00    -0.206 F 
ATOM     45  C   UNL A   1      51.009  25.708  29.872  1.00  0.00     0.006 A 
ENDBRANCH  24  38
BRANCH  25  46
ATOM     46  C   UNL A   1      38.688  29.162  29.049  1.00  0.00     0.057 A 
ATOM     47  C   UNL A   1      38.129  29.605  27.846  1.00  0.00     0.134 A 
ATOM     48  C   UNL A   1      37.846  29.099  30.167  1.00  0.00     0.134 A 
ATOM     49  F   UNL A   1      38.888  29.702  26.745  1.00  0.00    -0.206 F 
ATOM     50  C   UNL A   1      36.789  29.983  27.759  1.00  0.00     0.040 A 
ATOM     51  C   UNL A   1      36.498  29.445  30.087  1.00  0.00     0.040 A 
ATOM     52  F   UNL A   1      38.319  28.674  31.348  1.00  0.00    -0.206 F 
ATOM     53  C   UNL A   1      35.966  29.897  28.882  1.00  0.00     0.006 A 
ENDBRANCH  25  46
BRANCH  37  54
ATOM     54  C   UNL A   1      44.474  32.460  31.078  1.00  0.00     0.057 A 
ATOM     55  C   UNL A   1      44.469  32.767  32.445  1.00  0.00     0.134 A 
ATOM     56  C   UNL A   1      44.744  33.502  30.182  1.00  0.00     0.134 A 
ATOM     57  F   UNL A   1      44.200  31.817  33.354  1.00  0.00    -0.206 F 
ATOM     58  C   UNL A   1      44.701  34.065  32.902  1.00  0.00     0.040 A 
ATOM     59  C   UNL A   1      45.006  34.799  30.628  1.00  0.00     0.040 A 
ATOM     60  F   UNL A   1      44.771  33.276  28.860  1.00  0.00    -0.206 F 
ATOM     61  C   UNL A   1      44.978  35.083  31.992  1.00  0.00     0.006 A 
ENDBRANCH  37  54
ENDBRANCH  11  12
ENDBRANCH   4   6
ENDBRANCH   1   2
BRANCH   1  62
ATOM     62  C   UNL A   1      37.728  19.781  24.689  1.00  0.00     0.042 C 
BRANCH  62  63
ATOM     63  C   UNL A   1      36.303  20.198  25.057  1.00  0.00     0.118 C 
BRANCH  63  64
ATOM     64  N   UNL A   1      36.152  21.635  24.966  1.00  0.00    -0.351 N 
ATOM     65  C   UNL A   1      35.080  22.463  25.083  1.00  0.00     0.278 C 
ATOM     66  H   UNL A   1      36.996  22.108  24.784  1.00  0.00     0.163 HD
ATOM     67  O   UNL A   1      35.266  23.611  24.663  1.00  0.00    -0.268 OA
BRANCH  65  68
ATOM     68  C   UNL A   1      33.768  22.086  25.796  1.00  0.00     0.280 C 
ATOM     69  N   UNL A   1      33.243  23.093  26.748  1.00  0.00    -0.335 N 
ATOM     70  C   UNL A   1      32.645  21.772  24.797  1.00  0.00     0.096 C 
ATOM     71  C   UNL A   1      31.800  23.195  26.553  1.00  0.00     0.262 C 
ATOM     72  H   UNL A   1      33.681  23.997  26.570  1.00  0.00     0.346 HD
ATOM     73  H   UNL A   1      33.450  22.815  27.707  1.00  0.00     0.346 HD
ATOM     74  C   UNL A   1      31.394  22.067  25.625  1.00  0.00     0.076 C 
BRANCH  70  75
ATOM     75  C   UNL A   1      32.570  20.392  24.160  1.00  0.00    -0.001 A 
ATOM     76  C   UNL A   1      32.812  19.264  24.970  1.00  0.00     0.023 A 
ATOM     77  C   UNL A   1      32.289  20.155  22.806  1.00  0.00     0.127 A 
ATOM     78  C   UNL A   1      32.785  17.971  24.434  1.00  0.00     0.018 A 
ATOM     79  C   UNL A   1      32.246  18.866  22.276  1.00  0.00     0.041 A 
ATOM     80  F   UNL A   1      32.074  21.159  21.951  1.00  0.00    -0.207 F 
ATOM     81  Br  UNL A   1      33.158  16.488  25.544  1.00  0.00    -0.051 Br
ATOM     82  C   UNL A   1      32.500  17.767  23.088  1.00  0.00     0.019 A 
ENDBRANCH  70  75
ENDBRANCH  65  68
ENDBRANCH  63  64
ENDBRANCH  62  63
ENDBRANCH   1  62
TORSDOF 11
ENDMDL
MODEL 3
REMARK VINA RESULT:     -11.8      5.696      9.621
REMARK SMILES O=C(NCCCNC(=O)[C@H]1[NH2+]CC[C@@H]1c1cc(Br)ccc1F)c1ccc(-c2c3nc(c(-c4c(F)cccc4F)c4ccc([nH]4)c(-c4c(F)cccc4F)c4nc(c(-c5c(F)cccc5F)c5ccc2[nH]5)C=C4)C=C3)cc1
REMARK SMILES IDX 4 1 3 2 1 3 2 4 23 6 24 7 76 8 25 9 75 10 26 11 27 12 28 13
REMARK SMILES IDX 69 14 29 15 74 16 68 17 70 18 30 19 73 20 67 21 66 22 31 24
REMARK SMILES IDX 57 25 40 26 56 27 41 28 44 29 55 30 71 31 42 32 43 33 54 35
REMARK SMILES IDX 72 36 45 37 32 38 33 39 38 40 34 41 35 42 37 43 39 44 36 45
REMARK SMILES IDX 58 46 59 47 64 48 60 49 61 50 63 51 65 52 62 53 46 54 47 55
REMARK SMILES IDX 52 56 48 57 49 58 51 59 53 60 50 61 5 62 6 63 7 64 8 65 9 67
REMARK SMILES IDX 10 68 11 69 14 70 12 71 13 74 15 75 16 76 21 77 17 78 20 79
REMARK SMILES IDX 22 80 18 81 19 82
REMARK H PARENT 3 5 70 23 44 34 7 66 11 72 11 73
REMARK Flexibility Score: inf
ROOT
ATOM      1  C   UNL A   1      38.791  20.221  25.738  1.00  0.00     0.118 C 
ENDROOT
BRANCH   1   2
ATOM      2  N   UNL A   1      39.914  19.301  25.842  1.00  0.00    -0.352 N 
ATOM      3  O   UNL A   1      42.076  18.683  25.917  1.00  0.00    -0.269 OA
ATOM      4  C   UNL A   1      41.237  19.558  26.106  1.00  0.00     0.251 C 
ATOM      5  H   UNL A   1      39.692  18.352  25.703  1.00  0.00     0.163 HD
BRANCH   4   6
ATOM      6  C   UNL A   1      41.655  20.884  26.612  1.00  0.00     0.039 A 
ATOM      7  C   UNL A   1      42.039  21.896  25.730  1.00  0.00     0.014 A 
ATOM      8  C   UNL A   1      41.604  21.136  27.987  1.00  0.00     0.014 A 
ATOM      9  C   UNL A   1      42.488  23.114  26.226  1.00  0.00     0.010 A 
ATOM     10  C   UNL A   1      41.972  22.391  28.478  1.00  0.00     0.010 A 
ATOM     11  C   UNL A   1      42.434  23.386  27.602  1.00  0.00    -0.014 A 
BRANCH  11  12
ATOM     12  C   UNL A   1      42.783  24.744  28.090  1.00  0.00     0.031 A 
ATOM     13  C   UNL A   1      41.727  25.788  28.313  1.00  0.00     0.074 A 
ATOM     14  C   UNL A   1      44.076  25.020  28.352  1.00  0.00     0.049 A 
ATOM     15  N   UNL A   1      41.862  27.018  28.740  1.00  0.00    -0.248 NA
ATOM     16  C   UNL A   1      40.339  25.407  28.011  1.00  0.00     0.031 C 
ATOM     17  C   UNL A   1      45.190  24.085  28.166  1.00  0.00     0.029 A 
ATOM     18  N   UNL A   1      44.673  26.152  28.842  1.00  0.00    -0.354 N 
ATOM     19  C   UNL A   1      40.584  27.561  28.751  1.00  0.00     0.074 A 
ATOM     20  C   UNL A   1      39.689  26.536  28.255  1.00  0.00     0.031 C 
ATOM     21  C   UNL A   1      46.325  24.666  28.579  1.00  0.00     0.029 A 
ATOM     22  C   UNL A   1      46.032  26.032  28.995  1.00  0.00     0.049 A 
ATOM     23  H   UNL A   1      44.174  26.972  29.063  1.00  0.00     0.167 HD
ATOM     24  C   UNL A   1      40.196  28.797  29.148  1.00  0.00     0.037 A 
ATOM     25  C   UNL A   1      46.948  26.928  29.405  1.00  0.00     0.037 A 
ATOM     26  C   UNL A   1      41.097  29.810  29.641  1.00  0.00     0.049 A 
ATOM     27  C   UNL A   1      46.495  28.305  29.790  1.00  0.00     0.074 A 
ATOM     28  C   UNL A   1      40.799  31.085  30.088  1.00  0.00     0.029 A 
ATOM     29  N   UNL A   1      42.473  29.664  29.744  1.00  0.00    -0.354 N 
ATOM     30  N   UNL A   1      45.280  28.795  29.824  1.00  0.00    -0.248 NA
ATOM     31  C   UNL A   1      47.540  29.256  30.190  1.00  0.00     0.031 C 
ATOM     32  C   UNL A   1      41.997  31.728  30.412  1.00  0.00     0.029 A 
ATOM     33  C   UNL A   1      43.039  30.835  30.222  1.00  0.00     0.049 A 
ATOM     34  H   UNL A   1      42.974  28.849  29.510  1.00  0.00     0.167 HD
ATOM     35  C   UNL A   1      45.410  30.103  30.269  1.00  0.00     0.074 A 
ATOM     36  C   UNL A   1      46.821  30.323  30.510  1.00  0.00     0.031 C 
ATOM     37  C   UNL A   1      44.447  31.038  30.458  1.00  0.00     0.037 A 
BRANCH  24  38
ATOM     38  C   UNL A   1      38.735  29.133  29.051  1.00  0.00     0.057 A 
ATOM     39  C   UNL A   1      37.878  29.047  30.156  1.00  0.00     0.134 A 
ATOM     40  C   UNL A   1      38.186  29.594  27.846  1.00  0.00     0.134 A 
ATOM     41  F   UNL A   1      38.335  28.603  31.337  1.00  0.00    -0.206 F 
ATOM     42  C   UNL A   1      36.526  29.384  30.061  1.00  0.00     0.040 A 
ATOM     43  C   UNL A   1      36.843  29.960  27.747  1.00  0.00     0.040 A 
ATOM     44  F   UNL A   1      38.950  29.711  26.750  1.00  0.00    -0.206 F 
ATOM     45  C   UNL A   1      36.007  29.849  28.855  1.00  0.00     0.006 A 
ENDBRANCH  24  38
BRANCH  25  46
ATOM     46  C   UNL A   1      48.382  26.547  29.462  1.00  0.00     0.057 A 
ATOM     47  C   UNL A   1      49.243  26.806  28.391  1.00  0.00     0.134 A 
ATOM     48  C   UNL A   1      48.925  25.920  30.591  1.00  0.00     0.134 A 
ATOM     49  F   UNL A   1      48.779  27.388  27.277  1.00  0.00    -0.206 F 
ATOM     50  C   UNL A   1      50.591  26.444  28.434  1.00  0.00     0.040 A 
ATOM     51  C   UNL A   1      50.276  25.581  30.659  1.00  0.00     0.040 A 
ATOM     52  F   UNL A   1      48.154  25.652  31.655  1.00  0.00    -0.206 F 
ATOM     53  C   UNL A   1      51.112  25.835  29.575  1.00  0.00     0.006 A 
ENDBRANCH  25  46
BRANCH  37  54
ATOM     54  C   UNL A   1      44.888  32.373  30.984  1.00  0.00     0.057 A 
ATOM     55  C   UNL A   1      44.987  32.633  32.356  1.00  0.00     0.134 A 
ATOM     56  C   UNL A   1      45.242  33.402  30.102  1.00  0.00     0.134 A 
ATOM     57  F   UNL A   1      44.646  31.695  33.253  1.00  0.00    -0.206 F 
ATOM     58  C   UNL A   1      45.399  33.878  32.835  1.00  0.00     0.040 A 
ATOM     59  C   UNL A   1      45.684  34.642  30.568  1.00  0.00     0.040 A 
ATOM     60  F   UNL A   1      45.177  33.217  28.776  1.00  0.00    -0.206 F 
ATOM     61  C   UNL A   1      45.757  34.884  31.938  1.00  0.00     0.006 A 
ENDBRANCH  37  54
ENDBRANCH  11  12
ENDBRANCH   4   6
ENDBRANCH   1   2
BRANCH   1  62
ATOM     62  C   UNL A   1      37.785  19.786  24.675  1.00  0.00     0.042 C 
BRANCH  62  63
ATOM     63  C   UNL A   1      36.342  20.176  25.002  1.00  0.00     0.118 C 
BRANCH  63  64
ATOM     64  N   UNL A   1      36.168  21.611  24.909  1.00  0.00    -0.351 N 
ATOM     65  C   UNL A   1      35.084  22.421  25.030  1.00  0.00     0.278 C 
ATOM     66  H   UNL A   1      37.003  22.096  24.721  1.00  0.00     0.163 HD
ATOM     67  O   UNL A   1      35.249  23.571  24.607  1.00  0.00    -0.268 OA
BRANCH  65  68
ATOM     68  C   UNL A   1      33.782  22.024  25.751  1.00  0.00     0.280 C 
ATOM     69  N   UNL A   1      33.239  23.030  26.696  1.00  0.00    -0.335 N 
ATOM     70  C   UNL A   1      32.662  21.679  24.759  1.00  0.00     0.096 C 
ATOM     71  C   UNL A   1      31.793  23.102  26.505  1.00  0.00     0.262 C 
ATOM     72  H   UNL A   1      33.658  23.941  26.507  1.00  0.00     0.346 HD
ATOM     73  H   UNL A   1      33.455  22.765  27.656  1.00  0.00     0.346 HD
ATOM     74  C   UNL A   1      31.408  21.957  25.588  1.00  0.00     0.076 C 
BRANCH  70  75
ATOM     75  C   UNL A   1      32.612  20.291  24.134  1.00  0.00    -0.001 A 
ATOM     76  C   UNL A   1      32.934  19.181  24.940  1.00  0.00     0.023 A 
ATOM     77  C   UNL A   1      32.280  20.033  22.796  1.00  0.00     0.127 A 
ATOM     78  C   UNL A   1      32.934  17.884  24.414  1.00  0.00     0.018 A 
ATOM     79  C   UNL A   1      32.264  18.739  22.277  1.00  0.00     0.041 A 
ATOM     80  F   UNL A   1      31.988  21.021  21.946  1.00  0.00    -0.207 F 
ATOM     81  Br  UNL A   1      33.414  16.425  25.516  1.00  0.00    -0.051 Br
ATOM     82  C   UNL A   1      32.597  17.657  23.084  1.00  0.00     0.019 A 
ENDBRANCH  70  75
ENDBRANCH  65  68
ENDBRANCH  63  64
ENDBRANCH  62  63
ENDBRANCH   1  62
TORSDOF 11
ENDMDL
