MODEL 1
REMARK VINA RESULT:     -11.6      0.000      0.000
REMARK SMILES CC(C)(C)OC(=O)[C@@H](C(=O)NCCCNC(=O)c1ccc(-c2c3nc(c(-c4c(F)cccc4F)c4ccc([nH]4)c(-c4c(F)cccc4F)c4nc(c(-c5c(F)cccc5F)c5ccc2[nH]5)C=C4)C=C3)cc1)[C@@H]([NH3+])Cc1cccc(F)c1
REMARK SMILES IDX 12 1 11 2 9 3 10 4 8 6 6 7 7 8 5 9 2 10 1 11 3 12 4 13 72 14
REMARK SMILES IDX 73 15 74 19 75 20 76 21 81 22 77 23 79 24 78 25 80 26 13 27
REMARK SMILES IDX 14 28 15 29 16 30 17 32 18 33 19 34 71 35 20 36 70 37 21 38
REMARK SMILES IDX 22 39 23 40 64 41 24 42 69 43 63 44 65 45 25 46 68 47 62 48
REMARK SMILES IDX 61 49 26 51 52 52 35 53 51 54 36 55 39 56 50 57 66 58 37 59
REMARK SMILES IDX 38 60 49 62 67 63 40 64 27 65 28 66 33 67 29 68 30 69 32 70
REMARK SMILES IDX 34 71 31 72 53 73 54 74 59 75 55 76 56 77 58 78 60 79 57 80
REMARK SMILES IDX 41 81 42 82 47 83 43 84 44 85 46 86 48 87 45 88
REMARK H PARENT 11 5 73 16 73 17 73 18 15 31 65 50 39 61
REMARK Flexibility Score: inf
ROOT
ATOM      1  C   UNL A   1      31.648  30.058  25.642  1.00  0.00     0.117 C 
ENDROOT
BRANCH   1   2
ATOM      2  N   UNL A   1      31.255  30.050  24.242  1.00  0.00    -0.355 N 
ATOM      3  C   UNL A   1      30.931  28.937  23.519  1.00  0.00     0.240 C 
ATOM      4  O   UNL A   1      31.441  28.817  22.405  1.00  0.00    -0.274 OA
ATOM      5  H   UNL A   1      31.220  30.918  23.778  1.00  0.00     0.163 HD
BRANCH   3   6
ATOM      6  C   UNL A   1      30.027  27.888  24.135  1.00  0.00     0.246 C 
BRANCH   6   7
ATOM      7  C   UNL A   1      30.811  26.600  24.247  1.00  0.00     0.325 C 
ATOM      8  O   UNL A   1      30.704  25.673  23.453  1.00  0.00    -0.251 OA
BRANCH   7   9
ATOM      9  O   UNL A   1      31.591  26.592  25.360  1.00  0.00    -0.459 OA
BRANCH   9  10
ATOM     10  C   UNL A   1      33.021  26.361  25.285  1.00  0.00     0.104 C 
ATOM     11  C   UNL A   1      33.204  24.923  25.790  1.00  0.00     0.056 C 
ATOM     12  C   UNL A   1      33.776  27.315  26.215  1.00  0.00     0.056 C 
ATOM     13  C   UNL A   1      33.533  26.439  23.843  1.00  0.00     0.056 C 
ENDBRANCH   9  10
ENDBRANCH   7   9
ENDBRANCH   6   7
BRANCH   6  14
ATOM     14  C   UNL A   1      28.713  27.679  23.323  1.00  0.00     0.209 C 
BRANCH  14  15
ATOM     15  N   UNL A   1      27.988  26.478  23.825  1.00  0.00    -0.354 N 
ATOM     16  H   UNL A   1      28.660  25.801  24.185  1.00  0.00     0.344 HD
ATOM     17  H   UNL A   1      27.458  26.058  23.061  1.00  0.00     0.344 HD
ATOM     18  H   UNL A   1      27.350  26.754  24.571  1.00  0.00     0.344 HD
ENDBRANCH  14  15
BRANCH  14  19
ATOM     19  C   UNL A   1      27.702  28.862  23.443  1.00  0.00     0.102 C 
BRANCH  19  20
ATOM     20  C   UNL A   1      27.939  30.147  22.680  1.00  0.00    -0.039 A 
ATOM     21  C   UNL A   1      27.878  30.228  21.281  1.00  0.00     0.004 A 
ATOM     22  C   UNL A   1      28.138  31.337  23.396  1.00  0.00     0.043 A 
ATOM     23  C   UNL A   1      28.119  31.434  20.614  1.00  0.00     0.003 A 
ATOM     24  C   UNL A   1      28.342  32.541  22.726  1.00  0.00     0.123 A 
ATOM     25  C   UNL A   1      28.354  32.597  21.340  1.00  0.00     0.039 A 
ATOM     26  F   UNL A   1      28.530  33.664  23.432  1.00  0.00    -0.207 F 
ENDBRANCH  19  20
ENDBRANCH  14  19
ENDBRANCH   6  14
ENDBRANCH   3   6
ENDBRANCH   1   2
BRANCH   1  27
ATOM     27  C   UNL A   1      31.380  31.427  26.278  1.00  0.00     0.042 C 
BRANCH  27  28
ATOM     28  C   UNL A   1      32.598  32.074  26.942  1.00  0.00     0.118 C 
BRANCH  28  29
ATOM     29  N   UNL A   1      32.377  33.470  27.285  1.00  0.00    -0.352 N 
ATOM     30  C   UNL A   1      33.002  34.263  28.216  1.00  0.00     0.251 C 
ATOM     31  H   UNL A   1      31.668  33.917  26.769  1.00  0.00     0.163 HD
ATOM     32  O   UNL A   1      32.546  35.373  28.472  1.00  0.00    -0.269 OA
BRANCH  30  33
ATOM     33  C   UNL A   1      34.202  33.783  28.936  1.00  0.00     0.039 A 
ATOM     34  C   UNL A   1      34.039  32.826  29.942  1.00  0.00     0.014 A 
ATOM     35  C   UNL A   1      35.474  34.288  28.653  1.00  0.00     0.014 A 
ATOM     36  C   UNL A   1      35.156  32.315  30.605  1.00  0.00     0.010 A 
ATOM     37  C   UNL A   1      36.595  33.744  29.283  1.00  0.00     0.010 A 
ATOM     38  C   UNL A   1      36.447  32.737  30.251  1.00  0.00    -0.014 A 
BRANCH  38  39
ATOM     39  C   UNL A   1      37.651  32.083  30.826  1.00  0.00     0.031 A 
ATOM     40  C   UNL A   1      38.376  31.001  30.079  1.00  0.00     0.074 A 
ATOM     41  C   UNL A   1      38.042  32.418  32.071  1.00  0.00     0.049 A 
ATOM     42  N   UNL A   1      39.385  30.265  30.470  1.00  0.00    -0.248 NA
ATOM     43  C   UNL A   1      37.898  30.693  28.722  1.00  0.00     0.031 C 
ATOM     44  C   UNL A   1      37.397  33.423  32.919  1.00  0.00     0.029 A 
ATOM     45  N   UNL A   1      39.063  31.934  32.851  1.00  0.00    -0.354 N 
ATOM     46  C   UNL A   1      39.654  29.398  29.419  1.00  0.00     0.074 A 
ATOM     47  C   UNL A   1      38.685  29.681  28.381  1.00  0.00     0.031 C 
ATOM     48  C   UNL A   1      38.037  33.482  34.098  1.00  0.00     0.029 A 
ATOM     49  C   UNL A   1      39.111  32.495  34.105  1.00  0.00     0.049 A 
ATOM     50  H   UNL A   1      39.700  31.250  32.542  1.00  0.00     0.167 HD
ATOM     51  C   UNL A   1      40.627  28.460  29.327  1.00  0.00     0.037 A 
ATOM     52  C   UNL A   1      39.915  32.230  35.152  1.00  0.00     0.037 A 
ATOM     53  C   UNL A   1      41.612  28.200  30.345  1.00  0.00     0.049 A 
ATOM     54  C   UNL A   1      40.972  31.171  35.025  1.00  0.00     0.074 A 
ATOM     55  C   UNL A   1      42.696  27.339  30.294  1.00  0.00     0.029 A 
ATOM     56  N   UNL A   1      41.629  28.790  31.599  1.00  0.00    -0.354 N 
ATOM     57  N   UNL A   1      41.265  30.418  33.994  1.00  0.00    -0.248 NA
ATOM     58  C   UNL A   1      41.808  30.920  36.209  1.00  0.00     0.031 C 
ATOM     59  C   UNL A   1      43.343  27.375  31.534  1.00  0.00     0.029 A 
ATOM     60  C   UNL A   1      42.681  28.284  32.343  1.00  0.00     0.049 A 
ATOM     61  H   UNL A   1      40.987  29.467  31.913  1.00  0.00     0.167 HD
ATOM     62  C   UNL A   1      42.324  29.617  34.398  1.00  0.00     0.074 A 
ATOM     63  C   UNL A   1      42.637  29.988  35.762  1.00  0.00     0.031 C 
ATOM     64  C   UNL A   1      42.978  28.656  33.702  1.00  0.00     0.037 A 
BRANCH  51  65
ATOM     65  C   UNL A   1      40.691  27.636  28.076  1.00  0.00     0.057 A 
ATOM     66  C   UNL A   1      41.438  28.043  26.964  1.00  0.00     0.134 A 
ATOM     67  C   UNL A   1      40.072  26.381  28.017  1.00  0.00     0.134 A 
ATOM     68  F   UNL A   1      42.051  29.237  26.958  1.00  0.00    -0.206 F 
ATOM     69  C   UNL A   1      41.562  27.234  25.833  1.00  0.00     0.040 A 
ATOM     70  C   UNL A   1      40.203  25.555  26.900  1.00  0.00     0.040 A 
ATOM     71  F   UNL A   1      39.349  25.929  29.053  1.00  0.00    -0.206 F 
ATOM     72  C   UNL A   1      40.950  25.982  25.804  1.00  0.00     0.006 A 
ENDBRANCH  51  65
BRANCH  52  73
ATOM     73  C   UNL A   1      39.743  32.968  36.428  1.00  0.00     0.057 A 
ATOM     74  C   UNL A   1      40.532  34.083  36.728  1.00  0.00     0.134 A 
ATOM     75  C   UNL A   1      38.806  32.559  37.385  1.00  0.00     0.134 A 
ATOM     76  F   UNL A   1      41.461  34.507  35.860  1.00  0.00    -0.206 F 
ATOM     77  C   UNL A   1      40.411  34.755  37.946  1.00  0.00     0.040 A 
ATOM     78  C   UNL A   1      38.660  33.235  38.597  1.00  0.00     0.040 A 
ATOM     79  F   UNL A   1      38.019  31.499  37.153  1.00  0.00    -0.206 F 
ATOM     80  C   UNL A   1      39.470  34.333  38.883  1.00  0.00     0.006 A 
ENDBRANCH  52  73
BRANCH  64  81
ATOM     81  C   UNL A   1      44.096  27.945  34.401  1.00  0.00     0.057 A 
ATOM     82  C   UNL A   1      45.396  28.464  34.416  1.00  0.00     0.134 A 
ATOM     83  C   UNL A   1      43.866  26.748  35.091  1.00  0.00     0.134 A 
ATOM     84  F   UNL A   1      45.682  29.599  33.759  1.00  0.00    -0.206 F 
ATOM     85  C   UNL A   1      46.434  27.810  35.081  1.00  0.00     0.040 A 
ATOM     86  C   UNL A   1      44.890  26.096  35.778  1.00  0.00     0.040 A 
ATOM     87  F   UNL A   1      42.641  26.202  35.119  1.00  0.00    -0.206 F 
ATOM     88  C   UNL A   1      46.180  26.624  35.770  1.00  0.00     0.006 A 
ENDBRANCH  64  81
ENDBRANCH  38  39
ENDBRANCH  30  33
ENDBRANCH  28  29
ENDBRANCH  27  28
ENDBRANCH   1  27
TORSDOF 17
ENDMDL
MODEL 2
REMARK VINA RESULT:     -11.3      1.165      2.012
REMARK SMILES CC(C)(C)OC(=O)[C@@H](C(=O)NCCCNC(=O)c1ccc(-c2c3nc(c(-c4c(F)cccc4F)c4ccc([nH]4)c(-c4c(F)cccc4F)c4nc(c(-c5c(F)cccc5F)c5ccc2[nH]5)C=C4)C=C3)cc1)[C@@H]([NH3+])Cc1cccc(F)c1
REMARK SMILES IDX 12 1 11 2 9 3 10 4 8 6 6 7 7 8 5 9 2 10 1 11 3 12 4 13 72 14
REMARK SMILES IDX 73 15 74 19 75 20 76 21 81 22 77 23 79 24 78 25 80 26 13 27
REMARK SMILES IDX 14 28 15 29 16 30 17 32 18 33 19 34 71 35 20 36 70 37 21 38
REMARK SMILES IDX 22 39 23 40 64 41 24 42 69 43 63 44 65 45 25 46 68 47 62 48
REMARK SMILES IDX 61 49 26 51 52 52 35 53 51 54 36 55 39 56 50 57 66 58 37 59
REMARK SMILES IDX 38 60 49 62 67 63 40 64 27 65 28 66 33 67 29 68 30 69 32 70
REMARK SMILES IDX 34 71 31 72 53 73 54 74 59 75 55 76 56 77 58 78 60 79 57 80
REMARK SMILES IDX 41 81 42 82 47 83 43 84 44 85 46 86 48 87 45 88
REMARK H PARENT 11 5 73 16 73 17 73 18 15 31 65 50 39 61
REMARK Flexibility Score: inf
ROOT
ATOM      1  C   UNL A   1      31.766  30.133  26.721  1.00  0.00     0.117 C 
ENDROOT
BRANCH   1   2
ATOM      2  N   UNL A   1      32.395  29.621  25.515  1.00  0.00    -0.355 N 
ATOM      3  C   UNL A   1      32.242  28.356  25.020  1.00  0.00     0.240 C 
ATOM      4  O   UNL A   1      33.261  27.754  24.681  1.00  0.00    -0.274 OA
ATOM      5  H   UNL A   1      32.980  30.235  25.016  1.00  0.00     0.163 HD
BRANCH   3   6
ATOM      6  C   UNL A   1      30.858  27.739  24.973  1.00  0.00     0.246 C 
BRANCH   6   7
ATOM      7  C   UNL A   1      30.886  26.464  25.784  1.00  0.00     0.325 C 
ATOM      8  O   UNL A   1      31.375  26.387  26.905  1.00  0.00    -0.251 OA
BRANCH   7   9
ATOM      9  O   UNL A   1      30.357  25.424  25.088  1.00  0.00    -0.459 OA
BRANCH   9  10
ATOM     10  C   UNL A   1      31.089  24.189  24.890  1.00  0.00     0.104 C 
ATOM     11  C   UNL A   1      30.654  23.702  23.501  1.00  0.00     0.056 C 
ATOM     12  C   UNL A   1      30.685  23.143  25.933  1.00  0.00     0.056 C 
ATOM     13  C   UNL A   1      32.604  24.425  24.870  1.00  0.00     0.056 C 
ENDBRANCH   9  10
ENDBRANCH   7   9
ENDBRANCH   6   7
BRANCH   6  14
ATOM     14  C   UNL A   1      30.372  27.471  23.517  1.00  0.00     0.209 C 
BRANCH  14  15
ATOM     15  N   UNL A   1      28.900  27.250  23.503  1.00  0.00    -0.354 N 
ATOM     16  H   UNL A   1      28.457  27.940  22.897  1.00  0.00     0.344 HD
ATOM     17  H   UNL A   1      28.533  27.343  24.450  1.00  0.00     0.344 HD
ATOM     18  H   UNL A   1      28.701  26.312  23.152  1.00  0.00     0.344 HD
ENDBRANCH  14  15
BRANCH  14  19
ATOM     19  C   UNL A   1      30.629  28.660  22.537  1.00  0.00     0.102 C 
BRANCH  19  20
ATOM     20  C   UNL A   1      29.712  29.864  22.545  1.00  0.00    -0.039 A 
ATOM     21  C   UNL A   1      29.531  30.680  23.671  1.00  0.00     0.004 A 
ATOM     22  C   UNL A   1      29.082  30.247  21.350  1.00  0.00     0.043 A 
ATOM     23  C   UNL A   1      28.662  31.776  23.639  1.00  0.00     0.003 A 
ATOM     24  C   UNL A   1      28.246  31.360  21.316  1.00  0.00     0.123 A 
ATOM     25  C   UNL A   1      28.013  32.117  22.456  1.00  0.00     0.039 A 
ATOM     26  F   UNL A   1      27.655  31.705  20.165  1.00  0.00    -0.207 F 
ENDBRANCH  19  20
ENDBRANCH  14  19
ENDBRANCH   6  14
ENDBRANCH   3   6
ENDBRANCH   1   2
BRANCH   1  27
ATOM     27  C   UNL A   1      31.595  31.655  26.645  1.00  0.00     0.042 C 
BRANCH  27  28
ATOM     28  C   UNL A   1      32.839  32.459  27.032  1.00  0.00     0.118 C 
BRANCH  28  29
ATOM     29  N   UNL A   1      32.524  33.818  27.445  1.00  0.00    -0.352 N 
ATOM     30  C   UNL A   1      33.056  34.582  28.455  1.00  0.00     0.251 C 
ATOM     31  H   UNL A   1      31.819  34.259  26.919  1.00  0.00     0.163 HD
ATOM     32  O   UNL A   1      32.527  35.649  28.751  1.00  0.00    -0.269 OA
BRANCH  30  33
ATOM     33  C   UNL A   1      34.242  34.121  29.209  1.00  0.00     0.039 A 
ATOM     34  C   UNL A   1      34.044  33.345  30.355  1.00  0.00     0.014 A 
ATOM     35  C   UNL A   1      35.538  34.471  28.818  1.00  0.00     0.014 A 
ATOM     36  C   UNL A   1      35.143  32.851  31.061  1.00  0.00     0.010 A 
ATOM     37  C   UNL A   1      36.637  33.939  29.496  1.00  0.00     0.010 A 
ATOM     38  C   UNL A   1      36.448  33.107  30.612  1.00  0.00    -0.014 A 
BRANCH  38  39
ATOM     39  C   UNL A   1      37.619  32.452  31.250  1.00  0.00     0.031 A 
ATOM     40  C   UNL A   1      38.300  31.281  30.602  1.00  0.00     0.074 A 
ATOM     41  C   UNL A   1      38.018  32.872  32.467  1.00  0.00     0.049 A 
ATOM     42  N   UNL A   1      39.274  30.537  31.062  1.00  0.00    -0.248 NA
ATOM     43  C   UNL A   1      37.817  30.882  29.271  1.00  0.00     0.031 C 
ATOM     44  C   UNL A   1      37.413  33.972  33.222  1.00  0.00     0.029 A 
ATOM     45  N   UNL A   1      39.013  32.412  33.294  1.00  0.00    -0.354 N 
ATOM     46  C   UNL A   1      39.510  29.575  30.090  1.00  0.00     0.074 A 
ATOM     47  C   UNL A   1      38.561  29.812  29.022  1.00  0.00     0.031 C 
ATOM     48  C   UNL A   1      38.048  34.100  34.398  1.00  0.00     0.029 A 
ATOM     49  C   UNL A   1      39.078  33.072  34.497  1.00  0.00     0.049 A 
ATOM     50  H   UNL A   1      39.621  31.677  33.048  1.00  0.00     0.167 HD
ATOM     51  C   UNL A   1      40.442  28.592  30.084  1.00  0.00     0.037 A 
ATOM     52  C   UNL A   1      39.863  32.861  35.569  1.00  0.00     0.037 A 
ATOM     53  C   UNL A   1      41.409  28.375  31.130  1.00  0.00     0.049 A 
ATOM     54  C   UNL A   1      40.874  31.751  35.540  1.00  0.00     0.074 A 
ATOM     55  C   UNL A   1      42.455  27.467  31.160  1.00  0.00     0.029 A 
ATOM     56  N   UNL A   1      41.445  29.066  32.330  1.00  0.00    -0.354 N 
ATOM     57  N   UNL A   1      41.140  30.902  34.578  1.00  0.00    -0.248 NA
ATOM     58  C   UNL A   1      41.692  31.563  36.749  1.00  0.00     0.031 C 
ATOM     59  C   UNL A   1      43.096  27.579  32.398  1.00  0.00     0.029 A 
ATOM     60  C   UNL A   1      42.470  28.579  33.123  1.00  0.00     0.049 A 
ATOM     61  H   UNL A   1      40.832  29.794  32.581  1.00  0.00     0.167 HD
ATOM     62  C   UNL A   1      42.161  30.093  35.057  1.00  0.00     0.074 A 
ATOM     63  C   UNL A   1      42.482  30.563  36.388  1.00  0.00     0.031 C 
ATOM     64  C   UNL A   1      42.775  29.050  34.449  1.00  0.00     0.037 A 
BRANCH  51  65
ATOM     65  C   UNL A   1      40.477  27.664  28.907  1.00  0.00     0.057 A 
ATOM     66  C   UNL A   1      39.672  26.520  28.847  1.00  0.00     0.134 A 
ATOM     67  C   UNL A   1      41.259  27.967  27.785  1.00  0.00     0.134 A 
ATOM     68  F   UNL A   1      38.904  26.175  29.892  1.00  0.00    -0.206 F 
ATOM     69  C   UNL A   1      39.648  25.705  27.714  1.00  0.00     0.040 A 
ATOM     70  C   UNL A   1      41.229  27.170  26.639  1.00  0.00     0.040 A 
ATOM     71  F   UNL A   1      42.045  29.054  27.776  1.00  0.00    -0.206 F 
ATOM     72  C   UNL A   1      40.422  26.035  26.603  1.00  0.00     0.006 A 
ENDBRANCH  51  65
BRANCH  52  73
ATOM     73  C   UNL A   1      39.717  33.709  36.779  1.00  0.00     0.057 A 
ATOM     74  C   UNL A   1      38.798  33.383  37.782  1.00  0.00     0.134 A 
ATOM     75  C   UNL A   1      40.471  34.877  36.945  1.00  0.00     0.134 A 
ATOM     76  F   UNL A   1      38.032  32.289  37.666  1.00  0.00    -0.206 F 
ATOM     77  C   UNL A   1      38.619  34.199  38.900  1.00  0.00     0.040 A 
ATOM     78  C   UNL A   1      40.318  35.690  38.069  1.00  0.00     0.040 A 
ATOM     79  F   UNL A   1      41.371  35.240  36.019  1.00  0.00    -0.206 F 
ATOM     80  C   UNL A   1      39.383  35.355  39.047  1.00  0.00     0.006 A 
ENDBRANCH  52  73
BRANCH  64  81
ATOM     81  C   UNL A   1      43.858  28.352  35.215  1.00  0.00     0.057 A 
ATOM     82  C   UNL A   1      45.186  28.791  35.168  1.00  0.00     0.134 A 
ATOM     83  C   UNL A   1      43.565  27.252  36.030  1.00  0.00     0.134 A 
ATOM     84  F   UNL A   1      45.531  29.830  34.392  1.00  0.00    -0.206 F 
ATOM     85  C   UNL A   1      46.191  28.151  35.894  1.00  0.00     0.040 A 
ATOM     86  C   UNL A   1      44.557  26.616  36.778  1.00  0.00     0.040 A 
ATOM     87  F   UNL A   1      42.310  26.786  36.123  1.00  0.00    -0.206 F 
ATOM     88  C   UNL A   1      45.875  27.063  36.708  1.00  0.00     0.006 A 
ENDBRANCH  64  81
ENDBRANCH  38  39
ENDBRANCH  30  33
ENDBRANCH  28  29
ENDBRANCH  27  28
ENDBRANCH   1  27
TORSDOF 17
ENDMDL
MODEL 3
REMARK VINA RESULT:     -11.2      3.942      8.242
REMARK SMILES CC(C)(C)OC(=O)[C@@H](C(=O)NCCCNC(=O)c1ccc(-c2c3nc(c(-c4c(F)cccc4F)c4ccc([nH]4)c(-c4c(F)cccc4F)c4nc(c(-c5c(F)cccc5F)c5ccc2[nH]5)C=C4)C=C3)cc1)[C@@H]([NH3+])Cc1cccc(F)c1
REMARK SMILES IDX 12 1 11 2 9 3 10 4 8 6 6 7 7 8 5 9 2 10 1 11 3 12 4 13 72 14
REMARK SMILES IDX 73 15 74 19 75 20 76 21 81 22 77 23 79 24 78 25 80 26 13 27
REMARK SMILES IDX 14 28 15 29 16 30 17 32 18 33 19 34 71 35 20 36 70 37 21 38
REMARK SMILES IDX 22 39 23 40 64 41 24 42 69 43 63 44 65 45 25 46 68 47 62 48
REMARK SMILES IDX 61 49 26 51 52 52 35 53 51 54 36 55 39 56 50 57 66 58 37 59
REMARK SMILES IDX 38 60 49 62 67 63 40 64 27 65 28 66 33 67 29 68 30 69 32 70
REMARK SMILES IDX 34 71 31 72 53 73 54 74 59 75 55 76 56 77 58 78 60 79 57 80
REMARK SMILES IDX 41 81 42 82 47 83 43 84 44 85 46 86 48 87 45 88
REMARK H PARENT 11 5 73 16 73 17 73 18 15 31 65 50 39 61
REMARK Flexibility Score: inf
ROOT
ATOM      1  C   UNL A   1      31.378  28.314  26.913  1.00  0.00     0.117 C 
ENDROOT
BRANCH   1   2
ATOM      2  N   UNL A   1      31.078  27.181  26.053  1.00  0.00    -0.355 N 
ATOM      3  C   UNL A   1      30.626  27.263  24.766  1.00  0.00     0.240 C 
ATOM      4  O   UNL A   1      29.670  26.554  24.455  1.00  0.00    -0.274 OA
ATOM      5  H   UNL A   1      31.209  26.281  26.430  1.00  0.00     0.163 HD
BRANCH   3   6
ATOM      6  C   UNL A   1      31.269  28.254  23.816  1.00  0.00     0.246 C 
BRANCH   6   7
ATOM      7  C   UNL A   1      30.214  28.718  22.837  1.00  0.00     0.325 C 
ATOM      8  O   UNL A   1      30.068  28.232  21.722  1.00  0.00    -0.251 OA
BRANCH   7   9
ATOM      9  O   UNL A   1      29.506  29.766  23.334  1.00  0.00    -0.459 OA
BRANCH   9  10
ATOM     10  C   UNL A   1      28.164  30.064  22.874  1.00  0.00     0.104 C 
ATOM     11  C   UNL A   1      27.721  31.259  23.730  1.00  0.00     0.056 C 
ATOM     12  C   UNL A   1      27.223  28.886  23.139  1.00  0.00     0.056 C 
ATOM     13  C   UNL A   1      28.151  30.489  21.402  1.00  0.00     0.056 C 
ENDBRANCH   9  10
ENDBRANCH   7   9
ENDBRANCH   6   7
BRANCH   6  14
ATOM     14  C   UNL A   1      32.503  27.657  23.074  1.00  0.00     0.209 C 
BRANCH  14  15
ATOM     15  N   UNL A   1      33.039  28.645  22.097  1.00  0.00    -0.354 N 
ATOM     16  H   UNL A   1      33.747  29.222  22.551  1.00  0.00     0.344 HD
ATOM     17  H   UNL A   1      32.280  29.237  21.762  1.00  0.00     0.344 HD
ATOM     18  H   UNL A   1      33.459  28.151  21.309  1.00  0.00     0.344 HD
ENDBRANCH  14  15
BRANCH  14  19
ATOM     19  C   UNL A   1      33.697  27.305  24.016  1.00  0.00     0.102 C 
BRANCH  19  20
ATOM     20  C   UNL A   1      34.015  25.859  24.334  1.00  0.00    -0.039 A 
ATOM     21  C   UNL A   1      34.274  25.402  25.634  1.00  0.00     0.004 A 
ATOM     22  C   UNL A   1      33.959  24.908  23.304  1.00  0.00     0.043 A 
ATOM     23  C   UNL A   1      34.579  24.058  25.882  1.00  0.00     0.003 A 
ATOM     24  C   UNL A   1      34.229  23.567  23.563  1.00  0.00     0.123 A 
ATOM     25  C   UNL A   1      34.559  23.136  24.841  1.00  0.00     0.039 A 
ATOM     26  F   UNL A   1      34.170  22.678  22.563  1.00  0.00    -0.207 F 
ENDBRANCH  19  20
ENDBRANCH  14  19
ENDBRANCH   6  14
ENDBRANCH   3   6
ENDBRANCH   1   2
BRANCH   1  27
ATOM     27  C   UNL A   1      32.705  28.103  27.652  1.00  0.00     0.042 C 
BRANCH  27  28
ATOM     28  C   UNL A   1      33.862  28.973  27.152  1.00  0.00     0.118 C 
BRANCH  28  29
ATOM     29  N   UNL A   1      33.882  30.290  27.769  1.00  0.00    -0.352 N 
ATOM     30  C   UNL A   1      34.848  30.894  28.535  1.00  0.00     0.251 C 
ATOM     31  H   UNL A   1      33.076  30.834  27.614  1.00  0.00     0.163 HD
ATOM     32  O   UNL A   1      34.596  31.949  29.109  1.00  0.00    -0.269 OA
BRANCH  30  33
ATOM     33  C   UNL A   1      36.181  30.273  28.702  1.00  0.00     0.039 A 
ATOM     34  C   UNL A   1      37.073  30.312  27.626  1.00  0.00     0.014 A 
ATOM     35  C   UNL A   1      36.545  29.631  29.888  1.00  0.00     0.014 A 
ATOM     36  C   UNL A   1      38.358  29.782  27.766  1.00  0.00     0.010 A 
ATOM     37  C   UNL A   1      37.844  29.143  30.044  1.00  0.00     0.010 A 
ATOM     38  C   UNL A   1      38.768  29.232  28.991  1.00  0.00    -0.014 A 
BRANCH  38  39
ATOM     39  C   UNL A   1      40.179  28.819  29.209  1.00  0.00     0.031 A 
ATOM     40  C   UNL A   1      41.188  29.776  29.776  1.00  0.00     0.074 A 
ATOM     41  C   UNL A   1      40.566  27.590  28.815  1.00  0.00     0.049 A 
ATOM     42  N   UNL A   1      42.475  29.610  29.947  1.00  0.00    -0.248 NA
ATOM     43  C   UNL A   1      40.693  31.098  30.190  1.00  0.00     0.031 C 
ATOM     44  C   UNL A   1      39.692  26.580  28.212  1.00  0.00     0.029 A 
ATOM     45  N   UNL A   1      41.799  26.986  28.843  1.00  0.00    -0.354 N 
ATOM     46  C   UNL A   1      42.947  30.805  30.472  1.00  0.00     0.074 A 
ATOM     47  C   UNL A   1      41.813  31.700  30.570  1.00  0.00     0.031 C 
ATOM     48  C   UNL A   1      40.415  25.485  27.928  1.00  0.00     0.029 A 
ATOM     49  C   UNL A   1      41.807  25.727  28.293  1.00  0.00     0.049 A 
ATOM     50  H   UNL A   1      42.601  27.415  29.220  1.00  0.00     0.167 HD
ATOM     51  C   UNL A   1      44.209  31.121  30.849  1.00  0.00     0.037 A 
ATOM     52  C   UNL A   1      42.824  24.869  28.084  1.00  0.00     0.037 A 
ATOM     53  C   UNL A   1      45.332  30.222  30.783  1.00  0.00     0.049 A 
ATOM     54  C   UNL A   1      44.215  25.257  28.495  1.00  0.00     0.074 A 
ATOM     55  C   UNL A   1      46.625  30.424  31.239  1.00  0.00     0.029 A 
ATOM     56  N   UNL A   1      45.299  28.955  30.223  1.00  0.00    -0.354 N 
ATOM     57  N   UNL A   1      44.629  26.360  29.067  1.00  0.00    -0.248 NA
ATOM     58  C   UNL A   1      45.284  24.281  28.227  1.00  0.00     0.031 C 
ATOM     59  C   UNL A   1      47.386  29.296  30.912  1.00  0.00     0.029 A 
ATOM     60  C   UNL A   1      46.557  28.379  30.286  1.00  0.00     0.049 A 
ATOM     61  H   UNL A   1      44.501  28.528  29.837  1.00  0.00     0.167 HD
ATOM     62  C   UNL A   1      45.998  26.208  29.240  1.00  0.00     0.074 A 
ATOM     63  C   UNL A   1      46.343  24.896  28.731  1.00  0.00     0.031 C 
ATOM     64  C   UNL A   1      46.890  27.078  29.770  1.00  0.00     0.037 A 
BRANCH  51  65
ATOM     65  C   UNL A   1      44.459  32.502  31.376  1.00  0.00     0.057 A 
ATOM     66  C   UNL A   1      44.366  32.796  32.742  1.00  0.00     0.134 A 
ATOM     67  C   UNL A   1      44.883  33.526  30.520  1.00  0.00     0.134 A 
ATOM     68  F   UNL A   1      43.961  31.858  33.612  1.00  0.00    -0.206 F 
ATOM     69  C   UNL A   1      44.680  34.062  33.238  1.00  0.00     0.040 A 
ATOM     70  C   UNL A   1      45.218  34.791  31.006  1.00  0.00     0.040 A 
ATOM     71  F   UNL A   1      45.001  33.306  29.202  1.00  0.00    -0.206 F 
ATOM     72  C   UNL A   1      45.116  35.061  32.368  1.00  0.00     0.006 A 
ENDBRANCH  51  65
BRANCH  52  73
ATOM     73  C   UNL A   1      42.572  23.558  27.435  1.00  0.00     0.057 A 
ATOM     74  C   UNL A   1      42.270  22.424  28.195  1.00  0.00     0.134 A 
ATOM     75  C   UNL A   1      42.653  23.406  26.045  1.00  0.00     0.134 A 
ATOM     76  F   UNL A   1      42.201  22.504  29.531  1.00  0.00    -0.206 F 
ATOM     77  C   UNL A   1      42.078  21.176  27.598  1.00  0.00     0.040 A 
ATOM     78  C   UNL A   1      42.441  22.170  25.434  1.00  0.00     0.040 A 
ATOM     79  F   UNL A   1      42.935  24.459  25.264  1.00  0.00    -0.206 F 
ATOM     80  C   UNL A   1      42.161  21.048  26.212  1.00  0.00     0.006 A 
ENDBRANCH  52  73
BRANCH  64  81
ATOM     81  C   UNL A   1      48.322  26.638  29.830  1.00  0.00     0.057 A 
ATOM     82  C   UNL A   1      49.232  26.973  28.822  1.00  0.00     0.134 A 
ATOM     83  C   UNL A   1      48.800  25.900  30.921  1.00  0.00     0.134 A 
ATOM     84  F   UNL A   1      48.830  27.663  27.744  1.00  0.00    -0.206 F 
ATOM     85  C   UNL A   1      50.569  26.576  28.887  1.00  0.00     0.040 A 
ATOM     86  C   UNL A   1      50.139  25.517  31.008  1.00  0.00     0.040 A 
ATOM     87  F   UNL A   1      47.979  25.553  31.923  1.00  0.00    -0.206 F 
ATOM     88  C   UNL A   1      51.027  25.851  29.986  1.00  0.00     0.006 A 
ENDBRANCH  64  81
ENDBRANCH  38  39
ENDBRANCH  30  33
ENDBRANCH  28  29
ENDBRANCH  27  28
ENDBRANCH   1  27
TORSDOF 17
ENDMDL
