MODEL 1
REMARK VINA RESULT:     -12.1      0.000      0.000
REMARK SMILES CCOc1ccccc1NC(=O)[C@H]1[C@@H]2C=C[C@@H]([C@@H]3C[C@H]23)[C@@H]1C(=O)NCCCNC(=O)c1ccc(-c2c3nc(c(-c4c(F)cccc4F)c4ccc([nH]4)c(-c4c(F)cccc4F)c4nc(c(-c5c(F)cccc5F)c5ccc2[nH]5)C=C4)C=C3)cc1
REMARK SMILES IDX 25 1 24 2 22 3 23 4 21 6 13 7 14 8 15 9 20 10 17 11 16 12
REMARK SMILES IDX 18 13 19 14 11 15 10 16 12 18 9 19 4 20 5 21 6 22 8 23 7 24
REMARK SMILES IDX 3 25 2 26 1 27 26 28 27 29 28 30 29 31 30 33 31 34 32 35
REMARK SMILES IDX 84 36 33 37 83 38 34 39 35 40 36 41 77 42 37 43 82 44 76 45
REMARK SMILES IDX 78 46 38 47 81 48 75 49 74 50 39 52 65 53 48 54 64 55 49 56
REMARK SMILES IDX 52 57 63 58 79 59 50 60 51 61 62 63 80 64 53 65 40 66 41 67
REMARK SMILES IDX 46 68 42 69 43 70 45 71 47 72 44 73 66 74 67 75 72 76 68 77
REMARK SMILES IDX 69 78 71 79 73 80 70 81 54 82 55 83 60 84 56 85 57 86 59 87
REMARK SMILES IDX 61 88 58 89
REMARK H PARENT 24 5 10 17 28 32 78 51 52 62
REMARK Flexibility Score: inf
ROOT
ATOM      1  C   UNL A   1      31.397  30.766  26.167  1.00  0.00     0.117 C 
ENDROOT
BRANCH   1   2
ATOM      2  N   UNL A   1      32.775  30.357  25.973  1.00  0.00    -0.356 N 
ATOM      3  C   UNL A   1      33.300  29.112  25.835  1.00  0.00     0.224 C 
ATOM      4  O   UNL A   1      34.475  28.976  26.183  1.00  0.00    -0.275 OA
ATOM      5  H   UNL A   1      33.428  31.094  25.934  1.00  0.00     0.163 HD
BRANCH   3   6
ATOM      6  C   UNL A   1      32.499  28.001  25.157  1.00  0.00     0.098 C 
ATOM      7  C   UNL A   1      33.435  26.733  24.889  1.00  0.00     0.099 C 
ATOM      8  C   UNL A   1      33.460  26.544  23.349  1.00  0.00     0.028 C 
ATOM      9  C   UNL A   1      33.957  27.863  22.739  1.00  0.00    -0.026 C 
ATOM     10  C   UNL A   1      32.068  26.261  22.788  1.00  0.00     0.001 C 
ATOM     11  C   UNL A   1      31.926  28.552  23.794  1.00  0.00     0.028 C 
ATOM     12  C   UNL A   1      33.133  28.906  22.934  1.00  0.00    -0.026 C 
ATOM     13  C   UNL A   1      31.158  27.455  23.032  1.00  0.00     0.001 C 
ATOM     14  C   UNL A   1      30.778  26.095  23.554  1.00  0.00     0.009 C 
BRANCH   7  15
ATOM     15  C   UNL A   1      32.991  25.609  25.856  1.00  0.00     0.229 C 
ATOM     16  N   UNL A   1      33.580  24.397  26.036  1.00  0.00    -0.323 N 
ATOM     17  H   UNL A   1      33.130  23.837  26.708  1.00  0.00     0.170 HD
ATOM     18  O   UNL A   1      31.981  25.796  26.558  1.00  0.00    -0.274 OA
BRANCH  16  19
ATOM     19  C   UNL A   1      34.695  23.783  25.459  1.00  0.00     0.083 A 
ATOM     20  C   UNL A   1      34.502  23.058  24.274  1.00  0.00     0.142 A 
ATOM     21  C   UNL A   1      35.594  22.664  23.503  1.00  0.00     0.048 A 
ATOM     22  C   UNL A   1      36.885  22.927  23.965  1.00  0.00     0.004 A 
ATOM     23  C   UNL A   1      35.969  23.868  25.997  1.00  0.00     0.030 A 
ATOM     24  C   UNL A   1      37.071  23.474  25.235  1.00  0.00     0.002 A 
BRANCH  20  25
ATOM     25  O   UNL A   1      33.237  22.625  23.983  1.00  0.00    -0.492 OA
BRANCH  25  26
ATOM     26  C   UNL A   1      32.911  22.579  22.596  1.00  0.00     0.226 C 
ATOM     27  C   UNL A   1      32.100  21.313  22.369  1.00  0.00     0.049 C 
ENDBRANCH  25  26
ENDBRANCH  20  25
ENDBRANCH  16  19
ENDBRANCH   7  15
ENDBRANCH   3   6
ENDBRANCH   1   2
BRANCH   1  28
ATOM     28  C   UNL A   1      31.311  32.261  26.483  1.00  0.00     0.042 C 
BRANCH  28  29
ATOM     29  C   UNL A   1      32.535  32.850  27.187  1.00  0.00     0.118 C 
BRANCH  29  30
ATOM     30  N   UNL A   1      32.336  34.217  27.647  1.00  0.00    -0.352 N 
ATOM     31  C   UNL A   1      33.008  34.928  28.610  1.00  0.00     0.251 C 
ATOM     32  H   UNL A   1      31.609  34.706  27.199  1.00  0.00     0.163 HD
ATOM     33  O   UNL A   1      32.594  36.040  28.943  1.00  0.00    -0.269 OA
BRANCH  31  34
ATOM     34  C   UNL A   1      34.202  34.364  29.275  1.00  0.00     0.039 A 
ATOM     35  C   UNL A   1      34.028  33.627  30.450  1.00  0.00     0.014 A 
ATOM     36  C   UNL A   1      35.487  34.568  28.766  1.00  0.00     0.014 A 
ATOM     37  C   UNL A   1      35.131  33.037  31.073  1.00  0.00     0.010 A 
ATOM     38  C   UNL A   1      36.577  33.921  29.348  1.00  0.00     0.010 A 
ATOM     39  C   UNL A   1      36.411  33.143  30.504  1.00  0.00    -0.014 A 
BRANCH  39  40
ATOM     40  C   UNL A   1      37.575  32.429  31.094  1.00  0.00     0.031 A 
ATOM     41  C   UNL A   1      38.226  32.932  32.352  1.00  0.00     0.074 A 
ATOM     42  C   UNL A   1      38.086  31.356  30.459  1.00  0.00     0.049 A 
ATOM     43  N   UNL A   1      39.280  32.473  32.978  1.00  0.00    -0.248 NA
ATOM     44  C   UNL A   1      37.627  34.121  32.977  1.00  0.00     0.031 C 
ATOM     45  C   UNL A   1      37.578  30.792  29.208  1.00  0.00     0.029 A 
ATOM     46  N   UNL A   1      39.157  30.556  30.772  1.00  0.00    -0.354 N 
ATOM     47  C   UNL A   1      39.479  33.321  34.060  1.00  0.00     0.074 A 
ATOM     48  C   UNL A   1      38.467  34.353  33.975  1.00  0.00     0.031 C 
ATOM     49  C   UNL A   1      38.320  29.726  28.872  1.00  0.00     0.029 A 
ATOM     50  C   UNL A   1      39.384  29.556  29.858  1.00  0.00     0.049 A 
ATOM     51  H   UNL A   1      39.710  30.685  31.577  1.00  0.00     0.167 HD
ATOM     52  C   UNL A   1      40.406  33.239  35.045  1.00  0.00     0.037 A 
ATOM     53  C   UNL A   1      40.345  28.614  29.808  1.00  0.00     0.037 A 
ATOM     54  C   UNL A   1      41.407  32.207  35.133  1.00  0.00     0.049 A 
ATOM     55  C   UNL A   1      41.377  28.556  30.900  1.00  0.00     0.074 A 
ATOM     56  C   UNL A   1      42.352  32.005  36.125  1.00  0.00     0.029 A 
ATOM     57  N   UNL A   1      41.600  31.209  34.189  1.00  0.00    -0.354 N 
ATOM     58  N   UNL A   1      41.508  29.321  31.956  1.00  0.00    -0.248 NA
ATOM     59  C   UNL A   1      42.393  27.499  30.796  1.00  0.00     0.031 C 
ATOM     60  C   UNL A   1      43.153  30.921  35.752  1.00  0.00     0.029 A 
ATOM     61  C   UNL A   1      42.670  30.407  34.560  1.00  0.00     0.049 A 
ATOM     62  H   UNL A   1      41.059  31.087  33.377  1.00  0.00     0.167 HD
ATOM     63  C   UNL A   1      42.600  28.822  32.656  1.00  0.00     0.074 A 
ATOM     64  C   UNL A   1      43.086  27.680  31.911  1.00  0.00     0.031 C 
ATOM     65  C   UNL A   1      43.146  29.270  33.813  1.00  0.00     0.037 A 
BRANCH  52  66
ATOM     66  C   UNL A   1      40.386  34.305  36.105  1.00  0.00     0.057 A 
ATOM     67  C   UNL A   1      39.608  34.183  37.265  1.00  0.00     0.134 A 
ATOM     68  C   UNL A   1      41.177  35.454  35.979  1.00  0.00     0.134 A 
ATOM     69  F   UNL A   1      38.821  33.112  37.447  1.00  0.00    -0.206 F 
ATOM     70  C   UNL A   1      39.591  35.181  38.242  1.00  0.00     0.040 A 
ATOM     71  C   UNL A   1      41.191  36.443  36.963  1.00  0.00     0.040 A 
ATOM     72  F   UNL A   1      41.955  35.632  34.900  1.00  0.00    -0.206 F 
ATOM     73  C   UNL A   1      40.389  36.313  38.095  1.00  0.00     0.006 A 
ENDBRANCH  52  66
BRANCH  53  74
ATOM     74  C   UNL A   1      40.367  27.638  28.690  1.00  0.00     0.057 A 
ATOM     75  C   UNL A   1      39.633  26.448  28.754  1.00  0.00     0.134 A 
ATOM     76  C   UNL A   1      41.118  27.869  27.531  1.00  0.00     0.134 A 
ATOM     77  F   UNL A   1      38.909  26.160  29.845  1.00  0.00    -0.206 F 
ATOM     78  C   UNL A   1      39.656  25.516  27.714  1.00  0.00     0.040 A 
ATOM     79  C   UNL A   1      41.130  26.960  26.473  1.00  0.00     0.040 A 
ATOM     80  F   UNL A   1      41.839  28.994  27.404  1.00  0.00    -0.206 F 
ATOM     81  C   UNL A   1      40.402  25.775  26.566  1.00  0.00     0.006 A 
ENDBRANCH  53  74
BRANCH  65  82
ATOM     82  C   UNL A   1      44.314  28.502  34.366  1.00  0.00     0.057 A 
ATOM     83  C   UNL A   1      44.146  27.398  35.211  1.00  0.00     0.134 A 
ATOM     84  C   UNL A   1      45.625  28.853  34.016  1.00  0.00     0.134 A 
ATOM     85  F   UNL A   1      42.918  27.017  35.597  1.00  0.00    -0.206 F 
ATOM     86  C   UNL A   1      45.239  26.686  35.708  1.00  0.00     0.040 A 
ATOM     87  C   UNL A   1      46.725  28.130  34.481  1.00  0.00     0.040 A 
ATOM     88  F   UNL A   1      45.858  29.894  33.202  1.00  0.00    -0.206 F 
ATOM     89  C   UNL A   1      46.533  27.047  35.335  1.00  0.00     0.006 A 
ENDBRANCH  65  82
ENDBRANCH  39  40
ENDBRANCH  31  34
ENDBRANCH  29  30
ENDBRANCH  28  29
ENDBRANCH   1  28
TORSDOF 14
ENDMDL
MODEL 2
REMARK VINA RESULT:     -12.1      4.591      9.796
REMARK SMILES CCOc1ccccc1NC(=O)[C@H]1[C@@H]2C=C[C@@H]([C@@H]3C[C@H]23)[C@@H]1C(=O)NCCCNC(=O)c1ccc(-c2c3nc(c(-c4c(F)cccc4F)c4ccc([nH]4)c(-c4c(F)cccc4F)c4nc(c(-c5c(F)cccc5F)c5ccc2[nH]5)C=C4)C=C3)cc1
REMARK SMILES IDX 25 1 24 2 22 3 23 4 21 6 13 7 14 8 15 9 20 10 17 11 16 12
REMARK SMILES IDX 18 13 19 14 11 15 10 16 12 18 9 19 4 20 5 21 6 22 8 23 7 24
REMARK SMILES IDX 3 25 2 26 1 27 26 28 27 29 28 30 29 31 30 33 31 34 32 35
REMARK SMILES IDX 84 36 33 37 83 38 34 39 35 40 36 41 77 42 37 43 82 44 76 45
REMARK SMILES IDX 78 46 38 47 81 48 75 49 74 50 39 52 65 53 48 54 64 55 49 56
REMARK SMILES IDX 52 57 63 58 79 59 50 60 51 61 62 63 80 64 53 65 40 66 41 67
REMARK SMILES IDX 46 68 42 69 43 70 45 71 47 72 44 73 66 74 67 75 72 76 68 77
REMARK SMILES IDX 69 78 71 79 73 80 70 81 54 82 55 83 60 84 56 85 57 86 59 87
REMARK SMILES IDX 61 88 58 89
REMARK H PARENT 24 5 10 17 28 32 78 51 52 62
REMARK Flexibility Score: inf
ROOT
ATOM      1  C   UNL A   1      37.101  20.447  24.726  1.00  0.00     0.117 C 
ENDROOT
BRANCH   1   2
ATOM      2  N   UNL A   1      37.105  21.491  25.733  1.00  0.00    -0.356 N 
ATOM      3  C   UNL A   1      36.371  22.632  25.803  1.00  0.00     0.224 C 
ATOM      4  O   UNL A   1      36.878  23.567  26.428  1.00  0.00    -0.275 OA
ATOM      5  H   UNL A   1      37.734  21.351  26.477  1.00  0.00     0.163 HD
BRANCH   3   6
ATOM      6  C   UNL A   1      34.948  22.678  25.248  1.00  0.00     0.098 C 
ATOM      7  C   UNL A   1      34.233  24.041  25.677  1.00  0.00     0.099 C 
ATOM      8  C   UNL A   1      33.015  23.625  26.544  1.00  0.00     0.028 C 
ATOM      9  C   UNL A   1      33.554  22.775  27.705  1.00  0.00    -0.026 C 
ATOM     10  C   UNL A   1      32.023  22.771  25.757  1.00  0.00     0.001 C 
ATOM     11  C   UNL A   1      34.147  21.441  25.813  1.00  0.00     0.028 C 
ATOM     12  C   UNL A   1      34.108  21.611  27.326  1.00  0.00    -0.026 C 
ATOM     13  C   UNL A   1      32.682  21.465  25.336  1.00  0.00     0.001 C 
ATOM     14  C   UNL A   1      32.088  22.382  24.300  1.00  0.00     0.009 C 
BRANCH   7  15
ATOM     15  C   UNL A   1      34.089  24.916  24.408  1.00  0.00     0.229 C 
ATOM     16  N   UNL A   1      33.577  26.173  24.329  1.00  0.00    -0.323 N 
ATOM     17  H   UNL A   1      33.587  26.544  23.418  1.00  0.00     0.170 HD
ATOM     18  O   UNL A   1      34.466  24.447  23.320  1.00  0.00    -0.274 OA
BRANCH  16  19
ATOM     19  C   UNL A   1      33.040  27.046  25.278  1.00  0.00     0.083 A 
ATOM     20  C   UNL A   1      31.676  26.923  25.581  1.00  0.00     0.142 A 
ATOM     21  C   UNL A   1      31.143  27.557  26.703  1.00  0.00     0.048 A 
ATOM     22  C   UNL A   1      31.964  28.383  27.473  1.00  0.00     0.004 A 
ATOM     23  C   UNL A   1      33.790  28.010  25.931  1.00  0.00     0.030 A 
ATOM     24  C   UNL A   1      33.266  28.655  27.053  1.00  0.00     0.002 A 
BRANCH  20  25
ATOM     25  O   UNL A   1      30.868  26.295  24.673  1.00  0.00    -0.492 OA
BRANCH  25  26
ATOM     26  C   UNL A   1      30.049  27.156  23.885  1.00  0.00     0.226 C 
ATOM     27  C   UNL A   1      28.628  26.620  23.969  1.00  0.00     0.049 C 
ENDBRANCH  25  26
ENDBRANCH  20  25
ENDBRANCH  16  19
ENDBRANCH   7  15
ENDBRANCH   3   6
ENDBRANCH   1   2
BRANCH   1  28
ATOM     28  C   UNL A   1      38.170  19.395  25.027  1.00  0.00     0.042 C 
BRANCH  28  29
ATOM     29  C   UNL A   1      39.356  19.891  25.857  1.00  0.00     0.118 C 
BRANCH  29  30
ATOM     30  N   UNL A   1      40.482  18.966  25.869  1.00  0.00    -0.352 N 
ATOM     31  C   UNL A   1      41.814  19.204  26.093  1.00  0.00     0.251 C 
ATOM     32  H   UNL A   1      40.250  18.026  25.689  1.00  0.00     0.163 HD
ATOM     33  O   UNL A   1      42.630  18.296  25.927  1.00  0.00    -0.269 OA
BRANCH  31  34
ATOM     34  C   UNL A   1      42.288  20.545  26.500  1.00  0.00     0.039 A 
ATOM     35  C   UNL A   1      42.762  21.415  25.513  1.00  0.00     0.014 A 
ATOM     36  C   UNL A   1      42.286  20.946  27.838  1.00  0.00     0.014 A 
ATOM     37  C   UNL A   1      43.167  22.707  25.858  1.00  0.00     0.010 A 
ATOM     38  C   UNL A   1      42.623  22.258  28.172  1.00  0.00     0.010 A 
ATOM     39  C   UNL A   1      43.061  23.155  27.185  1.00  0.00    -0.014 A 
BRANCH  39  40
ATOM     40  C   UNL A   1      43.383  24.561  27.548  1.00  0.00     0.031 A 
ATOM     41  C   UNL A   1      44.811  25.025  27.628  1.00  0.00     0.074 A 
ATOM     42  C   UNL A   1      42.385  25.408  27.868  1.00  0.00     0.049 A 
ATOM     43  N   UNL A   1      45.281  26.195  27.982  1.00  0.00    -0.248 NA
ATOM     44  C   UNL A   1      45.847  24.038  27.288  1.00  0.00     0.031 C 
ATOM     45  C   UNL A   1      40.961  25.074  27.875  1.00  0.00     0.029 A 
ATOM     46  N   UNL A   1      42.419  26.723  28.262  1.00  0.00    -0.354 N 
ATOM     47  C   UNL A   1      46.665  26.082  27.919  1.00  0.00     0.074 A 
ATOM     48  C   UNL A   1      46.957  24.715  27.544  1.00  0.00     0.031 C 
ATOM     49  C   UNL A   1      40.255  26.158  28.232  1.00  0.00     0.029 A 
ATOM     50  C   UNL A   1      41.177  27.252  28.522  1.00  0.00     0.049 A 
ATOM     51  H   UNL A   1      43.252  27.239  28.349  1.00  0.00     0.167 HD
ATOM     52  C   UNL A   1      47.605  27.034  28.134  1.00  0.00     0.037 A 
ATOM     53  C   UNL A   1      40.819  28.475  28.956  1.00  0.00     0.037 A 
ATOM     54  C   UNL A   1      47.313  28.396  28.498  1.00  0.00     0.049 A 
ATOM     55  C   UNL A   1      41.880  29.509  29.211  1.00  0.00     0.074 A 
ATOM     56  C   UNL A   1      48.194  29.448  28.680  1.00  0.00     0.029 A 
ATOM     57  N   UNL A   1      46.042  28.893  28.747  1.00  0.00    -0.354 N 
ATOM     58  N   UNL A   1      43.181  29.408  29.076  1.00  0.00    -0.248 NA
ATOM     59  C   UNL A   1      41.425  30.827  29.672  1.00  0.00     0.031 C 
ATOM     60  C   UNL A   1      47.463  30.565  29.095  1.00  0.00     0.029 A 
ATOM     61  C   UNL A   1      46.119  30.229  29.111  1.00  0.00     0.049 A 
ATOM     62  H   UNL A   1      45.208  28.375  28.675  1.00  0.00     0.167 HD
ATOM     63  C   UNL A   1      43.695  30.656  29.408  1.00  0.00     0.074 A 
ATOM     64  C   UNL A   1      42.566  31.499  29.736  1.00  0.00     0.031 C 
ATOM     65  C   UNL A   1      44.988  31.063  29.434  1.00  0.00     0.037 A 
BRANCH  52  66
ATOM     66  C   UNL A   1      49.045  26.628  27.990  1.00  0.00     0.057 A 
ATOM     67  C   UNL A   1      49.811  26.211  29.088  1.00  0.00     0.134 A 
ATOM     68  C   UNL A   1      49.666  26.624  26.734  1.00  0.00     0.134 A 
ATOM     69  F   UNL A   1      49.282  26.197  30.321  1.00  0.00    -0.206 F 
ATOM     70  C   UNL A   1      51.151  25.841  28.947  1.00  0.00     0.040 A 
ATOM     71  C   UNL A   1      50.995  26.226  26.577  1.00  0.00     0.040 A 
ATOM     72  F   UNL A   1      48.990  27.000  25.638  1.00  0.00    -0.206 F 
ATOM     73  C   UNL A   1      51.745  25.842  27.687  1.00  0.00     0.006 A 
ENDBRANCH  52  66
BRANCH  53  74
ATOM     74  C   UNL A   1      39.383  28.795  29.164  1.00  0.00     0.057 A 
ATOM     75  C   UNL A   1      38.769  28.589  30.404  1.00  0.00     0.134 A 
ATOM     76  C   UNL A   1      38.593  29.314  28.132  1.00  0.00     0.134 A 
ATOM     77  F   UNL A   1      39.468  28.075  31.427  1.00  0.00    -0.206 F 
ATOM     78  C   UNL A   1      37.416  28.873  30.608  1.00  0.00     0.040 A 
ATOM     79  C   UNL A   1      37.248  29.629  28.328  1.00  0.00     0.040 A 
ATOM     80  F   UNL A   1      39.124  29.542  26.921  1.00  0.00    -0.206 F 
ATOM     81  C   UNL A   1      36.654  29.401  29.568  1.00  0.00     0.006 A 
ENDBRANCH  53  74
BRANCH  65  82
ATOM     82  C   UNL A   1      45.251  32.497  29.799  1.00  0.00     0.057 A 
ATOM     83  C   UNL A   1      45.253  33.520  28.842  1.00  0.00     0.134 A 
ATOM     84  C   UNL A   1      45.469  32.863  31.134  1.00  0.00     0.134 A 
ATOM     85  F   UNL A   1      45.065  33.238  27.544  1.00  0.00    -0.206 F 
ATOM     86  C   UNL A   1      45.487  34.851  29.196  1.00  0.00     0.040 A 
ATOM     87  C   UNL A   1      45.672  34.193  31.505  1.00  0.00     0.040 A 
ATOM     88  F   UNL A   1      45.471  31.935  32.104  1.00  0.00    -0.206 F 
ATOM     89  C   UNL A   1      45.689  35.190  30.533  1.00  0.00     0.006 A 
ENDBRANCH  65  82
ENDBRANCH  39  40
ENDBRANCH  31  34
ENDBRANCH  29  30
ENDBRANCH  28  29
ENDBRANCH   1  28
TORSDOF 14
ENDMDL
MODEL 3
REMARK VINA RESULT:     -12.1      4.215      9.020
REMARK SMILES CCOc1ccccc1NC(=O)[C@H]1[C@@H]2C=C[C@@H]([C@@H]3C[C@H]23)[C@@H]1C(=O)NCCCNC(=O)c1ccc(-c2c3nc(c(-c4c(F)cccc4F)c4ccc([nH]4)c(-c4c(F)cccc4F)c4nc(c(-c5c(F)cccc5F)c5ccc2[nH]5)C=C4)C=C3)cc1
REMARK SMILES IDX 25 1 24 2 22 3 23 4 21 6 13 7 14 8 15 9 20 10 17 11 16 12
REMARK SMILES IDX 18 13 19 14 11 15 10 16 12 18 9 19 4 20 5 21 6 22 8 23 7 24
REMARK SMILES IDX 3 25 2 26 1 27 26 28 27 29 28 30 29 31 30 33 31 34 32 35
REMARK SMILES IDX 84 36 33 37 83 38 34 39 35 40 36 41 77 42 37 43 82 44 76 45
REMARK SMILES IDX 78 46 38 47 81 48 75 49 74 50 39 52 65 53 48 54 64 55 49 56
REMARK SMILES IDX 52 57 63 58 79 59 50 60 51 61 62 63 80 64 53 65 40 66 41 67
REMARK SMILES IDX 46 68 42 69 43 70 45 71 47 72 44 73 66 74 67 75 72 76 68 77
REMARK SMILES IDX 69 78 71 79 73 80 70 81 54 82 55 83 60 84 56 85 57 86 59 87
REMARK SMILES IDX 61 88 58 89
REMARK H PARENT 24 5 10 17 28 32 78 51 52 62
REMARK Flexibility Score: inf
ROOT
ATOM      1  C   UNL A   1      37.540  20.876  24.390  1.00  0.00     0.117 C 
ENDROOT
BRANCH   1   2
ATOM      2  N   UNL A   1      37.414  21.767  25.527  1.00  0.00    -0.356 N 
ATOM      3  C   UNL A   1      36.576  22.820  25.716  1.00  0.00     0.224 C 
ATOM      4  O   UNL A   1      36.974  23.700  26.484  1.00  0.00    -0.275 OA
ATOM      5  H   UNL A   1      38.028  21.581  26.274  1.00  0.00     0.163 HD
BRANCH   3   6
ATOM      6  C   UNL A   1      35.175  22.818  25.108  1.00  0.00     0.098 C 
ATOM      7  C   UNL A   1      34.371  24.120  25.570  1.00  0.00     0.099 C 
ATOM      8  C   UNL A   1      33.147  23.600  26.368  1.00  0.00     0.028 C 
ATOM      9  C   UNL A   1      33.687  22.726  27.509  1.00  0.00    -0.026 C 
ATOM     10  C   UNL A   1      32.231  22.734  25.505  1.00  0.00     0.001 C 
ATOM     11  C   UNL A   1      34.421  21.516  25.584  1.00  0.00     0.028 C 
ATOM     12  C   UNL A   1      34.317  21.612  27.101  1.00  0.00    -0.026 C 
ATOM     13  C   UNL A   1      32.975  21.486  25.051  1.00  0.00     0.001 C 
ATOM     14  C   UNL A   1      32.372  22.419  24.035  1.00  0.00     0.009 C 
BRANCH   7  15
ATOM     15  C   UNL A   1      34.228  25.046  24.337  1.00  0.00     0.229 C 
ATOM     16  N   UNL A   1      33.708  26.301  24.307  1.00  0.00    -0.323 N 
ATOM     17  H   UNL A   1      33.719  26.709  23.412  1.00  0.00     0.170 HD
ATOM     18  O   UNL A   1      34.613  24.624  23.233  1.00  0.00    -0.274 OA
BRANCH  16  19
ATOM     19  C   UNL A   1      33.159  27.131  25.289  1.00  0.00     0.083 A 
ATOM     20  C   UNL A   1      31.763  27.147  25.426  1.00  0.00     0.142 A 
ATOM     21  C   UNL A   1      31.172  27.722  26.549  1.00  0.00     0.048 A 
ATOM     22  C   UNL A   1      31.980  28.355  27.496  1.00  0.00     0.004 A 
ATOM     23  C   UNL A   1      33.928  27.922  26.128  1.00  0.00     0.030 A 
ATOM     24  C   UNL A   1      33.346  28.506  27.254  1.00  0.00     0.002 A 
BRANCH  20  25
ATOM     25  O   UNL A   1      31.007  26.722  24.368  1.00  0.00    -0.492 OA
BRANCH  25  26
ATOM     26  C   UNL A   1      29.841  25.976  24.710  1.00  0.00     0.226 C 
ATOM     27  C   UNL A   1      28.705  26.504  23.848  1.00  0.00     0.049 C 
ENDBRANCH  25  26
ENDBRANCH  20  25
ENDBRANCH  16  19
ENDBRANCH   7  15
ENDBRANCH   3   6
ENDBRANCH   1   2
BRANCH   1  28
ATOM     28  C   UNL A   1      38.176  19.548  24.807  1.00  0.00     0.042 C 
BRANCH  28  29
ATOM     29  C   UNL A   1      39.085  19.618  26.036  1.00  0.00     0.118 C 
BRANCH  29  30
ATOM     30  N   UNL A   1      40.369  18.960  25.845  1.00  0.00    -0.352 N 
ATOM     31  C   UNL A   1      41.641  19.458  25.973  1.00  0.00     0.251 C 
ATOM     32  H   UNL A   1      40.317  18.012  25.583  1.00  0.00     0.163 HD
ATOM     33  O   UNL A   1      42.603  18.765  25.636  1.00  0.00    -0.269 OA
BRANCH  31  34
ATOM     34  C   UNL A   1      41.872  20.828  26.481  1.00  0.00     0.039 A 
ATOM     35  C   UNL A   1      41.933  21.027  27.863  1.00  0.00     0.014 A 
ATOM     36  C   UNL A   1      42.010  21.915  25.615  1.00  0.00     0.014 A 
ATOM     37  C   UNL A   1      42.203  22.300  28.373  1.00  0.00     0.010 A 
ATOM     38  C   UNL A   1      42.349  23.170  26.121  1.00  0.00     0.010 A 
ATOM     39  C   UNL A   1      42.455  23.375  27.505  1.00  0.00    -0.014 A 
BRANCH  39  40
ATOM     40  C   UNL A   1      42.852  24.709  28.031  1.00  0.00     0.031 A 
ATOM     41  C   UNL A   1      41.817  25.765  28.303  1.00  0.00     0.074 A 
ATOM     42  C   UNL A   1      44.158  24.991  28.207  1.00  0.00     0.049 A 
ATOM     43  N   UNL A   1      41.982  26.999  28.709  1.00  0.00    -0.248 NA
ATOM     44  C   UNL A   1      40.414  25.393  28.067  1.00  0.00     0.031 C 
ATOM     45  C   UNL A   1      45.265  24.072  27.938  1.00  0.00     0.029 A 
ATOM     46  N   UNL A   1      44.776  26.137  28.641  1.00  0.00    -0.354 N 
ATOM     47  C   UNL A   1      40.710  27.554  28.764  1.00  0.00     0.074 A 
ATOM     48  C   UNL A   1      39.789  26.538  28.300  1.00  0.00     0.031 C 
ATOM     49  C   UNL A   1      46.424  24.681  28.234  1.00  0.00     0.029 A 
ATOM     50  C   UNL A   1      46.147  26.047  28.671  1.00  0.00     0.049 A 
ATOM     51  H   UNL A   1      44.285  26.948  28.907  1.00  0.00     0.167 HD
ATOM     52  C   UNL A   1      40.339  28.789  29.181  1.00  0.00     0.037 A 
ATOM     53  C   UNL A   1      47.080  26.960  28.999  1.00  0.00     0.037 A 
ATOM     54  C   UNL A   1      41.255  29.796  29.651  1.00  0.00     0.049 A 
ATOM     55  C   UNL A   1      46.647  28.332  29.437  1.00  0.00     0.074 A 
ATOM     56  C   UNL A   1      40.970  31.056  30.149  1.00  0.00     0.029 A 
ATOM     57  N   UNL A   1      42.636  29.663  29.669  1.00  0.00    -0.354 N 
ATOM     58  N   UNL A   1      45.434  28.818  29.554  1.00  0.00    -0.248 NA
ATOM     59  C   UNL A   1      47.710  29.281  29.794  1.00  0.00     0.031 C 
ATOM     60  C   UNL A   1      42.180  31.706  30.415  1.00  0.00     0.029 A 
ATOM     61  C   UNL A   1      43.218  30.830  30.142  1.00  0.00     0.049 A 
ATOM     62  H   UNL A   1      43.130  28.860  29.390  1.00  0.00     0.167 HD
ATOM     63  C   UNL A   1      45.589  30.117  30.024  1.00  0.00     0.074 A 
ATOM     64  C   UNL A   1      47.010  30.337  30.184  1.00  0.00     0.031 C 
ATOM     65  C   UNL A   1      44.635  31.040  30.300  1.00  0.00     0.037 A 
BRANCH  52  66
ATOM     66  C   UNL A   1      38.874  29.123  29.137  1.00  0.00     0.057 A 
ATOM     67  C   UNL A   1      38.056  29.024  30.271  1.00  0.00     0.134 A 
ATOM     68  C   UNL A   1      38.279  29.579  27.953  1.00  0.00     0.134 A 
ATOM     69  F   UNL A   1      38.559  28.587  31.436  1.00  0.00    -0.206 F 
ATOM     70  C   UNL A   1      36.694  29.330  30.221  1.00  0.00     0.040 A 
ATOM     71  C   UNL A   1      36.926  29.917  27.899  1.00  0.00     0.040 A 
ATOM     72  F   UNL A   1      39.004  29.709  26.832  1.00  0.00    -0.206 F 
ATOM     73  C   UNL A   1      36.127  29.784  29.032  1.00  0.00     0.006 A 
ENDBRANCH  52  66
BRANCH  53  74
ATOM     74  C   UNL A   1      48.519  26.602  28.942  1.00  0.00     0.057 A 
ATOM     75  C   UNL A   1      49.151  25.972  30.021  1.00  0.00     0.134 A 
ATOM     76  C   UNL A   1      49.298  26.876  27.812  1.00  0.00     0.134 A 
ATOM     77  F   UNL A   1      48.464  25.699  31.140  1.00  0.00    -0.206 F 
ATOM     78  C   UNL A   1      50.508  25.642  29.984  1.00  0.00     0.040 A 
ATOM     79  C   UNL A   1      50.648  26.528  27.749  1.00  0.00     0.040 A 
ATOM     80  F   UNL A   1      48.751  27.473  26.741  1.00  0.00    -0.206 F 
ATOM     81  C   UNL A   1      51.258  25.914  28.842  1.00  0.00     0.006 A 
ENDBRANCH  53  74
BRANCH  65  82
ATOM     82  C   UNL A   1      45.096  32.366  30.838  1.00  0.00     0.057 A 
ATOM     83  C   UNL A   1      45.364  33.456  30.002  1.00  0.00     0.134 A 
ATOM     84  C   UNL A   1      45.234  32.563  32.219  1.00  0.00     0.134 A 
ATOM     85  F   UNL A   1      45.265  33.333  28.669  1.00  0.00    -0.206 F 
ATOM     86  C   UNL A   1      45.780  34.686  30.516  1.00  0.00     0.040 A 
ATOM     87  C   UNL A   1      45.618  33.796  32.748  1.00  0.00     0.040 A 
ATOM     88  F   UNL A   1      44.984  31.564  33.079  1.00  0.00    -0.206 F 
ATOM     89  C   UNL A   1      45.899  34.860  31.894  1.00  0.00     0.006 A 
ENDBRANCH  65  82
ENDBRANCH  39  40
ENDBRANCH  31  34
ENDBRANCH  29  30
ENDBRANCH  28  29
ENDBRANCH   1  28
TORSDOF 14
ENDMDL
