MODEL 1
REMARK VINA RESULT:     -11.3      0.000      0.000
REMARK SMILES [NH3+][C@H](CC(F)(F)C(F)(F)C(F)(F)C(F)(F)Cl)C(=O)NCCCNC(=O)c1ccc(-c2c3nc(c(-c4c(F)cccc4F)c4ccc([nH]4)c(-c4c(F)cccc4F)c4nc(c(-c5c(F)cccc5F)c5ccc2[nH]5)C=C4)C=C3)cc1
REMARK SMILES IDX 17 1 18 2 19 3 2 5 1 6 3 10 4 11 5 12 6 13 7 14 8 15 9 16
REMARK SMILES IDX 10 17 11 18 12 19 13 20 14 21 15 22 16 23 20 24 21 25 22 26
REMARK SMILES IDX 23 27 24 28 25 30 26 31 27 32 79 33 28 34 78 35 29 36 30 37
REMARK SMILES IDX 31 38 72 39 32 40 77 41 71 42 73 43 33 44 76 45 70 46 69 47
REMARK SMILES IDX 34 49 60 50 43 51 59 52 44 53 47 54 58 55 74 56 45 57 46 58
REMARK SMILES IDX 57 60 75 61 48 62 35 63 36 64 41 65 37 66 38 67 40 68 42 69
REMARK SMILES IDX 39 70 61 71 62 72 67 73 63 74 64 75 66 76 68 77 65 78 49 79
REMARK SMILES IDX 50 80 55 81 51 82 52 83 54 84 56 85 53 86
REMARK H PARENT 19 4 1 7 1 8 1 9 23 29 73 48 47 59
REMARK Flexibility Score: inf
ROOT
ATOM      1  C   UNL A   1      33.335  28.221  22.757  1.00  0.00     0.278 C 
ATOM      2  O   UNL A   1      34.056  28.211  21.748  1.00  0.00    -0.268 OA
ATOM      3  N   UNL A   1      33.619  29.197  23.659  1.00  0.00    -0.351 N 
ATOM      4  H   UNL A   1      34.318  29.814  23.341  1.00  0.00     0.163 HD
ENDROOT
BRANCH   1   5
ATOM      5  C   UNL A   1      32.271  27.104  22.926  1.00  0.00     0.277 C 
BRANCH   5   6
ATOM      6  N   UNL A   1      32.796  25.759  22.681  1.00  0.00    -0.347 N 
ATOM      7  H   UNL A   1      32.363  25.102  23.330  1.00  0.00     0.345 HD
ATOM      8  H   UNL A   1      33.806  25.757  22.822  1.00  0.00     0.345 HD
ATOM      9  H   UNL A   1      32.586  25.480  21.723  1.00  0.00     0.345 HD
ENDBRANCH   5   6
BRANCH   5  10
ATOM     10  C   UNL A   1      30.892  27.497  22.358  1.00  0.00     0.159 C 
BRANCH  10  11
ATOM     11  C   UNL A   1      29.831  28.090  23.290  1.00  0.00     0.323 C 
ATOM     12  F   UNL A   1      28.662  27.420  23.126  1.00  0.00    -0.199 F 
ATOM     13  F   UNL A   1      30.229  27.836  24.571  1.00  0.00    -0.199 F 
BRANCH  11  14
ATOM     14  C   UNL A   1      29.638  29.583  23.118  1.00  0.00     0.379 C 
ATOM     15  F   UNL A   1      30.075  30.200  24.253  1.00  0.00    -0.192 F 
ATOM     16  F   UNL A   1      30.450  30.013  22.114  1.00  0.00    -0.192 F 
BRANCH  14  17
ATOM     17  C   UNL A   1      28.223  30.011  22.818  1.00  0.00     0.392 C 
ATOM     18  F   UNL A   1      27.892  29.694  21.535  1.00  0.00    -0.191 F 
ATOM     19  F   UNL A   1      27.340  29.350  23.615  1.00  0.00    -0.191 F 
BRANCH  17  20
ATOM     20  C   UNL A   1      28.127  31.523  23.034  1.00  0.00     0.390 C 
ATOM     21  F   UNL A   1      26.956  31.856  23.642  1.00  0.00    -0.181 F 
ATOM     22  F   UNL A   1      29.114  31.957  23.865  1.00  0.00    -0.181 F 
ATOM     23  Cl  UNL A   1      28.245  32.438  21.512  1.00  0.00    -0.041 Cl
ENDBRANCH  17  20
ENDBRANCH  14  17
ENDBRANCH  11  14
ENDBRANCH  10  11
ENDBRANCH   5  10
ENDBRANCH   1   5
BRANCH   3  24
ATOM     24  C   UNL A   1      33.127  29.541  24.983  1.00  0.00     0.118 C 
BRANCH  24  25
ATOM     25  C   UNL A   1      32.985  28.297  25.860  1.00  0.00     0.042 C 
BRANCH  25  26
ATOM     26  C   UNL A   1      33.390  28.496  27.317  1.00  0.00     0.118 C 
BRANCH  26  27
ATOM     27  N   UNL A   1      33.541  29.908  27.642  1.00  0.00    -0.352 N 
ATOM     28  C   UNL A   1      34.586  30.629  28.172  1.00  0.00     0.251 C 
ATOM     29  H   UNL A   1      32.743  30.450  27.443  1.00  0.00     0.163 HD
ATOM     30  O   UNL A   1      34.346  31.767  28.575  1.00  0.00    -0.269 OA
BRANCH  28  31
ATOM     31  C   UNL A   1      35.977  30.107  28.277  1.00  0.00     0.039 A 
ATOM     32  C   UNL A   1      36.395  29.587  29.512  1.00  0.00     0.014 A 
ATOM     33  C   UNL A   1      36.916  30.214  27.251  1.00  0.00     0.014 A 
ATOM     34  C   UNL A   1      37.720  29.170  29.704  1.00  0.00     0.010 A 
ATOM     35  C   UNL A   1      38.208  29.703  27.409  1.00  0.00     0.010 A 
ATOM     36  C   UNL A   1      38.641  29.207  28.647  1.00  0.00    -0.014 A 
BRANCH  36  37
ATOM     37  C   UNL A   1      40.063  28.799  28.836  1.00  0.00     0.031 A 
ATOM     38  C   UNL A   1      41.056  29.757  29.454  1.00  0.00     0.074 A 
ATOM     39  C   UNL A   1      40.487  27.591  28.417  1.00  0.00     0.049 A 
ATOM     40  N   UNL A   1      42.348  29.620  29.626  1.00  0.00    -0.248 NA
ATOM     41  C   UNL A   1      40.531  31.055  29.907  1.00  0.00     0.031 C 
ATOM     42  C   UNL A   1      39.656  26.583  27.756  1.00  0.00     0.029 A 
ATOM     43  N   UNL A   1      41.728  27.005  28.482  1.00  0.00    -0.354 N 
ATOM     44  C   UNL A   1      42.792  30.824  30.161  1.00  0.00     0.074 A 
ATOM     45  C   UNL A   1      41.640  31.696  30.244  1.00  0.00     0.031 C 
ATOM     46  C   UNL A   1      40.401  25.492  27.508  1.00  0.00     0.029 A 
ATOM     47  C   UNL A   1      41.767  25.735  27.961  1.00  0.00     0.049 A 
ATOM     48  H   UNL A   1      42.516  27.455  28.865  1.00  0.00     0.167 HD
ATOM     49  C   UNL A   1      44.036  31.170  30.572  1.00  0.00     0.037 A 
ATOM     50  C   UNL A   1      42.786  24.859  27.865  1.00  0.00     0.037 A 
ATOM     51  C   UNL A   1      45.171  30.286  30.556  1.00  0.00     0.049 A 
ATOM     52  C   UNL A   1      44.140  25.237  28.395  1.00  0.00     0.074 A 
ATOM     53  C   UNL A   1      46.459  30.522  31.009  1.00  0.00     0.029 A 
ATOM     54  N   UNL A   1      45.151  28.986  30.074  1.00  0.00    -0.354 N 
ATOM     55  N   UNL A   1      44.532  26.365  28.934  1.00  0.00    -0.248 NA
ATOM     56  C   UNL A   1      45.192  24.213  28.314  1.00  0.00     0.031 C 
ATOM     57  C   UNL A   1      47.221  29.370  30.785  1.00  0.00     0.029 A 
ATOM     58  C   UNL A   1      46.401  28.407  30.222  1.00  0.00     0.049 A 
ATOM     59  H   UNL A   1      44.364  28.540  29.685  1.00  0.00     0.167 HD
ATOM     60  C   UNL A   1      45.864  26.180  29.279  1.00  0.00     0.074 A 
ATOM     61  C   UNL A   1      46.209  24.824  28.903  1.00  0.00     0.031 C 
ATOM     62  C   UNL A   1      46.726  27.055  29.853  1.00  0.00     0.037 A 
BRANCH  49  63
ATOM     63  C   UNL A   1      44.230  32.567  31.088  1.00  0.00     0.057 A 
ATOM     64  C   UNL A   1      44.080  32.883  32.445  1.00  0.00     0.134 A 
ATOM     65  C   UNL A   1      44.592  33.608  30.222  1.00  0.00     0.134 A 
ATOM     66  F   UNL A   1      43.723  31.937  33.328  1.00  0.00    -0.206 F 
ATOM     67  C   UNL A   1      44.249  34.186  32.917  1.00  0.00     0.040 A 
ATOM     68  C   UNL A   1      44.791  34.910  30.686  1.00  0.00     0.040 A 
ATOM     69  F   UNL A   1      44.760  33.375  28.912  1.00  0.00    -0.206 F 
ATOM     70  C   UNL A   1      44.611  35.204  32.036  1.00  0.00     0.006 A 
ENDBRANCH  49  63
BRANCH  50  71
ATOM     71  C   UNL A   1      42.553  23.513  27.284  1.00  0.00     0.057 A 
ATOM     72  C   UNL A   1      42.147  22.443  28.092  1.00  0.00     0.134 A 
ATOM     73  C   UNL A   1      42.729  23.261  25.919  1.00  0.00     0.134 A 
ATOM     74  F   UNL A   1      41.982  22.620  29.411  1.00  0.00    -0.206 F 
ATOM     75  C   UNL A   1      41.942  21.167  27.567  1.00  0.00     0.040 A 
ATOM     76  C   UNL A   1      42.505  21.994  25.376  1.00  0.00     0.040 A 
ATOM     77  F   UNL A   1      43.110  24.245  25.092  1.00  0.00    -0.206 F 
ATOM     78  C   UNL A   1      42.116  20.941  26.203  1.00  0.00     0.006 A 
ENDBRANCH  50  71
BRANCH  62  79
ATOM     79  C   UNL A   1      48.111  26.556  30.141  1.00  0.00     0.057 A 
ATOM     80  C   UNL A   1      49.151  26.687  29.212  1.00  0.00     0.134 A 
ATOM     81  C   UNL A   1      48.409  25.950  31.368  1.00  0.00     0.134 A 
ATOM     82  F   UNL A   1      48.926  27.248  28.014  1.00  0.00    -0.206 F 
ATOM     83  C   UNL A   1      50.433  26.205  29.483  1.00  0.00     0.040 A 
ATOM     84  C   UNL A   1      49.692  25.486  31.658  1.00  0.00     0.040 A 
ATOM     85  F   UNL A   1      47.459  25.802  32.303  1.00  0.00    -0.206 F 
ATOM     86  C   UNL A   1      50.707  25.606  30.710  1.00  0.00     0.006 A 
ENDBRANCH  62  79
ENDBRANCH  36  37
ENDBRANCH  28  31
ENDBRANCH  26  27
ENDBRANCH  25  26
ENDBRANCH  24  25
ENDBRANCH   3  24
TORSDOF 16
ENDMDL
MODEL 2
REMARK VINA RESULT:     -11.2      5.800     11.259
REMARK SMILES [NH3+][C@H](CC(F)(F)C(F)(F)C(F)(F)C(F)(F)Cl)C(=O)NCCCNC(=O)c1ccc(-c2c3nc(c(-c4c(F)cccc4F)c4ccc([nH]4)c(-c4c(F)cccc4F)c4nc(c(-c5c(F)cccc5F)c5ccc2[nH]5)C=C4)C=C3)cc1
REMARK SMILES IDX 17 1 18 2 19 3 2 5 1 6 3 10 4 11 5 12 6 13 7 14 8 15 9 16
REMARK SMILES IDX 10 17 11 18 12 19 13 20 14 21 15 22 16 23 20 24 21 25 22 26
REMARK SMILES IDX 23 27 24 28 25 30 26 31 27 32 79 33 28 34 78 35 29 36 30 37
REMARK SMILES IDX 31 38 72 39 32 40 77 41 71 42 73 43 33 44 76 45 70 46 69 47
REMARK SMILES IDX 34 49 60 50 43 51 59 52 44 53 47 54 58 55 74 56 45 57 46 58
REMARK SMILES IDX 57 60 75 61 48 62 35 63 36 64 41 65 37 66 38 67 40 68 42 69
REMARK SMILES IDX 39 70 61 71 62 72 67 73 63 74 64 75 66 76 68 77 65 78 49 79
REMARK SMILES IDX 50 80 55 81 51 82 52 83 54 84 56 85 53 86
REMARK H PARENT 19 4 1 7 1 8 1 9 23 29 73 48 47 59
REMARK Flexibility Score: inf
ROOT
ATOM      1  C   UNL A   1      44.546  18.897  25.286  1.00  0.00     0.278 C 
ATOM      2  O   UNL A   1      45.382  18.037  25.596  1.00  0.00    -0.268 OA
ATOM      3  N   UNL A   1      43.369  18.828  25.962  1.00  0.00    -0.351 N 
ATOM      4  H   UNL A   1      43.378  18.141  26.666  1.00  0.00     0.163 HD
ENDROOT
BRANCH   1   5
ATOM      5  C   UNL A   1      44.880  19.884  24.135  1.00  0.00     0.277 C 
BRANCH   5   6
ATOM      6  N   UNL A   1      45.199  19.216  22.871  1.00  0.00    -0.347 N 
ATOM      7  H   UNL A   1      44.960  19.830  22.092  1.00  0.00     0.345 HD
ATOM      8  H   UNL A   1      44.663  18.351  22.798  1.00  0.00     0.345 HD
ATOM      9  H   UNL A   1      46.195  19.001  22.842  1.00  0.00     0.345 HD
ENDBRANCH   5   6
BRANCH   5  10
ATOM     10  C   UNL A   1      45.733  21.082  24.599  1.00  0.00     0.159 C 
BRANCH  10  11
ATOM     11  C   UNL A   1      45.329  22.501  24.191  1.00  0.00     0.323 C 
ATOM     12  F   UNL A   1      46.442  23.218  23.890  1.00  0.00    -0.199 F 
ATOM     13  F   UNL A   1      44.624  22.403  23.026  1.00  0.00    -0.199 F 
BRANCH  11  14
ATOM     14  C   UNL A   1      44.480  23.212  25.226  1.00  0.00     0.379 C 
ATOM     15  F   UNL A   1      43.803  24.217  24.600  1.00  0.00    -0.192 F 
ATOM     16  F   UNL A   1      43.536  22.344  25.683  1.00  0.00    -0.192 F 
BRANCH  14  17
ATOM     17  C   UNL A   1      45.244  23.766  26.403  1.00  0.00     0.392 C 
ATOM     18  F   UNL A   1      46.374  23.038  26.621  1.00  0.00    -0.191 F 
ATOM     19  F   UNL A   1      45.651  25.041  26.157  1.00  0.00    -0.191 F 
BRANCH  17  20
ATOM     20  C   UNL A   1      44.331  23.713  27.630  1.00  0.00     0.390 C 
ATOM     21  F   UNL A   1      43.111  24.248  27.355  1.00  0.00    -0.181 F 
ATOM     22  F   UNL A   1      44.097  22.426  28.004  1.00  0.00    -0.181 F 
ATOM     23  Cl  UNL A   1      45.017  24.577  29.027  1.00  0.00    -0.041 Cl
ENDBRANCH  17  20
ENDBRANCH  14  17
ENDBRANCH  11  14
ENDBRANCH  10  11
ENDBRANCH   5  10
ENDBRANCH   1   5
BRANCH   3  24
ATOM     24  C   UNL A   1      42.101  19.535  25.885  1.00  0.00     0.118 C 
BRANCH  24  25
ATOM     25  C   UNL A   1      41.519  19.778  27.279  1.00  0.00     0.042 C 
BRANCH  25  26
ATOM     26  C   UNL A   1      41.039  21.203  27.528  1.00  0.00     0.118 C 
BRANCH  26  27
ATOM     27  N   UNL A   1      39.929  21.555  26.653  1.00  0.00    -0.352 N 
ATOM     28  C   UNL A   1      39.280  22.744  26.413  1.00  0.00     0.251 C 
ATOM     29  H   UNL A   1      39.576  20.796  26.133  1.00  0.00     0.163 HD
ATOM     30  O   UNL A   1      38.209  22.696  25.809  1.00  0.00    -0.269 OA
BRANCH  28  31
ATOM     31  C   UNL A   1      39.806  24.071  26.840  1.00  0.00     0.039 A 
ATOM     32  C   UNL A   1      39.865  24.345  28.215  1.00  0.00     0.014 A 
ATOM     33  C   UNL A   1      40.133  25.090  25.946  1.00  0.00     0.014 A 
ATOM     34  C   UNL A   1      40.259  25.609  28.679  1.00  0.00     0.010 A 
ATOM     35  C   UNL A   1      40.625  26.315  26.408  1.00  0.00     0.010 A 
ATOM     36  C   UNL A   1      40.661  26.606  27.780  1.00  0.00    -0.014 A 
BRANCH  36  37
ATOM     37  C   UNL A   1      41.054  27.968  28.247  1.00  0.00     0.031 A 
ATOM     38  C   UNL A   1      42.503  28.396  28.218  1.00  0.00     0.074 A 
ATOM     39  C   UNL A   1      40.127  28.811  28.741  1.00  0.00     0.049 A 
ATOM     40  N   UNL A   1      43.052  29.502  28.656  1.00  0.00    -0.248 NA
ATOM     41  C   UNL A   1      43.466  27.438  27.653  1.00  0.00     0.031 C 
ATOM     42  C   UNL A   1      38.699  28.517  28.880  1.00  0.00     0.029 A 
ATOM     43  N   UNL A   1      40.249  30.092  29.223  1.00  0.00    -0.354 N 
ATOM     44  C   UNL A   1      44.421  29.352  28.460  1.00  0.00     0.074 A 
ATOM     45  C   UNL A   1      44.623  28.032  27.907  1.00  0.00     0.031 C 
ATOM     46  C   UNL A   1      38.074  29.596  29.378  1.00  0.00     0.029 A 
ATOM     47  C   UNL A   1      39.057  30.646  29.625  1.00  0.00     0.049 A 
ATOM     48  H   UNL A   1      41.109  30.567  29.276  1.00  0.00     0.167 HD
ATOM     49  C   UNL A   1      45.420  30.238  28.695  1.00  0.00     0.037 A 
ATOM     50  C   UNL A   1      38.785  31.865  30.130  1.00  0.00     0.037 A 
ATOM     51  C   UNL A   1      45.220  31.577  29.182  1.00  0.00     0.049 A 
ATOM     52  C   UNL A   1      39.899  32.858  30.311  1.00  0.00     0.074 A 
ATOM     53  C   UNL A   1      46.161  32.572  29.391  1.00  0.00     0.029 A 
ATOM     54  N   UNL A   1      43.988  32.117  29.519  1.00  0.00    -0.354 N 
ATOM     55  N   UNL A   1      41.182  32.713  30.083  1.00  0.00    -0.248 NA
ATOM     56  C   UNL A   1      39.525  34.190  30.809  1.00  0.00     0.031 C 
ATOM     57  C   UNL A   1      45.500  33.707  29.873  1.00  0.00     0.029 A 
ATOM     58  C   UNL A   1      44.145  33.430  29.933  1.00  0.00     0.049 A 
ATOM     59  H   UNL A   1      43.129  31.638  29.472  1.00  0.00     0.167 HD
ATOM     60  C   UNL A   1      41.762  33.937  30.384  1.00  0.00     0.074 A 
ATOM     61  C   UNL A   1      40.690  34.820  30.795  1.00  0.00     0.031 C 
ATOM     62  C   UNL A   1      43.068  34.298  30.328  1.00  0.00     0.037 A 
BRANCH  49  63
ATOM     63  C   UNL A   1      46.824  29.786  28.412  1.00  0.00     0.057 A 
ATOM     64  C   UNL A   1      47.646  29.248  29.412  1.00  0.00     0.134 A 
ATOM     65  C   UNL A   1      47.356  29.869  27.118  1.00  0.00     0.134 A 
ATOM     66  F   UNL A   1      47.203  29.151  30.675  1.00  0.00    -0.206 F 
ATOM     67  C   UNL A   1      48.954  28.841  29.145  1.00  0.00     0.040 A 
ATOM     68  C   UNL A   1      48.654  29.440  26.832  1.00  0.00     0.040 A 
ATOM     69  F   UNL A   1      46.623  30.366  26.111  1.00  0.00    -0.206 F 
ATOM     70  C   UNL A   1      49.460  28.932  27.849  1.00  0.00     0.006 A 
ENDBRANCH  49  63
BRANCH  50  71
ATOM     71  C   UNL A   1      37.385  32.236  30.454  1.00  0.00     0.057 A 
ATOM     72  C   UNL A   1      36.862  32.016  31.734  1.00  0.00     0.134 A 
ATOM     73  C   UNL A   1      36.540  32.816  29.502  1.00  0.00     0.134 A 
ATOM     74  F   UNL A   1      37.619  31.445  32.682  1.00  0.00    -0.206 F 
ATOM     75  C   UNL A   1      35.543  32.341  32.051  1.00  0.00     0.040 A 
ATOM     76  C   UNL A   1      35.225  33.169  29.811  1.00  0.00     0.040 A 
ATOM     77  F   UNL A   1      36.983  33.059  28.260  1.00  0.00    -0.206 F 
ATOM     78  C   UNL A   1      34.722  32.925  31.089  1.00  0.00     0.006 A 
ENDBRANCH  50  71
BRANCH  62  79
ATOM     79  C   UNL A   1      43.397  35.718  30.685  1.00  0.00     0.057 A 
ATOM     80  C   UNL A   1      43.667  36.103  32.004  1.00  0.00     0.134 A 
ATOM     81  C   UNL A   1      43.458  36.705  29.694  1.00  0.00     0.134 A 
ATOM     82  F   UNL A   1      43.613  35.207  33.000  1.00  0.00    -0.206 F 
ATOM     83  C   UNL A   1      43.957  37.430  32.329  1.00  0.00     0.040 A 
ATOM     84  C   UNL A   1      43.769  38.029  30.004  1.00  0.00     0.040 A 
ATOM     85  F   UNL A   1      43.217  36.399  28.411  1.00  0.00    -0.206 F 
ATOM     86  C   UNL A   1      44.012  38.396  31.327  1.00  0.00     0.006 A 
ENDBRANCH  62  79
ENDBRANCH  36  37
ENDBRANCH  28  31
ENDBRANCH  26  27
ENDBRANCH  25  26
ENDBRANCH  24  25
ENDBRANCH   3  24
TORSDOF 16
ENDMDL
MODEL 3
REMARK VINA RESULT:     -11.2      5.196      7.254
REMARK SMILES [NH3+][C@H](CC(F)(F)C(F)(F)C(F)(F)C(F)(F)Cl)C(=O)NCCCNC(=O)c1ccc(-c2c3nc(c(-c4c(F)cccc4F)c4ccc([nH]4)c(-c4c(F)cccc4F)c4nc(c(-c5c(F)cccc5F)c5ccc2[nH]5)C=C4)C=C3)cc1
REMARK SMILES IDX 17 1 18 2 19 3 2 5 1 6 3 10 4 11 5 12 6 13 7 14 8 15 9 16
REMARK SMILES IDX 10 17 11 18 12 19 13 20 14 21 15 22 16 23 20 24 21 25 22 26
REMARK SMILES IDX 23 27 24 28 25 30 26 31 27 32 79 33 28 34 78 35 29 36 30 37
REMARK SMILES IDX 31 38 72 39 32 40 77 41 71 42 73 43 33 44 76 45 70 46 69 47
REMARK SMILES IDX 34 49 60 50 43 51 59 52 44 53 47 54 58 55 74 56 45 57 46 58
REMARK SMILES IDX 57 60 75 61 48 62 35 63 36 64 41 65 37 66 38 67 40 68 42 69
REMARK SMILES IDX 39 70 61 71 62 72 67 73 63 74 64 75 66 76 68 77 65 78 49 79
REMARK SMILES IDX 50 80 55 81 51 82 52 83 54 84 56 85 53 86
REMARK H PARENT 19 4 1 7 1 8 1 9 23 29 73 48 47 59
REMARK Flexibility Score: inf
ROOT
ATOM      1  C   UNL A   1      32.954  36.634  31.072  1.00  0.00     0.278 C 
ATOM      2  O   UNL A   1      32.875  37.789  31.517  1.00  0.00    -0.268 OA
ATOM      3  N   UNL A   1      33.042  36.543  29.719  1.00  0.00    -0.351 N 
ATOM      4  H   UNL A   1      33.107  37.424  29.284  1.00  0.00     0.163 HD
ENDROOT
BRANCH   1   5
ATOM      5  C   UNL A   1      32.864  35.444  32.063  1.00  0.00     0.277 C 
BRANCH   5   6
ATOM      6  N   UNL A   1      31.648  35.459  32.880  1.00  0.00    -0.347 N 
ATOM      7  H   UNL A   1      31.554  34.566  33.366  1.00  0.00     0.345 HD
ATOM      8  H   UNL A   1      30.837  35.605  32.280  1.00  0.00     0.345 HD
ATOM      9  H   UNL A   1      31.707  36.213  33.563  1.00  0.00     0.345 HD
ENDBRANCH   5   6
BRANCH   5  10
ATOM     10  C   UNL A   1      34.218  35.103  32.719  1.00  0.00     0.159 C 
BRANCH  10  11
ATOM     11  C   UNL A   1      35.082  33.983  32.132  1.00  0.00     0.323 C 
ATOM     12  F   UNL A   1      34.315  33.191  31.340  1.00  0.00    -0.199 F 
ATOM     13  F   UNL A   1      35.995  34.566  31.303  1.00  0.00    -0.199 F 
BRANCH  11  14
ATOM     14  C   UNL A   1      35.814  33.169  33.181  1.00  0.00     0.379 C 
ATOM     15  F   UNL A   1      35.019  33.091  34.286  1.00  0.00    -0.192 F 
ATOM     16  F   UNL A   1      35.956  31.896  32.722  1.00  0.00    -0.192 F 
BRANCH  14  17
ATOM     17  C   UNL A   1      37.172  33.704  33.566  1.00  0.00     0.392 C 
ATOM     18  F   UNL A   1      38.051  33.551  32.538  1.00  0.00    -0.191 F 
ATOM     19  F   UNL A   1      37.110  35.038  33.823  1.00  0.00    -0.191 F 
BRANCH  17  20
ATOM     20  C   UNL A   1      37.653  32.933  34.798  1.00  0.00     0.390 C 
ATOM     21  F   UNL A   1      37.366  31.608  34.688  1.00  0.00    -0.181 F 
ATOM     22  F   UNL A   1      39.007  33.011  34.918  1.00  0.00    -0.181 F 
ATOM     23  Cl  UNL A   1      36.928  33.539  36.306  1.00  0.00    -0.041 Cl
ENDBRANCH  17  20
ENDBRANCH  14  17
ENDBRANCH  11  14
ENDBRANCH  10  11
ENDBRANCH   5  10
ENDBRANCH   1   5
BRANCH   3  24
ATOM     24  C   UNL A   1      33.062  35.445  28.767  1.00  0.00     0.118 C 
BRANCH  24  25
ATOM     25  C   UNL A   1      34.402  35.375  28.033  1.00  0.00     0.042 C 
BRANCH  25  26
ATOM     26  C   UNL A   1      35.155  34.060  28.208  1.00  0.00     0.118 C 
BRANCH  26  27
ATOM     27  N   UNL A   1      34.270  32.913  28.058  1.00  0.00    -0.352 N 
ATOM     28  C   UNL A   1      34.510  31.559  28.004  1.00  0.00     0.251 C 
ATOM     29  H   UNL A   1      33.318  33.152  27.982  1.00  0.00     0.163 HD
ATOM     30  O   UNL A   1      33.594  30.833  27.618  1.00  0.00    -0.269 OA
BRANCH  28  31
ATOM     31  C   UNL A   1      35.808  30.937  28.389  1.00  0.00     0.039 A 
ATOM     32  C   UNL A   1      35.777  29.685  29.022  1.00  0.00     0.014 A 
ATOM     33  C   UNL A   1      37.038  31.583  28.257  1.00  0.00     0.014 A 
ATOM     34  C   UNL A   1      36.955  29.090  29.496  1.00  0.00     0.010 A 
ATOM     35  C   UNL A   1      38.224  30.945  28.635  1.00  0.00     0.010 A 
ATOM     36  C   UNL A   1      38.198  29.706  29.293  1.00  0.00    -0.014 A 
BRANCH  36  37
ATOM     37  C   UNL A   1      39.461  29.109  29.816  1.00  0.00     0.031 A 
ATOM     38  C   UNL A   1      40.075  29.625  31.097  1.00  0.00     0.074 A 
ATOM     39  C   UNL A   1      40.090  28.136  29.129  1.00  0.00     0.049 A 
ATOM     40  N   UNL A   1      41.208  29.295  31.668  1.00  0.00    -0.248 NA
ATOM     41  C   UNL A   1      39.335  30.677  31.810  1.00  0.00     0.031 C 
ATOM     42  C   UNL A   1      39.644  27.574  27.853  1.00  0.00     0.029 A 
ATOM     43  N   UNL A   1      41.245  27.446  29.408  1.00  0.00    -0.354 N 
ATOM     44  C   UNL A   1      41.333  30.126  32.776  1.00  0.00     0.074 A 
ATOM     45  C   UNL A   1      40.185  31.007  32.771  1.00  0.00     0.031 C 
ATOM     46  C   UNL A   1      40.495  26.605  27.477  1.00  0.00     0.029 A 
ATOM     47  C   UNL A   1      41.563  26.498  28.466  1.00  0.00     0.049 A 
ATOM     48  H   UNL A   1      41.794  27.617  30.207  1.00  0.00     0.167 HD
ATOM     49  C   UNL A   1      42.298  30.144  33.727  1.00  0.00     0.037 A 
ATOM     50  C   UNL A   1      42.594  25.633  28.408  1.00  0.00     0.037 A 
ATOM     51  C   UNL A   1      43.406  29.227  33.776  1.00  0.00     0.049 A 
ATOM     52  C   UNL A   1      43.613  25.619  29.513  1.00  0.00     0.074 A 
ATOM     53  C   UNL A   1      44.401  29.122  34.733  1.00  0.00     0.029 A 
ATOM     54  N   UNL A   1      43.656  28.242  32.833  1.00  0.00    -0.354 N 
ATOM     55  N   UNL A   1      43.693  26.386  30.573  1.00  0.00    -0.248 NA
ATOM     56  C   UNL A   1      44.678  24.611  29.419  1.00  0.00     0.031 C 
ATOM     57  C   UNL A   1      45.263  28.085  34.359  1.00  0.00     0.029 A 
ATOM     58  C   UNL A   1      44.786  27.524  33.187  1.00  0.00     0.049 A 
ATOM     59  H   UNL A   1      43.110  28.076  32.030  1.00  0.00     0.167 HD
ATOM     60  C   UNL A   1      44.798  25.937  31.283  1.00  0.00     0.074 A 
ATOM     61  C   UNL A   1      45.348  24.821  30.543  1.00  0.00     0.031 C 
ATOM     62  C   UNL A   1      45.315  26.410  32.445  1.00  0.00     0.037 A 
BRANCH  49  63
ATOM     63  C   UNL A   1      42.188  31.185  34.805  1.00  0.00     0.057 A 
ATOM     64  C   UNL A   1      41.484  30.949  35.993  1.00  0.00     0.134 A 
ATOM     65  C   UNL A   1      42.812  32.431  34.663  1.00  0.00     0.134 A 
ATOM     66  F   UNL A   1      40.853  29.781  36.189  1.00  0.00    -0.206 F 
ATOM     67  C   UNL A   1      41.375  31.925  36.986  1.00  0.00     0.040 A 
ATOM     68  C   UNL A   1      42.733  33.406  35.660  1.00  0.00     0.040 A 
ATOM     69  F   UNL A   1      43.509  32.722  33.555  1.00  0.00    -0.206 F 
ATOM     70  C   UNL A   1      42.006  33.157  36.822  1.00  0.00     0.006 A 
ENDBRANCH  49  63
BRANCH  50  71
ATOM     71  C   UNL A   1      42.689  24.668  27.284  1.00  0.00     0.057 A 
ATOM     72  C   UNL A   1      42.054  23.423  27.351  1.00  0.00     0.134 A 
ATOM     73  C   UNL A   1      43.413  24.963  26.123  1.00  0.00     0.134 A 
ATOM     74  F   UNL A   1      41.363  23.077  28.447  1.00  0.00    -0.206 F 
ATOM     75  C   UNL A   1      42.148  22.496  26.312  1.00  0.00     0.040 A 
ATOM     76  C   UNL A   1      43.497  24.055  25.066  1.00  0.00     0.040 A 
ATOM     77  F   UNL A   1      44.039  26.142  25.995  1.00  0.00    -0.206 F 
ATOM     78  C   UNL A   1      42.867  22.814  25.162  1.00  0.00     0.006 A 
ENDBRANCH  50  71
BRANCH  62  79
ATOM     79  C   UNL A   1      46.511  25.694  32.999  1.00  0.00     0.057 A 
ATOM     80  C   UNL A   1      46.381  24.633  33.904  1.00  0.00     0.134 A 
ATOM     81  C   UNL A   1      47.805  26.063  32.613  1.00  0.00     0.134 A 
ATOM     82  F   UNL A   1      45.169  24.240  34.324  1.00  0.00    -0.206 F 
ATOM     83  C   UNL A   1      47.501  23.983  34.428  1.00  0.00     0.040 A 
ATOM     84  C   UNL A   1      48.929  25.406  33.112  1.00  0.00     0.040 A 
ATOM     85  F   UNL A   1      47.996  27.066  31.743  1.00  0.00    -0.206 F 
ATOM     86  C   UNL A   1      48.779  24.367  34.029  1.00  0.00     0.006 A 
ENDBRANCH  62  79
ENDBRANCH  36  37
ENDBRANCH  28  31
ENDBRANCH  26  27
ENDBRANCH  25  26
ENDBRANCH  24  25
ENDBRANCH   3  24
TORSDOF 16
ENDMDL
