MODEL 1
REMARK VINA RESULT:     -12.5      0.000      0.000
REMARK SMILES COc1cc(Cl)c2c(c1)C=C(C(=O)NCCCNC(=O)c1ccc(-c3c4nc(c(-c5c(F)cccc5F)c5ccc([nH]5)c(-c5c(F)cccc5F)c5nc(c(-c6c(F)cccc6F)c6ccc3[nH]6)C=C5)C=C4)cc1)[C@@H](C(F)(F)F)O2
REMARK SMILES IDX 16 1 15 2 14 3 12 4 13 5 11 7 3 8 4 9 9 10 5 11 8 12 6 13
REMARK SMILES IDX 7 14 10 15 80 16 75 17 2 18 1 19 76 20 77 21 78 22 79 23
REMARK SMILES IDX 17 24 18 25 19 26 20 28 21 29 22 30 74 31 23 32 73 33 24 34
REMARK SMILES IDX 25 35 26 36 67 37 27 38 72 39 66 40 68 41 28 42 71 43 65 44
REMARK SMILES IDX 64 45 29 47 55 48 38 49 54 50 39 51 42 52 53 53 69 54 40 55
REMARK SMILES IDX 41 56 52 58 70 59 43 60 30 61 31 62 36 63 32 64 33 65 35 66
REMARK SMILES IDX 37 67 34 68 56 69 57 70 62 71 58 72 59 73 61 74 63 75 60 76
REMARK SMILES IDX 44 77 45 78 50 79 46 80 47 81 49 82 51 83 48 84
REMARK H PARENT 14 6 18 27 68 46 42 57
REMARK Flexibility Score: inf
ROOT
ATOM      1  C   UNL A   1      37.165  19.688  24.976  1.00  0.00     0.042 C 
ENDROOT
BRANCH   1   2
ATOM      2  C   UNL A   1      35.967  20.609  25.156  1.00  0.00     0.118 C 
BRANCH   2   3
ATOM      3  N   UNL A   1      34.729  19.858  25.302  1.00  0.00    -0.352 N 
ATOM      4  C   UNL A   1      33.402  20.099  25.203  1.00  0.00     0.251 C 
ATOM      5  O   UNL A   1      32.676  19.127  25.438  1.00  0.00    -0.270 OA
ATOM      6  H   UNL A   1      34.905  18.919  25.537  1.00  0.00     0.163 HD
BRANCH   4   7
ATOM      7  C   UNL A   1      32.790  21.409  24.841  1.00  0.00     0.067 C 
ATOM      8  C   UNL A   1      32.612  25.129  21.768  1.00  0.00     0.121 A 
ATOM      9  C   UNL A   1      31.540  25.679  22.470  1.00  0.00     0.070 A 
ATOM     10  C   UNL A   1      33.125  23.881  22.130  1.00  0.00     0.058 A 
ATOM     11  C   UNL A   1      31.012  24.996  23.566  1.00  0.00     0.087 A 
ATOM     12  C   UNL A   1      32.610  23.205  23.239  1.00  0.00     0.022 A 
ATOM     13  Cl  UNL A   1      29.690  25.706  24.421  1.00  0.00    -0.080 Cl
ATOM     14  C   UNL A   1      31.557  23.771  23.962  1.00  0.00     0.146 A 
ATOM     15  C   UNL A   1      33.138  21.905  23.638  1.00  0.00     0.025 C 
ATOM     16  O   UNL A   1      31.005  23.126  25.036  1.00  0.00    -0.474 OA
ATOM     17  C   UNL A   1      31.873  22.193  25.733  1.00  0.00     0.314 C 
BRANCH   8  18
ATOM     18  O   UNL A   1      33.175  25.719  20.670  1.00  0.00    -0.497 OA
ATOM     19  C   UNL A   1      32.450  25.484  19.463  1.00  0.00     0.278 C 
ENDBRANCH   8  18
BRANCH  17  20
ATOM     20  C   UNL A   1      32.623  22.926  26.863  1.00  0.00     0.429 C 
ATOM     21  F   UNL A   1      33.856  23.305  26.446  1.00  0.00    -0.167 F 
ATOM     22  F   UNL A   1      31.989  24.056  27.259  1.00  0.00    -0.167 F 
ATOM     23  F   UNL A   1      32.782  22.161  27.966  1.00  0.00    -0.167 F 
ENDBRANCH  17  20
ENDBRANCH   4   7
ENDBRANCH   2   3
ENDBRANCH   1   2
BRANCH   1  24
ATOM     24  C   UNL A   1      38.466  20.356  25.402  1.00  0.00     0.118 C 
BRANCH  24  25
ATOM     25  N   UNL A   1      39.511  19.370  25.670  1.00  0.00    -0.352 N 
ATOM     26  C   UNL A   1      40.815  19.562  26.047  1.00  0.00     0.251 C 
ATOM     27  H   UNL A   1      39.237  18.430  25.563  1.00  0.00     0.163 HD
ATOM     28  O   UNL A   1      41.630  18.649  25.946  1.00  0.00    -0.269 OA
BRANCH  26  29
ATOM     29  C   UNL A   1      41.232  20.871  26.580  1.00  0.00     0.039 A 
ATOM     30  C   UNL A   1      41.103  21.133  27.946  1.00  0.00     0.014 A 
ATOM     31  C   UNL A   1      41.728  21.849  25.713  1.00  0.00     0.014 A 
ATOM     32  C   UNL A   1      41.528  22.361  28.452  1.00  0.00     0.010 A 
ATOM     33  C   UNL A   1      42.222  23.039  26.228  1.00  0.00     0.010 A 
ATOM     34  C   UNL A   1      42.111  23.311  27.598  1.00  0.00    -0.014 A 
BRANCH  34  35
ATOM     35  C   UNL A   1      42.563  24.627  28.103  1.00  0.00     0.031 A 
ATOM     36  C   UNL A   1      41.555  25.720  28.319  1.00  0.00     0.074 A 
ATOM     37  C   UNL A   1      43.875  24.854  28.299  1.00  0.00     0.049 A 
ATOM     38  N   UNL A   1      41.745  26.959  28.689  1.00  0.00    -0.248 NA
ATOM     39  C   UNL A   1      40.147  25.379  28.056  1.00  0.00     0.031 C 
ATOM     40  C   UNL A   1      44.947  23.881  28.081  1.00  0.00     0.029 A 
ATOM     41  N   UNL A   1      44.531  25.984  28.715  1.00  0.00    -0.354 N 
ATOM     42  C   UNL A   1      40.485  27.544  28.698  1.00  0.00     0.074 A 
ATOM     43  C   UNL A   1      39.547  26.545  28.234  1.00  0.00     0.031 C 
ATOM     44  C   UNL A   1      46.126  24.453  28.380  1.00  0.00     0.029 A 
ATOM     45  C   UNL A   1      45.893  25.837  28.781  1.00  0.00     0.049 A 
ATOM     46  H   UNL A   1      44.066  26.822  28.944  1.00  0.00     0.167 HD
ATOM     47  C   UNL A   1      40.136  28.792  29.087  1.00  0.00     0.037 A 
ATOM     48  C   UNL A   1      46.845  26.725  29.124  1.00  0.00     0.037 A 
ATOM     49  C   UNL A   1      41.072  29.777  29.559  1.00  0.00     0.049 A 
ATOM     50  C   UNL A   1      46.433  28.116  29.524  1.00  0.00     0.074 A 
ATOM     51  C   UNL A   1      40.820  31.055  30.025  1.00  0.00     0.029 A 
ATOM     52  N   UNL A   1      42.444  29.589  29.621  1.00  0.00    -0.354 N 
ATOM     53  N   UNL A   1      45.230  28.634  29.600  1.00  0.00    -0.248 NA
ATOM     54  C   UNL A   1      47.512  29.044  29.891  1.00  0.00     0.031 C 
ATOM     55  C   UNL A   1      42.046  31.656  30.332  1.00  0.00     0.029 A 
ATOM     56  C   UNL A   1      43.056  30.736  30.097  1.00  0.00     0.049 A 
ATOM     57  H   UNL A   1      42.914  28.762  29.365  1.00  0.00     0.167 HD
ATOM     58  C   UNL A   1      45.406  29.936  30.055  1.00  0.00     0.074 A 
ATOM     59  C   UNL A   1      46.829  30.121  30.249  1.00  0.00     0.031 C 
ATOM     60  C   UNL A   1      44.475  30.892  30.290  1.00  0.00     0.037 A 
BRANCH  47  61
ATOM     61  C   UNL A   1      38.680  29.149  29.021  1.00  0.00     0.057 A 
ATOM     62  C   UNL A   1      37.861  29.038  30.150  1.00  0.00     0.134 A 
ATOM     63  C   UNL A   1      38.087  29.597  27.833  1.00  0.00     0.134 A 
ATOM     64  F   UNL A   1      38.363  28.614  31.319  1.00  0.00    -0.206 F 
ATOM     65  C   UNL A   1      36.503  29.362  30.100  1.00  0.00     0.040 A 
ATOM     66  C   UNL A   1      36.738  29.951  27.777  1.00  0.00     0.040 A 
ATOM     67  F   UNL A   1      38.822  29.742  26.719  1.00  0.00    -0.206 F 
ATOM     68  C   UNL A   1      35.940  29.828  28.913  1.00  0.00     0.006 A 
ENDBRANCH  47  61
BRANCH  48  69
ATOM     69  C   UNL A   1      48.276  26.333  29.129  1.00  0.00     0.057 A 
ATOM     70  C   UNL A   1      48.869  25.738  30.249  1.00  0.00     0.134 A 
ATOM     71  C   UNL A   1      49.076  26.510  27.993  1.00  0.00     0.134 A 
ATOM     72  F   UNL A   1      48.159  25.546  31.370  1.00  0.00    -0.206 F 
ATOM     73  C   UNL A   1      50.203  25.327  30.237  1.00  0.00     0.040 A 
ATOM     74  C   UNL A   1      50.404  26.083  27.959  1.00  0.00     0.040 A 
ATOM     75  F   UNL A   1      48.558  27.057  26.884  1.00  0.00    -0.206 F 
ATOM     76  C   UNL A   1      50.972  25.490  29.085  1.00  0.00     0.006 A 
ENDBRANCH  48  69
BRANCH  60  77
ATOM     77  C   UNL A   1      44.969  32.207  30.817  1.00  0.00     0.057 A 
ATOM     78  C   UNL A   1      45.043  32.438  32.196  1.00  0.00     0.134 A 
ATOM     79  C   UNL A   1      45.344  33.251  29.963  1.00  0.00     0.134 A 
ATOM     80  F   UNL A   1      44.690  31.481  33.068  1.00  0.00    -0.206 F 
ATOM     81  C   UNL A   1      45.472  33.662  32.709  1.00  0.00     0.040 A 
ATOM     82  C   UNL A   1      45.802  34.472  30.464  1.00  0.00     0.040 A 
ATOM     83  F   UNL A   1      45.310  33.088  28.632  1.00  0.00    -0.206 F 
ATOM     84  C   UNL A   1      45.860  34.681  31.841  1.00  0.00     0.006 A 
ENDBRANCH  60  77
ENDBRANCH  34  35
ENDBRANCH  26  29
ENDBRANCH  24  25
ENDBRANCH   1  24
TORSDOF 12
ENDMDL
MODEL 2
REMARK VINA RESULT:     -12.4      4.589      9.304
REMARK SMILES COc1cc(Cl)c2c(c1)C=C(C(=O)NCCCNC(=O)c1ccc(-c3c4nc(c(-c5c(F)cccc5F)c5ccc([nH]5)c(-c5c(F)cccc5F)c5nc(c(-c6c(F)cccc6F)c6ccc3[nH]6)C=C5)C=C4)cc1)[C@@H](C(F)(F)F)O2
REMARK SMILES IDX 16 1 15 2 14 3 12 4 13 5 11 7 3 8 4 9 9 10 5 11 8 12 6 13
REMARK SMILES IDX 7 14 10 15 80 16 75 17 2 18 1 19 76 20 77 21 78 22 79 23
REMARK SMILES IDX 17 24 18 25 19 26 20 28 21 29 22 30 74 31 23 32 73 33 24 34
REMARK SMILES IDX 25 35 26 36 67 37 27 38 72 39 66 40 68 41 28 42 71 43 65 44
REMARK SMILES IDX 64 45 29 47 55 48 38 49 54 50 39 51 42 52 53 53 69 54 40 55
REMARK SMILES IDX 41 56 52 58 70 59 43 60 30 61 31 62 36 63 32 64 33 65 35 66
REMARK SMILES IDX 37 67 34 68 56 69 57 70 62 71 58 72 59 73 61 74 63 75 60 76
REMARK SMILES IDX 44 77 45 78 50 79 46 80 47 81 49 82 51 83 48 84
REMARK H PARENT 14 6 18 27 68 46 42 57
REMARK Flexibility Score: inf
ROOT
ATOM      1  C   UNL A   1      31.112  31.556  26.032  1.00  0.00     0.042 C 
ENDROOT
BRANCH   1   2
ATOM      2  C   UNL A   1      31.410  30.213  25.380  1.00  0.00     0.118 C 
BRANCH   2   3
ATOM      3  N   UNL A   1      30.752  30.087  24.088  1.00  0.00    -0.352 N 
ATOM      4  C   UNL A   1      30.475  29.100  23.205  1.00  0.00     0.251 C 
ATOM      5  O   UNL A   1      29.887  29.464  22.182  1.00  0.00    -0.270 OA
ATOM      6  H   UNL A   1      30.417  30.956  23.769  1.00  0.00     0.163 HD
BRANCH   4   7
ATOM      7  C   UNL A   1      30.821  27.662  23.387  1.00  0.00     0.067 C 
ATOM      8  C   UNL A   1      30.659  23.741  26.200  1.00  0.00     0.121 A 
ATOM      9  C   UNL A   1      31.239  22.973  25.191  1.00  0.00     0.070 A 
ATOM     10  C   UNL A   1      30.325  25.076  25.965  1.00  0.00     0.058 A 
ATOM     11  C   UNL A   1      31.525  23.559  23.958  1.00  0.00     0.087 A 
ATOM     12  C   UNL A   1      30.628  25.670  24.737  1.00  0.00     0.022 A 
ATOM     13  Cl  UNL A   1      32.251  22.585  22.730  1.00  0.00    -0.080 Cl
ATOM     14  C   UNL A   1      31.239  24.909  23.736  1.00  0.00     0.146 A 
ATOM     15  C   UNL A   1      30.295  27.066  24.474  1.00  0.00     0.025 C 
ATOM     16  O   UNL A   1      31.525  25.446  22.510  1.00  0.00    -0.474 OA
ATOM     17  C   UNL A   1      31.725  26.884  22.475  1.00  0.00     0.314 C 
BRANCH   8  18
ATOM     18  O   UNL A   1      30.326  23.241  27.429  1.00  0.00    -0.497 OA
ATOM     19  C   UNL A   1      29.061  22.581  27.450  1.00  0.00     0.278 C 
ENDBRANCH   8  18
BRANCH  17  20
ATOM     20  C   UNL A   1      33.216  27.206  22.698  1.00  0.00     0.429 C 
ATOM     21  F   UNL A   1      33.997  26.338  22.011  1.00  0.00    -0.167 F 
ATOM     22  F   UNL A   1      33.549  28.447  22.267  1.00  0.00    -0.167 F 
ATOM     23  F   UNL A   1      33.576  27.137  24.000  1.00  0.00    -0.167 F 
ENDBRANCH  17  20
ENDBRANCH   4   7
ENDBRANCH   2   3
ENDBRANCH   1   2
BRANCH   1  24
ATOM     24  C   UNL A   1      32.246  32.012  26.941  1.00  0.00     0.118 C 
BRANCH  24  25
ATOM     25  N   UNL A   1      32.182  33.449  27.196  1.00  0.00    -0.352 N 
ATOM     26  C   UNL A   1      32.896  34.210  28.086  1.00  0.00     0.251 C 
ATOM     27  H   UNL A   1      31.530  33.943  26.648  1.00  0.00     0.163 HD
ATOM     28  O   UNL A   1      32.518  35.341  28.378  1.00  0.00    -0.269 OA
BRANCH  26  29
ATOM     29  C   UNL A   1      34.124  33.663  28.688  1.00  0.00     0.039 A 
ATOM     30  C   UNL A   1      35.369  34.006  28.151  1.00  0.00     0.014 A 
ATOM     31  C   UNL A   1      34.037  32.784  29.771  1.00  0.00     0.014 A 
ATOM     32  C   UNL A   1      36.530  33.511  28.743  1.00  0.00     0.010 A 
ATOM     33  C   UNL A   1      35.194  32.356  30.406  1.00  0.00     0.010 A 
ATOM     34  C   UNL A   1      36.449  32.702  29.887  1.00  0.00    -0.014 A 
BRANCH  34  35
ATOM     35  C   UNL A   1      37.663  32.154  30.533  1.00  0.00     0.031 A 
ATOM     36  C   UNL A   1      38.326  30.941  29.945  1.00  0.00     0.074 A 
ATOM     37  C   UNL A   1      38.122  32.704  31.672  1.00  0.00     0.049 A 
ATOM     38  N   UNL A   1      39.353  30.263  30.387  1.00  0.00    -0.248 NA
ATOM     39  C   UNL A   1      37.736  30.401  28.708  1.00  0.00     0.031 C 
ATOM     40  C   UNL A   1      37.533  33.856  32.356  1.00  0.00     0.029 A 
ATOM     41  N   UNL A   1      39.185  32.354  32.464  1.00  0.00    -0.354 N 
ATOM     42  C   UNL A   1      39.528  29.219  29.488  1.00  0.00     0.074 A 
ATOM     43  C   UNL A   1      38.464  29.312  28.513  1.00  0.00     0.031 C 
ATOM     44  C   UNL A   1      38.253  34.127  33.458  1.00  0.00     0.029 A 
ATOM     45  C   UNL A   1      39.332  33.152  33.571  1.00  0.00     0.049 A 
ATOM     46  H   UNL A   1      39.786  31.601  32.257  1.00  0.00     0.167 HD
ATOM     47  C   UNL A   1      40.506  28.284  29.459  1.00  0.00     0.037 A 
ATOM     48  C   UNL A   1      40.238  33.094  34.566  1.00  0.00     0.037 A 
ATOM     49  C   UNL A   1      41.569  28.204  30.424  1.00  0.00     0.049 A 
ATOM     50  C   UNL A   1      41.297  32.026  34.526  1.00  0.00     0.074 A 
ATOM     51  C   UNL A   1      42.639  27.328  30.461  1.00  0.00     0.029 A 
ATOM     52  N   UNL A   1      41.691  29.036  31.526  1.00  0.00    -0.354 N 
ATOM     53  N   UNL A   1      41.496  31.090  33.629  1.00  0.00    -0.248 NA
ATOM     54  C   UNL A   1      42.262  32.012  35.634  1.00  0.00     0.031 C 
ATOM     55  C   UNL A   1      43.388  27.603  31.611  1.00  0.00     0.029 A 
ATOM     56  C   UNL A   1      42.808  28.679  32.265  1.00  0.00     0.049 A 
ATOM     57  H   UNL A   1      41.076  29.771  31.752  1.00  0.00     0.167 HD
ATOM     58  C   UNL A   1      42.626  30.397  34.048  1.00  0.00     0.074 A 
ATOM     59  C   UNL A   1      43.074  31.030  35.271  1.00  0.00     0.031 C 
ATOM     60  C   UNL A   1      43.238  29.332  33.474  1.00  0.00     0.037 A 
BRANCH  47  61
ATOM     61  C   UNL A   1      40.465  27.283  28.342  1.00  0.00     0.057 A 
ATOM     62  C   UNL A   1      41.208  27.480  27.172  1.00  0.00     0.134 A 
ATOM     63  C   UNL A   1      39.679  26.125  28.422  1.00  0.00     0.134 A 
ATOM     64  F   UNL A   1      41.979  28.568  27.029  1.00  0.00    -0.206 F 
ATOM     65  C   UNL A   1      41.174  26.559  26.124  1.00  0.00     0.040 A 
ATOM     66  C   UNL A   1      39.659  25.183  27.392  1.00  0.00     0.040 A 
ATOM     67  F   UNL A   1      38.956  25.869  29.523  1.00  0.00    -0.206 F 
ATOM     68  C   UNL A   1      40.404  25.402  26.236  1.00  0.00     0.006 A 
ENDBRANCH  47  61
BRANCH  48  69
ATOM     69  C   UNL A   1      40.206  34.083  35.671  1.00  0.00     0.057 A 
ATOM     70  C   UNL A   1      40.831  35.330  35.558  1.00  0.00     0.134 A 
ATOM     71  C   UNL A   1      39.513  33.814  36.858  1.00  0.00     0.134 A 
ATOM     72  F   UNL A   1      41.516  35.647  34.450  1.00  0.00    -0.206 F 
ATOM     73  C   UNL A   1      40.762  36.277  36.582  1.00  0.00     0.040 A 
ATOM     74  C   UNL A   1      39.416  34.759  37.880  1.00  0.00     0.040 A 
ATOM     75  F   UNL A   1      38.879  32.643  37.017  1.00  0.00    -0.206 F 
ATOM     76  C   UNL A   1      40.043  35.996  37.743  1.00  0.00     0.006 A 
ENDBRANCH  48  69
BRANCH  60  77
ATOM     77  C   UNL A   1      44.475  28.814  34.147  1.00  0.00     0.057 A 
ATOM     78  C   UNL A   1      45.733  29.337  33.821  1.00  0.00     0.134 A 
ATOM     79  C   UNL A   1      44.425  27.784  35.094  1.00  0.00     0.134 A 
ATOM     80  F   UNL A   1      45.849  30.320  32.916  1.00  0.00    -0.206 F 
ATOM     81  C   UNL A   1      46.899  28.853  34.413  1.00  0.00     0.040 A 
ATOM     82  C   UNL A   1      45.583  27.310  35.713  1.00  0.00     0.040 A 
ATOM     83  F   UNL A   1      43.249  27.252  35.460  1.00  0.00    -0.206 F 
ATOM     84  C   UNL A   1      46.825  27.840  35.367  1.00  0.00     0.006 A 
ENDBRANCH  60  77
ENDBRANCH  34  35
ENDBRANCH  26  29
ENDBRANCH  24  25
ENDBRANCH   1  24
TORSDOF 12
ENDMDL
MODEL 3
REMARK VINA RESULT:     -12.3      0.727      1.899
REMARK SMILES COc1cc(Cl)c2c(c1)C=C(C(=O)NCCCNC(=O)c1ccc(-c3c4nc(c(-c5c(F)cccc5F)c5ccc([nH]5)c(-c5c(F)cccc5F)c5nc(c(-c6c(F)cccc6F)c6ccc3[nH]6)C=C5)C=C4)cc1)[C@@H](C(F)(F)F)O2
REMARK SMILES IDX 16 1 15 2 14 3 12 4 13 5 11 7 3 8 4 9 9 10 5 11 8 12 6 13
REMARK SMILES IDX 7 14 10 15 80 16 75 17 2 18 1 19 76 20 77 21 78 22 79 23
REMARK SMILES IDX 17 24 18 25 19 26 20 28 21 29 22 30 74 31 23 32 73 33 24 34
REMARK SMILES IDX 25 35 26 36 67 37 27 38 72 39 66 40 68 41 28 42 71 43 65 44
REMARK SMILES IDX 64 45 29 47 55 48 38 49 54 50 39 51 42 52 53 53 69 54 40 55
REMARK SMILES IDX 41 56 52 58 70 59 43 60 30 61 31 62 36 63 32 64 33 65 35 66
REMARK SMILES IDX 37 67 34 68 56 69 57 70 62 71 58 72 59 73 61 74 63 75 60 76
REMARK SMILES IDX 44 77 45 78 50 79 46 80 47 81 49 82 51 83 48 84
REMARK H PARENT 14 6 18 27 68 46 42 57
REMARK Flexibility Score: inf
ROOT
ATOM      1  C   UNL A   1      37.812  19.601  24.902  1.00  0.00     0.042 C 
ENDROOT
BRANCH   1   2
ATOM      2  C   UNL A   1      36.552  20.442  25.051  1.00  0.00     0.118 C 
BRANCH   2   3
ATOM      3  N   UNL A   1      35.352  19.618  25.031  1.00  0.00    -0.352 N 
ATOM      4  C   UNL A   1      34.018  19.806  24.915  1.00  0.00     0.251 C 
ATOM      5  O   UNL A   1      33.338  18.777  24.970  1.00  0.00    -0.270 OA
ATOM      6  H   UNL A   1      35.571  18.663  25.128  1.00  0.00     0.163 HD
BRANCH   4   7
ATOM      7  C   UNL A   1      33.349  21.126  24.732  1.00  0.00     0.067 C 
ATOM      8  C   UNL A   1      32.790  25.086  22.027  1.00  0.00     0.121 A 
ATOM      9  C   UNL A   1      31.786  25.546  22.879  1.00  0.00     0.070 A 
ATOM     10  C   UNL A   1      33.361  23.827  22.227  1.00  0.00     0.058 A 
ATOM     11  C   UNL A   1      31.385  24.759  23.958  1.00  0.00     0.087 A 
ATOM     12  C   UNL A   1      32.973  23.046  23.318  1.00  0.00     0.022 A 
ATOM     13  Cl  UNL A   1      30.145  25.358  25.000  1.00  0.00    -0.080 Cl
ATOM     14  C   UNL A   1      31.990  23.520  24.190  1.00  0.00     0.146 A 
ATOM     15  C   UNL A   1      33.563  21.731  23.548  1.00  0.00     0.025 C 
ATOM     16  O   UNL A   1      31.562  22.772  25.253  1.00  0.00    -0.474 OA
ATOM     17  C   UNL A   1      32.513  21.806  25.776  1.00  0.00     0.314 C 
BRANCH   8  18
ATOM     18  O   UNL A   1      33.228  25.783  20.935  1.00  0.00    -0.497 OA
ATOM     19  C   UNL A   1      32.526  25.457  19.735  1.00  0.00     0.278 C 
ENDBRANCH   8  18
BRANCH  17  20
ATOM     20  C   UNL A   1      33.361  22.461  26.884  1.00  0.00     0.429 C 
ATOM     21  F   UNL A   1      32.571  23.154  27.740  1.00  0.00    -0.167 F 
ATOM     22  F   UNL A   1      34.031  21.550  27.633  1.00  0.00    -0.167 F 
ATOM     23  F   UNL A   1      34.285  23.319  26.396  1.00  0.00    -0.167 F 
ENDBRANCH  17  20
ENDBRANCH   4   7
ENDBRANCH   2   3
ENDBRANCH   1   2
BRANCH   1  24
ATOM     24  C   UNL A   1      38.980  20.181  25.691  1.00  0.00     0.118 C 
BRANCH  24  25
ATOM     25  N   UNL A   1      40.054  19.204  25.852  1.00  0.00    -0.352 N 
ATOM     26  C   UNL A   1      41.395  19.407  26.057  1.00  0.00     0.251 C 
ATOM     27  H   UNL A   1      39.773  18.261  25.806  1.00  0.00     0.163 HD
ATOM     28  O   UNL A   1      42.194  18.493  25.879  1.00  0.00    -0.269 OA
BRANCH  26  29
ATOM     29  C   UNL A   1      41.870  20.731  26.496  1.00  0.00     0.039 A 
ATOM     30  C   UNL A   1      42.241  21.682  25.542  1.00  0.00     0.014 A 
ATOM     31  C   UNL A   1      41.972  21.016  27.860  1.00  0.00     0.014 A 
ATOM     32  C   UNL A   1      42.660  22.945  25.960  1.00  0.00     0.010 A 
ATOM     33  C   UNL A   1      42.314  22.297  28.272  1.00  0.00     0.010 A 
ATOM     34  C   UNL A   1      42.676  23.265  27.327  1.00  0.00    -0.014 A 
BRANCH  34  35
ATOM     35  C   UNL A   1      43.125  24.593  27.803  1.00  0.00     0.031 A 
ATOM     36  C   UNL A   1      42.102  25.641  28.136  1.00  0.00     0.074 A 
ATOM     37  C   UNL A   1      44.440  24.871  27.869  1.00  0.00     0.049 A 
ATOM     38  N   UNL A   1      42.279  26.883  28.503  1.00  0.00    -0.248 NA
ATOM     39  C   UNL A   1      40.689  25.246  28.011  1.00  0.00     0.031 C 
ATOM     40  C   UNL A   1      45.523  23.945  27.530  1.00  0.00     0.029 A 
ATOM     41  N   UNL A   1      45.090  26.022  28.234  1.00  0.00    -0.354 N 
ATOM     42  C   UNL A   1      41.005  27.416  28.648  1.00  0.00     0.074 A 
ATOM     43  C   UNL A   1      40.065  26.385  28.266  1.00  0.00     0.031 C 
ATOM     44  C   UNL A   1      46.702  24.561  27.717  1.00  0.00     0.029 A 
ATOM     45  C   UNL A   1      46.457  25.930  28.160  1.00  0.00     0.049 A 
ATOM     46  H   UNL A   1      44.618  26.838  28.522  1.00  0.00     0.167 HD
ATOM     47  C   UNL A   1      40.648  28.645  29.089  1.00  0.00     0.037 A 
ATOM     48  C   UNL A   1      47.403  26.852  28.419  1.00  0.00     0.037 A 
ATOM     49  C   UNL A   1      41.587  29.661  29.479  1.00  0.00     0.049 A 
ATOM     50  C   UNL A   1      46.979  28.221  28.879  1.00  0.00     0.074 A 
ATOM     51  C   UNL A   1      41.333  30.923  29.987  1.00  0.00     0.029 A 
ATOM     52  N   UNL A   1      42.964  29.529  29.400  1.00  0.00    -0.354 N 
ATOM     53  N   UNL A   1      45.770  28.689  29.084  1.00  0.00    -0.248 NA
ATOM     54  C   UNL A   1      48.051  29.188  29.150  1.00  0.00     0.031 C 
ATOM     55  C   UNL A   1      42.560  31.570  30.178  1.00  0.00     0.029 A 
ATOM     56  C   UNL A   1      43.576  30.695  29.829  1.00  0.00     0.049 A 
ATOM     57  H   UNL A   1      43.439  28.725  29.085  1.00  0.00     0.167 HD
ATOM     58  C   UNL A   1      45.939  29.991  29.538  1.00  0.00     0.074 A 
ATOM     59  C   UNL A   1      47.366  30.232  29.591  1.00  0.00     0.031 C 
ATOM     60  C   UNL A   1      45.000  30.907  29.880  1.00  0.00     0.037 A 
BRANCH  47  61
ATOM     61  C   UNL A   1      39.180  28.943  29.175  1.00  0.00     0.057 A 
ATOM     62  C   UNL A   1      38.480  29.432  28.065  1.00  0.00     0.134 A 
ATOM     63  C   UNL A   1      38.460  28.753  30.362  1.00  0.00     0.134 A 
ATOM     64  F   UNL A   1      39.109  29.638  26.899  1.00  0.00    -0.206 F 
ATOM     65  C   UNL A   1      37.115  29.718  28.134  1.00  0.00     0.040 A 
ATOM     66  C   UNL A   1      37.090  29.009  30.435  1.00  0.00     0.040 A 
ATOM     67  F   UNL A   1      39.068  28.271  31.457  1.00  0.00    -0.206 F 
ATOM     68  C   UNL A   1      36.414  29.499  29.319  1.00  0.00     0.006 A 
ENDBRANCH  47  61
BRANCH  48  69
ATOM     69  C   UNL A   1      48.841  26.518  28.274  1.00  0.00     0.057 A 
ATOM     70  C   UNL A   1      49.535  26.764  27.084  1.00  0.00     0.134 A 
ATOM     71  C   UNL A   1      49.566  25.978  29.344  1.00  0.00     0.134 A 
ATOM     72  F   UNL A   1      48.898  27.274  26.021  1.00  0.00    -0.206 F 
ATOM     73  C   UNL A   1      50.899  26.491  26.965  1.00  0.00     0.040 A 
ATOM     74  C   UNL A   1      50.934  25.722  29.247  1.00  0.00     0.040 A 
ATOM     75  F   UNL A   1      48.959  25.738  30.516  1.00  0.00    -0.206 F 
ATOM     76  C   UNL A   1      51.604  25.979  28.052  1.00  0.00     0.006 A 
ENDBRANCH  48  69
BRANCH  60  77
ATOM     77  C   UNL A   1      45.492  32.235  30.374  1.00  0.00     0.057 A 
ATOM     78  C   UNL A   1      45.713  33.289  29.480  1.00  0.00     0.134 A 
ATOM     79  C   UNL A   1      45.772  32.462  31.728  1.00  0.00     0.134 A 
ATOM     80  F   UNL A   1      45.472  33.133  28.169  1.00  0.00    -0.206 F 
ATOM     81  C   UNL A   1      46.197  34.523  29.913  1.00  0.00     0.040 A 
ATOM     82  C   UNL A   1      46.231  33.702  32.177  1.00  0.00     0.040 A 
ATOM     83  F   UNL A   1      45.567  31.497  32.636  1.00  0.00    -0.206 F 
ATOM     84  C   UNL A   1      46.450  34.734  31.266  1.00  0.00     0.006 A 
ENDBRANCH  60  77
ENDBRANCH  34  35
ENDBRANCH  26  29
ENDBRANCH  24  25
ENDBRANCH   1  24
TORSDOF 12
ENDMDL
