MODEL 1
REMARK VINA RESULT:     -10.9      0.000      0.000
REMARK SMILES CCC(CC)(NC(=O)N(C)C1CC[NH2+]CC1)C(=O)NCCCNC(=O)c1ccc(-c2c3nc(c(-c4c(F)cccc4F)c4ccc([nH]4)c(-c4c(F)cccc4F)c4nc(c(-c5c(F)cccc5F)c5ccc2[nH]5)C=C4)C=C3)cc1
REMARK SMILES IDX 20 1 19 2 17 3 18 4 3 6 2 7 1 8 4 9 5 10 6 11 7 12 8 14 9 15
REMARK SMILES IDX 10 16 11 17 12 18 16 19 13 20 15 21 14 22 21 25 22 26 23 27
REMARK SMILES IDX 24 28 25 30 26 31 27 32 79 33 28 34 78 35 29 36 30 37 31 38
REMARK SMILES IDX 72 39 32 40 77 41 71 42 73 43 33 44 76 45 70 46 69 47 34 49
REMARK SMILES IDX 60 50 43 51 59 52 44 53 47 54 58 55 74 56 45 57 46 58 57 60
REMARK SMILES IDX 75 61 48 62 35 63 36 64 41 65 37 66 38 67 40 68 42 69 39 70
REMARK SMILES IDX 61 71 62 72 67 73 63 74 64 75 66 76 68 77 65 78 49 79 50 80
REMARK SMILES IDX 55 81 51 82 52 83 54 84 56 85 53 86
REMARK H PARENT 19 5 6 13 14 23 14 24 23 29 73 48 47 59
REMARK Flexibility Score: inf
ROOT
ATOM      1  C   UNL A   1      31.525  30.076  25.662  1.00  0.00     0.117 C 
ENDROOT
BRANCH   1   2
ATOM      2  N   UNL A   1      32.654  29.857  24.759  1.00  0.00    -0.354 N 
ATOM      3  C   UNL A   1      32.920  28.878  23.823  1.00  0.00     0.245 C 
ATOM      4  O   UNL A   1      33.761  29.171  22.966  1.00  0.00    -0.272 OA
ATOM      5  H   UNL A   1      33.362  30.539  24.833  1.00  0.00     0.163 HD
BRANCH   3   6
ATOM      6  C   UNL A   1      32.133  27.515  23.787  1.00  0.00     0.120 C 
BRANCH   6   7
ATOM      7  C   UNL A   1      30.571  27.503  23.707  1.00  0.00     0.035 C 
ATOM      8  C   UNL A   1      29.920  28.486  22.744  1.00  0.00     0.007 C 
ENDBRANCH   6   7
BRANCH   6   9
ATOM      9  C   UNL A   1      32.504  26.824  25.156  1.00  0.00     0.035 C 
ATOM     10  C   UNL A   1      31.365  26.454  26.099  1.00  0.00     0.007 C 
ENDBRANCH   6   9
BRANCH   6  11
ATOM     11  N   UNL A   1      32.667  26.810  22.592  1.00  0.00    -0.323 N 
ATOM     12  C   UNL A   1      32.807  25.528  22.172  1.00  0.00     0.318 C 
ATOM     13  H   UNL A   1      33.012  27.447  21.924  1.00  0.00     0.166 HD
ATOM     14  O   UNL A   1      33.296  25.439  21.038  1.00  0.00    -0.249 OA
BRANCH  12  15
ATOM     15  N   UNL A   1      32.378  24.405  22.853  1.00  0.00    -0.324 N 
ATOM     16  C   UNL A   1      31.025  24.086  23.278  1.00  0.00     0.149 C 
BRANCH  15  17
ATOM     17  C   UNL A   1      33.429  23.396  23.235  1.00  0.00     0.097 C 
ATOM     18  C   UNL A   1      32.972  22.501  24.394  1.00  0.00     0.086 C 
ATOM     19  C   UNL A   1      34.842  23.914  23.568  1.00  0.00     0.086 C 
ATOM     20  C   UNL A   1      33.087  23.186  25.752  1.00  0.00     0.262 C 
ATOM     21  C   UNL A   1      35.007  24.466  24.988  1.00  0.00     0.262 C 
ATOM     22  N   UNL A   1      34.461  23.590  26.022  1.00  0.00    -0.346 N 
ATOM     23  H   UNL A   1      35.042  22.753  26.081  1.00  0.00     0.346 HD
ATOM     24  H   UNL A   1      34.461  24.112  26.900  1.00  0.00     0.346 HD
ENDBRANCH  15  17
ENDBRANCH  12  15
ENDBRANCH   6  11
ENDBRANCH   3   6
ENDBRANCH   1   2
BRANCH   1  25
ATOM     25  C   UNL A   1      31.309  31.493  26.173  1.00  0.00     0.042 C 
BRANCH  25  26
ATOM     26  C   UNL A   1      32.469  32.145  26.901  1.00  0.00     0.118 C 
BRANCH  26  27
ATOM     27  N   UNL A   1      32.213  33.464  27.431  1.00  0.00    -0.352 N 
ATOM     28  C   UNL A   1      32.989  34.234  28.271  1.00  0.00     0.251 C 
ATOM     29  H   UNL A   1      31.362  33.872  27.150  1.00  0.00     0.163 HD
ATOM     30  O   UNL A   1      32.595  35.347  28.588  1.00  0.00    -0.269 OA
BRANCH  28  31
ATOM     31  C   UNL A   1      34.261  33.717  28.849  1.00  0.00     0.039 A 
ATOM     32  C   UNL A   1      34.168  32.663  29.762  1.00  0.00     0.014 A 
ATOM     33  C   UNL A   1      35.520  34.248  28.550  1.00  0.00     0.014 A 
ATOM     34  C   UNL A   1      35.324  32.112  30.324  1.00  0.00     0.010 A 
ATOM     35  C   UNL A   1      36.682  33.649  29.055  1.00  0.00     0.010 A 
ATOM     36  C   UNL A   1      36.598  32.577  29.955  1.00  0.00    -0.014 A 
BRANCH  36  37
ATOM     37  C   UNL A   1      37.814  31.931  30.527  1.00  0.00     0.031 A 
ATOM     38  C   UNL A   1      38.302  32.272  31.910  1.00  0.00     0.074 A 
ATOM     39  C   UNL A   1      38.475  31.001  29.808  1.00  0.00     0.049 A 
ATOM     40  N   UNL A   1      39.264  31.716  32.606  1.00  0.00    -0.248 NA
ATOM     41  C   UNL A   1      37.635  33.386  32.597  1.00  0.00     0.031 C 
ATOM     42  C   UNL A   1      38.151  30.608  28.435  1.00  0.00     0.029 A 
ATOM     43  N   UNL A   1      39.544  30.203  30.137  1.00  0.00    -0.354 N 
ATOM     44  C   UNL A   1      39.311  32.406  33.811  1.00  0.00     0.074 A 
ATOM     45  C   UNL A   1      38.322  33.459  33.728  1.00  0.00     0.031 C 
ATOM     46  C   UNL A   1      38.974  29.616  28.057  1.00  0.00     0.029 A 
ATOM     47  C   UNL A   1      39.898  29.317  29.147  1.00  0.00     0.049 A 
ATOM     48  H   UNL A   1      40.014  30.261  31.001  1.00  0.00     0.167 HD
ATOM     49  C   UNL A   1      40.086  32.171  34.898  1.00  0.00     0.037 A 
ATOM     50  C   UNL A   1      40.847  28.361  29.121  1.00  0.00     0.037 A 
ATOM     51  C   UNL A   1      41.067  31.121  34.992  1.00  0.00     0.049 A 
ATOM     52  C   UNL A   1      41.698  28.124  30.338  1.00  0.00     0.074 A 
ATOM     53  C   UNL A   1      41.857  30.775  36.076  1.00  0.00     0.029 A 
ATOM     54  N   UNL A   1      41.404  30.256  33.963  1.00  0.00    -0.354 N 
ATOM     55  N   UNL A   1      41.664  28.722  31.503  1.00  0.00    -0.248 NA
ATOM     56  C   UNL A   1      42.716  27.066  30.238  1.00  0.00     0.031 C 
ATOM     57  C   UNL A   1      42.704  29.731  35.687  1.00  0.00     0.029 A 
ATOM     58  C   UNL A   1      42.406  29.393  34.378  1.00  0.00     0.049 A 
ATOM     59  H   UNL A   1      40.991  30.254  33.069  1.00  0.00     0.167 HD
ATOM     60  C   UNL A   1      42.630  28.098  32.281  1.00  0.00     0.074 A 
ATOM     61  C   UNL A   1      43.223  27.062  31.463  1.00  0.00     0.031 C 
ATOM     62  C   UNL A   1      42.993  28.362  33.560  1.00  0.00     0.037 A 
BRANCH  49  63
ATOM     63  C   UNL A   1      39.897  33.067  36.089  1.00  0.00     0.057 A 
ATOM     64  C   UNL A   1      38.974  32.763  37.099  1.00  0.00     0.134 A 
ATOM     65  C   UNL A   1      40.678  34.217  36.254  1.00  0.00     0.134 A 
ATOM     66  F   UNL A   1      38.190  31.679  37.001  1.00  0.00    -0.206 F 
ATOM     67  C   UNL A   1      38.819  33.584  38.218  1.00  0.00     0.040 A 
ATOM     68  C   UNL A   1      40.549  35.032  37.379  1.00  0.00     0.040 A 
ATOM     69  F   UNL A   1      41.588  34.561  35.330  1.00  0.00    -0.206 F 
ATOM     70  C   UNL A   1      39.613  34.719  38.363  1.00  0.00     0.006 A 
ENDBRANCH  49  63
BRANCH  50  71
ATOM     71  C   UNL A   1      41.027  27.526  27.906  1.00  0.00     0.057 A 
ATOM     72  C   UNL A   1      41.851  27.945  26.854  1.00  0.00     0.134 A 
ATOM     73  C   UNL A   1      40.363  26.303  27.757  1.00  0.00     0.134 A 
ATOM     74  F   UNL A   1      42.496  29.118  26.928  1.00  0.00    -0.206 F 
ATOM     75  C   UNL A   1      41.993  27.187  25.690  1.00  0.00     0.040 A 
ATOM     76  C   UNL A   1      40.517  25.523  26.611  1.00  0.00     0.040 A 
ATOM     77  F   UNL A   1      39.562  25.845  28.730  1.00  0.00    -0.206 F 
ATOM     78  C   UNL A   1      41.328  25.968  25.569  1.00  0.00     0.006 A 
ENDBRANCH  50  71
BRANCH  62  79
ATOM     79  C   UNL A   1      44.061  27.497  34.166  1.00  0.00     0.057 A 
ATOM     80  C   UNL A   1      45.411  27.872  34.161  1.00  0.00     0.134 A 
ATOM     81  C   UNL A   1      43.730  26.284  34.787  1.00  0.00     0.134 A 
ATOM     82  F   UNL A   1      45.797  29.013  33.572  1.00  0.00    -0.206 F 
ATOM     83  C   UNL A   1      46.396  27.060  34.726  1.00  0.00     0.040 A 
ATOM     84  C   UNL A   1      44.704  25.478  35.379  1.00  0.00     0.040 A 
ATOM     85  F   UNL A   1      42.456  25.869  34.838  1.00  0.00    -0.206 F 
ATOM     86  C   UNL A   1      46.042  25.861  35.343  1.00  0.00     0.006 A 
ENDBRANCH  62  79
ENDBRANCH  36  37
ENDBRANCH  28  31
ENDBRANCH  26  27
ENDBRANCH  25  26
ENDBRANCH   1  25
TORSDOF 15
ENDMDL
MODEL 2
REMARK VINA RESULT:     -10.8      4.740      9.787
REMARK SMILES CCC(CC)(NC(=O)N(C)C1CC[NH2+]CC1)C(=O)NCCCNC(=O)c1ccc(-c2c3nc(c(-c4c(F)cccc4F)c4ccc([nH]4)c(-c4c(F)cccc4F)c4nc(c(-c5c(F)cccc5F)c5ccc2[nH]5)C=C4)C=C3)cc1
REMARK SMILES IDX 20 1 19 2 17 3 18 4 3 6 2 7 1 8 4 9 5 10 6 11 7 12 8 14 9 15
REMARK SMILES IDX 10 16 11 17 12 18 16 19 13 20 15 21 14 22 21 25 22 26 23 27
REMARK SMILES IDX 24 28 25 30 26 31 27 32 79 33 28 34 78 35 29 36 30 37 31 38
REMARK SMILES IDX 72 39 32 40 77 41 71 42 73 43 33 44 76 45 70 46 69 47 34 49
REMARK SMILES IDX 60 50 43 51 59 52 44 53 47 54 58 55 74 56 45 57 46 58 57 60
REMARK SMILES IDX 75 61 48 62 35 63 36 64 41 65 37 66 38 67 40 68 42 69 39 70
REMARK SMILES IDX 61 71 62 72 67 73 63 74 64 75 66 76 68 77 65 78 49 79 50 80
REMARK SMILES IDX 55 81 51 82 52 83 54 84 56 85 53 86
REMARK H PARENT 19 5 6 13 14 23 14 24 23 29 73 48 47 59
REMARK Flexibility Score: inf
ROOT
ATOM      1  C   UNL A   1      36.283  20.692  24.828  1.00  0.00     0.117 C 
ENDROOT
BRANCH   1   2
ATOM      2  N   UNL A   1      35.834  21.223  26.115  1.00  0.00    -0.354 N 
ATOM      3  C   UNL A   1      34.640  21.780  26.525  1.00  0.00     0.245 C 
ATOM      4  O   UNL A   1      34.440  21.780  27.744  1.00  0.00    -0.272 OA
ATOM      5  H   UNL A   1      36.514  21.173  26.826  1.00  0.00     0.163 HD
BRANCH   3   6
ATOM      6  C   UNL A   1      33.557  22.292  25.502  1.00  0.00     0.120 C 
BRANCH   6   7
ATOM      7  C   UNL A   1      33.047  21.360  24.355  1.00  0.00     0.035 C 
ATOM      8  C   UNL A   1      32.530  19.985  24.758  1.00  0.00     0.007 C 
ENDBRANCH   6   7
BRANCH   6   9
ATOM      9  C   UNL A   1      34.253  23.516  24.791  1.00  0.00     0.035 C 
ATOM     10  C   UNL A   1      34.430  23.455  23.279  1.00  0.00     0.007 C 
ENDBRANCH   6   9
BRANCH   6  11
ATOM     11  N   UNL A   1      32.395  22.668  26.350  1.00  0.00    -0.323 N 
ATOM     12  C   UNL A   1      31.329  23.501  26.265  1.00  0.00     0.318 C 
ATOM     13  H   UNL A   1      32.402  22.179  27.205  1.00  0.00     0.166 HD
ATOM     14  O   UNL A   1      30.583  23.439  27.251  1.00  0.00    -0.249 OA
BRANCH  12  15
ATOM     15  N   UNL A   1      31.005  24.287  25.176  1.00  0.00    -0.324 N 
ATOM     16  C   UNL A   1      30.756  23.856  23.810  1.00  0.00     0.149 C 
BRANCH  15  17
ATOM     17  C   UNL A   1      30.927  25.774  25.407  1.00  0.00     0.097 C 
ATOM     18  C   UNL A   1      31.155  26.569  24.115  1.00  0.00     0.086 C 
ATOM     19  C   UNL A   1      31.825  26.384  26.501  1.00  0.00     0.086 C 
ATOM     20  C   UNL A   1      32.628  26.671  23.734  1.00  0.00     0.262 C 
ATOM     21  C   UNL A   1      33.277  26.634  26.076  1.00  0.00     0.262 C 
ATOM     22  N   UNL A   1      33.400  27.315  24.789  1.00  0.00    -0.346 N 
ATOM     23  H   UNL A   1      33.072  28.275  24.895  1.00  0.00     0.346 HD
ATOM     24  H   UNL A   1      34.383  27.280  24.516  1.00  0.00     0.346 HD
ENDBRANCH  15  17
ENDBRANCH  12  15
ENDBRANCH   6  11
ENDBRANCH   3   6
ENDBRANCH   1   2
BRANCH   1  25
ATOM     25  C   UNL A   1      37.778  20.466  24.654  1.00  0.00     0.042 C 
BRANCH  25  26
ATOM     26  C   UNL A   1      38.568  20.108  25.899  1.00  0.00     0.118 C 
BRANCH  26  27
ATOM     27  N   UNL A   1      39.675  19.203  25.698  1.00  0.00    -0.352 N 
ATOM     28  C   UNL A   1      41.013  19.383  25.981  1.00  0.00     0.251 C 
ATOM     29  H   UNL A   1      39.442  18.332  25.303  1.00  0.00     0.163 HD
ATOM     30  O   UNL A   1      41.796  18.472  25.752  1.00  0.00    -0.269 OA
BRANCH  28  31
ATOM     31  C   UNL A   1      41.533  20.680  26.499  1.00  0.00     0.039 A 
ATOM     32  C   UNL A   1      41.805  21.681  25.562  1.00  0.00     0.014 A 
ATOM     33  C   UNL A   1      41.786  20.927  27.852  1.00  0.00     0.014 A 
ATOM     34  C   UNL A   1      42.271  22.931  25.981  1.00  0.00     0.010 A 
ATOM     35  C   UNL A   1      42.182  22.203  28.278  1.00  0.00     0.010 A 
ATOM     36  C   UNL A   1      42.438  23.219  27.346  1.00  0.00    -0.014 A 
BRANCH  36  37
ATOM     37  C   UNL A   1      42.880  24.581  27.765  1.00  0.00     0.031 A 
ATOM     38  C   UNL A   1      44.326  24.989  27.686  1.00  0.00     0.074 A 
ATOM     39  C   UNL A   1      41.966  25.474  28.195  1.00  0.00     0.049 A 
ATOM     40  N   UNL A   1      44.863  26.168  27.890  1.00  0.00    -0.248 NA
ATOM     41  C   UNL A   1      45.299  23.942  27.346  1.00  0.00     0.031 C 
ATOM     42  C   UNL A   1      40.539  25.203  28.376  1.00  0.00     0.029 A 
ATOM     43  N   UNL A   1      42.098  26.798  28.540  1.00  0.00    -0.354 N 
ATOM     44  C   UNL A   1      46.229  26.005  27.696  1.00  0.00     0.074 A 
ATOM     45  C   UNL A   1      46.446  24.601  27.417  1.00  0.00     0.031 C 
ATOM     46  C   UNL A   1      39.922  26.334  28.755  1.00  0.00     0.029 A 
ATOM     47  C   UNL A   1      40.909  27.405  28.867  1.00  0.00     0.049 A 
ATOM     48  H   UNL A   1      42.964  27.268  28.551  1.00  0.00     0.167 HD
ATOM     49  C   UNL A   1      47.211  26.938  27.721  1.00  0.00     0.037 A 
ATOM     50  C   UNL A   1      40.636  28.680  29.206  1.00  0.00     0.037 A 
ATOM     51  C   UNL A   1      47.003  28.338  27.991  1.00  0.00     0.049 A 
ATOM     52  C   UNL A   1      41.745  29.696  29.233  1.00  0.00     0.074 A 
ATOM     53  C   UNL A   1      47.934  29.364  27.981  1.00  0.00     0.029 A 
ATOM     54  N   UNL A   1      45.787  28.907  28.332  1.00  0.00    -0.354 N 
ATOM     55  N   UNL A   1      43.015  29.544  28.953  1.00  0.00    -0.248 NA
ATOM     56  C   UNL A   1      41.375  31.069  29.613  1.00  0.00     0.031 C 
ATOM     57  C   UNL A   1      47.288  30.546  28.361  1.00  0.00     0.029 A 
ATOM     58  C   UNL A   1      45.947  30.265  28.558  1.00  0.00     0.049 A 
ATOM     59  H   UNL A   1      44.934  28.419  28.402  1.00  0.00     0.167 HD
ATOM     60  C   UNL A   1      43.590  30.800  29.094  1.00  0.00     0.074 A 
ATOM     61  C   UNL A   1      42.528  31.708  29.468  1.00  0.00     0.031 C 
ATOM     62  C   UNL A   1      44.885  31.166  28.929  1.00  0.00     0.037 A 
BRANCH  49  63
ATOM     63  C   UNL A   1      48.612  26.476  27.438  1.00  0.00     0.057 A 
ATOM     64  C   UNL A   1      49.462  26.031  28.460  1.00  0.00     0.134 A 
ATOM     65  C   UNL A   1      49.101  26.428  26.127  1.00  0.00     0.134 A 
ATOM     66  F   UNL A   1      49.057  26.057  29.739  1.00  0.00    -0.206 F 
ATOM     67  C   UNL A   1      50.755  25.578  28.191  1.00  0.00     0.040 A 
ATOM     68  C   UNL A   1      50.382  25.953  25.842  1.00  0.00     0.040 A 
ATOM     69  F   UNL A   1      48.337  26.829  25.099  1.00  0.00    -0.206 F 
ATOM     70  C   UNL A   1      51.215  25.532  26.877  1.00  0.00     0.006 A 
ENDBRANCH  49  63
BRANCH  50  71
ATOM     71  C   UNL A   1      39.241  29.084  29.519  1.00  0.00     0.057 A 
ATOM     72  C   UNL A   1      38.728  28.971  30.817  1.00  0.00     0.134 A 
ATOM     73  C   UNL A   1      38.383  29.569  28.527  1.00  0.00     0.134 A 
ATOM     74  F   UNL A   1      39.495  28.492  31.807  1.00  0.00    -0.206 F 
ATOM     75  C   UNL A   1      37.407  29.308  31.113  1.00  0.00     0.040 A 
ATOM     76  C   UNL A   1      37.067  29.935  28.813  1.00  0.00     0.040 A 
ATOM     77  F   UNL A   1      38.816  29.703  27.264  1.00  0.00    -0.206 F 
ATOM     78  C   UNL A   1      36.573  29.797  30.109  1.00  0.00     0.006 A 
ENDBRANCH  50  71
BRANCH  62  79
ATOM     79  C   UNL A   1      45.221  32.618  29.121  1.00  0.00     0.057 A 
ATOM     80  C   UNL A   1      45.606  33.131  30.366  1.00  0.00     0.134 A 
ATOM     81  C   UNL A   1      45.183  33.509  28.039  1.00  0.00     0.134 A 
ATOM     82  F   UNL A   1      45.651  32.336  31.445  1.00  0.00    -0.206 F 
ATOM     83  C   UNL A   1      45.915  34.482  30.535  1.00  0.00     0.040 A 
ATOM     84  C   UNL A   1      45.516  34.856  28.191  1.00  0.00     0.040 A 
ATOM     85  F   UNL A   1      44.832  33.083  26.817  1.00  0.00    -0.206 F 
ATOM     86  C   UNL A   1      45.876  35.348  29.443  1.00  0.00     0.006 A 
ENDBRANCH  62  79
ENDBRANCH  36  37
ENDBRANCH  28  31
ENDBRANCH  26  27
ENDBRANCH  25  26
ENDBRANCH   1  25
TORSDOF 15
ENDMDL
MODEL 3
REMARK VINA RESULT:     -10.7      4.077      8.674
REMARK SMILES CCC(CC)(NC(=O)N(C)C1CC[NH2+]CC1)C(=O)NCCCNC(=O)c1ccc(-c2c3nc(c(-c4c(F)cccc4F)c4ccc([nH]4)c(-c4c(F)cccc4F)c4nc(c(-c5c(F)cccc5F)c5ccc2[nH]5)C=C4)C=C3)cc1
REMARK SMILES IDX 20 1 19 2 17 3 18 4 3 6 2 7 1 8 4 9 5 10 6 11 7 12 8 14 9 15
REMARK SMILES IDX 10 16 11 17 12 18 16 19 13 20 15 21 14 22 21 25 22 26 23 27
REMARK SMILES IDX 24 28 25 30 26 31 27 32 79 33 28 34 78 35 29 36 30 37 31 38
REMARK SMILES IDX 72 39 32 40 77 41 71 42 73 43 33 44 76 45 70 46 69 47 34 49
REMARK SMILES IDX 60 50 43 51 59 52 44 53 47 54 58 55 74 56 45 57 46 58 57 60
REMARK SMILES IDX 75 61 48 62 35 63 36 64 41 65 37 66 38 67 40 68 42 69 39 70
REMARK SMILES IDX 61 71 62 72 67 73 63 74 64 75 66 76 68 77 65 78 49 79 50 80
REMARK SMILES IDX 55 81 51 82 52 83 54 84 56 85 53 86
REMARK H PARENT 19 5 6 13 14 23 14 24 23 29 73 48 47 59
REMARK Flexibility Score: inf
ROOT
ATOM      1  C   UNL A   1      36.262  20.648  24.926  1.00  0.00     0.117 C 
ENDROOT
BRANCH   1   2
ATOM      2  N   UNL A   1      35.714  21.097  26.206  1.00  0.00    -0.354 N 
ATOM      3  C   UNL A   1      34.672  21.944  26.526  1.00  0.00     0.245 C 
ATOM      4  O   UNL A   1      34.218  21.826  27.669  1.00  0.00    -0.272 OA
ATOM      5  H   UNL A   1      36.178  20.723  26.991  1.00  0.00     0.163 HD
BRANCH   3   6
ATOM      6  C   UNL A   1      34.035  22.926  25.472  1.00  0.00     0.120 C 
BRANCH   6   7
ATOM      7  C   UNL A   1      33.303  22.367  24.208  1.00  0.00     0.035 C 
ATOM      8  C   UNL A   1      32.527  21.067  24.376  1.00  0.00     0.007 C 
ENDBRANCH   6   7
BRANCH   6   9
ATOM      9  C   UNL A   1      35.264  23.754  24.932  1.00  0.00     0.035 C 
ATOM     10  C   UNL A   1      35.498  23.781  23.426  1.00  0.00     0.007 C 
ENDBRANCH   6   9
BRANCH   6  11
ATOM     11  N   UNL A   1      33.063  23.731  26.257  1.00  0.00    -0.323 N 
ATOM     12  C   UNL A   1      32.379  24.892  26.104  1.00  0.00     0.318 C 
ATOM     13  H   UNL A   1      32.861  23.306  27.123  1.00  0.00     0.166 HD
ATOM     14  O   UNL A   1      31.628  25.143  27.056  1.00  0.00    -0.249 OA
BRANCH  12  15
ATOM     15  N   UNL A   1      32.402  25.700  24.983  1.00  0.00    -0.324 N 
ATOM     16  C   UNL A   1      31.449  25.727  23.887  1.00  0.00     0.149 C 
BRANCH  15  17
ATOM     17  C   UNL A   1      33.564  26.650  24.851  1.00  0.00     0.097 C 
ATOM     18  C   UNL A   1      33.626  27.648  26.014  1.00  0.00     0.086 C 
ATOM     19  C   UNL A   1      33.702  27.446  23.538  1.00  0.00     0.086 C 
ATOM     20  C   UNL A   1      32.629  28.792  25.866  1.00  0.00     0.262 C 
ATOM     21  C   UNL A   1      32.811  28.690  23.444  1.00  0.00     0.262 C 
ATOM     22  N   UNL A   1      32.862  29.536  24.634  1.00  0.00    -0.346 N 
ATOM     23  H   UNL A   1      33.783  29.972  24.685  1.00  0.00     0.346 HD
ATOM     24  H   UNL A   1      32.119  30.231  24.549  1.00  0.00     0.346 HD
ENDBRANCH  15  17
ENDBRANCH  12  15
ENDBRANCH   6  11
ENDBRANCH   3   6
ENDBRANCH   1   2
BRANCH   1  25
ATOM     25  C   UNL A   1      37.444  19.691  24.975  1.00  0.00     0.042 C 
BRANCH  25  26
ATOM     26  C   UNL A   1      38.692  20.175  25.689  1.00  0.00     0.118 C 
BRANCH  26  27
ATOM     27  N   UNL A   1      39.825  19.281  25.642  1.00  0.00    -0.352 N 
ATOM     28  C   UNL A   1      41.112  19.478  26.095  1.00  0.00     0.251 C 
ATOM     29  H   UNL A   1      39.653  18.404  25.229  1.00  0.00     0.163 HD
ATOM     30  O   UNL A   1      41.927  18.574  25.979  1.00  0.00    -0.269 OA
BRANCH  28  31
ATOM     31  C   UNL A   1      41.548  20.785  26.664  1.00  0.00     0.039 A 
ATOM     32  C   UNL A   1      41.951  21.774  25.762  1.00  0.00     0.014 A 
ATOM     33  C   UNL A   1      41.600  21.053  28.036  1.00  0.00     0.014 A 
ATOM     34  C   UNL A   1      42.347  23.032  26.226  1.00  0.00     0.010 A 
ATOM     35  C   UNL A   1      41.926  22.337  28.496  1.00  0.00     0.010 A 
ATOM     36  C   UNL A   1      42.311  23.341  27.596  1.00  0.00    -0.014 A 
BRANCH  36  37
ATOM     37  C   UNL A   1      42.684  24.710  28.054  1.00  0.00     0.031 A 
ATOM     38  C   UNL A   1      41.640  25.778  28.249  1.00  0.00     0.074 A 
ATOM     39  C   UNL A   1      43.973  24.993  28.330  1.00  0.00     0.049 A 
ATOM     40  N   UNL A   1      41.774  26.979  28.759  1.00  0.00    -0.248 NA
ATOM     41  C   UNL A   1      40.275  25.466  27.805  1.00  0.00     0.031 C 
ATOM     42  C   UNL A   1      45.098  24.077  28.136  1.00  0.00     0.029 A 
ATOM     43  N   UNL A   1      44.554  26.126  28.848  1.00  0.00    -0.354 N 
ATOM     44  C   UNL A   1      40.512  27.559  28.703  1.00  0.00     0.074 A 
ATOM     45  C   UNL A   1      39.640  26.602  28.056  1.00  0.00     0.031 C 
ATOM     46  C   UNL A   1      46.224  24.666  28.572  1.00  0.00     0.029 A 
ATOM     47  C   UNL A   1      45.908  26.009  29.052  1.00  0.00     0.049 A 
ATOM     48  H   UNL A   1      44.047  26.945  29.055  1.00  0.00     0.167 HD
ATOM     49  C   UNL A   1      40.108  28.765  29.171  1.00  0.00     0.037 A 
ATOM     50  C   UNL A   1      46.796  26.874  29.579  1.00  0.00     0.037 A 
ATOM     51  C   UNL A   1      40.967  29.720  29.822  1.00  0.00     0.049 A 
ATOM     52  C   UNL A   1      46.323  28.209  30.085  1.00  0.00     0.074 A 
ATOM     53  C   UNL A   1      40.630  30.943  30.378  1.00  0.00     0.029 A 
ATOM     54  N   UNL A   1      42.333  29.568  29.996  1.00  0.00    -0.354 N 
ATOM     55  N   UNL A   1      45.110  28.703  30.112  1.00  0.00    -0.248 NA
ATOM     56  C   UNL A   1      47.347  29.105  30.646  1.00  0.00     0.031 C 
ATOM     57  C   UNL A   1      41.800  31.552  30.845  1.00  0.00     0.029 A 
ATOM     58  C   UNL A   1      42.858  30.686  30.627  1.00  0.00     0.049 A 
ATOM     59  H   UNL A   1      42.855  28.782  29.712  1.00  0.00     0.167 HD
ATOM     60  C   UNL A   1      45.219  29.949  30.716  1.00  0.00     0.074 A 
ATOM     61  C   UNL A   1      46.613  30.130  31.056  1.00  0.00     0.031 C 
ATOM     62  C   UNL A   1      44.247  30.861  30.965  1.00  0.00     0.037 A 
BRANCH  49  63
ATOM     63  C   UNL A   1      38.658  29.122  29.002  1.00  0.00     0.057 A 
ATOM     64  C   UNL A   1      37.747  29.020  30.062  1.00  0.00     0.134 A 
ATOM     65  C   UNL A   1      38.178  29.619  27.785  1.00  0.00     0.134 A 
ATOM     66  F   UNL A   1      38.141  28.545  31.254  1.00  0.00    -0.206 F 
ATOM     67  C   UNL A   1      36.406  29.376  29.910  1.00  0.00     0.040 A 
ATOM     68  C   UNL A   1      36.845  30.002  27.627  1.00  0.00     0.040 A 
ATOM     69  F   UNL A   1      38.999  29.753  26.731  1.00  0.00    -0.206 F 
ATOM     70  C   UNL A   1      35.954  29.875  28.690  1.00  0.00     0.006 A 
ENDBRANCH  49  63
BRANCH  50  71
ATOM     71  C   UNL A   1      48.228  26.495  29.688  1.00  0.00     0.057 A 
ATOM     72  C   UNL A   1      48.712  25.804  30.805  1.00  0.00     0.134 A 
ATOM     73  C   UNL A   1      49.148  26.833  28.690  1.00  0.00     0.134 A 
ATOM     74  F   UNL A   1      47.883  25.473  31.805  1.00  0.00    -0.206 F 
ATOM     75  C   UNL A   1      50.064  25.481  30.935  1.00  0.00     0.040 A 
ATOM     76  C   UNL A   1      50.498  26.493  28.794  1.00  0.00     0.040 A 
ATOM     77  F   UNL A   1      48.746  27.492  27.593  1.00  0.00    -0.206 F 
ATOM     78  C   UNL A   1      50.961  25.821  29.924  1.00  0.00     0.006 A 
ENDBRANCH  50  71
BRANCH  62  79
ATOM     79  C   UNL A   1      44.653  32.126  31.666  1.00  0.00     0.057 A 
ATOM     80  C   UNL A   1      45.038  33.274  30.960  1.00  0.00     0.134 A 
ATOM     81  C   UNL A   1      44.633  32.206  33.065  1.00  0.00     0.134 A 
ATOM     82  F   UNL A   1      45.091  33.263  29.620  1.00  0.00    -0.206 F 
ATOM     83  C   UNL A   1      45.415  34.445  31.621  1.00  0.00     0.040 A 
ATOM     84  C   UNL A   1      44.981  33.379  33.736  1.00  0.00     0.040 A 
ATOM     85  F   UNL A   1      44.265  31.147  33.802  1.00  0.00    -0.206 F 
ATOM     86  C   UNL A   1      45.381  34.501  33.014  1.00  0.00     0.006 A 
ENDBRANCH  62  79
ENDBRANCH  36  37
ENDBRANCH  28  31
ENDBRANCH  26  27
ENDBRANCH  25  26
ENDBRANCH   1  25
TORSDOF 15
ENDMDL
