MODEL 1
REMARK VINA RESULT:     -11.3      0.000      0.000
REMARK SMILES COc1ccc(C(=O)N2CSC[C@H]2C(=O)NCCCNC(=O)c2ccc(-c3c4nc(c(-c5c(F)cccc5F)c5ccc([nH]5)c(-c5c(F)cccc5F)c5nc(c(-c6c(F)cccc6F)c6ccc3[nH]6)C=C5)C=C4)cc2)cc1C#N
REMARK SMILES IDX 17 1 16 2 14 3 15 4 13 6 9 7 10 8 11 9 12 10 7 11 8 12 6 13
REMARK SMILES IDX 3 14 4 15 78 16 5 17 77 18 2 19 1 20 79 21 80 22 18 23 19 24
REMARK SMILES IDX 20 25 21 26 22 28 23 29 24 30 76 31 25 32 75 33 26 34 27 35
REMARK SMILES IDX 28 36 69 37 29 38 74 39 68 40 70 41 30 42 73 43 67 44 66 45
REMARK SMILES IDX 31 47 57 48 40 49 56 50 41 51 44 52 55 53 71 54 42 55 43 56
REMARK SMILES IDX 54 58 72 59 45 60 32 61 33 62 38 63 34 64 35 65 37 66 39 67
REMARK SMILES IDX 36 68 58 69 59 70 64 71 60 72 61 73 63 74 65 75 62 76 46 77
REMARK SMILES IDX 47 78 52 79 48 80 49 81 51 82 53 83 50 84
REMARK H PARENT 16 5 20 27 70 46 44 57
REMARK Flexibility Score: inf
ROOT
ATOM      1  C   UNL A   1      33.275  28.775  24.997  1.00  0.00     0.117 C 
ENDROOT
BRANCH   1   2
ATOM      2  N   UNL A   1      33.979  28.702  23.738  1.00  0.00    -0.354 N 
ATOM      3  C   UNL A   1      33.672  28.038  22.592  1.00  0.00     0.243 C 
ATOM      4  O   UNL A   1      34.361  28.306  21.600  1.00  0.00    -0.273 OA
ATOM      5  H   UNL A   1      34.817  29.216  23.704  1.00  0.00     0.163 HD
BRANCH   3   6
ATOM      6  C   UNL A   1      32.448  27.110  22.468  1.00  0.00     0.185 C 
ATOM      7  N   UNL A   1      32.520  25.798  23.121  1.00  0.00    -0.317 N 
ATOM      8  C   UNL A   1      31.664  25.627  24.275  1.00  0.00     0.190 C 
ATOM      9  S   UNL A   1      30.258  26.721  24.012  1.00  0.00    -0.138 SA
ATOM     10  C   UNL A   1      31.150  27.818  22.862  1.00  0.00     0.106 C 
BRANCH   7  11
ATOM     11  C   UNL A   1      33.187  24.789  22.440  1.00  0.00     0.255 C 
ATOM     12  O   UNL A   1      33.148  24.696  21.217  1.00  0.00    -0.269 OA
BRANCH  11  13
ATOM     13  C   UNL A   1      33.847  23.699  23.216  1.00  0.00     0.041 A 
ATOM     14  C   UNL A   1      35.111  21.602  24.623  1.00  0.00     0.136 A 
ATOM     15  C   UNL A   1      35.818  22.757  24.251  1.00  0.00     0.048 A 
ATOM     16  C   UNL A   1      33.764  21.493  24.270  1.00  0.00     0.095 A 
ATOM     17  C   UNL A   1      35.195  23.802  23.557  1.00  0.00     0.018 A 
ATOM     18  C   UNL A   1      33.169  22.513  23.513  1.00  0.00     0.037 A 
BRANCH  14  19
ATOM     19  O   UNL A   1      35.855  20.723  25.362  1.00  0.00    -0.495 OA
ATOM     20  C   UNL A   1      37.216  20.531  24.987  1.00  0.00     0.278 C 
ENDBRANCH  14  19
BRANCH  16  21
ATOM     21  C   UNL A   1      32.892  20.433  24.686  1.00  0.00     0.103 C 
ATOM     22  N   UNL A   1      32.209  19.546  24.982  1.00  0.00    -0.192 NA
ENDBRANCH  16  21
ENDBRANCH  11  13
ENDBRANCH   7  11
ENDBRANCH   3   6
ENDBRANCH   1   2
BRANCH   1  23
ATOM     23  C   UNL A   1      33.971  27.978  26.084  1.00  0.00     0.042 C 
BRANCH  23  24
ATOM     24  C   UNL A   1      33.556  28.423  27.476  1.00  0.00     0.118 C 
BRANCH  24  25
ATOM     25  N   UNL A   1      33.576  29.877  27.609  1.00  0.00    -0.352 N 
ATOM     26  C   UNL A   1      34.549  30.699  28.113  1.00  0.00     0.251 C 
ATOM     27  H   UNL A   1      32.766  30.336  27.286  1.00  0.00     0.163 HD
ATOM     28  O   UNL A   1      34.288  31.868  28.380  1.00  0.00    -0.269 OA
BRANCH  26  29
ATOM     29  C   UNL A   1      35.905  30.168  28.337  1.00  0.00     0.039 A 
ATOM     30  C   UNL A   1      36.829  30.192  27.291  1.00  0.00     0.014 A 
ATOM     31  C   UNL A   1      36.259  29.644  29.582  1.00  0.00     0.014 A 
ATOM     32  C   UNL A   1      38.129  29.740  27.516  1.00  0.00     0.010 A 
ATOM     33  C   UNL A   1      37.578  29.297  29.834  1.00  0.00     0.010 A 
ATOM     34  C   UNL A   1      38.522  29.324  28.799  1.00  0.00    -0.014 A 
BRANCH  34  35
ATOM     35  C   UNL A   1      39.908  28.880  29.081  1.00  0.00     0.031 A 
ATOM     36  C   UNL A   1      40.872  29.828  29.740  1.00  0.00     0.074 A 
ATOM     37  C   UNL A   1      40.311  27.656  28.690  1.00  0.00     0.049 A 
ATOM     38  N   UNL A   1      42.149  29.675  29.977  1.00  0.00    -0.248 NA
ATOM     39  C   UNL A   1      40.337  31.134  30.167  1.00  0.00     0.031 C 
ATOM     40  C   UNL A   1      39.477  26.663  28.009  1.00  0.00     0.029 A 
ATOM     41  N   UNL A   1      41.535  27.043  28.796  1.00  0.00    -0.354 N 
ATOM     42  C   UNL A   1      42.567  30.859  30.572  1.00  0.00     0.074 A 
ATOM     43  C   UNL A   1      41.428  31.748  30.596  1.00  0.00     0.031 C 
ATOM     44  C   UNL A   1      40.206  25.560  27.778  1.00  0.00     0.029 A 
ATOM     45  C   UNL A   1      41.571  25.785  28.242  1.00  0.00     0.049 A 
ATOM     46  H   UNL A   1      42.312  27.464  29.226  1.00  0.00     0.167 HD
ATOM     47  C   UNL A   1      43.782  31.164  31.082  1.00  0.00     0.037 A 
ATOM     48  C   UNL A   1      42.596  24.923  28.106  1.00  0.00     0.037 A 
ATOM     49  C   UNL A   1      44.908  30.270  31.066  1.00  0.00     0.049 A 
ATOM     50  C   UNL A   1      43.950  25.313  28.635  1.00  0.00     0.074 A 
ATOM     51  C   UNL A   1      46.175  30.475  31.580  1.00  0.00     0.029 A 
ATOM     52  N   UNL A   1      44.901  29.003  30.505  1.00  0.00    -0.354 N 
ATOM     53  N   UNL A   1      44.317  26.416  29.245  1.00  0.00    -0.248 NA
ATOM     54  C   UNL A   1      45.036  24.336  28.465  1.00  0.00     0.031 C 
ATOM     55  C   UNL A   1      46.953  29.355  31.280  1.00  0.00     0.029 A 
ATOM     56  C   UNL A   1      46.150  28.422  30.645  1.00  0.00     0.049 A 
ATOM     57  H   UNL A   1      44.125  28.579  30.073  1.00  0.00     0.167 HD
ATOM     58  C   UNL A   1      45.657  26.244  29.570  1.00  0.00     0.074 A 
ATOM     59  C   UNL A   1      46.035  24.928  29.102  1.00  0.00     0.031 C 
ATOM     60  C   UNL A   1      46.500  27.097  30.202  1.00  0.00     0.037 A 
BRANCH  47  61
ATOM     61  C   UNL A   1      43.955  32.514  31.716  1.00  0.00     0.057 A 
ATOM     62  C   UNL A   1      44.355  33.631  30.971  1.00  0.00     0.134 A 
ATOM     63  C   UNL A   1      43.654  32.715  33.069  1.00  0.00     0.134 A 
ATOM     64  F   UNL A   1      44.671  33.505  29.672  1.00  0.00    -0.206 F 
ATOM     65  C   UNL A   1      44.467  34.895  31.551  1.00  0.00     0.040 A 
ATOM     66  C   UNL A   1      43.731  33.980  33.654  1.00  0.00     0.040 A 
ATOM     67  F   UNL A   1      43.261  31.690  33.839  1.00  0.00    -0.206 F 
ATOM     68  C   UNL A   1      44.142  35.074  32.895  1.00  0.00     0.006 A 
ENDBRANCH  47  61
BRANCH  48  69
ATOM     69  C   UNL A   1      42.399  23.610  27.434  1.00  0.00     0.057 A 
ATOM     70  C   UNL A   1      42.132  22.450  28.170  1.00  0.00     0.134 A 
ATOM     71  C   UNL A   1      42.537  23.472  26.047  1.00  0.00     0.134 A 
ATOM     72  F   UNL A   1      42.001  22.511  29.504  1.00  0.00    -0.206 F 
ATOM     73  C   UNL A   1      42.062  21.195  27.561  1.00  0.00     0.040 A 
ATOM     74  C   UNL A   1      42.430  22.230  25.421  1.00  0.00     0.040 A 
ATOM     75  F   UNL A   1      42.779  24.544  25.278  1.00  0.00    -0.206 F 
ATOM     76  C   UNL A   1      42.211  21.083  26.181  1.00  0.00     0.006 A 
ENDBRANCH  48  69
BRANCH  60  77
ATOM     77  C   UNL A   1      47.890  26.611  30.494  1.00  0.00     0.057 A 
ATOM     78  C   UNL A   1      48.214  25.929  31.671  1.00  0.00     0.134 A 
ATOM     79  C   UNL A   1      48.909  26.787  29.547  1.00  0.00     0.134 A 
ATOM     80  F   UNL A   1      47.290  25.736  32.624  1.00  0.00    -0.206 F 
ATOM     81  C   UNL A   1      49.508  25.461  31.910  1.00  0.00     0.040 A 
ATOM     82  C   UNL A   1      50.196  26.292  29.758  1.00  0.00     0.040 A 
ATOM     83  F   UNL A   1      48.665  27.421  28.390  1.00  0.00    -0.206 F 
ATOM     84  C   UNL A   1      50.500  25.633  30.947  1.00  0.00     0.006 A 
ENDBRANCH  60  77
ENDBRANCH  34  35
ENDBRANCH  26  29
ENDBRANCH  24  25
ENDBRANCH  23  24
ENDBRANCH   1  23
TORSDOF 14
ENDMDL
MODEL 2
REMARK VINA RESULT:     -11.3      4.035      8.640
REMARK SMILES COc1ccc(C(=O)N2CSC[C@H]2C(=O)NCCCNC(=O)c2ccc(-c3c4nc(c(-c5c(F)cccc5F)c5ccc([nH]5)c(-c5c(F)cccc5F)c5nc(c(-c6c(F)cccc6F)c6ccc3[nH]6)C=C5)C=C4)cc2)cc1C#N
REMARK SMILES IDX 17 1 16 2 14 3 15 4 13 6 9 7 10 8 11 9 12 10 7 11 8 12 6 13
REMARK SMILES IDX 3 14 4 15 78 16 5 17 77 18 2 19 1 20 79 21 80 22 18 23 19 24
REMARK SMILES IDX 20 25 21 26 22 28 23 29 24 30 76 31 25 32 75 33 26 34 27 35
REMARK SMILES IDX 28 36 69 37 29 38 74 39 68 40 70 41 30 42 73 43 67 44 66 45
REMARK SMILES IDX 31 47 57 48 40 49 56 50 41 51 44 52 55 53 71 54 42 55 43 56
REMARK SMILES IDX 54 58 72 59 45 60 32 61 33 62 38 63 34 64 35 65 37 66 39 67
REMARK SMILES IDX 36 68 58 69 59 70 64 71 60 72 61 73 63 74 65 75 62 76 46 77
REMARK SMILES IDX 47 78 52 79 48 80 49 81 51 82 53 83 50 84
REMARK H PARENT 16 5 20 27 70 46 44 57
REMARK Flexibility Score: inf
ROOT
ATOM      1  C   UNL A   1      31.516  30.745  26.357  1.00  0.00     0.117 C 
ENDROOT
BRANCH   1   2
ATOM      2  N   UNL A   1      32.844  30.253  26.640  1.00  0.00    -0.354 N 
ATOM      3  C   UNL A   1      33.430  29.065  26.336  1.00  0.00     0.243 C 
ATOM      4  O   UNL A   1      34.647  28.985  26.536  1.00  0.00    -0.273 OA
ATOM      5  H   UNL A   1      33.419  30.881  27.135  1.00  0.00     0.163 HD
BRANCH   3   6
ATOM      6  C   UNL A   1      32.673  27.916  25.640  1.00  0.00     0.185 C 
ATOM      7  N   UNL A   1      32.997  27.640  24.236  1.00  0.00    -0.317 N 
ATOM      8  C   UNL A   1      33.700  26.399  23.990  1.00  0.00     0.190 C 
ATOM      9  S   UNL A   1      33.204  25.282  25.313  1.00  0.00    -0.138 SA
ATOM     10  C   UNL A   1      32.726  26.621  26.453  1.00  0.00     0.106 C 
BRANCH   7  11
ATOM     11  C   UNL A   1      32.392  28.441  23.278  1.00  0.00     0.255 C 
ATOM     12  O   UNL A   1      33.044  29.148  22.516  1.00  0.00    -0.269 OA
BRANCH  11  13
ATOM     13  C   UNL A   1      30.905  28.567  23.269  1.00  0.00     0.041 A 
ATOM     14  C   UNL A   1      28.092  28.802  23.178  1.00  0.00     0.136 A 
ATOM     15  C   UNL A   1      28.713  27.551  23.332  1.00  0.00     0.048 A 
ATOM     16  C   UNL A   1      28.892  29.940  23.050  1.00  0.00     0.095 A 
ATOM     17  C   UNL A   1      30.107  27.430  23.382  1.00  0.00     0.018 A 
ATOM     18  C   UNL A   1      30.287  29.799  23.030  1.00  0.00     0.037 A 
BRANCH  14  19
ATOM     19  O   UNL A   1      26.726  28.741  23.230  1.00  0.00    -0.495 OA
ATOM     20  C   UNL A   1      26.140  27.656  23.944  1.00  0.00     0.278 C 
ENDBRANCH  14  19
BRANCH  16  21
ATOM     21  C   UNL A   1      28.399  31.286  23.009  1.00  0.00     0.103 C 
ATOM     22  N   UNL A   1      27.951  32.353  22.969  1.00  0.00    -0.192 NA
ENDBRANCH  16  21
ENDBRANCH  11  13
ENDBRANCH   7  11
ENDBRANCH   3   6
ENDBRANCH   1   2
BRANCH   1  23
ATOM     23  C   UNL A   1      31.412  32.246  26.551  1.00  0.00     0.042 C 
BRANCH  23  24
ATOM     24  C   UNL A   1      32.608  32.813  27.297  1.00  0.00     0.118 C 
BRANCH  24  25
ATOM     25  N   UNL A   1      32.427  34.226  27.617  1.00  0.00    -0.352 N 
ATOM     26  C   UNL A   1      33.012  34.987  28.594  1.00  0.00     0.251 C 
ATOM     27  H   UNL A   1      31.785  34.704  27.042  1.00  0.00     0.163 HD
ATOM     28  O   UNL A   1      32.550  36.088  28.875  1.00  0.00    -0.269 OA
BRANCH  26  29
ATOM     29  C   UNL A   1      34.196  34.471  29.305  1.00  0.00     0.039 A 
ATOM     30  C   UNL A   1      34.032  33.864  30.552  1.00  0.00     0.014 A 
ATOM     31  C   UNL A   1      35.467  34.595  28.739  1.00  0.00     0.014 A 
ATOM     32  C   UNL A   1      35.143  33.328  31.202  1.00  0.00     0.010 A 
ATOM     33  C   UNL A   1      36.550  33.966  29.335  1.00  0.00     0.010 A 
ATOM     34  C   UNL A   1      36.403  33.342  30.581  1.00  0.00    -0.014 A 
BRANCH  34  35
ATOM     35  C   UNL A   1      37.594  32.741  31.226  1.00  0.00     0.031 A 
ATOM     36  C   UNL A   1      38.246  31.535  30.606  1.00  0.00     0.074 A 
ATOM     37  C   UNL A   1      38.046  33.238  32.394  1.00  0.00     0.049 A 
ATOM     38  N   UNL A   1      39.225  30.799  31.064  1.00  0.00    -0.248 NA
ATOM     39  C   UNL A   1      37.709  31.079  29.312  1.00  0.00     0.031 C 
ATOM     40  C   UNL A   1      37.473  34.381  33.109  1.00  0.00     0.029 A 
ATOM     41  N   UNL A   1      39.085  32.834  33.194  1.00  0.00    -0.354 N 
ATOM     42  C   UNL A   1      39.416  29.797  30.120  1.00  0.00     0.074 A 
ATOM     43  C   UNL A   1      38.407  29.974  29.101  1.00  0.00     0.031 C 
ATOM     44  C   UNL A   1      38.180  34.598  34.230  1.00  0.00     0.029 A 
ATOM     45  C   UNL A   1      39.220  33.580  34.341  1.00  0.00     0.049 A 
ATOM     46  H   UNL A   1      39.677  32.082  32.968  1.00  0.00     0.167 HD
ATOM     47  C   UNL A   1      40.367  28.836  30.090  1.00  0.00     0.037 A 
ATOM     48  C   UNL A   1      40.072  33.442  35.374  1.00  0.00     0.037 A 
ATOM     49  C   UNL A   1      41.376  28.672  31.102  1.00  0.00     0.049 A 
ATOM     50  C   UNL A   1      41.085  32.329  35.338  1.00  0.00     0.074 A 
ATOM     51  C   UNL A   1      42.401  27.745  31.151  1.00  0.00     0.029 A 
ATOM     52  N   UNL A   1      41.484  29.453  32.242  1.00  0.00    -0.354 N 
ATOM     53  N   UNL A   1      41.288  31.421  34.412  1.00  0.00    -0.248 NA
ATOM     54  C   UNL A   1      41.994  32.221  36.488  1.00  0.00     0.031 C 
ATOM     55  C   UNL A   1      43.096  27.927  32.349  1.00  0.00     0.029 A 
ATOM     56  C   UNL A   1      42.550  29.015  33.009  1.00  0.00     0.049 A 
ATOM     57  H   UNL A   1      40.893  30.206  32.471  1.00  0.00     0.167 HD
ATOM     58  C   UNL A   1      42.375  30.670  34.846  1.00  0.00     0.074 A 
ATOM     59  C   UNL A   1      42.794  31.235  36.110  1.00  0.00     0.031 C 
ATOM     60  C   UNL A   1      42.973  29.610  34.251  1.00  0.00     0.037 A 
BRANCH  47  61
ATOM     61  C   UNL A   1      40.375  27.896  28.920  1.00  0.00     0.057 A 
ATOM     62  C   UNL A   1      39.621  26.715  28.920  1.00  0.00     0.134 A 
ATOM     63  C   UNL A   1      41.090  28.206  27.756  1.00  0.00     0.134 A 
ATOM     64  F   UNL A   1      38.923  26.352  30.007  1.00  0.00    -0.206 F 
ATOM     65  C   UNL A   1      39.590  25.868  27.810  1.00  0.00     0.040 A 
ATOM     66  C   UNL A   1      41.042  27.384  26.629  1.00  0.00     0.040 A 
ATOM     67  F   UNL A   1      41.829  29.323  27.687  1.00  0.00    -0.206 F 
ATOM     68  C   UNL A   1      40.293  26.209  26.656  1.00  0.00     0.006 A 
ENDBRANCH  47  61
BRANCH  48  69
ATOM     69  C   UNL A   1      40.009  34.365  36.539  1.00  0.00     0.057 A 
ATOM     70  C   UNL A   1      39.220  34.071  37.657  1.00  0.00     0.134 A 
ATOM     71  C   UNL A   1      40.684  35.593  36.536  1.00  0.00     0.134 A 
ATOM     72  F   UNL A   1      38.538  32.918  37.718  1.00  0.00    -0.206 F 
ATOM     73  C   UNL A   1      39.063  34.982  38.703  1.00  0.00     0.040 A 
ATOM     74  C   UNL A   1      40.566  36.496  37.592  1.00  0.00     0.040 A 
ATOM     75  F   UNL A   1      41.470  35.934  35.503  1.00  0.00    -0.206 F 
ATOM     76  C   UNL A   1      39.738  36.200  38.672  1.00  0.00     0.006 A 
ENDBRANCH  48  69
BRANCH  60  77
ATOM     77  C   UNL A   1      44.191  29.036  34.916  1.00  0.00     0.057 A 
ATOM     78  C   UNL A   1      45.484  29.490  34.634  1.00  0.00     0.134 A 
ATOM     79  C   UNL A   1      44.054  28.047  35.900  1.00  0.00     0.134 A 
ATOM     80  F   UNL A   1      45.687  30.427  33.696  1.00  0.00    -0.206 F 
ATOM     81  C   UNL A   1      46.601  28.961  35.285  1.00  0.00     0.040 A 
ATOM     82  C   UNL A   1      45.158  27.537  36.583  1.00  0.00     0.040 A 
ATOM     83  F   UNL A   1      42.842  27.576  36.231  1.00  0.00    -0.206 F 
ATOM     84  C   UNL A   1      46.437  27.990  36.270  1.00  0.00     0.006 A 
ENDBRANCH  60  77
ENDBRANCH  34  35
ENDBRANCH  26  29
ENDBRANCH  24  25
ENDBRANCH  23  24
ENDBRANCH   1  23
TORSDOF 14
ENDMDL
MODEL 3
REMARK VINA RESULT:     -11.1      2.066      7.804
REMARK SMILES COc1ccc(C(=O)N2CSC[C@H]2C(=O)NCCCNC(=O)c2ccc(-c3c4nc(c(-c5c(F)cccc5F)c5ccc([nH]5)c(-c5c(F)cccc5F)c5nc(c(-c6c(F)cccc6F)c6ccc3[nH]6)C=C5)C=C4)cc2)cc1C#N
REMARK SMILES IDX 17 1 16 2 14 3 15 4 13 6 9 7 10 8 11 9 12 10 7 11 8 12 6 13
REMARK SMILES IDX 3 14 4 15 78 16 5 17 77 18 2 19 1 20 79 21 80 22 18 23 19 24
REMARK SMILES IDX 20 25 21 26 22 28 23 29 24 30 76 31 25 32 75 33 26 34 27 35
REMARK SMILES IDX 28 36 69 37 29 38 74 39 68 40 70 41 30 42 73 43 67 44 66 45
REMARK SMILES IDX 31 47 57 48 40 49 56 50 41 51 44 52 55 53 71 54 42 55 43 56
REMARK SMILES IDX 54 58 72 59 45 60 32 61 33 62 38 63 34 64 35 65 37 66 39 67
REMARK SMILES IDX 36 68 58 69 59 70 64 71 60 72 61 73 63 74 65 75 62 76 46 77
REMARK SMILES IDX 47 78 52 79 48 80 49 81 51 82 53 83 50 84
REMARK H PARENT 16 5 20 27 70 46 44 57
REMARK Flexibility Score: inf
ROOT
ATOM      1  C   UNL A   1      36.980  20.581  24.909  1.00  0.00     0.117 C 
ENDROOT
BRANCH   1   2
ATOM      2  N   UNL A   1      35.709  19.896  24.907  1.00  0.00    -0.354 N 
ATOM      3  C   UNL A   1      34.463  20.347  25.211  1.00  0.00     0.243 C 
ATOM      4  O   UNL A   1      33.523  19.591  24.939  1.00  0.00    -0.273 OA
ATOM      5  H   UNL A   1      35.751  18.950  24.642  1.00  0.00     0.163 HD
BRANCH   3   6
ATOM      6  C   UNL A   1      34.196  21.774  25.729  1.00  0.00     0.185 C 
ATOM      7  N   UNL A   1      33.392  22.665  24.884  1.00  0.00    -0.317 N 
ATOM      8  C   UNL A   1      32.073  22.981  25.388  1.00  0.00     0.190 C 
ATOM      9  S   UNL A   1      32.191  22.870  27.182  1.00  0.00    -0.138 SA
ATOM     10  C   UNL A   1      33.645  21.772  27.157  1.00  0.00     0.106 C 
BRANCH   7  11
ATOM     11  C   UNL A   1      34.047  23.308  23.843  1.00  0.00     0.255 C 
ATOM     12  O   UNL A   1      34.986  22.789  23.247  1.00  0.00    -0.269 OA
BRANCH  11  13
ATOM     13  C   UNL A   1      33.704  24.727  23.533  1.00  0.00     0.041 A 
ATOM     14  C   UNL A   1      33.125  27.424  22.926  1.00  0.00     0.136 A 
ATOM     15  C   UNL A   1      32.930  26.407  21.977  1.00  0.00     0.048 A 
ATOM     16  C   UNL A   1      33.633  27.084  24.183  1.00  0.00     0.095 A 
ATOM     17  C   UNL A   1      33.211  25.067  22.274  1.00  0.00     0.018 A 
ATOM     18  C   UNL A   1      33.978  25.751  24.446  1.00  0.00     0.037 A 
BRANCH  14  19
ATOM     19  O   UNL A   1      32.724  28.657  22.492  1.00  0.00    -0.495 OA
ATOM     20  C   UNL A   1      31.345  28.990  22.630  1.00  0.00     0.278 C 
ENDBRANCH  14  19
BRANCH  16  21
ATOM     21  C   UNL A   1      33.768  27.993  25.283  1.00  0.00     0.103 C 
ATOM     22  N   UNL A   1      33.849  28.765  26.143  1.00  0.00    -0.192 NA
ENDBRANCH  16  21
ENDBRANCH  11  13
ENDBRANCH   7  11
ENDBRANCH   3   6
ENDBRANCH   1   2
BRANCH   1  23
ATOM     23  C   UNL A   1      38.147  19.611  24.946  1.00  0.00     0.042 C 
BRANCH  23  24
ATOM     24  C   UNL A   1      39.178  19.993  25.995  1.00  0.00     0.118 C 
BRANCH  24  25
ATOM     25  N   UNL A   1      40.376  19.163  25.904  1.00  0.00    -0.352 N 
ATOM     26  C   UNL A   1      41.697  19.518  25.978  1.00  0.00     0.251 C 
ATOM     27  H   UNL A   1      40.208  18.202  25.769  1.00  0.00     0.163 HD
ATOM     28  O   UNL A   1      42.567  18.727  25.625  1.00  0.00    -0.269 OA
BRANCH  26  29
ATOM     29  C   UNL A   1      42.064  20.855  26.478  1.00  0.00     0.039 A 
ATOM     30  C   UNL A   1      42.425  21.849  25.567  1.00  0.00     0.014 A 
ATOM     31  C   UNL A   1      42.054  21.121  27.849  1.00  0.00     0.014 A 
ATOM     32  C   UNL A   1      42.720  23.130  26.033  1.00  0.00     0.010 A 
ATOM     33  C   UNL A   1      42.241  22.419  28.300  1.00  0.00     0.010 A 
ATOM     34  C   UNL A   1      42.594  23.433  27.399  1.00  0.00    -0.014 A 
BRANCH  34  35
ATOM     35  C   UNL A   1      42.857  24.795  27.920  1.00  0.00     0.031 A 
ATOM     36  C   UNL A   1      44.251  25.173  28.340  1.00  0.00     0.074 A 
ATOM     37  C   UNL A   1      41.837  25.662  28.075  1.00  0.00     0.049 A 
ATOM     38  N   UNL A   1      44.671  26.269  28.917  1.00  0.00    -0.248 NA
ATOM     39  C   UNL A   1      45.311  24.177  28.104  1.00  0.00     0.031 C 
ATOM     40  C   UNL A   1      40.437  25.396  27.738  1.00  0.00     0.029 A 
ATOM     41  N   UNL A   1      41.820  26.942  28.571  1.00  0.00    -0.354 N 
ATOM     42  C   UNL A   1      46.035  26.091  29.115  1.00  0.00     0.074 A 
ATOM     43  C   UNL A   1      46.361  24.758  28.664  1.00  0.00     0.031 C 
ATOM     44  C   UNL A   1      39.702  26.484  28.017  1.00  0.00     0.029 A 
ATOM     45  C   UNL A   1      40.567  27.504  28.602  1.00  0.00     0.049 A 
ATOM     46  H   UNL A   1      42.630  27.412  28.875  1.00  0.00     0.167 HD
ATOM     47  C   UNL A   1      46.940  26.973  29.598  1.00  0.00     0.037 A 
ATOM     48  C   UNL A   1      40.160  28.699  29.071  1.00  0.00     0.037 A 
ATOM     49  C   UNL A   1      46.612  28.304  30.035  1.00  0.00     0.049 A 
ATOM     50  C   UNL A   1      41.182  29.638  29.654  1.00  0.00     0.074 A 
ATOM     51  C   UNL A   1      47.460  29.283  30.517  1.00  0.00     0.029 A 
ATOM     52  N   UNL A   1      45.333  28.838  30.042  1.00  0.00    -0.354 N 
ATOM     53  N   UNL A   1      42.478  29.477  29.785  1.00  0.00    -0.248 NA
ATOM     54  C   UNL A   1      40.689  30.931  30.151  1.00  0.00     0.031 C 
ATOM     55  C   UNL A   1      46.687  30.392  30.870  1.00  0.00     0.029 A 
ATOM     56  C   UNL A   1      45.368  30.130  30.538  1.00  0.00     0.049 A 
ATOM     57  H   UNL A   1      44.522  28.370  29.739  1.00  0.00     0.167 HD
ATOM     58  C   UNL A   1      42.957  30.662  30.332  1.00  0.00     0.074 A 
ATOM     59  C   UNL A   1      41.815  31.536  30.497  1.00  0.00     0.031 C 
ATOM     60  C   UNL A   1      44.226  30.998  30.666  1.00  0.00     0.037 A 
BRANCH  47  61
ATOM     61  C   UNL A   1      48.375  26.536  29.668  1.00  0.00     0.057 A 
ATOM     62  C   UNL A   1      49.273  26.795  28.625  1.00  0.00     0.134 A 
ATOM     63  C   UNL A   1      48.879  25.912  30.816  1.00  0.00     0.134 A 
ATOM     64  F   UNL A   1      48.852  27.378  27.492  1.00  0.00    -0.206 F 
ATOM     65  C   UNL A   1      50.619  26.434  28.714  1.00  0.00     0.040 A 
ATOM     66  C   UNL A   1      50.229  25.575  30.929  1.00  0.00     0.040 A 
ATOM     67  F   UNL A   1      48.074  25.640  31.854  1.00  0.00    -0.206 F 
ATOM     68  C   UNL A   1      51.102  25.832  29.874  1.00  0.00     0.006 A 
ENDBRANCH  47  61
BRANCH  48  69
ATOM     69  C   UNL A   1      38.724  29.083  29.027  1.00  0.00     0.057 A 
ATOM     70  C   UNL A   1      38.148  29.608  27.864  1.00  0.00     0.134 A 
ATOM     71  C   UNL A   1      37.908  28.995  30.162  1.00  0.00     0.134 A 
ATOM     72  F   UNL A   1      38.877  29.731  26.745  1.00  0.00    -0.206 F 
ATOM     73  C   UNL A   1      36.833  30.079  27.845  1.00  0.00     0.040 A 
ATOM     74  C   UNL A   1      36.581  29.426  30.147  1.00  0.00     0.040 A 
ATOM     75  F   UNL A   1      38.390  28.488  31.307  1.00  0.00    -0.206 F 
ATOM     76  C   UNL A   1      36.046  29.988  28.990  1.00  0.00     0.006 A 
ENDBRANCH  48  69
BRANCH  60  77
ATOM     77  C   UNL A   1      44.466  32.391  31.171  1.00  0.00     0.057 A 
ATOM     78  C   UNL A   1      44.718  33.468  30.312  1.00  0.00     0.134 A 
ATOM     79  C   UNL A   1      44.387  32.665  32.544  1.00  0.00     0.134 A 
ATOM     80  F   UNL A   1      44.817  33.274  28.989  1.00  0.00    -0.206 F 
ATOM     81  C   UNL A   1      44.911  34.761  30.802  1.00  0.00     0.040 A 
ATOM     82  C   UNL A   1      44.541  33.958  33.042  1.00  0.00     0.040 A 
ATOM     83  F   UNL A   1      44.135  31.682  33.422  1.00  0.00    -0.206 F 
ATOM     84  C   UNL A   1      44.811  35.010  32.169  1.00  0.00     0.006 A 
ENDBRANCH  60  77
ENDBRANCH  34  35
ENDBRANCH  26  29
ENDBRANCH  24  25
ENDBRANCH  23  24
ENDBRANCH   1  23
TORSDOF 14
ENDMDL
