MODEL 1
REMARK VINA RESULT:     -13.0      0.000      0.000
REMARK SMILES Cc1c(CCC(=O)N[C@@H](C)C(=O)NCCCNC(=O)c2ccc(-c3c4nc(c(-c5c(F)cccc5F)c5ccc([nH]5)c(-c5c(F)cccc5F)c5nc(c(-c6c(F)cccc6F)c6ccc3[nH]6)C=C5)C=C4)cc2)c(=O)oc2cc3oc4c(c3cc12)CCCC4
REMARK SMILES IDX 14 1 13 2 11 3 12 4 9 6 10 7 8 8 6 9 7 10 5 12 4 13 3 14
REMARK SMILES IDX 1 15 2 16 85 17 74 18 77 19 84 20 75 21 76 22 78 23 83 24
REMARK SMILES IDX 79 25 82 26 80 27 81 28 86 29 89 30 87 31 88 32 15 33 16 34
REMARK SMILES IDX 17 35 18 36 19 38 20 39 21 40 73 41 22 42 72 43 23 44 24 45
REMARK SMILES IDX 25 46 66 47 26 48 71 49 65 50 67 51 27 52 70 53 64 54 63 55
REMARK SMILES IDX 28 57 54 58 37 59 53 60 38 61 41 62 52 63 68 64 39 65 40 66
REMARK SMILES IDX 51 68 69 69 42 70 29 71 30 72 35 73 31 74 32 75 34 76 36 77
REMARK SMILES IDX 33 78 55 79 56 80 61 81 57 82 58 83 60 84 62 85 59 86 43 87
REMARK SMILES IDX 44 88 49 89 45 90 46 91 48 92 50 93 47 94
REMARK H PARENT 13 5 8 11 17 37 67 56 41 67
REMARK Flexibility Score: inf
ROOT
ATOM      1  C   UNL A   1      48.875  20.488  34.405  1.00  0.00     0.117 C 
ENDROOT
BRANCH   1   2
ATOM      2  N   UNL A   1      49.853  19.560  34.957  1.00  0.00    -0.354 N 
ATOM      3  C   UNL A   1      50.832  19.693  35.898  1.00  0.00     0.242 C 
ATOM      4  O   UNL A   1      51.714  18.826  35.868  1.00  0.00    -0.273 OA
ATOM      5  H   UNL A   1      49.796  18.656  34.573  1.00  0.00     0.163 HD
BRANCH   3   6
ATOM      6  C   UNL A   1      50.789  20.731  37.054  1.00  0.00     0.168 C 
ATOM      7  C   UNL A   1      51.811  21.852  37.009  1.00  0.00     0.041 C 
BRANCH   6   8
ATOM      8  N   UNL A   1      50.975  20.105  38.370  1.00  0.00    -0.345 N 
ATOM      9  C   UNL A   1      49.965  19.926  39.280  1.00  0.00     0.220 C 
ATOM     10  O   UNL A   1      50.114  20.326  40.433  1.00  0.00    -0.275 OA
ATOM     11  H   UNL A   1      51.878  19.797  38.613  1.00  0.00     0.164 HD
BRANCH   9  12
ATOM     12  C   UNL A   1      48.733  19.150  38.850  1.00  0.00     0.105 C 
BRANCH  12  13
ATOM     13  C   UNL A   1      47.451  19.407  39.656  1.00  0.00     0.053 C 
BRANCH  13  14
ATOM     14  C   UNL A   1      46.410  18.324  39.475  1.00  0.00     0.042 A 
ATOM     15  C   UNL A   1      47.272  16.890  41.362  1.00  0.00     0.046 C 
ATOM     16  C   UNL A   1      46.264  17.279  40.310  1.00  0.00    -0.030 A 
ATOM     17  C   UNL A   1      44.986  16.571  40.235  1.00  0.00     0.022 A 
ATOM     18  C   UNL A   1      45.541  18.446  38.260  1.00  0.00     0.339 A 
ATOM     19  C   UNL A   1      44.248  16.573  39.052  1.00  0.00     0.142 A 
ATOM     20  C   UNL A   1      44.409  16.021  41.375  1.00  0.00     0.024 A 
ATOM     21  O   UNL A   1      45.654  19.390  37.486  1.00  0.00    -0.246 OA
ATOM     22  O   UNL A   1      44.662  17.398  37.993  1.00  0.00    -0.422 OA
ATOM     23  C   UNL A   1      43.064  15.832  38.878  1.00  0.00     0.095 A 
ATOM     24  C   UNL A   1      43.141  15.453  41.288  1.00  0.00     0.025 A 
ATOM     25  C   UNL A   1      42.588  15.223  40.035  1.00  0.00     0.138 A 
ATOM     26  C   UNL A   1      42.253  14.910  42.227  1.00  0.00     0.001 A 
ATOM     27  O   UNL A   1      41.622  14.251  40.156  1.00  0.00    -0.461 OA
ATOM     28  C   UNL A   1      41.581  13.966  41.489  1.00  0.00     0.108 A 
ATOM     29  C   UNL A   1      42.361  14.781  43.696  1.00  0.00     0.040 C 
ATOM     30  C   UNL A   1      41.409  12.580  42.009  1.00  0.00     0.076 C 
ATOM     31  C   UNL A   1      42.923  13.391  44.020  1.00  0.00     0.005 C 
ATOM     32  C   UNL A   1      42.656  12.316  42.919  1.00  0.00     0.008 C 
ENDBRANCH  13  14
ENDBRANCH  12  13
ENDBRANCH   9  12
ENDBRANCH   6   8
ENDBRANCH   3   6
ENDBRANCH   1   2
BRANCH   1  33
ATOM     33  C   UNL A   1      47.541  20.346  35.134  1.00  0.00     0.042 C 
BRANCH  33  34
ATOM     34  C   UNL A   1      46.443  21.110  34.395  1.00  0.00     0.118 C 
BRANCH  34  35
ATOM     35  N   UNL A   1      45.507  21.758  35.302  1.00  0.00    -0.352 N 
ATOM     36  C   UNL A   1      44.891  22.992  35.202  1.00  0.00     0.251 C 
ATOM     37  H   UNL A   1      45.279  21.241  36.108  1.00  0.00     0.163 HD
ATOM     38  O   UNL A   1      44.259  23.446  36.129  1.00  0.00    -0.269 OA
BRANCH  36  39
ATOM     39  C   UNL A   1      45.073  23.781  33.962  1.00  0.00     0.039 A 
ATOM     40  C   UNL A   1      46.096  24.725  33.871  1.00  0.00     0.014 A 
ATOM     41  C   UNL A   1      44.190  23.581  32.895  1.00  0.00     0.014 A 
ATOM     42  C   UNL A   1      46.135  25.587  32.789  1.00  0.00     0.010 A 
ATOM     43  C   UNL A   1      44.272  24.405  31.773  1.00  0.00     0.010 A 
ATOM     44  C   UNL A   1      45.218  25.435  31.746  1.00  0.00    -0.014 A 
BRANCH  44  45
ATOM     45  C   UNL A   1      45.414  26.325  30.601  1.00  0.00     0.031 A 
ATOM     46  C   UNL A   1      45.349  25.625  29.288  1.00  0.00     0.074 A 
ATOM     47  C   UNL A   1      45.136  27.640  30.649  1.00  0.00     0.049 A 
ATOM     48  N   UNL A   1      44.223  25.360  28.693  1.00  0.00    -0.248 NA
ATOM     49  C   UNL A   1      46.506  24.940  28.716  1.00  0.00     0.031 C 
ATOM     50  C   UNL A   1      44.032  28.229  31.412  1.00  0.00     0.029 A 
ATOM     51  N   UNL A   1      45.599  28.664  29.861  1.00  0.00    -0.354 N 
ATOM     52  C   UNL A   1      44.499  24.432  27.710  1.00  0.00     0.074 A 
ATOM     53  C   UNL A   1      45.929  24.208  27.753  1.00  0.00     0.031 C 
ATOM     54  C   UNL A   1      43.774  29.455  30.909  1.00  0.00     0.029 A 
ATOM     55  C   UNL A   1      44.791  29.794  29.919  1.00  0.00     0.049 A 
ATOM     56  H   UNL A   1      46.415  28.605  29.314  1.00  0.00     0.167 HD
ATOM     57  C   UNL A   1      43.542  23.885  26.919  1.00  0.00     0.037 A 
ATOM     58  C   UNL A   1      44.631  30.667  28.888  1.00  0.00     0.037 A 
ATOM     59  C   UNL A   1      42.211  24.370  27.118  1.00  0.00     0.049 A 
ATOM     60  C   UNL A   1      43.788  29.838  27.950  1.00  0.00     0.074 A 
ATOM     61  C   UNL A   1      41.085  23.989  27.815  1.00  0.00     0.029 A 
ATOM     62  N   UNL A   1      41.880  25.577  26.547  1.00  0.00    -0.354 N 
ATOM     63  N   UNL A   1      42.498  29.638  28.048  1.00  0.00    -0.248 NA
ATOM     64  C   UNL A   1      44.478  28.896  27.064  1.00  0.00     0.031 C 
ATOM     65  C   UNL A   1      40.322  25.187  27.991  1.00  0.00     0.029 A 
ATOM     66  C   UNL A   1      41.063  26.229  27.435  1.00  0.00     0.049 A 
ATOM     67  H   UNL A   1      42.175  25.909  25.669  1.00  0.00     0.167 HD
ATOM     68  C   UNL A   1      42.269  28.391  27.460  1.00  0.00     0.074 A 
ATOM     69  C   UNL A   1      43.520  28.008  26.843  1.00  0.00     0.031 C 
ATOM     70  C   UNL A   1      41.140  27.653  27.669  1.00  0.00     0.037 A 
BRANCH  57  71
ATOM     71  C   UNL A   1      43.834  22.984  25.794  1.00  0.00     0.057 A 
ATOM     72  C   UNL A   1      43.624  21.612  25.968  1.00  0.00     0.134 A 
ATOM     73  C   UNL A   1      44.463  23.412  24.626  1.00  0.00     0.134 A 
ATOM     74  F   UNL A   1      43.026  21.157  27.083  1.00  0.00    -0.206 F 
ATOM     75  C   UNL A   1      44.061  20.683  25.027  1.00  0.00     0.040 A 
ATOM     76  C   UNL A   1      44.902  22.492  23.670  1.00  0.00     0.040 A 
ATOM     77  F   UNL A   1      44.694  24.715  24.411  1.00  0.00    -0.206 F 
ATOM     78  C   UNL A   1      44.713  21.124  23.878  1.00  0.00     0.006 A 
ENDBRANCH  57  71
BRANCH  58  79
ATOM     79  C   UNL A   1      45.891  31.375  28.490  1.00  0.00     0.057 A 
ATOM     80  C   UNL A   1      46.835  31.677  29.496  1.00  0.00     0.134 A 
ATOM     81  C   UNL A   1      46.246  31.768  27.195  1.00  0.00     0.134 A 
ATOM     82  F   UNL A   1      46.547  31.449  30.788  1.00  0.00    -0.206 F 
ATOM     83  C   UNL A   1      48.097  32.206  29.213  1.00  0.00     0.040 A 
ATOM     84  C   UNL A   1      47.517  32.278  26.893  1.00  0.00     0.040 A 
ATOM     85  F   UNL A   1      45.387  31.663  26.174  1.00  0.00    -0.206 F 
ATOM     86  C   UNL A   1      48.454  32.478  27.901  1.00  0.00     0.006 A 
ENDBRANCH  58  79
BRANCH  70  87
ATOM     87  C   UNL A   1      40.044  28.341  28.406  1.00  0.00     0.057 A 
ATOM     88  C   UNL A   1      39.127  29.142  27.718  1.00  0.00     0.134 A 
ATOM     89  C   UNL A   1      39.857  28.179  29.785  1.00  0.00     0.134 A 
ATOM     90  F   UNL A   1      39.244  29.328  26.393  1.00  0.00    -0.206 F 
ATOM     91  C   UNL A   1      38.051  29.742  28.373  1.00  0.00     0.040 A 
ATOM     92  C   UNL A   1      38.770  28.752  30.446  1.00  0.00     0.040 A 
ATOM     93  F   UNL A   1      40.710  27.443  30.517  1.00  0.00    -0.206 F 
ATOM     94  C   UNL A   1      37.862  29.536  29.738  1.00  0.00     0.006 A 
ENDBRANCH  70  87
ENDBRANCH  44  45
ENDBRANCH  36  39
ENDBRANCH  34  35
ENDBRANCH  33  34
ENDBRANCH   1  33
TORSDOF 14
ENDMDL
MODEL 2
REMARK VINA RESULT:     -12.9      7.276     15.115
REMARK SMILES Cc1c(CCC(=O)N[C@@H](C)C(=O)NCCCNC(=O)c2ccc(-c3c4nc(c(-c5c(F)cccc5F)c5ccc([nH]5)c(-c5c(F)cccc5F)c5nc(c(-c6c(F)cccc6F)c6ccc3[nH]6)C=C5)C=C4)cc2)c(=O)oc2cc3oc4c(c3cc12)CCCC4
REMARK SMILES IDX 14 1 13 2 11 3 12 4 9 6 10 7 8 8 6 9 7 10 5 12 4 13 3 14
REMARK SMILES IDX 1 15 2 16 85 17 74 18 77 19 84 20 75 21 76 22 78 23 83 24
REMARK SMILES IDX 79 25 82 26 80 27 81 28 86 29 89 30 87 31 88 32 15 33 16 34
REMARK SMILES IDX 17 35 18 36 19 38 20 39 21 40 73 41 22 42 72 43 23 44 24 45
REMARK SMILES IDX 25 46 66 47 26 48 71 49 65 50 67 51 27 52 70 53 64 54 63 55
REMARK SMILES IDX 28 57 54 58 37 59 53 60 38 61 41 62 52 63 68 64 39 65 40 66
REMARK SMILES IDX 51 68 69 69 42 70 29 71 30 72 35 73 31 74 32 75 34 76 36 77
REMARK SMILES IDX 33 78 55 79 56 80 61 81 57 82 58 83 60 84 62 85 59 86 43 87
REMARK SMILES IDX 44 88 49 89 45 90 46 91 48 92 50 93 47 94
REMARK H PARENT 13 5 8 11 17 37 67 56 41 67
REMARK Flexibility Score: inf
ROOT
ATOM      1  C   UNL A   1      36.824  32.684  32.633  1.00  0.00     0.117 C 
ENDROOT
BRANCH   1   2
ATOM      2  N   UNL A   1      35.379  32.559  32.762  1.00  0.00    -0.354 N 
ATOM      3  C   UNL A   1      34.363  33.471  32.756  1.00  0.00     0.242 C 
ATOM      4  O   UNL A   1      33.299  33.078  33.251  1.00  0.00    -0.273 OA
ATOM      5  H   UNL A   1      35.073  31.630  32.875  1.00  0.00     0.163 HD
BRANCH   3   6
ATOM      6  C   UNL A   1      34.434  34.844  32.033  1.00  0.00     0.168 C 
ATOM      7  C   UNL A   1      34.203  36.080  32.883  1.00  0.00     0.041 C 
BRANCH   6   8
ATOM      8  N   UNL A   1      33.455  34.950  30.942  1.00  0.00    -0.345 N 
ATOM      9  C   UNL A   1      33.716  34.590  29.645  1.00  0.00     0.220 C 
ATOM     10  O   UNL A   1      33.486  35.391  28.740  1.00  0.00    -0.275 OA
ATOM     11  H   UNL A   1      32.559  35.299  31.155  1.00  0.00     0.164 HD
BRANCH   9  12
ATOM     12  C   UNL A   1      34.189  33.174  29.367  1.00  0.00     0.105 C 
BRANCH  12  13
ATOM     13  C   UNL A   1      34.474  32.829  27.898  1.00  0.00     0.053 C 
BRANCH  13  14
ATOM     14  C   UNL A   1      34.090  31.411  27.538  1.00  0.00     0.042 A 
ATOM     15  C   UNL A   1      31.657  31.948  27.147  1.00  0.00     0.046 C 
ATOM     16  C   UNL A   1      32.872  31.057  27.090  1.00  0.00    -0.030 A 
ATOM     17  C   UNL A   1      32.788  29.763  26.411  1.00  0.00     0.022 A 
ATOM     18  C   UNL A   1      35.149  30.370  27.746  1.00  0.00     0.339 A 
ATOM     19  C   UNL A   1      33.696  28.749  26.713  1.00  0.00     0.142 A 
ATOM     20  C   UNL A   1      31.914  29.573  25.347  1.00  0.00     0.024 A 
ATOM     21  O   UNL A   1      36.266  30.669  28.152  1.00  0.00    -0.246 OA
ATOM     22  O   UNL A   1      34.787  29.039  27.550  1.00  0.00    -0.422 OA
ATOM     23  C   UNL A   1      33.613  27.451  26.176  1.00  0.00     0.095 A 
ATOM     24  C   UNL A   1      31.940  28.366  24.652  1.00  0.00     0.025 A 
ATOM     25  C   UNL A   1      32.651  27.297  25.182  1.00  0.00     0.138 A 
ATOM     26  C   UNL A   1      31.283  27.888  23.510  1.00  0.00     0.001 A 
ATOM     27  O   UNL A   1      32.156  26.133  24.642  1.00  0.00    -0.461 OA
ATOM     28  C   UNL A   1      31.200  26.540  23.758  1.00  0.00     0.108 A 
ATOM     29  C   UNL A   1      30.322  28.548  22.601  1.00  0.00     0.040 C 
ATOM     30  C   UNL A   1      29.909  25.816  23.583  1.00  0.00     0.076 C 
ATOM     31  C   UNL A   1      28.901  28.207  23.069  1.00  0.00     0.005 C 
ATOM     32  C   UNL A   1      28.792  26.874  23.876  1.00  0.00     0.008 C 
ENDBRANCH  13  14
ENDBRANCH  12  13
ENDBRANCH   9  12
ENDBRANCH   6   8
ENDBRANCH   3   6
ENDBRANCH   1   2
BRANCH   1  33
ATOM     33  C   UNL A   1      37.252  32.415  31.193  1.00  0.00     0.042 C 
BRANCH  33  34
ATOM     34  C   UNL A   1      38.088  31.138  31.113  1.00  0.00     0.118 C 
BRANCH  34  35
ATOM     35  N   UNL A   1      37.675  30.139  32.089  1.00  0.00    -0.352 N 
ATOM     36  C   UNL A   1      38.045  28.811  32.205  1.00  0.00     0.251 C 
ATOM     37  H   UNL A   1      37.035  30.456  32.767  1.00  0.00     0.163 HD
ATOM     38  O   UNL A   1      37.481  28.077  32.985  1.00  0.00    -0.269 OA
BRANCH  36  39
ATOM     39  C   UNL A   1      39.100  28.285  31.309  1.00  0.00     0.039 A 
ATOM     40  C   UNL A   1      40.445  28.530  31.585  1.00  0.00     0.014 A 
ATOM     41  C   UNL A   1      38.725  27.564  30.170  1.00  0.00     0.014 A 
ATOM     42  C   UNL A   1      41.406  28.204  30.643  1.00  0.00     0.010 A 
ATOM     43  C   UNL A   1      39.700  27.174  29.254  1.00  0.00     0.010 A 
ATOM     44  C   UNL A   1      41.033  27.536  29.474  1.00  0.00    -0.014 A 
BRANCH  44  45
ATOM     45  C   UNL A   1      42.135  27.140  28.597  1.00  0.00     0.031 A 
ATOM     46  C   UNL A   1      42.919  28.292  28.071  1.00  0.00     0.074 A 
ATOM     47  C   UNL A   1      42.729  25.935  28.678  1.00  0.00     0.049 A 
ATOM     48  N   UNL A   1      43.869  28.859  28.753  1.00  0.00    -0.248 NA
ATOM     49  C   UNL A   1      42.497  29.042  26.890  1.00  0.00     0.031 C 
ATOM     50  C   UNL A   1      42.941  25.195  29.924  1.00  0.00     0.029 A 
ATOM     51  N   UNL A   1      43.466  25.256  27.740  1.00  0.00    -0.354 N 
ATOM     52  C   UNL A   1      44.137  30.066  28.140  1.00  0.00     0.074 A 
ATOM     53  C   UNL A   1      43.270  30.134  26.983  1.00  0.00     0.031 C 
ATOM     54  C   UNL A   1      43.914  24.282  29.716  1.00  0.00     0.029 A 
ATOM     55  C   UNL A   1      44.262  24.263  28.299  1.00  0.00     0.049 A 
ATOM     56  H   UNL A   1      43.435  25.451  26.776  1.00  0.00     0.167 HD
ATOM     57  C   UNL A   1      45.045  30.953  28.617  1.00  0.00     0.037 A 
ATOM     58  C   UNL A   1      45.458  23.869  27.785  1.00  0.00     0.037 A 
ATOM     59  C   UNL A   1      45.771  30.544  29.780  1.00  0.00     0.049 A 
ATOM     60  C   UNL A   1      46.317  25.062  28.129  1.00  0.00     0.074 A 
ATOM     61  C   UNL A   1      45.689  30.723  31.143  1.00  0.00     0.029 A 
ATOM     62  N   UNL A   1      46.827  29.681  29.601  1.00  0.00    -0.354 N 
ATOM     63  N   UNL A   1      46.846  25.318  29.298  1.00  0.00    -0.248 NA
ATOM     64  C   UNL A   1      46.286  26.209  27.217  1.00  0.00     0.031 C 
ATOM     65  C   UNL A   1      46.396  29.619  31.716  1.00  0.00     0.029 A 
ATOM     66  C   UNL A   1      46.816  28.811  30.661  1.00  0.00     0.049 A 
ATOM     67  H   UNL A   1      47.468  29.687  28.854  1.00  0.00     0.167 HD
ATOM     68  C   UNL A   1      46.958  26.710  29.359  1.00  0.00     0.074 A 
ATOM     69  C   UNL A   1      46.633  27.193  28.034  1.00  0.00     0.031 C 
ATOM     70  C   UNL A   1      47.120  27.404  30.523  1.00  0.00     0.037 A 
BRANCH  57  71
ATOM     71  C   UNL A   1      45.423  32.189  27.914  1.00  0.00     0.057 A 
ATOM     72  C   UNL A   1      44.672  33.345  28.148  1.00  0.00     0.134 A 
ATOM     73  C   UNL A   1      46.384  32.220  26.904  1.00  0.00     0.134 A 
ATOM     74  F   UNL A   1      43.732  33.355  29.109  1.00  0.00    -0.206 F 
ATOM     75  C   UNL A   1      44.841  34.492  27.378  1.00  0.00     0.040 A 
ATOM     76  C   UNL A   1      46.569  33.366  26.126  1.00  0.00     0.040 A 
ATOM     77  F   UNL A   1      47.128  31.137  26.633  1.00  0.00    -0.206 F 
ATOM     78  C   UNL A   1      45.786  34.499  26.354  1.00  0.00     0.006 A 
ENDBRANCH  57  71
BRANCH  58  79
ATOM     79  C   UNL A   1      45.361  23.263  26.417  1.00  0.00     0.057 A 
ATOM     80  C   UNL A   1      44.250  22.441  26.127  1.00  0.00     0.134 A 
ATOM     81  C   UNL A   1      46.270  23.437  25.368  1.00  0.00     0.134 A 
ATOM     82  F   UNL A   1      43.377  22.113  27.094  1.00  0.00    -0.206 F 
ATOM     83  C   UNL A   1      43.992  21.945  24.847  1.00  0.00     0.040 A 
ATOM     84  C   UNL A   1      46.014  22.964  24.074  1.00  0.00     0.040 A 
ATOM     85  F   UNL A   1      47.430  24.079  25.551  1.00  0.00    -0.206 F 
ATOM     86  C   UNL A   1      44.862  22.234  23.805  1.00  0.00     0.006 A 
ENDBRANCH  58  79
BRANCH  70  87
ATOM     87  C   UNL A   1      47.385  26.583  31.736  1.00  0.00     0.057 A 
ATOM     88  C   UNL A   1      46.321  26.095  32.502  1.00  0.00     0.134 A 
ATOM     89  C   UNL A   1      48.683  26.229  32.128  1.00  0.00     0.134 A 
ATOM     90  F   UNL A   1      45.053  26.388  32.173  1.00  0.00    -0.206 F 
ATOM     91  C   UNL A   1      46.539  25.266  33.603  1.00  0.00     0.040 A 
ATOM     92  C   UNL A   1      48.911  25.380  33.211  1.00  0.00     0.040 A 
ATOM     93  F   UNL A   1      49.755  26.678  31.455  1.00  0.00    -0.206 F 
ATOM     94  C   UNL A   1      47.836  24.895  33.953  1.00  0.00     0.006 A 
ENDBRANCH  70  87
ENDBRANCH  44  45
ENDBRANCH  36  39
ENDBRANCH  34  35
ENDBRANCH  33  34
ENDBRANCH   1  33
TORSDOF 14
ENDMDL
MODEL 3
REMARK VINA RESULT:     -12.9      5.253     11.369
REMARK SMILES Cc1c(CCC(=O)N[C@@H](C)C(=O)NCCCNC(=O)c2ccc(-c3c4nc(c(-c5c(F)cccc5F)c5ccc([nH]5)c(-c5c(F)cccc5F)c5nc(c(-c6c(F)cccc6F)c6ccc3[nH]6)C=C5)C=C4)cc2)c(=O)oc2cc3oc4c(c3cc12)CCCC4
REMARK SMILES IDX 14 1 13 2 11 3 12 4 9 6 10 7 8 8 6 9 7 10 5 12 4 13 3 14
REMARK SMILES IDX 1 15 2 16 85 17 74 18 77 19 84 20 75 21 76 22 78 23 83 24
REMARK SMILES IDX 79 25 82 26 80 27 81 28 86 29 89 30 87 31 88 32 15 33 16 34
REMARK SMILES IDX 17 35 18 36 19 38 20 39 21 40 73 41 22 42 72 43 23 44 24 45
REMARK SMILES IDX 25 46 66 47 26 48 71 49 65 50 67 51 27 52 70 53 64 54 63 55
REMARK SMILES IDX 28 57 54 58 37 59 53 60 38 61 41 62 52 63 68 64 39 65 40 66
REMARK SMILES IDX 51 68 69 69 42 70 29 71 30 72 35 73 31 74 32 75 34 76 36 77
REMARK SMILES IDX 33 78 55 79 56 80 61 81 57 82 58 83 60 84 62 85 59 86 43 87
REMARK SMILES IDX 44 88 49 89 45 90 46 91 48 92 50 93 47 94
REMARK H PARENT 13 5 8 11 17 37 67 56 41 67
REMARK Flexibility Score: inf
ROOT
ATOM      1  C   UNL A   1      42.027  26.901  35.549  1.00  0.00     0.117 C 
ENDROOT
BRANCH   1   2
ATOM      2  N   UNL A   1      41.996  28.135  36.323  1.00  0.00    -0.354 N 
ATOM      3  C   UNL A   1      42.728  29.285  36.267  1.00  0.00     0.242 C 
ATOM      4  O   UNL A   1      42.695  29.982  37.289  1.00  0.00    -0.273 OA
ATOM      5  H   UNL A   1      41.309  28.140  37.027  1.00  0.00     0.163 HD
BRANCH   3   6
ATOM      6  C   UNL A   1      43.418  29.813  34.978  1.00  0.00     0.168 C 
ATOM      7  C   UNL A   1      44.930  29.703  34.915  1.00  0.00     0.041 C 
BRANCH   6   8
ATOM      8  N   UNL A   1      43.134  31.235  34.737  1.00  0.00    -0.345 N 
ATOM      9  C   UNL A   1      42.026  31.688  34.070  1.00  0.00     0.220 C 
ATOM     10  O   UNL A   1      42.166  32.469  33.130  1.00  0.00    -0.275 OA
ATOM     11  H   UNL A   1      43.776  31.899  35.075  1.00  0.00     0.164 HD
BRANCH   9  12
ATOM     12  C   UNL A   1      40.655  31.284  34.582  1.00  0.00     0.105 C 
BRANCH  12  13
ATOM     13  C   UNL A   1      39.639  30.834  33.522  1.00  0.00     0.053 C 
BRANCH  13  14
ATOM     14  C   UNL A   1      38.463  31.778  33.390  1.00  0.00     0.042 A 
ATOM     15  C   UNL A   1      39.266  32.807  31.232  1.00  0.00     0.046 C 
ATOM     16  C   UNL A   1      38.246  32.556  32.314  1.00  0.00    -0.030 A 
ATOM     17  C   UNL A   1      36.889  33.083  32.166  1.00  0.00     0.022 A 
ATOM     18  C   UNL A   1      37.537  31.842  34.567  1.00  0.00     0.339 A 
ATOM     19  C   UNL A   1      36.080  33.272  33.286  1.00  0.00     0.142 A 
ATOM     20  C   UNL A   1      36.325  33.252  30.906  1.00  0.00     0.024 A 
ATOM     21  O   UNL A   1      37.714  31.141  35.557  1.00  0.00    -0.246 OA
ATOM     22  O   UNL A   1      36.521  32.795  34.532  1.00  0.00    -0.422 OA
ATOM     23  C   UNL A   1      34.807  33.866  33.228  1.00  0.00     0.095 A 
ATOM     24  C   UNL A   1      34.994  33.648  30.805  1.00  0.00     0.025 A 
ATOM     25  C   UNL A   1      34.336  34.103  31.940  1.00  0.00     0.138 A 
ATOM     26  C   UNL A   1      34.111  33.820  29.730  1.00  0.00     0.001 A 
ATOM     27  O   UNL A   1      33.269  34.876  31.546  1.00  0.00    -0.461 OA
ATOM     28  C   UNL A   1      33.282  34.817  30.183  1.00  0.00     0.108 A 
ATOM     29  C   UNL A   1      34.299  33.597  28.280  1.00  0.00     0.040 C 
ATOM     30  C   UNL A   1      32.976  35.996  29.326  1.00  0.00     0.076 C 
ATOM     31  C   UNL A   1      34.706  34.928  27.635  1.00  0.00     0.005 C 
ATOM     32  C   UNL A   1      34.239  36.194  28.420  1.00  0.00     0.008 C 
ENDBRANCH  13  14
ENDBRANCH  12  13
ENDBRANCH   9  12
ENDBRANCH   6   8
ENDBRANCH   3   6
ENDBRANCH   1   2
BRANCH   1  33
ATOM     33  C   UNL A   1      41.750  25.703  36.453  1.00  0.00     0.042 C 
BRANCH  33  34
ATOM     34  C   UNL A   1      41.919  24.397  35.677  1.00  0.00     0.118 C 
BRANCH  34  35
ATOM     35  N   UNL A   1      43.082  23.636  36.113  1.00  0.00    -0.352 N 
ATOM     36  C   UNL A   1      44.311  23.474  35.500  1.00  0.00     0.251 C 
ATOM     37  H   UNL A   1      42.978  23.166  36.971  1.00  0.00     0.163 HD
ATOM     38  O   UNL A   1      45.114  22.674  35.925  1.00  0.00    -0.269 OA
BRANCH  36  39
ATOM     39  C   UNL A   1      44.602  24.248  34.271  1.00  0.00     0.039 A 
ATOM     40  C   UNL A   1      45.210  25.501  34.355  1.00  0.00     0.014 A 
ATOM     41  C   UNL A   1      44.235  23.715  33.031  1.00  0.00     0.014 A 
ATOM     42  C   UNL A   1      45.299  26.294  33.225  1.00  0.00     0.010 A 
ATOM     43  C   UNL A   1      44.388  24.488  31.880  1.00  0.00     0.010 A 
ATOM     44  C   UNL A   1      44.878  25.793  31.990  1.00  0.00    -0.014 A 
BRANCH  44  45
ATOM     45  C   UNL A   1      45.115  26.668  30.842  1.00  0.00     0.031 A 
ATOM     46  C   UNL A   1      45.108  25.951  29.537  1.00  0.00     0.074 A 
ATOM     47  C   UNL A   1      44.827  27.983  30.860  1.00  0.00     0.049 A 
ATOM     48  N   UNL A   1      44.010  25.670  28.900  1.00  0.00    -0.248 NA
ATOM     49  C   UNL A   1      46.293  25.266  29.023  1.00  0.00     0.031 C 
ATOM     50  C   UNL A   1      43.689  28.574  31.569  1.00  0.00     0.029 A 
ATOM     51  N   UNL A   1      45.316  28.999  30.078  1.00  0.00    -0.354 N 
ATOM     52  C   UNL A   1      44.332  24.731  27.942  1.00  0.00     0.074 A 
ATOM     53  C   UNL A   1      45.760  24.517  28.046  1.00  0.00     0.031 C 
ATOM     54  C   UNL A   1      43.444  29.792  31.038  1.00  0.00     0.029 A 
ATOM     55  C   UNL A   1      44.500  30.124  30.087  1.00  0.00     0.049 A 
ATOM     56  H   UNL A   1      46.154  28.937  29.566  1.00  0.00     0.167 HD
ATOM     57  C   UNL A   1      43.412  24.166  27.120  1.00  0.00     0.037 A 
ATOM     58  C   UNL A   1      44.376  30.981  29.038  1.00  0.00     0.037 A 
ATOM     59  C   UNL A   1      42.071  24.645  27.257  1.00  0.00     0.049 A 
ATOM     60  C   UNL A   1      43.577  30.134  28.077  1.00  0.00     0.074 A 
ATOM     61  C   UNL A   1      40.920  24.266  27.912  1.00  0.00     0.029 A 
ATOM     62  N   UNL A   1      41.757  25.841  26.657  1.00  0.00    -0.354 N 
ATOM     63  N   UNL A   1      42.286  29.927  28.126  1.00  0.00    -0.248 NA
ATOM     64  C   UNL A   1      44.310  29.186  27.234  1.00  0.00     0.031 C 
ATOM     65  C   UNL A   1      40.143  25.461  28.040  1.00  0.00     0.029 A 
ATOM     66  C   UNL A   1      40.900  26.500  27.501  1.00  0.00     0.049 A 
ATOM     67  H   UNL A   1      42.085  26.164  25.787  1.00  0.00     0.167 HD
ATOM     68  C   UNL A   1      42.089  28.670  27.546  1.00  0.00     0.074 A 
ATOM     69  C   UNL A   1      43.367  28.287  26.986  1.00  0.00     0.031 C 
ATOM     70  C   UNL A   1      40.957  27.928  27.719  1.00  0.00     0.037 A 
BRANCH  57  71
ATOM     71  C   UNL A   1      43.755  23.252  26.020  1.00  0.00     0.057 A 
ATOM     72  C   UNL A   1      43.561  21.880  26.210  1.00  0.00     0.134 A 
ATOM     73  C   UNL A   1      44.417  23.671  24.867  1.00  0.00     0.134 A 
ATOM     74  F   UNL A   1      42.933  21.434  27.311  1.00  0.00    -0.206 F 
ATOM     75  C   UNL A   1      44.044  20.944  25.300  1.00  0.00     0.040 A 
ATOM     76  C   UNL A   1      44.902  22.743  23.942  1.00  0.00     0.040 A 
ATOM     77  F   UNL A   1      44.635  24.975  24.638  1.00  0.00    -0.206 F 
ATOM     78  C   UNL A   1      44.728  21.376  24.166  1.00  0.00     0.006 A 
ENDBRANCH  57  71
BRANCH  58  79
ATOM     79  C   UNL A   1      45.647  31.693  28.683  1.00  0.00     0.057 A 
ATOM     80  C   UNL A   1      46.538  32.032  29.724  1.00  0.00     0.134 A 
ATOM     81  C   UNL A   1      46.061  32.055  27.396  1.00  0.00     0.134 A 
ATOM     82  F   UNL A   1      46.190  31.834  31.007  1.00  0.00    -0.206 F 
ATOM     83  C   UNL A   1      47.808  32.566  29.489  1.00  0.00     0.040 A 
ATOM     84  C   UNL A   1      47.340  32.571  27.143  1.00  0.00     0.040 A 
ATOM     85  F   UNL A   1      45.253  31.914  26.339  1.00  0.00    -0.206 F 
ATOM     86  C   UNL A   1      48.225  32.808  28.188  1.00  0.00     0.006 A 
ENDBRANCH  58  79
BRANCH  70  87
ATOM     87  C   UNL A   1      39.828  28.618  28.400  1.00  0.00     0.057 A 
ATOM     88  C   UNL A   1      38.927  29.393  27.662  1.00  0.00     0.134 A 
ATOM     89  C   UNL A   1      39.593  28.484  29.775  1.00  0.00     0.134 A 
ATOM     90  F   UNL A   1      39.090  29.551  26.338  1.00  0.00    -0.206 F 
ATOM     91  C   UNL A   1      37.821  29.993  28.264  1.00  0.00     0.040 A 
ATOM     92  C   UNL A   1      38.476  29.058  30.383  1.00  0.00     0.040 A 
ATOM     93  F   UNL A   1      40.427  27.774  30.553  1.00  0.00    -0.206 F 
ATOM     94  C   UNL A   1      37.585  29.815  29.626  1.00  0.00     0.006 A 
ENDBRANCH  70  87
ENDBRANCH  44  45
ENDBRANCH  36  39
ENDBRANCH  34  35
ENDBRANCH  33  34
ENDBRANCH   1  33
TORSDOF 14
ENDMDL
