MODEL 1
REMARK VINA RESULT:     -12.0      0.000      0.000
REMARK SMILES Cc1ccccc1[C@@H](CC(=O)NCCCNC(=O)c1ccc(-c2c3nc(c(-c4c(F)cccc4F)c4ccc([nH]4)c(-c4c(F)cccc4F)c4nc(c(-c5c(F)cccc5F)c5ccc2[nH]5)C=C4)C=C3)cc1)NC(=O)C(F)(F)F
REMARK SMILES IDX 13 1 12 2 10 3 11 4 9 6 8 7 7 8 1 9 2 10 3 11 4 12 6 13 5 14
REMARK SMILES IDX 73 15 74 16 75 18 76 19 77 20 78 21 79 22 14 23 15 24 16 25
REMARK SMILES IDX 17 26 18 28 19 29 20 30 72 31 21 32 71 33 22 34 23 35 24 36
REMARK SMILES IDX 65 37 25 38 70 39 64 40 66 41 26 42 69 43 63 44 62 45 27 47
REMARK SMILES IDX 53 48 36 49 52 50 37 51 40 52 51 53 67 54 38 55 39 56 50 58
REMARK SMILES IDX 68 59 41 60 28 61 29 62 34 63 30 64 31 65 33 66 35 67 32 68
REMARK SMILES IDX 54 69 55 70 60 71 56 72 57 73 59 74 61 75 58 76 42 77 43 78
REMARK SMILES IDX 48 79 44 80 45 81 47 82 49 83 46 84
REMARK H PARENT 12 5 73 17 16 27 66 46 40 57
REMARK Flexibility Score: inf
ROOT
ATOM      1  C   UNL A   1      33.836  29.901  26.730  1.00  0.00     0.117 C 
ENDROOT
BRANCH   1   2
ATOM      2  N   UNL A   1      32.749  29.219  27.413  1.00  0.00    -0.356 N 
ATOM      3  C   UNL A   1      32.228  27.976  27.270  1.00  0.00     0.222 C 
ATOM      4  O   UNL A   1      31.155  27.742  27.828  1.00  0.00    -0.275 OA
ATOM      5  H   UNL A   1      32.310  29.759  28.109  1.00  0.00     0.163 HD
BRANCH   3   6
ATOM      6  C   UNL A   1      32.944  26.899  26.492  1.00  0.00     0.129 C 
BRANCH   6   7
ATOM      7  C   UNL A   1      32.047  25.883  25.752  1.00  0.00     0.122 C 
BRANCH   7   8
ATOM      8  C   UNL A   1      31.436  26.529  24.511  1.00  0.00    -0.022 A 
ATOM      9  C   UNL A   1      33.566  26.284  23.064  1.00  0.00     0.045 C 
ATOM     10  C   UNL A   1      32.190  26.829  23.352  1.00  0.00    -0.046 A 
ATOM     11  C   UNL A   1      31.611  27.619  22.338  1.00  0.00     0.004 A 
ATOM     12  C   UNL A   1      30.309  28.099  22.449  1.00  0.00     0.000 A 
ATOM     13  C   UNL A   1      30.095  26.955  24.556  1.00  0.00     0.006 A 
ATOM     14  C   UNL A   1      29.540  27.743  23.547  1.00  0.00     0.000 A 
ENDBRANCH   7   8
BRANCH   7  15
ATOM     15  N   UNL A   1      31.043  25.225  26.581  1.00  0.00    -0.341 N 
ATOM     16  C   UNL A   1      30.609  23.919  26.503  1.00  0.00     0.326 C 
ATOM     17  H   UNL A   1      30.627  25.779  27.279  1.00  0.00     0.164 HD
ATOM     18  O   UNL A   1      29.682  23.587  27.250  1.00  0.00    -0.265 OA
BRANCH  16  19
ATOM     19  C   UNL A   1      31.290  22.943  25.518  1.00  0.00     0.471 C 
ATOM     20  F   UNL A   1      30.951  23.192  24.222  1.00  0.00    -0.162 F 
ATOM     21  F   UNL A   1      32.652  23.032  25.572  1.00  0.00    -0.162 F 
ATOM     22  F   UNL A   1      30.986  21.638  25.751  1.00  0.00    -0.162 F 
ENDBRANCH  16  19
ENDBRANCH   7  15
ENDBRANCH   6   7
ENDBRANCH   3   6
ENDBRANCH   1   2
BRANCH   1  23
ATOM     23  C   UNL A   1      33.981  31.305  27.307  1.00  0.00     0.042 C 
BRANCH  23  24
ATOM     24  C   UNL A   1      34.410  31.326  28.766  1.00  0.00     0.118 C 
BRANCH  24  25
ATOM     25  N   UNL A   1      35.620  32.106  29.039  1.00  0.00    -0.352 N 
ATOM     26  C   UNL A   1      36.940  31.687  28.956  1.00  0.00     0.251 C 
ATOM     27  H   UNL A   1      35.477  33.040  29.315  1.00  0.00     0.163 HD
ATOM     28  O   UNL A   1      37.874  32.480  28.951  1.00  0.00    -0.269 OA
BRANCH  26  29
ATOM     29  C   UNL A   1      37.180  30.238  28.827  1.00  0.00     0.039 A 
ATOM     30  C   UNL A   1      37.162  29.470  29.996  1.00  0.00     0.014 A 
ATOM     31  C   UNL A   1      37.851  29.820  27.680  1.00  0.00     0.014 A 
ATOM     32  C   UNL A   1      38.065  28.419  30.113  1.00  0.00     0.010 A 
ATOM     33  C   UNL A   1      38.793  28.820  27.828  1.00  0.00     0.010 A 
ATOM     34  C   UNL A   1      38.979  28.204  29.081  1.00  0.00    -0.014 A 
BRANCH  34  35
ATOM     35  C   UNL A   1      40.309  27.623  29.309  1.00  0.00     0.031 A 
ATOM     36  C   UNL A   1      40.622  26.243  28.872  1.00  0.00     0.074 A 
ATOM     37  C   UNL A   1      41.323  28.437  29.699  1.00  0.00     0.049 A 
ATOM     38  N   UNL A   1      41.728  25.627  29.126  1.00  0.00    -0.248 NA
ATOM     39  C   UNL A   1      39.673  25.415  28.141  1.00  0.00     0.031 C 
ATOM     40  C   UNL A   1      42.757  28.218  29.505  1.00  0.00     0.029 A 
ATOM     41  N   UNL A   1      41.263  29.564  30.535  1.00  0.00    -0.354 N 
ATOM     42  C   UNL A   1      41.764  24.474  28.372  1.00  0.00     0.074 A 
ATOM     43  C   UNL A   1      40.431  24.360  27.831  1.00  0.00     0.031 C 
ATOM     44  C   UNL A   1      43.440  28.964  30.383  1.00  0.00     0.029 A 
ATOM     45  C   UNL A   1      42.472  29.570  31.273  1.00  0.00     0.049 A 
ATOM     46  H   UNL A   1      40.530  30.217  30.596  1.00  0.00     0.167 HD
ATOM     47  C   UNL A   1      42.958  23.830  28.218  1.00  0.00     0.037 A 
ATOM     48  C   UNL A   1      42.494  29.456  32.632  1.00  0.00     0.037 A 
ATOM     49  C   UNL A   1      43.968  24.390  29.121  1.00  0.00     0.049 A 
ATOM     50  C   UNL A   1      43.276  28.269  33.147  1.00  0.00     0.074 A 
ATOM     51  C   UNL A   1      45.029  25.266  28.951  1.00  0.00     0.029 A 
ATOM     52  N   UNL A   1      43.785  24.260  30.494  1.00  0.00    -0.354 N 
ATOM     53  N   UNL A   1      43.628  27.259  32.401  1.00  0.00    -0.248 NA
ATOM     54  C   UNL A   1      43.695  28.103  34.536  1.00  0.00     0.031 C 
ATOM     55  C   UNL A   1      45.452  25.699  30.235  1.00  0.00     0.029 A 
ATOM     56  C   UNL A   1      44.661  25.074  31.183  1.00  0.00     0.049 A 
ATOM     57  H   UNL A   1      43.121  23.670  30.916  1.00  0.00     0.167 HD
ATOM     58  C   UNL A   1      44.252  26.310  33.170  1.00  0.00     0.074 A 
ATOM     59  C   UNL A   1      44.298  26.900  34.494  1.00  0.00     0.031 C 
ATOM     60  C   UNL A   1      44.646  25.113  32.640  1.00  0.00     0.037 A 
BRANCH  47  61
ATOM     61  C   UNL A   1      43.298  22.853  27.105  1.00  0.00     0.057 A 
ATOM     62  C   UNL A   1      42.661  21.593  27.035  1.00  0.00     0.134 A 
ATOM     63  C   UNL A   1      44.280  23.037  26.114  1.00  0.00     0.134 A 
ATOM     64  F   UNL A   1      41.642  21.270  27.842  1.00  0.00    -0.206 F 
ATOM     65  C   UNL A   1      43.035  20.586  26.131  1.00  0.00     0.040 A 
ATOM     66  C   UNL A   1      44.690  22.028  25.228  1.00  0.00     0.040 A 
ATOM     67  F   UNL A   1      44.863  24.216  25.898  1.00  0.00    -0.206 F 
ATOM     68  C   UNL A   1      44.075  20.790  25.241  1.00  0.00     0.006 A 
ENDBRANCH  47  61
BRANCH  48  69
ATOM     69  C   UNL A   1      41.308  30.062  33.285  1.00  0.00     0.057 A 
ATOM     70  C   UNL A   1      41.288  31.457  33.456  1.00  0.00     0.134 A 
ATOM     71  C   UNL A   1      40.083  29.393  33.340  1.00  0.00     0.134 A 
ATOM     72  F   UNL A   1      42.433  32.157  33.410  1.00  0.00    -0.206 F 
ATOM     73  C   UNL A   1      40.091  32.170  33.550  1.00  0.00     0.040 A 
ATOM     74  C   UNL A   1      38.877  30.097  33.442  1.00  0.00     0.040 A 
ATOM     75  F   UNL A   1      40.023  28.065  33.161  1.00  0.00    -0.206 F 
ATOM     76  C   UNL A   1      38.878  31.490  33.505  1.00  0.00     0.006 A 
ENDBRANCH  48  69
BRANCH  60  77
ATOM     77  C   UNL A   1      45.098  23.885  33.403  1.00  0.00     0.057 A 
ATOM     78  C   UNL A   1      46.390  23.692  33.912  1.00  0.00     0.134 A 
ATOM     79  C   UNL A   1      44.157  22.900  33.792  1.00  0.00     0.134 A 
ATOM     80  F   UNL A   1      47.364  24.590  33.722  1.00  0.00    -0.206 F 
ATOM     81  C   UNL A   1      46.732  22.585  34.705  1.00  0.00     0.040 A 
ATOM     82  C   UNL A   1      44.474  21.825  34.627  1.00  0.00     0.040 A 
ATOM     83  F   UNL A   1      42.875  22.954  33.400  1.00  0.00    -0.206 F 
ATOM     84  C   UNL A   1      45.771  21.656  35.077  1.00  0.00     0.006 A 
ENDBRANCH  60  77
ENDBRANCH  34  35
ENDBRANCH  26  29
ENDBRANCH  24  25
ENDBRANCH  23  24
ENDBRANCH   1  23
TORSDOF 14
ENDMDL
MODEL 2
REMARK VINA RESULT:     -11.8      1.669      2.743
REMARK SMILES Cc1ccccc1[C@@H](CC(=O)NCCCNC(=O)c1ccc(-c2c3nc(c(-c4c(F)cccc4F)c4ccc([nH]4)c(-c4c(F)cccc4F)c4nc(c(-c5c(F)cccc5F)c5ccc2[nH]5)C=C4)C=C3)cc1)NC(=O)C(F)(F)F
REMARK SMILES IDX 13 1 12 2 10 3 11 4 9 6 8 7 7 8 1 9 2 10 3 11 4 12 6 13 5 14
REMARK SMILES IDX 73 15 74 16 75 18 76 19 77 20 78 21 79 22 14 23 15 24 16 25
REMARK SMILES IDX 17 26 18 28 19 29 20 30 72 31 21 32 71 33 22 34 23 35 24 36
REMARK SMILES IDX 65 37 25 38 70 39 64 40 66 41 26 42 69 43 63 44 62 45 27 47
REMARK SMILES IDX 53 48 36 49 52 50 37 51 40 52 51 53 67 54 38 55 39 56 50 58
REMARK SMILES IDX 68 59 41 60 28 61 29 62 34 63 30 64 31 65 33 66 35 67 32 68
REMARK SMILES IDX 54 69 55 70 60 71 56 72 57 73 59 74 61 75 58 76 42 77 43 78
REMARK SMILES IDX 48 79 44 80 45 81 47 82 49 83 46 84
REMARK H PARENT 12 5 73 17 16 27 66 46 40 57
REMARK Flexibility Score: inf
ROOT
ATOM      1  C   UNL A   1      33.715  30.185  27.121  1.00  0.00     0.117 C 
ENDROOT
BRANCH   1   2
ATOM      2  N   UNL A   1      32.696  29.275  27.617  1.00  0.00    -0.356 N 
ATOM      3  C   UNL A   1      32.306  28.043  27.209  1.00  0.00     0.222 C 
ATOM      4  O   UNL A   1      31.257  27.597  27.673  1.00  0.00    -0.275 OA
ATOM      5  H   UNL A   1      32.195  29.617  28.393  1.00  0.00     0.163 HD
BRANCH   3   6
ATOM      6  C   UNL A   1      33.138  27.223  26.253  1.00  0.00     0.129 C 
BRANCH   6   7
ATOM      7  C   UNL A   1      32.389  26.117  25.477  1.00  0.00     0.122 C 
BRANCH   7   8
ATOM      8  C   UNL A   1      32.830  24.740  25.967  1.00  0.00    -0.022 A 
ATOM      9  C   UNL A   1      30.452  23.975  26.640  1.00  0.00     0.045 C 
ATOM     10  C   UNL A   1      31.954  23.843  26.623  1.00  0.00    -0.046 A 
ATOM     11  C   UNL A   1      32.483  22.690  27.238  1.00  0.00     0.004 A 
ATOM     12  C   UNL A   1      33.846  22.411  27.203  1.00  0.00     0.000 A 
ATOM     13  C   UNL A   1      34.190  24.388  25.873  1.00  0.00     0.006 A 
ATOM     14  C   UNL A   1      34.697  23.247  26.496  1.00  0.00     0.000 A 
ENDBRANCH   7   8
BRANCH   7  15
ATOM     15  N   UNL A   1      32.452  26.231  24.024  1.00  0.00    -0.341 N 
ATOM     16  C   UNL A   1      31.512  26.780  23.179  1.00  0.00     0.326 C 
ATOM     17  H   UNL A   1      33.262  25.872  23.596  1.00  0.00     0.164 HD
ATOM     18  O   UNL A   1      31.727  26.696  21.965  1.00  0.00    -0.265 OA
BRANCH  16  19
ATOM     19  C   UNL A   1      30.264  27.474  23.770  1.00  0.00     0.471 C 
ATOM     20  F   UNL A   1      29.647  26.715  24.718  1.00  0.00    -0.162 F 
ATOM     21  F   UNL A   1      30.579  28.654  24.382  1.00  0.00    -0.162 F 
ATOM     22  F   UNL A   1      29.318  27.770  22.839  1.00  0.00    -0.162 F 
ENDBRANCH  16  19
ENDBRANCH   7  15
ENDBRANCH   6   7
ENDBRANCH   3   6
ENDBRANCH   1   2
BRANCH   1  23
ATOM     23  C   UNL A   1      33.467  31.573  27.705  1.00  0.00     0.042 C 
BRANCH  23  24
ATOM     24  C   UNL A   1      34.710  32.448  27.753  1.00  0.00     0.118 C 
BRANCH  24  25
ATOM     25  N   UNL A   1      35.192  32.757  29.101  1.00  0.00    -0.352 N 
ATOM     26  C   UNL A   1      36.166  32.093  29.831  1.00  0.00     0.251 C 
ATOM     27  H   UNL A   1      34.773  33.532  29.541  1.00  0.00     0.163 HD
ATOM     28  O   UNL A   1      36.676  32.583  30.832  1.00  0.00    -0.269 OA
BRANCH  26  29
ATOM     29  C   UNL A   1      36.605  30.777  29.328  1.00  0.00     0.039 A 
ATOM     30  C   UNL A   1      36.519  29.687  30.200  1.00  0.00     0.014 A 
ATOM     31  C   UNL A   1      37.478  30.788  28.243  1.00  0.00     0.014 A 
ATOM     32  C   UNL A   1      37.523  28.725  30.159  1.00  0.00     0.010 A 
ATOM     33  C   UNL A   1      38.509  29.868  28.254  1.00  0.00     0.010 A 
ATOM     34  C   UNL A   1      38.594  28.912  29.285  1.00  0.00    -0.014 A 
BRANCH  34  35
ATOM     35  C   UNL A   1      39.941  28.395  29.559  1.00  0.00     0.031 A 
ATOM     36  C   UNL A   1      40.390  27.101  28.996  1.00  0.00     0.074 A 
ATOM     37  C   UNL A   1      40.858  29.220  30.127  1.00  0.00     0.049 A 
ATOM     38  N   UNL A   1      41.515  26.532  29.272  1.00  0.00    -0.248 NA
ATOM     39  C   UNL A   1      39.566  26.307  28.095  1.00  0.00     0.031 C 
ATOM     40  C   UNL A   1      42.315  29.120  30.035  1.00  0.00     0.029 A 
ATOM     41  N   UNL A   1      40.648  30.232  31.078  1.00  0.00    -0.354 N 
ATOM     42  C   UNL A   1      41.696  25.483  28.398  1.00  0.00     0.074 A 
ATOM     43  C   UNL A   1      40.422  25.349  27.734  1.00  0.00     0.031 C 
ATOM     44  C   UNL A   1      42.869  29.797  31.048  1.00  0.00     0.029 A 
ATOM     45  C   UNL A   1      41.791  30.228  31.914  1.00  0.00     0.049 A 
ATOM     46  H   UNL A   1      39.866  30.824  31.150  1.00  0.00     0.167 HD
ATOM     47  C   UNL A   1      42.943  24.941  28.276  1.00  0.00     0.037 A 
ATOM     48  C   UNL A   1      41.715  29.952  33.248  1.00  0.00     0.037 A 
ATOM     49  C   UNL A   1      43.834  25.452  29.321  1.00  0.00     0.049 A 
ATOM     50  C   UNL A   1      42.539  28.765  33.689  1.00  0.00     0.074 A 
ATOM     51  C   UNL A   1      44.837  26.409  29.346  1.00  0.00     0.029 A 
ATOM     52  N   UNL A   1      43.554  25.147  30.649  1.00  0.00    -0.354 N 
ATOM     53  N   UNL A   1      43.024  27.877  32.866  1.00  0.00    -0.248 NA
ATOM     54  C   UNL A   1      42.860  28.460  35.081  1.00  0.00     0.031 C 
ATOM     55  C   UNL A   1      45.125  26.711  30.702  1.00  0.00     0.029 A 
ATOM     56  C   UNL A   1      44.310  25.926  31.500  1.00  0.00     0.049 A 
ATOM     57  H   UNL A   1      42.904  24.467  30.941  1.00  0.00     0.167 HD
ATOM     58  C   UNL A   1      43.655  26.885  33.572  1.00  0.00     0.074 A 
ATOM     59  C   UNL A   1      43.552  27.312  34.954  1.00  0.00     0.031 C 
ATOM     60  C   UNL A   1      44.177  25.788  32.945  1.00  0.00     0.037 A 
BRANCH  47  61
ATOM     61  C   UNL A   1      43.442  24.129  27.091  1.00  0.00     0.057 A 
ATOM     62  C   UNL A   1      44.294  24.713  26.127  1.00  0.00     0.134 A 
ATOM     63  C   UNL A   1      43.081  22.805  26.786  1.00  0.00     0.134 A 
ATOM     64  F   UNL A   1      44.812  25.938  26.289  1.00  0.00    -0.206 F 
ATOM     65  C   UNL A   1      44.667  24.073  24.934  1.00  0.00     0.040 A 
ATOM     66  C   UNL A   1      43.414  22.165  25.582  1.00  0.00     0.040 A 
ATOM     67  F   UNL A   1      42.435  22.023  27.653  1.00  0.00    -0.206 F 
ATOM     68  C   UNL A   1      44.202  22.803  24.642  1.00  0.00     0.006 A 
ENDBRANCH  47  61
BRANCH  48  69
ATOM     69  C   UNL A   1      40.439  30.397  33.860  1.00  0.00     0.057 A 
ATOM     70  C   UNL A   1      40.341  31.733  34.286  1.00  0.00     0.134 A 
ATOM     71  C   UNL A   1      39.245  29.704  33.646  1.00  0.00     0.134 A 
ATOM     72  F   UNL A   1      41.453  32.453  34.505  1.00  0.00    -0.206 F 
ATOM     73  C   UNL A   1      39.111  32.390  34.372  1.00  0.00     0.040 A 
ATOM     74  C   UNL A   1      38.006  30.349  33.737  1.00  0.00     0.040 A 
ATOM     75  F   UNL A   1      39.262  28.433  33.216  1.00  0.00    -0.206 F 
ATOM     76  C   UNL A   1      37.941  31.705  34.060  1.00  0.00     0.006 A 
ENDBRANCH  48  69
BRANCH  60  77
ATOM     77  C   UNL A   1      44.658  24.510  33.599  1.00  0.00     0.057 A 
ATOM     78  C   UNL A   1      46.000  24.111  33.681  1.00  0.00     0.134 A 
ATOM     79  C   UNL A   1      43.755  23.697  34.327  1.00  0.00     0.134 A 
ATOM     80  F   UNL A   1      46.985  24.833  33.136  1.00  0.00    -0.206 F 
ATOM     81  C   UNL A   1      46.406  22.969  34.391  1.00  0.00     0.040 A 
ATOM     82  C   UNL A   1      44.156  22.592  35.083  1.00  0.00     0.040 A 
ATOM     83  F   UNL A   1      42.439  23.959  34.361  1.00  0.00    -0.206 F 
ATOM     84  C   UNL A   1      45.487  22.214  35.106  1.00  0.00     0.006 A 
ENDBRANCH  60  77
ENDBRANCH  34  35
ENDBRANCH  26  29
ENDBRANCH  24  25
ENDBRANCH  23  24
ENDBRANCH   1  23
TORSDOF 14
ENDMDL
MODEL 3
REMARK VINA RESULT:     -11.7      1.541      2.611
REMARK SMILES Cc1ccccc1[C@@H](CC(=O)NCCCNC(=O)c1ccc(-c2c3nc(c(-c4c(F)cccc4F)c4ccc([nH]4)c(-c4c(F)cccc4F)c4nc(c(-c5c(F)cccc5F)c5ccc2[nH]5)C=C4)C=C3)cc1)NC(=O)C(F)(F)F
REMARK SMILES IDX 13 1 12 2 10 3 11 4 9 6 8 7 7 8 1 9 2 10 3 11 4 12 6 13 5 14
REMARK SMILES IDX 73 15 74 16 75 18 76 19 77 20 78 21 79 22 14 23 15 24 16 25
REMARK SMILES IDX 17 26 18 28 19 29 20 30 72 31 21 32 71 33 22 34 23 35 24 36
REMARK SMILES IDX 65 37 25 38 70 39 64 40 66 41 26 42 69 43 63 44 62 45 27 47
REMARK SMILES IDX 53 48 36 49 52 50 37 51 40 52 51 53 67 54 38 55 39 56 50 58
REMARK SMILES IDX 68 59 41 60 28 61 29 62 34 63 30 64 31 65 33 66 35 67 32 68
REMARK SMILES IDX 54 69 55 70 60 71 56 72 57 73 59 74 61 75 58 76 42 77 43 78
REMARK SMILES IDX 48 79 44 80 45 81 47 82 49 83 46 84
REMARK H PARENT 12 5 73 17 16 27 66 46 40 57
REMARK Flexibility Score: inf
ROOT
ATOM      1  C   UNL A   1      33.622  29.826  27.463  1.00  0.00     0.117 C 
ENDROOT
BRANCH   1   2
ATOM      2  N   UNL A   1      32.603  29.813  26.426  1.00  0.00    -0.356 N 
ATOM      3  C   UNL A   1      32.053  28.803  25.710  1.00  0.00     0.222 C 
ATOM      4  O   UNL A   1      31.371  29.108  24.730  1.00  0.00    -0.275 OA
ATOM      5  H   UNL A   1      32.247  30.703  26.202  1.00  0.00     0.163 HD
BRANCH   3   6
ATOM      6  C   UNL A   1      32.228  27.358  26.109  1.00  0.00     0.129 C 
BRANCH   6   7
ATOM      7  C   UNL A   1      32.506  26.364  24.960  1.00  0.00     0.122 C 
BRANCH   7   8
ATOM      8  C   UNL A   1      33.116  25.078  25.513  1.00  0.00    -0.022 A 
ATOM      9  C   UNL A   1      30.860  24.088  26.304  1.00  0.00     0.045 C 
ATOM     10  C   UNL A   1      32.367  24.128  26.246  1.00  0.00    -0.046 A 
ATOM     11  C   UNL A   1      33.040  23.082  26.909  1.00  0.00     0.004 A 
ATOM     12  C   UNL A   1      34.425  22.959  26.846  1.00  0.00     0.000 A 
ATOM     13  C   UNL A   1      34.504  24.879  25.396  1.00  0.00     0.006 A 
ATOM     14  C   UNL A   1      35.156  23.843  26.066  1.00  0.00     0.000 A 
ENDBRANCH   7   8
BRANCH   7  15
ATOM     15  N   UNL A   1      33.278  26.905  23.847  1.00  0.00    -0.341 N 
ATOM     16  C   UNL A   1      32.982  26.837  22.503  1.00  0.00     0.326 C 
ATOM     17  H   UNL A   1      34.109  27.375  24.084  1.00  0.00     0.164 HD
ATOM     18  O   UNL A   1      33.821  27.289  21.716  1.00  0.00    -0.265 OA
BRANCH  16  19
ATOM     19  C   UNL A   1      31.639  26.224  22.044  1.00  0.00     0.471 C 
ATOM     20  F   UNL A   1      30.580  27.042  22.302  1.00  0.00    -0.162 F 
ATOM     21  F   UNL A   1      31.616  25.996  20.698  1.00  0.00    -0.162 F 
ATOM     22  F   UNL A   1      31.358  25.032  22.636  1.00  0.00    -0.162 F 
ENDBRANCH  16  19
ENDBRANCH   7  15
ENDBRANCH   6   7
ENDBRANCH   3   6
ENDBRANCH   1   2
BRANCH   1  23
ATOM     23  C   UNL A   1      33.834  31.262  27.932  1.00  0.00     0.042 C 
BRANCH  23  24
ATOM     24  C   UNL A   1      35.180  31.844  27.529  1.00  0.00     0.118 C 
BRANCH  24  25
ATOM     25  N   UNL A   1      36.006  32.312  28.645  1.00  0.00    -0.352 N 
ATOM     26  C   UNL A   1      37.111  31.688  29.206  1.00  0.00     0.251 C 
ATOM     27  H   UNL A   1      35.745  33.173  29.044  1.00  0.00     0.163 HD
ATOM     28  O   UNL A   1      37.881  32.280  29.954  1.00  0.00    -0.269 OA
BRANCH  26  29
ATOM     29  C   UNL A   1      37.356  30.284  28.830  1.00  0.00     0.039 A 
ATOM     30  C   UNL A   1      37.232  29.313  29.829  1.00  0.00     0.014 A 
ATOM     31  C   UNL A   1      38.122  30.071  27.686  1.00  0.00     0.014 A 
ATOM     32  C   UNL A   1      38.116  28.240  29.825  1.00  0.00     0.010 A 
ATOM     33  C   UNL A   1      39.043  29.042  27.726  1.00  0.00     0.010 A 
ATOM     34  C   UNL A   1      39.117  28.201  28.853  1.00  0.00    -0.014 A 
BRANCH  34  35
ATOM     35  C   UNL A   1      40.419  27.560  29.081  1.00  0.00     0.031 A 
ATOM     36  C   UNL A   1      40.634  26.133  28.749  1.00  0.00     0.074 A 
ATOM     37  C   UNL A   1      41.493  28.340  29.367  1.00  0.00     0.049 A 
ATOM     38  N   UNL A   1      41.711  25.474  29.014  1.00  0.00    -0.248 NA
ATOM     39  C   UNL A   1      39.610  25.308  28.123  1.00  0.00     0.031 C 
ATOM     40  C   UNL A   1      42.903  28.020  29.141  1.00  0.00     0.029 A 
ATOM     41  N   UNL A   1      41.532  29.532  30.109  1.00  0.00    -0.354 N 
ATOM     42  C   UNL A   1      41.651  24.264  28.357  1.00  0.00     0.074 A 
ATOM     43  C   UNL A   1      40.293  24.188  27.875  1.00  0.00     0.031 C 
ATOM     44  C   UNL A   1      43.662  28.791  29.930  1.00  0.00     0.029 A 
ATOM     45  C   UNL A   1      42.767  29.524  30.801  1.00  0.00     0.049 A 
ATOM     46  H   UNL A   1      40.840  30.231  30.142  1.00  0.00     0.167 HD
ATOM     47  C   UNL A   1      42.799  23.539  28.215  1.00  0.00     0.037 A 
ATOM     48  C   UNL A   1      42.837  29.518  32.163  1.00  0.00     0.037 A 
ATOM     49  C   UNL A   1      43.875  24.107  29.032  1.00  0.00     0.049 A 
ATOM     50  C   UNL A   1      43.569  28.331  32.746  1.00  0.00     0.074 A 
ATOM     51  C   UNL A   1      44.976  24.900  28.753  1.00  0.00     0.029 A 
ATOM     52  N   UNL A   1      43.740  24.099  30.417  1.00  0.00    -0.354 N 
ATOM     53  N   UNL A   1      43.832  27.245  32.074  1.00  0.00    -0.248 NA
ATOM     54  C   UNL A   1      44.034  28.252  34.128  1.00  0.00     0.031 C 
ATOM     55  C   UNL A   1      45.476  25.408  29.981  1.00  0.00     0.029 A 
ATOM     56  C   UNL A   1      44.688  24.911  31.005  1.00  0.00     0.049 A 
ATOM     57  H   UNL A   1      43.060  23.586  30.909  1.00  0.00     0.167 HD
ATOM     58  C   UNL A   1      44.431  26.325  32.896  1.00  0.00     0.074 A 
ATOM     59  C   UNL A   1      44.564  27.015  34.164  1.00  0.00     0.031 C 
ATOM     60  C   UNL A   1      44.734  25.067  32.453  1.00  0.00     0.037 A 
BRANCH  47  61
ATOM     61  C   UNL A   1      43.037  22.456  27.174  1.00  0.00     0.057 A 
ATOM     62  C   UNL A   1      42.308  21.246  27.217  1.00  0.00     0.134 A 
ATOM     63  C   UNL A   1      44.003  22.490  26.153  1.00  0.00     0.134 A 
ATOM     64  F   UNL A   1      41.290  21.063  28.067  1.00  0.00    -0.206 F 
ATOM     65  C   UNL A   1      42.584  20.147  26.386  1.00  0.00     0.040 A 
ATOM     66  C   UNL A   1      44.315  21.389  25.340  1.00  0.00     0.040 A 
ATOM     67  F   UNL A   1      44.665  23.602  25.833  1.00  0.00    -0.206 F 
ATOM     68  C   UNL A   1      43.612  20.204  25.462  1.00  0.00     0.006 A 
ENDBRANCH  47  61
BRANCH  48  69
ATOM     69  C   UNL A   1      41.715  30.246  32.805  1.00  0.00     0.057 A 
ATOM     70  C   UNL A   1      40.631  29.493  33.288  1.00  0.00     0.134 A 
ATOM     71  C   UNL A   1      41.879  31.535  33.317  1.00  0.00     0.134 A 
ATOM     72  F   UNL A   1      40.423  28.245  32.837  1.00  0.00    -0.206 F 
ATOM     73  C   UNL A   1      39.819  29.955  34.327  1.00  0.00     0.040 A 
ATOM     74  C   UNL A   1      41.066  32.011  34.353  1.00  0.00     0.040 A 
ATOM     75  F   UNL A   1      42.906  32.301  32.921  1.00  0.00    -0.206 F 
ATOM     76  C   UNL A   1      40.061  31.205  34.888  1.00  0.00     0.006 A 
ENDBRANCH  48  69
BRANCH  60  77
ATOM     77  C   UNL A   1      45.145  23.880  33.299  1.00  0.00     0.057 A 
ATOM     78  C   UNL A   1      46.416  23.703  33.863  1.00  0.00     0.134 A 
ATOM     79  C   UNL A   1      44.179  22.928  33.708  1.00  0.00     0.134 A 
ATOM     80  F   UNL A   1      47.406  24.579  33.658  1.00  0.00    -0.206 F 
ATOM     81  C   UNL A   1      46.717  22.638  34.727  1.00  0.00     0.040 A 
ATOM     82  C   UNL A   1      44.454  21.898  34.612  1.00  0.00     0.040 A 
ATOM     83  F   UNL A   1      42.913  22.972  33.269  1.00  0.00    -0.206 F 
ATOM     84  C   UNL A   1      45.733  21.740  35.116  1.00  0.00     0.006 A 
ENDBRANCH  60  77
ENDBRANCH  34  35
ENDBRANCH  26  29
ENDBRANCH  24  25
ENDBRANCH  23  24
ENDBRANCH   1  23
TORSDOF 14
ENDMDL
