MODEL 1
REMARK VINA RESULT:     -11.9      0.000      0.000
REMARK SMILES COc1ccc2c(c1)c(CC(=O)NCCCNC(=O)c1ccc(-c3c4nc(c(-c5c(F)cccc5F)c5ccc([nH]5)c(-c5c(F)cccc5F)c5nc(c(-c6c(F)cccc6F)c6ccc3[nH]6)C=C5)C=C4)cc1)c(C)n2Cc1ccn(C(F)F)c(=O)c1
REMARK SMILES IDX 14 1 13 2 11 3 12 4 10 6 9 7 3 8 4 9 8 10 5 11 7 12 6 13
REMARK SMILES IDX 76 14 74 15 75 16 2 17 1 18 77 19 78 20 79 21 87 22 80 23
REMARK SMILES IDX 85 24 81 25 86 26 82 27 83 28 84 29 15 30 16 31 17 32 18 33
REMARK SMILES IDX 19 35 20 36 21 37 73 38 22 39 72 40 23 41 24 42 25 43 66 44
REMARK SMILES IDX 26 45 71 46 65 47 67 48 27 49 70 50 64 51 63 52 28 54 54 55
REMARK SMILES IDX 37 56 53 57 38 58 41 59 52 60 68 61 39 62 40 63 51 65 69 66
REMARK SMILES IDX 42 67 29 68 30 69 35 70 31 71 32 72 34 73 36 74 33 75 55 76
REMARK SMILES IDX 56 77 61 78 57 79 58 80 60 81 62 82 59 83 43 84 44 85 49 86
REMARK SMILES IDX 45 87 46 88 48 89 50 90 47 91
REMARK H PARENT 13 5 17 34 67 53 41 64
REMARK Flexibility Score: inf
ROOT
ATOM      1  C   UNL A   1      38.468  23.490  25.955  1.00  0.00     0.117 C 
ENDROOT
BRANCH   1   2
ATOM      2  N   UNL A   1      37.115  23.536  26.487  1.00  0.00    -0.356 N 
ATOM      3  C   UNL A   1      36.065  22.677  26.306  1.00  0.00     0.224 C 
ATOM      4  O   UNL A   1      35.029  22.893  26.941  1.00  0.00    -0.275 OA
ATOM      5  H   UNL A   1      36.924  24.306  27.071  1.00  0.00     0.163 HD
BRANCH   3   6
ATOM      6  C   UNL A   1      36.189  21.452  25.411  1.00  0.00     0.138 C 
BRANCH   6   7
ATOM      7  C   UNL A   1      34.938  21.153  24.645  1.00  0.00    -0.010 A 
ATOM      8  C   UNL A   1      33.711  17.548  24.749  1.00  0.00     0.119 A 
ATOM      9  C   UNL A   1      32.499  17.779  24.109  1.00  0.00     0.048 A 
ATOM     10  C   UNL A   1      34.574  18.606  25.031  1.00  0.00     0.057 A 
ATOM     11  C   UNL A   1      32.152  19.064  23.668  1.00  0.00     0.031 A 
ATOM     12  C   UNL A   1      34.263  19.901  24.566  1.00  0.00     0.007 A 
ATOM     13  C   UNL A   1      33.068  20.112  23.871  1.00  0.00     0.049 A 
ATOM     14  N   UNL A   1      33.043  21.452  23.502  1.00  0.00    -0.340 N 
ATOM     15  C   UNL A   1      34.273  22.021  23.793  1.00  0.00     0.020 A 
ATOM     16  C   UNL A   1      34.758  23.340  23.302  1.00  0.00     0.065 C 
BRANCH   8  17
ATOM     17  O   UNL A   1      34.091  16.307  25.186  1.00  0.00    -0.497 OA
ATOM     18  C   UNL A   1      32.977  15.434  25.372  1.00  0.00     0.278 C 
ENDBRANCH   8  17
BRANCH  14  19
ATOM     19  C   UNL A   1      31.912  22.117  22.841  1.00  0.00     0.158 C 
BRANCH  19  20
ATOM     20  C   UNL A   1      31.438  23.356  23.570  1.00  0.00    -0.021 A 
ATOM     21  C   UNL A   1      31.375  24.604  22.840  1.00  0.00     0.024 A 
ATOM     22  C   UNL A   1      31.037  23.349  24.854  1.00  0.00     0.077 A 
ATOM     23  C   UNL A   1      31.059  25.746  23.448  1.00  0.00     0.095 A 
ATOM     24  C   UNL A   1      30.650  24.617  25.546  1.00  0.00     0.255 A 
ATOM     25  N   UNL A   1      30.681  25.764  24.771  1.00  0.00    -0.258 N 
ATOM     26  O   UNL A   1      30.357  24.542  26.739  1.00  0.00    -0.269 OA
BRANCH  25  27
ATOM     27  C   UNL A   1      30.413  27.047  25.373  1.00  0.00     0.451 C 
ATOM     28  F   UNL A   1      31.325  27.387  26.303  1.00  0.00    -0.185 F 
ATOM     29  F   UNL A   1      30.378  27.994  24.407  1.00  0.00    -0.185 F 
ENDBRANCH  25  27
ENDBRANCH  19  20
ENDBRANCH  14  19
ENDBRANCH   6   7
ENDBRANCH   3   6
ENDBRANCH   1   2
BRANCH   1  30
ATOM     30  C   UNL A   1      39.522  23.056  26.985  1.00  0.00     0.042 C 
BRANCH  30  31
ATOM     31  C   UNL A   1      40.373  21.848  26.579  1.00  0.00     0.118 C 
BRANCH  31  32
ATOM     32  N   UNL A   1      41.452  22.154  25.654  1.00  0.00    -0.352 N 
ATOM     33  C   UNL A   1      42.392  23.134  25.481  1.00  0.00     0.251 C 
ATOM     34  H   UNL A   1      41.529  21.463  24.957  1.00  0.00     0.163 HD
ATOM     35  O   UNL A   1      43.242  22.886  24.618  1.00  0.00    -0.269 OA
BRANCH  33  36
ATOM     36  C   UNL A   1      42.444  24.468  26.144  1.00  0.00     0.039 A 
ATOM     37  C   UNL A   1      43.089  24.773  27.334  1.00  0.00     0.014 A 
ATOM     38  C   UNL A   1      41.676  25.487  25.526  1.00  0.00     0.014 A 
ATOM     39  C   UNL A   1      42.842  26.007  27.950  1.00  0.00     0.010 A 
ATOM     40  C   UNL A   1      41.423  26.711  26.146  1.00  0.00     0.010 A 
ATOM     41  C   UNL A   1      41.940  26.946  27.407  1.00  0.00    -0.014 A 
BRANCH  41  42
ATOM     42  C   UNL A   1      41.662  28.176  28.174  1.00  0.00     0.031 A 
ATOM     43  C   UNL A   1      42.730  29.196  28.013  1.00  0.00     0.074 A 
ATOM     44  C   UNL A   1      40.582  28.446  28.950  1.00  0.00     0.049 A 
ATOM     45  N   UNL A   1      43.545  29.622  28.920  1.00  0.00    -0.248 NA
ATOM     46  C   UNL A   1      43.035  29.669  26.654  1.00  0.00     0.031 C 
ATOM     47  C   UNL A   1      39.341  27.680  29.091  1.00  0.00     0.029 A 
ATOM     48  N   UNL A   1      40.346  29.530  29.763  1.00  0.00    -0.354 N 
ATOM     49  C   UNL A   1      44.374  30.539  28.287  1.00  0.00     0.074 A 
ATOM     50  C   UNL A   1      44.115  30.421  26.876  1.00  0.00     0.031 C 
ATOM     51  C   UNL A   1      38.415  28.428  29.740  1.00  0.00     0.029 A 
ATOM     52  C   UNL A   1      39.022  29.674  30.181  1.00  0.00     0.049 A 
ATOM     53  H   UNL A   1      41.057  30.157  30.029  1.00  0.00     0.167 HD
ATOM     54  C   UNL A   1      45.013  31.496  29.010  1.00  0.00     0.037 A 
ATOM     55  C   UNL A   1      38.455  30.743  30.808  1.00  0.00     0.037 A 
ATOM     56  C   UNL A   1      45.155  31.101  30.392  1.00  0.00     0.049 A 
ATOM     57  C   UNL A   1      39.539  31.534  31.433  1.00  0.00     0.074 A 
ATOM     58  C   UNL A   1      45.727  30.025  31.047  1.00  0.00     0.029 A 
ATOM     59  N   UNL A   1      44.339  31.700  31.318  1.00  0.00    -0.354 N 
ATOM     60  N   UNL A   1      40.193  31.158  32.492  1.00  0.00    -0.248 NA
ATOM     61  C   UNL A   1      40.189  32.547  30.617  1.00  0.00     0.031 C 
ATOM     62  C   UNL A   1      44.859  29.754  32.147  1.00  0.00     0.029 A 
ATOM     63  C   UNL A   1      43.852  30.717  32.137  1.00  0.00     0.049 A 
ATOM     64  H   UNL A   1      44.139  32.662  31.382  1.00  0.00     0.167 HD
ATOM     65  C   UNL A   1      41.507  31.493  32.210  1.00  0.00     0.074 A 
ATOM     66  C   UNL A   1      41.432  32.424  31.086  1.00  0.00     0.031 C 
ATOM     67  C   UNL A   1      42.540  30.767  32.727  1.00  0.00     0.037 A 
BRANCH  54  68
ATOM     68  C   UNL A   1      45.038  32.946  28.577  1.00  0.00     0.057 A 
ATOM     69  C   UNL A   1      43.889  33.755  28.454  1.00  0.00     0.134 A 
ATOM     70  C   UNL A   1      46.256  33.646  28.649  1.00  0.00     0.134 A 
ATOM     71  F   UNL A   1      42.650  33.257  28.392  1.00  0.00    -0.206 F 
ATOM     72  C   UNL A   1      43.938  35.149  28.497  1.00  0.00     0.040 A 
ATOM     73  C   UNL A   1      46.311  35.041  28.739  1.00  0.00     0.040 A 
ATOM     74  F   UNL A   1      47.422  32.991  28.752  1.00  0.00    -0.206 F 
ATOM     75  C   UNL A   1      45.146  35.797  28.686  1.00  0.00     0.006 A 
ENDBRANCH  54  68
BRANCH  55  76
ATOM     76  C   UNL A   1      37.078  31.303  30.723  1.00  0.00     0.057 A 
ATOM     77  C   UNL A   1      36.622  31.938  29.556  1.00  0.00     0.134 A 
ATOM     78  C   UNL A   1      36.292  31.510  31.872  1.00  0.00     0.134 A 
ATOM     79  F   UNL A   1      37.321  31.867  28.414  1.00  0.00    -0.206 F 
ATOM     80  C   UNL A   1      35.482  32.752  29.538  1.00  0.00     0.040 A 
ATOM     81  C   UNL A   1      35.150  32.327  31.869  1.00  0.00     0.040 A 
ATOM     82  F   UNL A   1      36.653  30.983  33.052  1.00  0.00    -0.206 F 
ATOM     83  C   UNL A   1      34.751  32.964  30.701  1.00  0.00     0.006 A 
ENDBRANCH  55  76
BRANCH  67  84
ATOM     84  C   UNL A   1      42.237  29.812  33.844  1.00  0.00     0.057 A 
ATOM     85  C   UNL A   1      42.504  30.227  35.154  1.00  0.00     0.134 A 
ATOM     86  C   UNL A   1      41.776  28.497  33.677  1.00  0.00     0.134 A 
ATOM     87  F   UNL A   1      42.992  31.456  35.390  1.00  0.00    -0.206 F 
ATOM     88  C   UNL A   1      42.296  29.391  36.252  1.00  0.00     0.040 A 
ATOM     89  C   UNL A   1      41.527  27.663  34.772  1.00  0.00     0.040 A 
ATOM     90  F   UNL A   1      41.586  27.970  32.458  1.00  0.00    -0.206 F 
ATOM     91  C   UNL A   1      41.790  28.108  36.064  1.00  0.00     0.006 A 
ENDBRANCH  67  84
ENDBRANCH  41  42
ENDBRANCH  33  36
ENDBRANCH  31  32
ENDBRANCH  30  31
ENDBRANCH   1  30
TORSDOF 15
ENDMDL
MODEL 2
REMARK VINA RESULT:     -11.9      2.353      4.258
REMARK SMILES COc1ccc2c(c1)c(CC(=O)NCCCNC(=O)c1ccc(-c3c4nc(c(-c5c(F)cccc5F)c5ccc([nH]5)c(-c5c(F)cccc5F)c5nc(c(-c6c(F)cccc6F)c6ccc3[nH]6)C=C5)C=C4)cc1)c(C)n2Cc1ccn(C(F)F)c(=O)c1
REMARK SMILES IDX 14 1 13 2 11 3 12 4 10 6 9 7 3 8 4 9 8 10 5 11 7 12 6 13
REMARK SMILES IDX 76 14 74 15 75 16 2 17 1 18 77 19 78 20 79 21 87 22 80 23
REMARK SMILES IDX 85 24 81 25 86 26 82 27 83 28 84 29 15 30 16 31 17 32 18 33
REMARK SMILES IDX 19 35 20 36 21 37 73 38 22 39 72 40 23 41 24 42 25 43 66 44
REMARK SMILES IDX 26 45 71 46 65 47 67 48 27 49 70 50 64 51 63 52 28 54 54 55
REMARK SMILES IDX 37 56 53 57 38 58 41 59 52 60 68 61 39 62 40 63 51 65 69 66
REMARK SMILES IDX 42 67 29 68 30 69 35 70 31 71 32 72 34 73 36 74 33 75 55 76
REMARK SMILES IDX 56 77 61 78 57 79 58 80 60 81 62 82 59 83 43 84 44 85 49 86
REMARK SMILES IDX 45 87 46 88 48 89 50 90 47 91
REMARK H PARENT 13 5 17 34 67 53 41 64
REMARK Flexibility Score: inf
ROOT
ATOM      1  C   UNL A   1      39.035  21.775  26.083  1.00  0.00     0.117 C 
ENDROOT
BRANCH   1   2
ATOM      2  N   UNL A   1      38.336  23.024  26.347  1.00  0.00    -0.356 N 
ATOM      3  C   UNL A   1      37.319  23.629  25.661  1.00  0.00     0.224 C 
ATOM      4  O   UNL A   1      36.833  24.658  26.141  1.00  0.00    -0.275 OA
ATOM      5  H   UNL A   1      38.643  23.510  27.146  1.00  0.00     0.163 HD
BRANCH   3   6
ATOM      6  C   UNL A   1      36.747  23.019  24.388  1.00  0.00     0.138 C 
BRANCH   6   7
ATOM      7  C   UNL A   1      35.255  22.914  24.403  1.00  0.00    -0.010 A 
ATOM      8  C   UNL A   1      33.361  25.392  22.218  1.00  0.00     0.119 A 
ATOM      9  C   UNL A   1      32.105  24.820  22.387  1.00  0.00     0.048 A 
ATOM     10  C   UNL A   1      34.487  24.809  22.795  1.00  0.00     0.057 A 
ATOM     11  C   UNL A   1      31.934  23.691  23.199  1.00  0.00     0.031 A 
ATOM     12  C   UNL A   1      34.335  23.693  23.644  1.00  0.00     0.007 A 
ATOM     13  C   UNL A   1      33.059  23.160  23.855  1.00  0.00     0.049 A 
ATOM     14  N   UNL A   1      33.201  22.109  24.754  1.00  0.00    -0.340 N 
ATOM     15  C   UNL A   1      34.499  22.104  25.239  1.00  0.00     0.020 A 
ATOM     16  C   UNL A   1      34.984  21.335  26.418  1.00  0.00     0.065 C 
BRANCH   8  17
ATOM     17  O   UNL A   1      33.568  26.502  21.441  1.00  0.00    -0.497 OA
ATOM     18  C   UNL A   1      33.730  27.686  22.221  1.00  0.00     0.278 C 
ENDBRANCH   8  17
BRANCH  14  19
ATOM     19  C   UNL A   1      32.115  21.210  25.169  1.00  0.00     0.158 C 
BRANCH  19  20
ATOM     20  C   UNL A   1      32.407  19.751  24.887  1.00  0.00    -0.021 A 
ATOM     21  C   UNL A   1      32.549  18.849  26.009  1.00  0.00     0.024 A 
ATOM     22  C   UNL A   1      32.504  19.244  23.645  1.00  0.00     0.077 A 
ATOM     23  C   UNL A   1      32.901  17.576  25.832  1.00  0.00     0.095 A 
ATOM     24  C   UNL A   1      32.870  17.811  23.426  1.00  0.00     0.255 A 
ATOM     25  N   UNL A   1      33.041  17.048  24.568  1.00  0.00    -0.258 N 
ATOM     26  O   UNL A   1      33.003  17.434  22.262  1.00  0.00    -0.269 OA
BRANCH  25  27
ATOM     27  C   UNL A   1      33.483  15.680  24.461  1.00  0.00     0.451 C 
ATOM     28  F   UNL A   1      34.688  15.476  25.024  1.00  0.00    -0.185 F 
ATOM     29  F   UNL A   1      32.570  14.869  25.043  1.00  0.00    -0.185 F 
ENDBRANCH  25  27
ENDBRANCH  19  20
ENDBRANCH  14  19
ENDBRANCH   6   7
ENDBRANCH   3   6
ENDBRANCH   1   2
BRANCH   1  30
ATOM     30  C   UNL A   1      40.211  21.512  27.035  1.00  0.00     0.042 C 
BRANCH  30  31
ATOM     31  C   UNL A   1      41.417  20.808  26.405  1.00  0.00     0.118 C 
BRANCH  31  32
ATOM     32  N   UNL A   1      42.169  21.625  25.467  1.00  0.00    -0.352 N 
ATOM     33  C   UNL A   1      42.598  22.920  25.367  1.00  0.00     0.251 C 
ATOM     34  H   UNL A   1      42.448  21.099  24.683  1.00  0.00     0.163 HD
ATOM     35  O   UNL A   1      43.378  23.135  24.432  1.00  0.00    -0.269 OA
BRANCH  33  36
ATOM     36  C   UNL A   1      42.168  24.084  26.193  1.00  0.00     0.039 A 
ATOM     37  C   UNL A   1      41.267  25.072  25.820  1.00  0.00     0.014 A 
ATOM     38  C   UNL A   1      42.826  24.224  27.440  1.00  0.00     0.014 A 
ATOM     39  C   UNL A   1      41.153  26.227  26.606  1.00  0.00     0.010 A 
ATOM     40  C   UNL A   1      42.719  25.379  28.217  1.00  0.00     0.010 A 
ATOM     41  C   UNL A   1      41.942  26.427  27.758  1.00  0.00    -0.014 A 
BRANCH  41  42
ATOM     42  C   UNL A   1      41.832  27.717  28.468  1.00  0.00     0.031 A 
ATOM     43  C   UNL A   1      43.014  28.588  28.245  1.00  0.00     0.074 A 
ATOM     44  C   UNL A   1      40.808  28.154  29.243  1.00  0.00     0.049 A 
ATOM     45  N   UNL A   1      43.892  28.952  29.119  1.00  0.00    -0.248 NA
ATOM     46  C   UNL A   1      43.350  28.955  26.861  1.00  0.00     0.031 C 
ATOM     47  C   UNL A   1      39.485  27.555  29.437  1.00  0.00     0.029 A 
ATOM     48  N   UNL A   1      40.721  29.296  30.005  1.00  0.00    -0.354 N 
ATOM     49  C   UNL A   1      44.815  29.728  28.432  1.00  0.00     0.074 A 
ATOM     50  C   UNL A   1      44.518  29.577  27.032  1.00  0.00     0.031 C 
ATOM     51  C   UNL A   1      38.670  28.442  30.059  1.00  0.00     0.029 A 
ATOM     52  C   UNL A   1      39.433  29.622  30.432  1.00  0.00     0.049 A 
ATOM     53  H   UNL A   1      41.509  29.842  30.231  1.00  0.00     0.167 HD
ATOM     54  C   UNL A   1      45.581  30.632  29.099  1.00  0.00     0.037 A 
ATOM     55  C   UNL A   1      39.014  30.782  31.013  1.00  0.00     0.037 A 
ATOM     56  C   UNL A   1      45.698  30.288  30.497  1.00  0.00     0.049 A 
ATOM     57  C   UNL A   1      40.198  31.461  31.585  1.00  0.00     0.074 A 
ATOM     58  C   UNL A   1      46.146  29.181  31.197  1.00  0.00     0.029 A 
ATOM     59  N   UNL A   1      44.979  31.026  31.403  1.00  0.00    -0.354 N 
ATOM     60  N   UNL A   1      40.820  31.056  32.653  1.00  0.00    -0.248 NA
ATOM     61  C   UNL A   1      40.952  32.346  30.713  1.00  0.00     0.031 C 
ATOM     62  C   UNL A   1      45.271  29.072  32.320  1.00  0.00     0.029 A 
ATOM     63  C   UNL A   1      44.390  30.150  32.275  1.00  0.00     0.049 A 
ATOM     64  H   UNL A   1      44.900  32.007  31.422  1.00  0.00     0.167 HD
ATOM     65  C   UNL A   1      42.160  31.213  32.339  1.00  0.00     0.074 A 
ATOM     66  C   UNL A   1      42.180  32.092  31.172  1.00  0.00     0.031 C 
ATOM     67  C   UNL A   1      43.105  30.390  32.877  1.00  0.00     0.037 A 
BRANCH  54  68
ATOM     68  C   UNL A   1      45.776  32.045  28.596  1.00  0.00     0.057 A 
ATOM     69  C   UNL A   1      44.722  32.950  28.349  1.00  0.00     0.134 A 
ATOM     70  C   UNL A   1      47.048  32.632  28.720  1.00  0.00     0.134 A 
ATOM     71  F   UNL A   1      43.447  32.567  28.222  1.00  0.00    -0.206 F 
ATOM     72  C   UNL A   1      44.903  34.333  28.323  1.00  0.00     0.040 A 
ATOM     73  C   UNL A   1      47.232  34.018  28.743  1.00  0.00     0.040 A 
ATOM     74  F   UNL A   1      48.136  31.877  28.941  1.00  0.00    -0.206 F 
ATOM     75  C   UNL A   1      46.153  34.875  28.566  1.00  0.00     0.006 A 
ENDBRANCH  54  68
BRANCH  55  76
ATOM     76  C   UNL A   1      37.715  31.503  30.917  1.00  0.00     0.057 A 
ATOM     77  C   UNL A   1      36.811  31.520  31.992  1.00  0.00     0.134 A 
ATOM     78  C   UNL A   1      37.192  31.921  29.679  1.00  0.00     0.134 A 
ATOM     79  F   UNL A   1      37.174  31.081  33.206  1.00  0.00    -0.206 F 
ATOM     80  C   UNL A   1      35.468  31.893  31.842  1.00  0.00     0.040 A 
ATOM     81  C   UNL A   1      35.848  32.293  29.514  1.00  0.00     0.040 A 
ATOM     82  F   UNL A   1      37.954  31.910  28.575  1.00  0.00    -0.206 F 
ATOM     83  C   UNL A   1      34.978  32.265  30.596  1.00  0.00     0.006 A 
ENDBRANCH  55  76
BRANCH  67  84
ATOM     84  C   UNL A   1      42.708  29.533  34.044  1.00  0.00     0.057 A 
ATOM     85  C   UNL A   1      42.110  28.295  33.778  1.00  0.00     0.134 A 
ATOM     86  C   UNL A   1      42.817  29.908  35.392  1.00  0.00     0.134 A 
ATOM     87  F   UNL A   1      41.928  27.889  32.511  1.00  0.00    -0.206 F 
ATOM     88  C   UNL A   1      41.668  27.453  34.799  1.00  0.00     0.040 A 
ATOM     89  C   UNL A   1      42.413  29.056  36.425  1.00  0.00     0.040 A 
ATOM     90  F   UNL A   1      43.283  31.114  35.749  1.00  0.00    -0.206 F 
ATOM     91  C   UNL A   1      41.833  27.825  36.129  1.00  0.00     0.006 A 
ENDBRANCH  67  84
ENDBRANCH  41  42
ENDBRANCH  33  36
ENDBRANCH  31  32
ENDBRANCH  30  31
ENDBRANCH   1  30
TORSDOF 15
ENDMDL
MODEL 3
REMARK VINA RESULT:     -11.8      1.327      1.646
REMARK SMILES COc1ccc2c(c1)c(CC(=O)NCCCNC(=O)c1ccc(-c3c4nc(c(-c5c(F)cccc5F)c5ccc([nH]5)c(-c5c(F)cccc5F)c5nc(c(-c6c(F)cccc6F)c6ccc3[nH]6)C=C5)C=C4)cc1)c(C)n2Cc1ccn(C(F)F)c(=O)c1
REMARK SMILES IDX 14 1 13 2 11 3 12 4 10 6 9 7 3 8 4 9 8 10 5 11 7 12 6 13
REMARK SMILES IDX 76 14 74 15 75 16 2 17 1 18 77 19 78 20 79 21 87 22 80 23
REMARK SMILES IDX 85 24 81 25 86 26 82 27 83 28 84 29 15 30 16 31 17 32 18 33
REMARK SMILES IDX 19 35 20 36 21 37 73 38 22 39 72 40 23 41 24 42 25 43 66 44
REMARK SMILES IDX 26 45 71 46 65 47 67 48 27 49 70 50 64 51 63 52 28 54 54 55
REMARK SMILES IDX 37 56 53 57 38 58 41 59 52 60 68 61 39 62 40 63 51 65 69 66
REMARK SMILES IDX 42 67 29 68 30 69 35 70 31 71 32 72 34 73 36 74 33 75 55 76
REMARK SMILES IDX 56 77 61 78 57 79 58 80 60 81 62 82 59 83 43 84 44 85 49 86
REMARK SMILES IDX 45 87 46 88 48 89 50 90 47 91
REMARK H PARENT 13 5 17 34 67 53 41 64
REMARK Flexibility Score: inf
ROOT
ATOM      1  C   UNL A   1      40.004  21.369  26.489  1.00  0.00     0.117 C 
ENDROOT
BRANCH   1   2
ATOM      2  N   UNL A   1      39.007  22.423  26.606  1.00  0.00    -0.356 N 
ATOM      3  C   UNL A   1      37.745  22.507  26.084  1.00  0.00     0.224 C 
ATOM      4  O   UNL A   1      37.055  23.481  26.401  1.00  0.00    -0.275 OA
ATOM      5  H   UNL A   1      39.283  23.197  27.148  1.00  0.00     0.163 HD
BRANCH   3   6
ATOM      6  C   UNL A   1      37.177  21.405  25.201  1.00  0.00     0.138 C 
BRANCH   6   7
ATOM      7  C   UNL A   1      35.889  21.784  24.539  1.00  0.00    -0.010 A 
ATOM      8  C   UNL A   1      32.878  19.582  25.307  1.00  0.00     0.119 A 
ATOM      9  C   UNL A   1      31.935  20.384  24.676  1.00  0.00     0.048 A 
ATOM     10  C   UNL A   1      34.213  19.978  25.373  1.00  0.00     0.057 A 
ATOM     11  C   UNL A   1      32.315  21.568  24.029  1.00  0.00     0.031 A 
ATOM     12  C   UNL A   1      34.626  21.148  24.700  1.00  0.00     0.007 A 
ATOM     13  C   UNL A   1      33.678  21.917  24.017  1.00  0.00     0.049 A 
ATOM     14  N   UNL A   1      34.362  22.971  23.423  1.00  0.00    -0.340 N 
ATOM     15  C   UNL A   1      35.724  22.763  23.570  1.00  0.00     0.020 A 
ATOM     16  C   UNL A   1      36.799  23.492  22.842  1.00  0.00     0.065 C 
BRANCH   8  17
ATOM     17  O   UNL A   1      32.548  18.413  25.940  1.00  0.00    -0.497 OA
ATOM     18  C   UNL A   1      33.072  17.268  25.269  1.00  0.00     0.278 C 
ENDBRANCH   8  17
BRANCH  14  19
ATOM     19  C   UNL A   1      33.726  24.076  22.692  1.00  0.00     0.158 C 
BRANCH  19  20
ATOM     20  C   UNL A   1      33.534  25.318  23.536  1.00  0.00    -0.021 A 
ATOM     21  C   UNL A   1      33.948  25.279  24.922  1.00  0.00     0.024 A 
ATOM     22  C   UNL A   1      33.032  26.469  23.054  1.00  0.00     0.077 A 
ATOM     23  C   UNL A   1      33.719  26.304  25.741  1.00  0.00     0.095 A 
ATOM     24  C   UNL A   1      32.794  27.641  23.952  1.00  0.00     0.255 A 
ATOM     25  N   UNL A   1      33.172  27.477  25.274  1.00  0.00    -0.258 N 
ATOM     26  O   UNL A   1      32.272  28.637  23.453  1.00  0.00    -0.269 OA
BRANCH  25  27
ATOM     27  C   UNL A   1      32.898  28.517  26.235  1.00  0.00     0.451 C 
ATOM     28  F   UNL A   1      31.593  28.604  26.551  1.00  0.00    -0.185 F 
ATOM     29  F   UNL A   1      33.621  28.290  27.355  1.00  0.00    -0.185 F 
ENDBRANCH  25  27
ENDBRANCH  19  20
ENDBRANCH  14  19
ENDBRANCH   6   7
ENDBRANCH   3   6
ENDBRANCH   1   2
BRANCH   1  30
ATOM     30  C   UNL A   1      41.012  21.341  27.647  1.00  0.00     0.042 C 
BRANCH  30  31
ATOM     31  C   UNL A   1      42.486  21.370  27.232  1.00  0.00     0.118 C 
BRANCH  31  32
ATOM     32  N   UNL A   1      42.728  21.917  25.906  1.00  0.00    -0.352 N 
ATOM     33  C   UNL A   1      43.039  23.127  25.350  1.00  0.00     0.251 C 
ATOM     34  H   UNL A   1      42.645  21.220  25.215  1.00  0.00     0.163 HD
ATOM     35  O   UNL A   1      43.321  23.084  24.147  1.00  0.00    -0.269 OA
BRANCH  33  36
ATOM     36  C   UNL A   1      42.990  24.466  26.004  1.00  0.00     0.039 A 
ATOM     37  C   UNL A   1      43.772  24.893  27.069  1.00  0.00     0.014 A 
ATOM     38  C   UNL A   1      41.975  25.337  25.536  1.00  0.00     0.014 A 
ATOM     39  C   UNL A   1      43.440  26.084  27.727  1.00  0.00     0.010 A 
ATOM     40  C   UNL A   1      41.639  26.518  26.199  1.00  0.00     0.010 A 
ATOM     41  C   UNL A   1      42.320  26.857  27.354  1.00  0.00    -0.014 A 
BRANCH  41  42
ATOM     42  C   UNL A   1      41.984  28.042  28.167  1.00  0.00     0.031 A 
ATOM     43  C   UNL A   1      43.025  29.099  28.082  1.00  0.00     0.074 A 
ATOM     44  C   UNL A   1      40.876  28.245  28.923  1.00  0.00     0.049 A 
ATOM     45  N   UNL A   1      43.802  29.507  29.029  1.00  0.00    -0.248 NA
ATOM     46  C   UNL A   1      43.352  29.642  26.755  1.00  0.00     0.031 C 
ATOM     47  C   UNL A   1      39.656  27.438  28.995  1.00  0.00     0.029 A 
ATOM     48  N   UNL A   1      40.585  29.284  29.777  1.00  0.00    -0.354 N 
ATOM     49  C   UNL A   1      44.619  30.475  28.462  1.00  0.00     0.074 A 
ATOM     50  C   UNL A   1      44.402  30.414  27.040  1.00  0.00     0.031 C 
ATOM     51  C   UNL A   1      38.690  28.129  29.650  1.00  0.00     0.029 A 
ATOM     52  C   UNL A   1      39.247  29.370  30.163  1.00  0.00     0.049 A 
ATOM     53  H   UNL A   1      41.269  29.919  30.091  1.00  0.00     0.167 HD
ATOM     54  C   UNL A   1      45.209  31.417  29.245  1.00  0.00     0.037 A 
ATOM     55  C   UNL A   1      38.631  30.393  30.821  1.00  0.00     0.037 A 
ATOM     56  C   UNL A   1      45.326  30.964  30.611  1.00  0.00     0.049 A 
ATOM     57  C   UNL A   1      39.674  31.186  31.511  1.00  0.00     0.074 A 
ATOM     58  C   UNL A   1      45.912  29.876  31.234  1.00  0.00     0.029 A 
ATOM     59  N   UNL A   1      44.467  31.496  31.539  1.00  0.00    -0.354 N 
ATOM     60  N   UNL A   1      40.310  30.781  32.570  1.00  0.00    -0.248 NA
ATOM     61  C   UNL A   1      40.314  32.253  30.760  1.00  0.00     0.031 C 
ATOM     62  C   UNL A   1      45.024  29.531  32.296  1.00  0.00     0.029 A 
ATOM     63  C   UNL A   1      43.989  30.463  32.300  1.00  0.00     0.049 A 
ATOM     64  H   UNL A   1      44.237  32.448  31.640  1.00  0.00     0.167 HD
ATOM     65  C   UNL A   1      41.620  31.167  32.341  1.00  0.00     0.074 A 
ATOM     66  C   UNL A   1      41.548  32.145  31.258  1.00  0.00     0.031 C 
ATOM     67  C   UNL A   1      42.660  30.448  32.854  1.00  0.00     0.037 A 
BRANCH  54  68
ATOM     68  C   UNL A   1      45.202  32.884  28.878  1.00  0.00     0.057 A 
ATOM     69  C   UNL A   1      44.033  33.662  28.749  1.00  0.00     0.134 A 
ATOM     70  C   UNL A   1      46.393  33.618  29.025  1.00  0.00     0.134 A 
ATOM     71  F   UNL A   1      42.813  33.129  28.619  1.00  0.00    -0.206 F 
ATOM     72  C   UNL A   1      44.034  35.053  28.855  1.00  0.00     0.040 A 
ATOM     73  C   UNL A   1      46.399  35.009  29.179  1.00  0.00     0.040 A 
ATOM     74  F   UNL A   1      47.576  32.996  29.142  1.00  0.00    -0.206 F 
ATOM     75  C   UNL A   1      45.213  35.730  29.117  1.00  0.00     0.006 A 
ENDBRANCH  54  68
BRANCH  55  76
ATOM     76  C   UNL A   1      37.241  30.916  30.722  1.00  0.00     0.057 A 
ATOM     77  C   UNL A   1      36.765  31.498  29.535  1.00  0.00     0.134 A 
ATOM     78  C   UNL A   1      36.454  31.145  31.866  1.00  0.00     0.134 A 
ATOM     79  F   UNL A   1      37.462  31.404  28.394  1.00  0.00    -0.206 F 
ATOM     80  C   UNL A   1      35.605  32.283  29.493  1.00  0.00     0.040 A 
ATOM     81  C   UNL A   1      35.293  31.934  31.839  1.00  0.00     0.040 A 
ATOM     82  F   UNL A   1      36.831  30.670  33.063  1.00  0.00    -0.206 F 
ATOM     83  C   UNL A   1      34.874  32.518  30.650  1.00  0.00     0.006 A 
ENDBRANCH  55  76
BRANCH  67  84
ATOM     84  C   UNL A   1      42.356  29.435  33.918  1.00  0.00     0.057 A 
ATOM     85  C   UNL A   1      42.598  29.789  35.251  1.00  0.00     0.134 A 
ATOM     86  C   UNL A   1      41.918  28.124  33.680  1.00  0.00     0.134 A 
ATOM     87  F   UNL A   1      43.064  31.012  35.554  1.00  0.00    -0.206 F 
ATOM     88  C   UNL A   1      42.388  28.897  36.303  1.00  0.00     0.040 A 
ATOM     89  C   UNL A   1      41.666  27.233  34.729  1.00  0.00     0.040 A 
ATOM     90  F   UNL A   1      41.752  27.655  32.434  1.00  0.00    -0.206 F 
ATOM     91  C   UNL A   1      41.904  27.618  36.046  1.00  0.00     0.006 A 
ENDBRANCH  67  84
ENDBRANCH  41  42
ENDBRANCH  33  36
ENDBRANCH  31  32
ENDBRANCH  30  31
ENDBRANCH   1  30
TORSDOF 15
ENDMDL
