MODEL 1
REMARK VINA RESULT:     -12.1      0.000      0.000
REMARK SMILES Cc1occc1C(=O)NN1C(=O)/C(=C\c2ccc(O[C@H](C)C(=O)NCCCNC(=O)c3ccc(-c4c5nc(c(-c6c(F)cccc6F)c6ccc([nH]6)c(-c6c(F)cccc6F)c6nc(c(-c7c(F)cccc7F)c7ccc4[nH]7)C=C6)C=C5)cc3)cc2)SC1=S
REMARK SMILES IDX 22 1 23 2 24 3 20 5 21 6 19 7 18 8 15 9 16 10 86 11 17 12
REMARK SMILES IDX 85 13 14 14 10 15 11 16 88 17 12 18 13 19 87 20 89 21 9 22
REMARK SMILES IDX 7 23 8 24 6 26 1 27 2 28 3 29 4 30 5 31 25 32 26 33 27 34
REMARK SMILES IDX 28 35 29 36 30 38 31 39 32 40 84 41 33 42 83 43 34 44 35 45
REMARK SMILES IDX 36 46 77 47 37 48 82 49 76 50 78 51 38 52 81 53 75 54 74 55
REMARK SMILES IDX 39 57 65 58 48 59 64 60 49 61 52 62 63 63 79 64 50 65 51 66
REMARK SMILES IDX 62 68 80 69 53 70 40 71 41 72 46 73 42 74 43 75 45 76 47 77
REMARK SMILES IDX 44 78 66 79 67 80 72 81 68 82 69 83 71 84 73 85 70 86 54 87
REMARK SMILES IDX 55 88 60 89 56 90 57 91 59 92 61 93 58 94
REMARK H PARENT 24 4 9 25 28 37 78 56 52 67
REMARK Flexibility Score: inf
ROOT
ATOM      1  C   UNL A   1      35.427  32.538  28.078  1.00  0.00     0.260 C 
ATOM      2  O   UNL A   1      36.646  32.741  28.000  1.00  0.00    -0.271 OA
ATOM      3  N   UNL A   1      34.709  33.516  28.690  1.00  0.00    -0.353 N 
ATOM      4  H   UNL A   1      35.256  34.222  29.105  1.00  0.00     0.163 HD
ENDROOT
BRANCH   1   5
ATOM      5  C   UNL A   1      34.840  31.183  27.595  1.00  0.00     0.258 C 
ATOM      6  C   UNL A   1      35.804  30.061  27.979  1.00  0.00     0.064 C 
BRANCH   5   7
ATOM      7  O   UNL A   1      33.446  30.918  27.622  1.00  0.00    -0.481 OA
BRANCH   7   8
ATOM      8  C   UNL A   1      32.804  29.887  27.018  1.00  0.00     0.120 A 
ATOM      9  C   UNL A   1      31.385  27.981  25.501  1.00  0.00    -0.024 A 
ATOM     10  C   UNL A   1      31.681  27.754  26.846  1.00  0.00     0.012 A 
ATOM     11  C   UNL A   1      31.806  29.169  24.904  1.00  0.00     0.012 A 
ATOM     12  C   UNL A   1      32.393  28.695  27.594  1.00  0.00     0.047 A 
ATOM     13  C   UNL A   1      32.530  30.101  25.658  1.00  0.00     0.047 A 
BRANCH   9  14
ATOM     14  C   UNL A   1      30.712  26.899  24.781  1.00  0.00     0.029 C 
ATOM     15  N   UNL A   1      33.074  24.573  23.291  1.00  0.00    -0.198 N 
ATOM     16  C   UNL A   1      32.825  25.728  24.015  1.00  0.00     0.285 C 
ATOM     17  C   UNL A   1      32.043  23.679  23.110  1.00  0.00     0.168 C 
ATOM     18  O   UNL A   1      33.683  26.483  24.437  1.00  0.00    -0.266 OA
ATOM     19  C   UNL A   1      31.353  25.871  24.209  1.00  0.00     0.082 C 
ATOM     20  S   UNL A   1      30.540  24.456  23.623  1.00  0.00    -0.052 SA
ATOM     21  S   UNL A   1      32.118  22.118  22.535  1.00  0.00    -0.050 S 
BRANCH  15  22
ATOM     22  N   UNL A   1      34.405  24.299  23.006  1.00  0.00    -0.254 N 
ATOM     23  C   UNL A   1      35.208  23.363  23.616  1.00  0.00     0.273 C 
ATOM     24  O   UNL A   1      36.269  23.092  23.048  1.00  0.00    -0.267 OA
ATOM     25  H   UNL A   1      34.819  24.834  22.291  1.00  0.00     0.192 HD
BRANCH  23  26
ATOM     26  C   UNL A   1      34.923  22.803  24.932  1.00  0.00     0.082 A 
ATOM     27  C   UNL A   1      34.599  20.154  24.825  1.00  0.00     0.088 C 
ATOM     28  C   UNL A   1      34.662  21.517  25.390  1.00  0.00     0.113 A 
ATOM     29  O   UNL A   1      34.463  21.529  26.742  1.00  0.00    -0.469 OA
ATOM     30  C   UNL A   1      34.658  22.791  27.180  1.00  0.00     0.196 A 
ATOM     31  C   UNL A   1      34.965  23.605  26.123  1.00  0.00     0.056 A 
ENDBRANCH  23  26
ENDBRANCH  15  22
ENDBRANCH   9  14
ENDBRANCH   7   8
ENDBRANCH   5   7
ENDBRANCH   1   5
BRANCH   3  32
ATOM     32  C   UNL A   1      33.284  33.704  28.839  1.00  0.00     0.118 C 
BRANCH  32  33
ATOM     33  C   UNL A   1      32.835  35.126  28.520  1.00  0.00     0.042 C 
BRANCH  33  34
ATOM     34  C   UNL A   1      33.396  36.160  29.493  1.00  0.00     0.118 C 
BRANCH  34  35
ATOM     35  N   UNL A   1      32.564  36.292  30.684  1.00  0.00    -0.352 N 
ATOM     36  C   UNL A   1      32.675  35.722  31.925  1.00  0.00     0.251 C 
ATOM     37  H   UNL A   1      31.792  36.895  30.578  1.00  0.00     0.163 HD
ATOM     38  O   UNL A   1      31.737  35.814  32.714  1.00  0.00    -0.269 OA
BRANCH  36  39
ATOM     39  C   UNL A   1      33.895  34.988  32.322  1.00  0.00     0.039 A 
ATOM     40  C   UNL A   1      33.758  33.701  32.853  1.00  0.00     0.014 A 
ATOM     41  C   UNL A   1      35.160  35.573  32.233  1.00  0.00     0.014 A 
ATOM     42  C   UNL A   1      34.890  32.983  33.242  1.00  0.00     0.010 A 
ATOM     43  C   UNL A   1      36.293  34.831  32.551  1.00  0.00     0.010 A 
ATOM     44  C   UNL A   1      36.169  33.532  33.067  1.00  0.00    -0.014 A 
BRANCH  44  45
ATOM     45  C   UNL A   1      37.390  32.772  33.428  1.00  0.00     0.031 A 
ATOM     46  C   UNL A   1      38.112  33.071  34.712  1.00  0.00     0.074 A 
ATOM     47  C   UNL A   1      37.882  31.860  32.570  1.00  0.00     0.049 A 
ATOM     48  N   UNL A   1      39.237  32.578  35.162  1.00  0.00    -0.248 NA
ATOM     49  C   UNL A   1      37.500  34.077  35.595  1.00  0.00     0.031 C 
ATOM     50  C   UNL A   1      37.290  31.508  31.277  1.00  0.00     0.029 A 
ATOM     51  N   UNL A   1      38.998  31.068  32.651  1.00  0.00    -0.354 N 
ATOM     52  C   UNL A   1      39.477  33.225  36.368  1.00  0.00     0.074 A 
ATOM     53  C   UNL A   1      38.407  34.182  36.554  1.00  0.00     0.031 C 
ATOM     54  C   UNL A   1      38.036  30.552  30.698  1.00  0.00     0.029 A 
ATOM     55  C   UNL A   1      39.175  30.252  31.560  1.00  0.00     0.049 A 
ATOM     56  H   UNL A   1      39.615  31.081  33.419  1.00  0.00     0.167 HD
ATOM     57  C   UNL A   1      40.485  33.025  37.251  1.00  0.00     0.037 A 
ATOM     58  C   UNL A   1      40.151  29.367  31.284  1.00  0.00     0.037 A 
ATOM     59  C   UNL A   1      41.533  32.056  37.073  1.00  0.00     0.049 A 
ATOM     60  C   UNL A   1      41.263  29.169  32.274  1.00  0.00     0.074 A 
ATOM     61  C   UNL A   1      42.572  31.740  37.930  1.00  0.00     0.029 A 
ATOM     62  N   UNL A   1      41.671  31.241  35.959  1.00  0.00    -0.354 N 
ATOM     63  N   UNL A   1      41.451  29.753  33.432  1.00  0.00    -0.248 NA
ATOM     64  C   UNL A   1      42.296  28.187  31.919  1.00  0.00     0.031 C 
ATOM     65  C   UNL A   1      43.360  30.758  37.318  1.00  0.00     0.029 A 
ATOM     66  C   UNL A   1      42.788  30.434  36.098  1.00  0.00     0.049 A 
ATOM     67  H   UNL A   1      41.065  31.238  35.183  1.00  0.00     0.167 HD
ATOM     68  C   UNL A   1      42.607  29.192  33.958  1.00  0.00     0.074 A 
ATOM     69  C   UNL A   1      43.071  28.213  32.995  1.00  0.00     0.031 C 
ATOM     70  C   UNL A   1      43.228  29.461  35.132  1.00  0.00     0.037 A 
BRANCH  57  71
ATOM     71  C   UNL A   1      40.493  33.875  38.489  1.00  0.00     0.057 A 
ATOM     72  C   UNL A   1      39.779  33.509  39.638  1.00  0.00     0.134 A 
ATOM     73  C   UNL A   1      41.230  35.065  38.538  1.00  0.00     0.134 A 
ATOM     74  F   UNL A   1      39.041  32.389  39.652  1.00  0.00    -0.206 F 
ATOM     75  C   UNL A   1      39.773  34.311  40.781  1.00  0.00     0.040 A 
ATOM     76  C   UNL A   1      41.253  35.861  39.684  1.00  0.00     0.040 A 
ATOM     77  F   UNL A   1      41.941  35.471  37.476  1.00  0.00    -0.206 F 
ATOM     78  C   UNL A   1      40.516  35.489  40.807  1.00  0.00     0.006 A 
ENDBRANCH  57  71
BRANCH  58  79
ATOM     79  C   UNL A   1      40.099  28.576  30.030  1.00  0.00     0.057 A 
ATOM     80  C   UNL A   1      39.352  27.394  29.960  1.00  0.00     0.134 A 
ATOM     81  C   UNL A   1      40.785  28.977  28.878  1.00  0.00     0.134 A 
ATOM     82  F   UNL A   1      38.687  26.951  31.038  1.00  0.00    -0.206 F 
ATOM     83  C   UNL A   1      39.300  26.630  28.793  1.00  0.00     0.040 A 
ATOM     84  C   UNL A   1      40.723  28.234  27.697  1.00  0.00     0.040 A 
ATOM     85  F   UNL A   1      41.510  30.104  28.879  1.00  0.00    -0.206 F 
ATOM     86  C   UNL A   1      39.983  27.054  27.655  1.00  0.00     0.006 A 
ENDBRANCH  58  79
BRANCH  70  87
ATOM     87  C   UNL A   1      44.457  28.663  35.453  1.00  0.00     0.057 A 
ATOM     88  C   UNL A   1      45.733  29.078  35.053  1.00  0.00     0.134 A 
ATOM     89  C   UNL A   1      44.362  27.480  36.198  1.00  0.00     0.134 A 
ATOM     90  F   UNL A   1      45.887  30.193  34.325  1.00  0.00    -0.206 F 
ATOM     91  C   UNL A   1      46.871  28.334  35.368  1.00  0.00     0.040 A 
ATOM     92  C   UNL A   1      45.495  26.741  36.538  1.00  0.00     0.040 A 
ATOM     93  F   UNL A   1      43.168  27.032  36.615  1.00  0.00    -0.206 F 
ATOM     94  C   UNL A   1      46.754  27.166  36.118  1.00  0.00     0.006 A 
ENDBRANCH  70  87
ENDBRANCH  44  45
ENDBRANCH  36  39
ENDBRANCH  34  35
ENDBRANCH  33  34
ENDBRANCH  32  33
ENDBRANCH   3  32
TORSDOF 15
ENDMDL
MODEL 2
REMARK VINA RESULT:     -12.0      3.344      5.649
REMARK SMILES Cc1occc1C(=O)NN1C(=O)/C(=C\c2ccc(O[C@H](C)C(=O)NCCCNC(=O)c3ccc(-c4c5nc(c(-c6c(F)cccc6F)c6ccc([nH]6)c(-c6c(F)cccc6F)c6nc(c(-c7c(F)cccc7F)c7ccc4[nH]7)C=C6)C=C5)cc3)cc2)SC1=S
REMARK SMILES IDX 22 1 23 2 24 3 20 5 21 6 19 7 18 8 15 9 16 10 86 11 17 12
REMARK SMILES IDX 85 13 14 14 10 15 11 16 88 17 12 18 13 19 87 20 89 21 9 22
REMARK SMILES IDX 7 23 8 24 6 26 1 27 2 28 3 29 4 30 5 31 25 32 26 33 27 34
REMARK SMILES IDX 28 35 29 36 30 38 31 39 32 40 84 41 33 42 83 43 34 44 35 45
REMARK SMILES IDX 36 46 77 47 37 48 82 49 76 50 78 51 38 52 81 53 75 54 74 55
REMARK SMILES IDX 39 57 65 58 48 59 64 60 49 61 52 62 63 63 79 64 50 65 51 66
REMARK SMILES IDX 62 68 80 69 53 70 40 71 41 72 46 73 42 74 43 75 45 76 47 77
REMARK SMILES IDX 44 78 66 79 67 80 72 81 68 82 69 83 71 84 73 85 70 86 54 87
REMARK SMILES IDX 55 88 60 89 56 90 57 91 59 92 61 93 58 94
REMARK H PARENT 24 4 9 25 28 37 78 56 52 67
REMARK Flexibility Score: inf
ROOT
ATOM      1  C   UNL A   1      30.148  29.239  22.769  1.00  0.00     0.260 C 
ATOM      2  O   UNL A   1      29.960  29.612  21.602  1.00  0.00    -0.271 OA
ATOM      3  N   UNL A   1      31.300  29.672  23.345  1.00  0.00    -0.353 N 
ATOM      4  H   UNL A   1      31.911  30.137  22.728  1.00  0.00     0.163 HD
ENDROOT
BRANCH   1   5
ATOM      5  C   UNL A   1      29.148  28.249  23.429  1.00  0.00     0.258 C 
ATOM      6  C   UNL A   1      27.723  28.702  23.116  1.00  0.00     0.064 C 
BRANCH   5   7
ATOM      7  O   UNL A   1      29.415  26.858  23.509  1.00  0.00    -0.481 OA
BRANCH   7   8
ATOM      8  C   UNL A   1      30.626  26.272  23.685  1.00  0.00     0.120 A 
ATOM      9  C   UNL A   1      33.086  24.896  23.730  1.00  0.00    -0.024 A 
ATOM     10  C   UNL A   1      32.545  25.441  24.896  1.00  0.00     0.012 A 
ATOM     11  C   UNL A   1      32.395  25.044  22.528  1.00  0.00     0.012 A 
ATOM     12  C   UNL A   1      31.331  26.131  24.871  1.00  0.00     0.047 A 
ATOM     13  C   UNL A   1      31.185  25.748  22.509  1.00  0.00     0.047 A 
BRANCH   9  14
ATOM     14  C   UNL A   1      34.403  24.269  23.844  1.00  0.00     0.029 C 
ATOM     15  N   UNL A   1      34.219  20.965  25.348  1.00  0.00    -0.198 N 
ATOM     16  C   UNL A   1      33.592  22.129  24.934  1.00  0.00     0.285 C 
ATOM     17  C   UNL A   1      35.500  20.719  24.907  1.00  0.00     0.168 C 
ATOM     18  O   UNL A   1      32.402  22.362  25.061  1.00  0.00    -0.266 OA
ATOM     19  C   UNL A   1      34.600  23.022  24.293  1.00  0.00     0.082 C 
ATOM     20  S   UNL A   1      36.114  22.191  24.145  1.00  0.00    -0.052 SA
ATOM     21  S   UNL A   1      36.376  19.307  25.016  1.00  0.00    -0.050 S 
BRANCH  15  22
ATOM     22  N   UNL A   1      33.418  20.028  25.987  1.00  0.00    -0.254 N 
ATOM     23  C   UNL A   1      32.951  18.844  25.465  1.00  0.00     0.273 C 
ATOM     24  O   UNL A   1      32.482  18.034  26.268  1.00  0.00    -0.267 OA
ATOM     25  H   UNL A   1      33.156  20.233  26.913  1.00  0.00     0.192 HD
BRANCH  23  26
ATOM     26  C   UNL A   1      32.869  18.580  24.033  1.00  0.00     0.082 A 
ATOM     27  C   UNL A   1      34.197  16.363  23.362  1.00  0.00     0.088 C 
ATOM     28  C   UNL A   1      33.393  17.591  23.209  1.00  0.00     0.113 A 
ATOM     29  O   UNL A   1      33.005  17.800  21.915  1.00  0.00    -0.469 OA
ATOM     30  C   UNL A   1      32.181  18.870  21.896  1.00  0.00     0.196 A 
ATOM     31  C   UNL A   1      32.042  19.370  23.163  1.00  0.00     0.056 A 
ENDBRANCH  23  26
ENDBRANCH  15  22
ENDBRANCH   9  14
ENDBRANCH   7   8
ENDBRANCH   5   7
ENDBRANCH   1   5
BRANCH   3  32
ATOM     32  C   UNL A   1      31.787  29.570  24.701  1.00  0.00     0.118 C 
BRANCH  32  33
ATOM     33  C   UNL A   1      33.232  29.088  24.779  1.00  0.00     0.042 C 
BRANCH  33  34
ATOM     34  C   UNL A   1      33.811  29.172  26.189  1.00  0.00     0.118 C 
BRANCH  34  35
ATOM     35  N   UNL A   1      33.712  30.520  26.737  1.00  0.00    -0.352 N 
ATOM     36  C   UNL A   1      34.440  31.149  27.713  1.00  0.00     0.251 C 
ATOM     37  H   UNL A   1      33.002  31.073  26.337  1.00  0.00     0.163 HD
ATOM     38  O   UNL A   1      34.044  32.222  28.161  1.00  0.00    -0.269 OA
BRANCH  36  39
ATOM     39  C   UNL A   1      35.683  30.550  28.244  1.00  0.00     0.039 A 
ATOM     40  C   UNL A   1      36.897  30.870  27.626  1.00  0.00     0.014 A 
ATOM     41  C   UNL A   1      35.660  29.636  29.300  1.00  0.00     0.014 A 
ATOM     42  C   UNL A   1      38.088  30.317  28.100  1.00  0.00     0.010 A 
ATOM     43  C   UNL A   1      36.853  29.142  29.819  1.00  0.00     0.010 A 
ATOM     44  C   UNL A   1      38.077  29.471  29.219  1.00  0.00    -0.014 A 
BRANCH  44  45
ATOM     45  C   UNL A   1      39.334  28.909  29.771  1.00  0.00     0.031 A 
ATOM     46  C   UNL A   1      39.959  29.520  30.993  1.00  0.00     0.074 A 
ATOM     47  C   UNL A   1      39.943  27.893  29.133  1.00  0.00     0.049 A 
ATOM     48  N   UNL A   1      41.095  29.228  31.575  1.00  0.00    -0.248 NA
ATOM     49  C   UNL A   1      39.222  30.622  31.632  1.00  0.00     0.031 C 
ATOM     50  C   UNL A   1      39.452  27.241  27.917  1.00  0.00     0.029 A 
ATOM     51  N   UNL A   1      41.113  27.235  29.413  1.00  0.00    -0.354 N 
ATOM     52  C   UNL A   1      41.217  30.120  32.633  1.00  0.00     0.074 A 
ATOM     53  C   UNL A   1      40.065  30.996  32.582  1.00  0.00     0.031 C 
ATOM     54  C   UNL A   1      40.302  26.260  27.571  1.00  0.00     0.029 A 
ATOM     55  C   UNL A   1      41.413  26.239  28.517  1.00  0.00     0.049 A 
ATOM     56  H   UNL A   1      41.684  27.455  30.185  1.00  0.00     0.167 HD
ATOM     57  C   UNL A   1      42.188  30.190  33.575  1.00  0.00     0.037 A 
ATOM     58  C   UNL A   1      42.470  25.407  28.462  1.00  0.00     0.037 A 
ATOM     59  C   UNL A   1      43.319  29.301  33.636  1.00  0.00     0.049 A 
ATOM     60  C   UNL A   1      43.539  25.509  29.511  1.00  0.00     0.074 A 
ATOM     61  C   UNL A   1      44.332  29.255  34.576  1.00  0.00     0.029 A 
ATOM     62  N   UNL A   1      43.581  28.298  32.715  1.00  0.00    -0.354 N 
ATOM     63  N   UNL A   1      43.617  26.326  30.534  1.00  0.00    -0.248 NA
ATOM     64  C   UNL A   1      44.665  24.573  29.401  1.00  0.00     0.031 C 
ATOM     65  C   UNL A   1      45.227  28.246  34.205  1.00  0.00     0.029 A 
ATOM     66  C   UNL A   1      44.750  27.637  33.055  1.00  0.00     0.049 A 
ATOM     67  H   UNL A   1      43.020  28.087  31.933  1.00  0.00     0.167 HD
ATOM     68  C   UNL A   1      44.784  25.985  31.204  1.00  0.00     0.074 A 
ATOM     69  C   UNL A   1      45.377  24.880  30.477  1.00  0.00     0.031 C 
ATOM     70  C   UNL A   1      45.318  26.536  32.322  1.00  0.00     0.037 A 
BRANCH  57  71
ATOM     71  C   UNL A   1      42.061  31.265  34.615  1.00  0.00     0.057 A 
ATOM     72  C   UNL A   1      41.286  31.086  35.769  1.00  0.00     0.134 A 
ATOM     73  C   UNL A   1      42.730  32.487  34.469  1.00  0.00     0.134 A 
ATOM     74  F   UNL A   1      40.609  29.944  35.962  1.00  0.00    -0.206 F 
ATOM     75  C   UNL A   1      41.154  32.095  36.725  1.00  0.00     0.040 A 
ATOM     76  C   UNL A   1      42.627  33.493  35.431  1.00  0.00     0.040 A 
ATOM     77  F   UNL A   1      43.493  32.723  33.392  1.00  0.00    -0.206 F 
ATOM     78  C   UNL A   1      41.830  33.302  36.559  1.00  0.00     0.006 A 
ENDBRANCH  57  71
BRANCH  58  79
ATOM     79  C   UNL A   1      42.549  24.382  27.392  1.00  0.00     0.057 A 
ATOM     80  C   UNL A   1      42.058  23.088  27.604  1.00  0.00     0.134 A 
ATOM     81  C   UNL A   1      43.109  24.665  26.142  1.00  0.00     0.134 A 
ATOM     82  F   UNL A   1      41.525  22.754  28.789  1.00  0.00    -0.206 F 
ATOM     83  C   UNL A   1      42.134  22.106  26.615  1.00  0.00     0.040 A 
ATOM     84  C   UNL A   1      43.171  23.698  25.135  1.00  0.00     0.040 A 
ATOM     85  F   UNL A   1      43.588  25.888  25.875  1.00  0.00    -0.206 F 
ATOM     86  C   UNL A   1      42.687  22.414  25.373  1.00  0.00     0.006 A 
ENDBRANCH  58  79
BRANCH  70  87
ATOM     87  C   UNL A   1      46.587  25.929  32.843  1.00  0.00     0.057 A 
ATOM     88  C   UNL A   1      46.578  24.897  33.790  1.00  0.00     0.134 A 
ATOM     89  C   UNL A   1      47.831  26.362  32.365  1.00  0.00     0.134 A 
ATOM     90  F   UNL A   1      45.420  24.450  34.296  1.00  0.00    -0.206 F 
ATOM     91  C   UNL A   1      47.765  24.330  34.258  1.00  0.00     0.040 A 
ATOM     92  C   UNL A   1      49.022  25.787  32.808  1.00  0.00     0.040 A 
ATOM     93  F   UNL A   1      47.906  27.343  31.453  1.00  0.00    -0.206 F 
ATOM     94  C   UNL A   1      48.990  24.771  33.762  1.00  0.00     0.006 A 
ENDBRANCH  70  87
ENDBRANCH  44  45
ENDBRANCH  36  39
ENDBRANCH  34  35
ENDBRANCH  33  34
ENDBRANCH  32  33
ENDBRANCH   3  32
TORSDOF 15
ENDMDL
MODEL 3
REMARK VINA RESULT:     -11.9      6.281     11.888
REMARK SMILES Cc1occc1C(=O)NN1C(=O)/C(=C\c2ccc(O[C@H](C)C(=O)NCCCNC(=O)c3ccc(-c4c5nc(c(-c6c(F)cccc6F)c6ccc([nH]6)c(-c6c(F)cccc6F)c6nc(c(-c7c(F)cccc7F)c7ccc4[nH]7)C=C6)C=C5)cc3)cc2)SC1=S
REMARK SMILES IDX 22 1 23 2 24 3 20 5 21 6 19 7 18 8 15 9 16 10 86 11 17 12
REMARK SMILES IDX 85 13 14 14 10 15 11 16 88 17 12 18 13 19 87 20 89 21 9 22
REMARK SMILES IDX 7 23 8 24 6 26 1 27 2 28 3 29 4 30 5 31 25 32 26 33 27 34
REMARK SMILES IDX 28 35 29 36 30 38 31 39 32 40 84 41 33 42 83 43 34 44 35 45
REMARK SMILES IDX 36 46 77 47 37 48 82 49 76 50 78 51 38 52 81 53 75 54 74 55
REMARK SMILES IDX 39 57 65 58 48 59 64 60 49 61 52 62 63 63 79 64 50 65 51 66
REMARK SMILES IDX 62 68 80 69 53 70 40 71 41 72 46 73 42 74 43 75 45 76 47 77
REMARK SMILES IDX 44 78 66 79 67 80 72 81 68 82 69 83 71 84 73 85 70 86 54 87
REMARK SMILES IDX 55 88 60 89 56 90 57 91 59 92 61 93 58 94
REMARK H PARENT 24 4 9 25 28 37 78 56 52 67
REMARK Flexibility Score: inf
ROOT
ATOM      1  C   UNL A   1      40.621  22.053  27.194  1.00  0.00     0.260 C 
ATOM      2  O   UNL A   1      41.146  22.724  28.094  1.00  0.00    -0.271 OA
ATOM      3  N   UNL A   1      41.391  21.059  26.678  1.00  0.00    -0.353 N 
ATOM      4  H   UNL A   1      42.323  21.060  27.000  1.00  0.00     0.163 HD
ENDROOT
BRANCH   1   5
ATOM      5  C   UNL A   1      39.218  22.451  26.658  1.00  0.00     0.258 C 
ATOM      6  C   UNL A   1      39.037  23.960  26.817  1.00  0.00     0.064 C 
BRANCH   5   7
ATOM      7  O   UNL A   1      38.639  21.814  25.530  1.00  0.00    -0.481 OA
BRANCH   7   8
ATOM      8  C   UNL A   1      37.346  21.896  25.126  1.00  0.00     0.120 A 
ATOM      9  C   UNL A   1      34.745  22.398  24.164  1.00  0.00    -0.024 A 
ATOM     10  C   UNL A   1      34.986  21.378  25.085  1.00  0.00     0.012 A 
ATOM     11  C   UNL A   1      35.812  23.172  23.713  1.00  0.00     0.012 A 
ATOM     12  C   UNL A   1      36.277  21.124  25.554  1.00  0.00     0.047 A 
ATOM     13  C   UNL A   1      37.106  22.903  24.178  1.00  0.00     0.047 A 
BRANCH   9  14
ATOM     14  C   UNL A   1      33.374  22.529  23.667  1.00  0.00     0.029 C 
ATOM     15  N   UNL A   1      31.472  24.998  25.537  1.00  0.00    -0.198 N 
ATOM     16  C   UNL A   1      32.646  24.291  25.337  1.00  0.00     0.285 C 
ATOM     17  C   UNL A   1      30.526  24.992  24.536  1.00  0.00     0.168 C 
ATOM     18  O   UNL A   1      33.644  24.391  26.030  1.00  0.00    -0.266 OA
ATOM     19  C   UNL A   1      32.493  23.423  24.134  1.00  0.00     0.082 C 
ATOM     20  S   UNL A   1      30.987  23.768  23.347  1.00  0.00    -0.052 SA
ATOM     21  S   UNL A   1      29.174  25.952  24.387  1.00  0.00    -0.050 S 
BRANCH  15  22
ATOM     22  N   UNL A   1      31.441  25.845  26.636  1.00  0.00    -0.254 N 
ATOM     23  C   UNL A   1      31.626  27.208  26.637  1.00  0.00     0.273 C 
ATOM     24  O   UNL A   1      31.301  27.808  27.665  1.00  0.00    -0.267 OA
ATOM     25  H   UNL A   1      31.270  25.424  27.510  1.00  0.00     0.192 HD
BRANCH  23  26
ATOM     26  C   UNL A   1      32.295  27.924  25.557  1.00  0.00     0.082 A 
ATOM     27  C   UNL A   1      30.613  29.536  24.254  1.00  0.00     0.088 C 
ATOM     28  C   UNL A   1      31.865  28.837  24.602  1.00  0.00     0.113 A 
ATOM     29  O   UNL A   1      32.911  29.218  23.809  1.00  0.00    -0.469 OA
ATOM     30  C   UNL A   1      34.027  28.621  24.278  1.00  0.00     0.196 A 
ATOM     31  C   UNL A   1      33.716  27.840  25.358  1.00  0.00     0.056 A 
ENDBRANCH  23  26
ENDBRANCH  15  22
ENDBRANCH   9  14
ENDBRANCH   7   8
ENDBRANCH   5   7
ENDBRANCH   1   5
BRANCH   3  32
ATOM     32  C   UNL A   1      41.085  20.002  25.743  1.00  0.00     0.118 C 
BRANCH  32  33
ATOM     33  C   UNL A   1      41.749  18.677  26.105  1.00  0.00     0.042 C 
BRANCH  33  34
ATOM     34  C   UNL A   1      43.262  18.796  26.275  1.00  0.00     0.118 C 
BRANCH  34  35
ATOM     35  N   UNL A   1      43.964  18.641  25.006  1.00  0.00    -0.352 N 
ATOM     36  C   UNL A   1      44.559  19.567  24.189  1.00  0.00     0.251 C 
ATOM     37  H   UNL A   1      44.023  17.713  24.682  1.00  0.00     0.163 HD
ATOM     38  O   UNL A   1      44.911  19.234  23.060  1.00  0.00    -0.269 OA
BRANCH  36  39
ATOM     39  C   UNL A   1      44.769  20.959  24.639  1.00  0.00     0.039 A 
ATOM     40  C   UNL A   1      44.239  21.999  23.867  1.00  0.00     0.014 A 
ATOM     41  C   UNL A   1      45.528  21.252  25.774  1.00  0.00     0.014 A 
ATOM     42  C   UNL A   1      44.424  23.325  24.262  1.00  0.00     0.010 A 
ATOM     43  C   UNL A   1      45.650  22.569  26.208  1.00  0.00     0.010 A 
ATOM     44  C   UNL A   1      45.107  23.618  25.452  1.00  0.00    -0.014 A 
BRANCH  44  45
ATOM     45  C   UNL A   1      45.276  25.016  25.918  1.00  0.00     0.031 A 
ATOM     46  C   UNL A   1      46.628  25.670  25.863  1.00  0.00     0.074 A 
ATOM     47  C   UNL A   1      44.227  25.670  26.450  1.00  0.00     0.049 A 
ATOM     48  N   UNL A   1      46.996  26.848  26.300  1.00  0.00    -0.248 NA
ATOM     49  C   UNL A   1      47.718  24.886  25.259  1.00  0.00     0.031 C 
ATOM     50  C   UNL A   1      42.874  25.127  26.591  1.00  0.00     0.029 A 
ATOM     51  N   UNL A   1      44.136  26.931  26.980  1.00  0.00    -0.354 N 
ATOM     52  C   UNL A   1      48.358  26.938  26.042  1.00  0.00     0.074 A 
ATOM     53  C   UNL A   1      48.761  25.677  25.457  1.00  0.00     0.031 C 
ATOM     54  C   UNL A   1      42.083  26.059  27.147  1.00  0.00     0.029 A 
ATOM     55  C   UNL A   1      42.879  27.248  27.434  1.00  0.00     0.049 A 
ATOM     56  H   UNL A   1      44.899  27.552  27.030  1.00  0.00     0.167 HD
ATOM     57  C   UNL A   1      49.192  27.984  26.252  1.00  0.00     0.037 A 
ATOM     58  C   UNL A   1      42.423  28.369  28.022  1.00  0.00     0.037 A 
ATOM     59  C   UNL A   1      48.782  29.245  26.812  1.00  0.00     0.049 A 
ATOM     60  C   UNL A   1      43.370  29.513  28.253  1.00  0.00     0.074 A 
ATOM     61  C   UNL A   1      49.537  30.384  27.021  1.00  0.00     0.029 A 
ATOM     62  N   UNL A   1      47.497  29.530  27.249  1.00  0.00    -0.354 N 
ATOM     63  N   UNL A   1      44.644  29.602  27.960  1.00  0.00    -0.248 NA
ATOM     64  C   UNL A   1      42.813  30.711  28.895  1.00  0.00     0.031 C 
ATOM     65  C   UNL A   1      48.717  31.349  27.617  1.00  0.00     0.029 A 
ATOM     66  C   UNL A   1      47.441  30.823  27.743  1.00  0.00     0.049 A 
ATOM     67  H   UNL A   1      46.736  28.906  27.215  1.00  0.00     0.167 HD
ATOM     68  C   UNL A   1      45.037  30.874  28.355  1.00  0.00     0.074 A 
ATOM     69  C   UNL A   1      43.862  31.524  28.900  1.00  0.00     0.031 C 
ATOM     70  C   UNL A   1      46.260  31.453  28.274  1.00  0.00     0.037 A 
BRANCH  57  71
ATOM     71  C   UNL A   1      50.633  27.802  25.870  1.00  0.00     0.057 A 
ATOM     72  C   UNL A   1      51.607  27.452  26.814  1.00  0.00     0.134 A 
ATOM     73  C   UNL A   1      51.050  27.968  24.543  1.00  0.00     0.134 A 
ATOM     74  F   UNL A   1      51.277  27.293  28.104  1.00  0.00    -0.206 F 
ATOM     75  C   UNL A   1      52.949  27.304  26.459  1.00  0.00     0.040 A 
ATOM     76  C   UNL A   1      52.384  27.796  24.171  1.00  0.00     0.040 A 
ATOM     77  F   UNL A   1      50.168  28.297  23.587  1.00  0.00    -0.206 F 
ATOM     78  C   UNL A   1      53.339  27.471  25.132  1.00  0.00     0.006 A 
ENDBRANCH  57  71
BRANCH  58  79
ATOM     79  C   UNL A   1      40.993  28.478  28.400  1.00  0.00     0.057 A 
ATOM     80  C   UNL A   1      40.042  28.939  27.481  1.00  0.00     0.134 A 
ATOM     81  C   UNL A   1      40.540  28.124  29.676  1.00  0.00     0.134 A 
ATOM     82  F   UNL A   1      40.421  29.308  26.248  1.00  0.00    -0.206 F 
ATOM     83  C   UNL A   1      38.695  29.058  27.821  1.00  0.00     0.040 A 
ATOM     84  C   UNL A   1      39.191  28.217  30.022  1.00  0.00     0.040 A 
ATOM     85  F   UNL A   1      41.400  27.667  30.597  1.00  0.00    -0.206 F 
ATOM     86  C   UNL A   1      38.265  28.691  29.095  1.00  0.00     0.006 A 
ENDBRANCH  58  79
BRANCH  70  87
ATOM     87  C   UNL A   1      46.378  32.869  28.755  1.00  0.00     0.057 A 
ATOM     88  C   UNL A   1      46.724  33.173  30.077  1.00  0.00     0.134 A 
ATOM     89  C   UNL A   1      46.173  33.939  27.874  1.00  0.00     0.134 A 
ATOM     90  F   UNL A   1      46.918  32.192  30.971  1.00  0.00    -0.206 F 
ATOM     91  C   UNL A   1      46.844  34.494  30.511  1.00  0.00     0.040 A 
ATOM     92  C   UNL A   1      46.314  35.262  28.291  1.00  0.00     0.040 A 
ATOM     93  F   UNL A   1      45.845  33.713  26.593  1.00  0.00    -0.206 F 
ATOM     94  C   UNL A   1      46.645  35.542  29.616  1.00  0.00     0.006 A 
ENDBRANCH  70  87
ENDBRANCH  44  45
ENDBRANCH  36  39
ENDBRANCH  34  35
ENDBRANCH  33  34
ENDBRANCH  32  33
ENDBRANCH   3  32
TORSDOF 15
ENDMDL
