MODEL 1
REMARK VINA RESULT:     -12.8      0.000      0.000
REMARK SMILES COc1ccc2c(c1)c(CC(=O)NCCCNC(=O)c1ccc(-c3c4nc(c(-c5c(F)cccc5F)c5ccc([nH]5)c(-c5c(F)cccc5F)c5nc(c(-c6c(F)cccc6F)c6ccc3[nH]6)C=C5)C=C4)cc1)c(C)n2Cc1ccc(Br)cc1
REMARK SMILES IDX 14 1 13 2 11 3 12 4 10 6 9 7 3 8 4 9 8 10 5 11 7 12 6 13
REMARK SMILES IDX 76 14 74 15 75 16 2 17 1 18 77 19 78 20 79 21 84 22 80 23
REMARK SMILES IDX 83 24 81 25 82 26 15 27 16 28 17 29 18 30 19 32 20 33 21 34
REMARK SMILES IDX 73 35 22 36 72 37 23 38 24 39 25 40 66 41 26 42 71 43 65 44
REMARK SMILES IDX 67 45 27 46 70 47 64 48 63 49 28 51 54 52 37 53 53 54 38 55
REMARK SMILES IDX 41 56 52 57 68 58 39 59 40 60 51 62 69 63 42 64 29 65 30 66
REMARK SMILES IDX 35 67 31 68 32 69 34 70 36 71 33 72 55 73 56 74 61 75 57 76
REMARK SMILES IDX 58 77 60 78 62 79 59 80 43 81 44 82 49 83 45 84 46 85 48 86
REMARK SMILES IDX 50 87 47 88
REMARK H PARENT 13 5 17 31 67 50 41 61
REMARK Flexibility Score: inf
ROOT
ATOM      1  C   UNL A   1      32.895  30.329  26.310  1.00  0.00     0.117 C 
ENDROOT
BRANCH   1   2
ATOM      2  N   UNL A   1      32.132  29.184  26.782  1.00  0.00    -0.356 N 
ATOM      3  C   UNL A   1      32.429  27.849  26.760  1.00  0.00     0.224 C 
ATOM      4  O   UNL A   1      31.609  27.070  27.233  1.00  0.00    -0.275 OA
ATOM      5  H   UNL A   1      31.260  29.406  27.182  1.00  0.00     0.163 HD
BRANCH   3   6
ATOM      6  C   UNL A   1      33.771  27.357  26.240  1.00  0.00     0.138 C 
BRANCH   6   7
ATOM      7  C   UNL A   1      33.655  26.359  25.129  1.00  0.00    -0.010 A 
ATOM      8  C   UNL A   1      31.252  27.221  22.310  1.00  0.00     0.119 A 
ATOM      9  C   UNL A   1      31.573  26.141  21.495  1.00  0.00     0.048 A 
ATOM     10  C   UNL A   1      31.926  27.424  23.512  1.00  0.00     0.057 A 
ATOM     11  C   UNL A   1      32.537  25.203  21.889  1.00  0.00     0.031 A 
ATOM     12  C   UNL A   1      32.869  26.472  23.950  1.00  0.00     0.007 A 
ATOM     13  C   UNL A   1      33.156  25.367  23.141  1.00  0.00     0.049 A 
ATOM     14  N   UNL A   1      34.092  24.598  23.825  1.00  0.00    -0.340 N 
ATOM     15  C   UNL A   1      34.210  25.088  25.117  1.00  0.00     0.020 A 
ATOM     16  C   UNL A   1      34.849  24.393  26.269  1.00  0.00     0.065 C 
BRANCH   8  17
ATOM     17  O   UNL A   1      30.319  28.161  21.960  1.00  0.00    -0.497 OA
ATOM     18  C   UNL A   1      29.674  28.730  23.099  1.00  0.00     0.278 C 
ENDBRANCH   8  17
BRANCH  14  19
ATOM     19  C   UNL A   1      34.761  23.410  23.273  1.00  0.00     0.157 C 
BRANCH  19  20
ATOM     20  C   UNL A   1      34.165  22.114  23.788  1.00  0.00    -0.028 A 
ATOM     21  C   UNL A   1      34.942  21.263  24.584  1.00  0.00     0.007 A 
ATOM     22  C   UNL A   1      32.849  21.722  23.495  1.00  0.00     0.007 A 
ATOM     23  C   UNL A   1      34.498  20.009  24.962  1.00  0.00     0.016 A 
ATOM     24  C   UNL A   1      32.362  20.486  23.946  1.00  0.00     0.016 A 
ATOM     25  C   UNL A   1      33.207  19.631  24.648  1.00  0.00     0.017 A 
ATOM     26  Br  UNL A   1      32.667  17.946  25.252  1.00  0.00    -0.051 Br
ENDBRANCH  19  20
ENDBRANCH  14  19
ENDBRANCH   6   7
ENDBRANCH   3   6
ENDBRANCH   1   2
BRANCH   1  27
ATOM     27  C   UNL A   1      33.659  31.038  27.436  1.00  0.00     0.042 C 
BRANCH  27  28
ATOM     28  C   UNL A   1      35.027  30.423  27.746  1.00  0.00     0.118 C 
BRANCH  28  29
ATOM     29  N   UNL A   1      35.290  30.270  29.166  1.00  0.00    -0.352 N 
ATOM     30  C   UNL A   1      36.320  29.825  29.943  1.00  0.00     0.251 C 
ATOM     31  H   UNL A   1      34.525  30.563  29.711  1.00  0.00     0.163 HD
ATOM     32  O   UNL A   1      36.168  29.973  31.158  1.00  0.00    -0.269 OA
BRANCH  30  33
ATOM     33  C   UNL A   1      37.544  29.124  29.469  1.00  0.00     0.039 A 
ATOM     34  C   UNL A   1      38.197  28.088  30.125  1.00  0.00     0.014 A 
ATOM     35  C   UNL A   1      38.129  29.654  28.297  1.00  0.00     0.014 A 
ATOM     36  C   UNL A   1      39.467  27.698  29.703  1.00  0.00     0.010 A 
ATOM     37  C   UNL A   1      39.396  29.270  27.875  1.00  0.00     0.010 A 
ATOM     38  C   UNL A   1      40.103  28.357  28.638  1.00  0.00    -0.014 A 
BRANCH  38  39
ATOM     39  C   UNL A   1      41.513  28.043  28.378  1.00  0.00     0.031 A 
ATOM     40  C   UNL A   1      41.706  26.719  27.735  1.00  0.00     0.074 A 
ATOM     41  C   UNL A   1      42.543  28.860  28.701  1.00  0.00     0.049 A 
ATOM     42  N   UNL A   1      42.235  25.652  28.237  1.00  0.00    -0.248 NA
ATOM     43  C   UNL A   1      41.067  26.513  26.426  1.00  0.00     0.031 C 
ATOM     44  C   UNL A   1      42.475  30.268  29.117  1.00  0.00     0.029 A 
ATOM     45  N   UNL A   1      43.893  28.613  28.706  1.00  0.00    -0.354 N 
ATOM     46  C   UNL A   1      42.175  24.691  27.227  1.00  0.00     0.074 A 
ATOM     47  C   UNL A   1      41.310  25.220  26.210  1.00  0.00     0.031 C 
ATOM     48  C   UNL A   1      43.717  30.797  29.154  1.00  0.00     0.029 A 
ATOM     49  C   UNL A   1      44.681  29.750  28.877  1.00  0.00     0.049 A 
ATOM     50  H   UNL A   1      44.271  27.710  28.600  1.00  0.00     0.167 HD
ATOM     51  C   UNL A   1      43.054  23.653  27.196  1.00  0.00     0.037 A 
ATOM     52  C   UNL A   1      46.030  29.846  28.755  1.00  0.00     0.037 A 
ATOM     53  C   UNL A   1      43.676  23.465  28.481  1.00  0.00     0.049 A 
ATOM     54  C   UNL A   1      46.597  28.487  28.878  1.00  0.00     0.074 A 
ATOM     55  C   UNL A   1      43.318  22.941  29.702  1.00  0.00     0.029 A 
ATOM     56  N   UNL A   1      44.802  24.219  28.672  1.00  0.00    -0.354 N 
ATOM     57  N   UNL A   1      46.633  27.814  29.991  1.00  0.00    -0.248 NA
ATOM     58  C   UNL A   1      46.793  27.701  27.668  1.00  0.00     0.031 C 
ATOM     59  C   UNL A   1      44.123  23.620  30.665  1.00  0.00     0.029 A 
ATOM     60  C   UNL A   1      44.976  24.500  29.999  1.00  0.00     0.049 A 
ATOM     61  H   UNL A   1      45.403  24.520  27.953  1.00  0.00     0.167 HD
ATOM     62  C   UNL A   1      46.411  26.503  29.612  1.00  0.00     0.074 A 
ATOM     63  C   UNL A   1      46.682  26.471  28.178  1.00  0.00     0.031 C 
ATOM     64  C   UNL A   1      45.744  25.645  30.438  1.00  0.00     0.037 A 
BRANCH  51  65
ATOM     65  C   UNL A   1      43.726  23.161  25.928  1.00  0.00     0.057 A 
ATOM     66  C   UNL A   1      44.606  23.937  25.144  1.00  0.00     0.134 A 
ATOM     67  C   UNL A   1      43.774  21.777  25.674  1.00  0.00     0.134 A 
ATOM     68  F   UNL A   1      44.733  25.259  25.296  1.00  0.00    -0.206 F 
ATOM     69  C   UNL A   1      45.494  23.381  24.219  1.00  0.00     0.040 A 
ATOM     70  C   UNL A   1      44.691  21.206  24.780  1.00  0.00     0.040 A 
ATOM     71  F   UNL A   1      42.989  20.925  26.350  1.00  0.00    -0.206 F 
ATOM     72  C   UNL A   1      45.566  22.008  24.059  1.00  0.00     0.006 A 
ENDBRANCH  51  65
BRANCH  52  73
ATOM     73  C   UNL A   1      46.824  30.991  28.252  1.00  0.00     0.057 A 
ATOM     74  C   UNL A   1      47.512  31.830  29.146  1.00  0.00     0.134 A 
ATOM     75  C   UNL A   1      46.713  31.458  26.934  1.00  0.00     0.134 A 
ATOM     76  F   UNL A   1      47.604  31.524  30.448  1.00  0.00    -0.206 F 
ATOM     77  C   UNL A   1      48.051  33.061  28.761  1.00  0.00     0.040 A 
ATOM     78  C   UNL A   1      47.244  32.695  26.535  1.00  0.00     0.040 A 
ATOM     79  F   UNL A   1      46.035  30.756  26.015  1.00  0.00    -0.206 F 
ATOM     80  C   UNL A   1      47.908  33.505  27.453  1.00  0.00     0.006 A 
ENDBRANCH  52  73
BRANCH  64  81
ATOM     81  C   UNL A   1      45.652  26.031  31.885  1.00  0.00     0.057 A 
ATOM     82  C   UNL A   1      44.520  26.722  32.327  1.00  0.00     0.134 A 
ATOM     83  C   UNL A   1      46.668  25.807  32.825  1.00  0.00     0.134 A 
ATOM     84  F   UNL A   1      43.524  27.002  31.472  1.00  0.00    -0.206 F 
ATOM     85  C   UNL A   1      44.396  27.168  33.643  1.00  0.00     0.040 A 
ATOM     86  C   UNL A   1      46.549  26.228  34.152  1.00  0.00     0.040 A 
ATOM     87  F   UNL A   1      47.803  25.193  32.472  1.00  0.00    -0.206 F 
ATOM     88  C   UNL A   1      45.410  26.915  34.564  1.00  0.00     0.006 A 
ENDBRANCH  64  81
ENDBRANCH  38  39
ENDBRANCH  30  33
ENDBRANCH  28  29
ENDBRANCH  27  28
ENDBRANCH   1  27
TORSDOF 14
ENDMDL
MODEL 2
REMARK VINA RESULT:     -12.4      1.905      6.067
REMARK SMILES COc1ccc2c(c1)c(CC(=O)NCCCNC(=O)c1ccc(-c3c4nc(c(-c5c(F)cccc5F)c5ccc([nH]5)c(-c5c(F)cccc5F)c5nc(c(-c6c(F)cccc6F)c6ccc3[nH]6)C=C5)C=C4)cc1)c(C)n2Cc1ccc(Br)cc1
REMARK SMILES IDX 14 1 13 2 11 3 12 4 10 6 9 7 3 8 4 9 8 10 5 11 7 12 6 13
REMARK SMILES IDX 76 14 74 15 75 16 2 17 1 18 77 19 78 20 79 21 84 22 80 23
REMARK SMILES IDX 83 24 81 25 82 26 15 27 16 28 17 29 18 30 19 32 20 33 21 34
REMARK SMILES IDX 73 35 22 36 72 37 23 38 24 39 25 40 66 41 26 42 71 43 65 44
REMARK SMILES IDX 67 45 27 46 70 47 64 48 63 49 28 51 54 52 37 53 53 54 38 55
REMARK SMILES IDX 41 56 52 57 68 58 39 59 40 60 51 62 69 63 42 64 29 65 30 66
REMARK SMILES IDX 35 67 31 68 32 69 34 70 36 71 33 72 55 73 56 74 61 75 57 76
REMARK SMILES IDX 58 77 60 78 62 79 59 80 43 81 44 82 49 83 45 84 46 85 48 86
REMARK SMILES IDX 50 87 47 88
REMARK H PARENT 13 5 17 31 67 50 41 61
REMARK Flexibility Score: inf
ROOT
ATOM      1  C   UNL A   1      32.091  30.267  26.246  1.00  0.00     0.117 C 
ENDROOT
BRANCH   1   2
ATOM      2  N   UNL A   1      31.600  29.062  26.895  1.00  0.00    -0.356 N 
ATOM      3  C   UNL A   1      32.145  27.809  26.970  1.00  0.00     0.224 C 
ATOM      4  O   UNL A   1      31.529  26.950  27.591  1.00  0.00    -0.275 OA
ATOM      5  H   UNL A   1      30.736  29.163  27.354  1.00  0.00     0.163 HD
BRANCH   3   6
ATOM      6  C   UNL A   1      33.513  27.516  26.372  1.00  0.00     0.138 C 
BRANCH   6   7
ATOM      7  C   UNL A   1      33.478  26.530  25.246  1.00  0.00    -0.010 A 
ATOM      8  C   UNL A   1      31.121  27.320  22.367  1.00  0.00     0.119 A 
ATOM      9  C   UNL A   1      31.516  26.268  21.548  1.00  0.00     0.048 A 
ATOM     10  C   UNL A   1      31.749  27.537  23.591  1.00  0.00     0.057 A 
ATOM     11  C   UNL A   1      32.512  25.370  21.959  1.00  0.00     0.031 A 
ATOM     12  C   UNL A   1      32.722  26.623  24.045  1.00  0.00     0.007 A 
ATOM     13  C   UNL A   1      33.084  25.545  23.231  1.00  0.00     0.049 A 
ATOM     14  N   UNL A   1      34.035  24.810  23.933  1.00  0.00    -0.340 N 
ATOM     15  C   UNL A   1      34.091  25.287  25.234  1.00  0.00     0.020 A 
ATOM     16  C   UNL A   1      34.727  24.605  26.396  1.00  0.00     0.065 C 
BRANCH   8  17
ATOM     17  O   UNL A   1      30.157  28.221  22.001  1.00  0.00    -0.497 OA
ATOM     18  C   UNL A   1      29.430  28.718  23.123  1.00  0.00     0.278 C 
ENDBRANCH   8  17
BRANCH  14  19
ATOM     19  C   UNL A   1      34.774  23.662  23.386  1.00  0.00     0.157 C 
BRANCH  19  20
ATOM     20  C   UNL A   1      34.230  22.333  23.872  1.00  0.00    -0.028 A 
ATOM     21  C   UNL A   1      35.040  21.495  24.649  1.00  0.00     0.007 A 
ATOM     22  C   UNL A   1      32.929  21.897  23.571  1.00  0.00     0.007 A 
ATOM     23  C   UNL A   1      34.645  20.218  25.000  1.00  0.00     0.016 A 
ATOM     24  C   UNL A   1      32.492  20.634  23.995  1.00  0.00     0.016 A 
ATOM     25  C   UNL A   1      33.370  19.796  24.678  1.00  0.00     0.017 A 
ATOM     26  Br  UNL A   1      32.896  18.079  25.245  1.00  0.00    -0.051 Br
ENDBRANCH  19  20
ENDBRANCH  14  19
ENDBRANCH   6   7
ENDBRANCH   3   6
ENDBRANCH   1   2
BRANCH   1  27
ATOM     27  C   UNL A   1      32.798  31.220  27.219  1.00  0.00     0.042 C 
BRANCH  27  28
ATOM     28  C   UNL A   1      34.314  31.020  27.299  1.00  0.00     0.118 C 
BRANCH  28  29
ATOM     29  N   UNL A   1      34.954  31.813  28.333  1.00  0.00    -0.352 N 
ATOM     30  C   UNL A   1      36.175  31.852  28.942  1.00  0.00     0.251 C 
ATOM     31  H   UNL A   1      34.349  32.503  28.689  1.00  0.00     0.163 HD
ATOM     32  O   UNL A   1      36.346  32.791  29.724  1.00  0.00    -0.269 OA
BRANCH  30  33
ATOM     33  C   UNL A   1      37.260  30.843  28.808  1.00  0.00     0.039 A 
ATOM     34  C   UNL A   1      37.103  29.525  28.393  1.00  0.00     0.014 A 
ATOM     35  C   UNL A   1      38.535  31.263  29.249  1.00  0.00     0.014 A 
ATOM     36  C   UNL A   1      38.153  28.623  28.557  1.00  0.00     0.010 A 
ATOM     37  C   UNL A   1      39.582  30.366  29.416  1.00  0.00     0.010 A 
ATOM     38  C   UNL A   1      39.357  29.025  29.158  1.00  0.00    -0.014 A 
BRANCH  38  39
ATOM     39  C   UNL A   1      40.340  27.987  29.491  1.00  0.00     0.031 A 
ATOM     40  C   UNL A   1      40.760  28.017  30.915  1.00  0.00     0.074 A 
ATOM     41  C   UNL A   1      40.833  27.097  28.598  1.00  0.00     0.049 A 
ATOM     42  N   UNL A   1      41.910  28.346  31.405  1.00  0.00    -0.248 NA
ATOM     43  C   UNL A   1      39.709  27.823  31.925  1.00  0.00     0.031 C 
ATOM     44  C   UNL A   1      40.335  26.815  27.244  1.00  0.00     0.029 A 
ATOM     45  N   UNL A   1      41.886  26.225  28.715  1.00  0.00    -0.354 N 
ATOM     46  C   UNL A   1      41.783  28.206  32.788  1.00  0.00     0.074 A 
ATOM     47  C   UNL A   1      40.380  28.046  33.056  1.00  0.00     0.031 C 
ATOM     48  C   UNL A   1      40.959  25.727  26.742  1.00  0.00     0.029 A 
ATOM     49  C   UNL A   1      41.976  25.295  27.681  1.00  0.00     0.049 A 
ATOM     50  H   UNL A   1      42.523  26.254  29.466  1.00  0.00     0.167 HD
ATOM     51  C   UNL A   1      42.870  27.971  33.570  1.00  0.00     0.037 A 
ATOM     52  C   UNL A   1      42.794  24.214  27.610  1.00  0.00     0.037 A 
ATOM     53  C   UNL A   1      44.086  28.321  32.883  1.00  0.00     0.049 A 
ATOM     54  C   UNL A   1      43.904  24.420  28.564  1.00  0.00     0.074 A 
ATOM     55  C   UNL A   1      44.752  29.478  32.549  1.00  0.00     0.029 A 
ATOM     56  N   UNL A   1      44.604  27.313  32.115  1.00  0.00    -0.354 N 
ATOM     57  N   UNL A   1      44.856  25.290  28.392  1.00  0.00    -0.248 NA
ATOM     58  C   UNL A   1      43.762  23.912  29.921  1.00  0.00     0.031 C 
ATOM     59  C   UNL A   1      45.504  29.167  31.376  1.00  0.00     0.029 A 
ATOM     60  C   UNL A   1      45.308  27.823  31.060  1.00  0.00     0.049 A 
ATOM     61  H   UNL A   1      44.485  26.353  32.298  1.00  0.00     0.167 HD
ATOM     62  C   UNL A   1      45.127  25.764  29.663  1.00  0.00     0.074 A 
ATOM     63  C   UNL A   1      44.552  24.773  30.567  1.00  0.00     0.031 C 
ATOM     64  C   UNL A   1      45.526  27.056  29.852  1.00  0.00     0.037 A 
BRANCH  51  65
ATOM     65  C   UNL A   1      42.883  26.968  34.709  1.00  0.00     0.057 A 
ATOM     66  C   UNL A   1      42.466  27.257  36.026  1.00  0.00     0.134 A 
ATOM     67  C   UNL A   1      42.979  25.596  34.408  1.00  0.00     0.134 A 
ATOM     68  F   UNL A   1      42.264  28.505  36.462  1.00  0.00    -0.206 F 
ATOM     69  C   UNL A   1      42.128  26.267  36.952  1.00  0.00     0.040 A 
ATOM     70  C   UNL A   1      42.600  24.597  35.315  1.00  0.00     0.040 A 
ATOM     71  F   UNL A   1      43.363  25.183  33.191  1.00  0.00    -0.206 F 
ATOM     72  C   UNL A   1      42.158  24.932  36.589  1.00  0.00     0.006 A 
ENDBRANCH  51  65
BRANCH  52  73
ATOM     73  C   UNL A   1      42.520  22.898  26.989  1.00  0.00     0.057 A 
ATOM     74  C   UNL A   1      41.470  22.089  27.462  1.00  0.00     0.134 A 
ATOM     75  C   UNL A   1      43.425  22.277  26.116  1.00  0.00     0.134 A 
ATOM     76  F   UNL A   1      40.597  22.554  28.367  1.00  0.00    -0.206 F 
ATOM     77  C   UNL A   1      41.332  20.747  27.100  1.00  0.00     0.040 A 
ATOM     78  C   UNL A   1      43.301  20.928  25.749  1.00  0.00     0.040 A 
ATOM     79  F   UNL A   1      44.487  22.946  25.645  1.00  0.00    -0.206 F 
ATOM     80  C   UNL A   1      42.256  20.156  26.249  1.00  0.00     0.006 A 
ENDBRANCH  52  73
BRANCH  64  81
ATOM     81  C   UNL A   1      46.062  27.782  28.654  1.00  0.00     0.057 A 
ATOM     82  C   UNL A   1      47.443  27.797  28.437  1.00  0.00     0.134 A 
ATOM     83  C   UNL A   1      45.270  28.517  27.761  1.00  0.00     0.134 A 
ATOM     84  F   UNL A   1      48.264  27.144  29.274  1.00  0.00    -0.206 F 
ATOM     85  C   UNL A   1      48.015  28.505  27.380  1.00  0.00     0.040 A 
ATOM     86  C   UNL A   1      45.826  29.213  26.684  1.00  0.00     0.040 A 
ATOM     87  F   UNL A   1      43.944  28.592  27.924  1.00  0.00    -0.206 F 
ATOM     88  C   UNL A   1      47.205  29.210  26.494  1.00  0.00     0.006 A 
ENDBRANCH  64  81
ENDBRANCH  38  39
ENDBRANCH  30  33
ENDBRANCH  28  29
ENDBRANCH  27  28
ENDBRANCH   1  27
TORSDOF 14
ENDMDL
MODEL 3
REMARK VINA RESULT:     -12.3      2.298      6.500
REMARK SMILES COc1ccc2c(c1)c(CC(=O)NCCCNC(=O)c1ccc(-c3c4nc(c(-c5c(F)cccc5F)c5ccc([nH]5)c(-c5c(F)cccc5F)c5nc(c(-c6c(F)cccc6F)c6ccc3[nH]6)C=C5)C=C4)cc1)c(C)n2Cc1ccc(Br)cc1
REMARK SMILES IDX 14 1 13 2 11 3 12 4 10 6 9 7 3 8 4 9 8 10 5 11 7 12 6 13
REMARK SMILES IDX 76 14 74 15 75 16 2 17 1 18 77 19 78 20 79 21 84 22 80 23
REMARK SMILES IDX 83 24 81 25 82 26 15 27 16 28 17 29 18 30 19 32 20 33 21 34
REMARK SMILES IDX 73 35 22 36 72 37 23 38 24 39 25 40 66 41 26 42 71 43 65 44
REMARK SMILES IDX 67 45 27 46 70 47 64 48 63 49 28 51 54 52 37 53 53 54 38 55
REMARK SMILES IDX 41 56 52 57 68 58 39 59 40 60 51 62 69 63 42 64 29 65 30 66
REMARK SMILES IDX 35 67 31 68 32 69 34 70 36 71 33 72 55 73 56 74 61 75 57 76
REMARK SMILES IDX 58 77 60 78 62 79 59 80 43 81 44 82 49 83 45 84 46 85 48 86
REMARK SMILES IDX 50 87 47 88
REMARK H PARENT 13 5 17 31 67 50 41 61
REMARK Flexibility Score: inf
ROOT
ATOM      1  C   UNL A   1      33.716  27.389  26.078  1.00  0.00     0.117 C 
ENDROOT
BRANCH   1   2
ATOM      2  N   UNL A   1      32.280  27.157  26.076  1.00  0.00    -0.356 N 
ATOM      3  C   UNL A   1      31.563  26.027  26.359  1.00  0.00     0.224 C 
ATOM      4  O   UNL A   1      30.341  26.089  26.292  1.00  0.00    -0.275 OA
ATOM      5  H   UNL A   1      31.736  27.940  25.832  1.00  0.00     0.163 HD
BRANCH   3   6
ATOM      6  C   UNL A   1      32.260  24.757  26.822  1.00  0.00     0.138 C 
BRANCH   6   7
ATOM      7  C   UNL A   1      32.809  23.930  25.701  1.00  0.00    -0.010 A 
ATOM      8  C   UNL A   1      36.597  23.665  25.479  1.00  0.00     0.119 A 
ATOM      9  C   UNL A   1      36.629  22.739  24.443  1.00  0.00     0.048 A 
ATOM     10  C   UNL A   1      35.382  24.083  26.017  1.00  0.00     0.057 A 
ATOM     11  C   UNL A   1      35.443  22.251  23.876  1.00  0.00     0.031 A 
ATOM     12  C   UNL A   1      34.176  23.640  25.435  1.00  0.00     0.007 A 
ATOM     13  C   UNL A   1      34.219  22.740  24.366  1.00  0.00     0.049 A 
ATOM     14  N   UNL A   1      32.902  22.497  23.988  1.00  0.00    -0.340 N 
ATOM     15  C   UNL A   1      32.078  23.396  24.651  1.00  0.00     0.020 A 
ATOM     16  C   UNL A   1      30.659  23.702  24.318  1.00  0.00     0.065 C 
BRANCH   8  17
ATOM     17  O   UNL A   1      37.732  24.162  26.063  1.00  0.00    -0.497 OA
ATOM     18  C   UNL A   1      38.671  23.136  26.378  1.00  0.00     0.278 C 
ENDBRANCH   8  17
BRANCH  14  19
ATOM     19  C   UNL A   1      32.489  21.508  22.981  1.00  0.00     0.157 C 
BRANCH  19  20
ATOM     20  C   UNL A   1      32.526  20.088  23.509  1.00  0.00    -0.028 A 
ATOM     21  C   UNL A   1      32.562  19.863  24.891  1.00  0.00     0.007 A 
ATOM     22  C   UNL A   1      32.528  18.969  22.659  1.00  0.00     0.007 A 
ATOM     23  C   UNL A   1      32.737  18.598  25.420  1.00  0.00     0.016 A 
ATOM     24  C   UNL A   1      32.622  17.676  23.194  1.00  0.00     0.016 A 
ATOM     25  C   UNL A   1      32.758  17.510  24.570  1.00  0.00     0.017 A 
ATOM     26  Br  UNL A   1      32.934  15.832  25.375  1.00  0.00    -0.051 Br
ENDBRANCH  19  20
ENDBRANCH  14  19
ENDBRANCH   6   7
ENDBRANCH   3   6
ENDBRANCH   1   2
BRANCH   1  27
ATOM     27  C   UNL A   1      34.077  28.880  26.069  1.00  0.00     0.042 C 
BRANCH  27  28
ATOM     28  C   UNL A   1      33.735  29.613  27.368  1.00  0.00     0.118 C 
BRANCH  28  29
ATOM     29  N   UNL A   1      34.288  30.953  27.446  1.00  0.00    -0.352 N 
ATOM     30  C   UNL A   1      35.470  31.519  27.831  1.00  0.00     0.251 C 
ATOM     31  H   UNL A   1      33.643  31.632  27.144  1.00  0.00     0.163 HD
ATOM     32  O   UNL A   1      35.566  32.732  27.627  1.00  0.00    -0.269 OA
BRANCH  30  33
ATOM     33  C   UNL A   1      36.591  30.833  28.527  1.00  0.00     0.039 A 
ATOM     34  C   UNL A   1      37.859  31.360  28.749  1.00  0.00     0.014 A 
ATOM     35  C   UNL A   1      36.348  29.489  28.889  1.00  0.00     0.014 A 
ATOM     36  C   UNL A   1      38.885  30.523  29.181  1.00  0.00     0.010 A 
ATOM     37  C   UNL A   1      37.370  28.652  29.317  1.00  0.00     0.010 A 
ATOM     38  C   UNL A   1      38.660  29.150  29.371  1.00  0.00    -0.014 A 
BRANCH  38  39
ATOM     39  C   UNL A   1      39.823  28.290  29.623  1.00  0.00     0.031 A 
ATOM     40  C   UNL A   1      40.264  28.306  31.041  1.00  0.00     0.074 A 
ATOM     41  C   UNL A   1      40.449  27.564  28.667  1.00  0.00     0.049 A 
ATOM     42  N   UNL A   1      41.345  28.809  31.539  1.00  0.00    -0.248 NA
ATOM     43  C   UNL A   1      39.289  27.859  32.048  1.00  0.00     0.031 C 
ATOM     44  C   UNL A   1      39.980  27.283  27.303  1.00  0.00     0.029 A 
ATOM     45  N   UNL A   1      41.645  26.894  28.714  1.00  0.00    -0.354 N 
ATOM     46  C   UNL A   1      41.278  28.560  32.911  1.00  0.00     0.074 A 
ATOM     47  C   UNL A   1      39.935  28.129  33.183  1.00  0.00     0.031 C 
ATOM     48  C   UNL A   1      40.779  26.361  26.723  1.00  0.00     0.029 A 
ATOM     49  C   UNL A   1      41.879  26.065  27.619  1.00  0.00     0.049 A 
ATOM     50  H   UNL A   1      42.284  26.991  29.458  1.00  0.00     0.167 HD
ATOM     51  C   UNL A   1      42.408  28.480  33.663  1.00  0.00     0.037 A 
ATOM     52  C   UNL A   1      42.879  25.159  27.468  1.00  0.00     0.037 A 
ATOM     53  C   UNL A   1      43.523  29.089  32.987  1.00  0.00     0.049 A 
ATOM     54  C   UNL A   1      43.955  25.503  28.420  1.00  0.00     0.074 A 
ATOM     55  C   UNL A   1      43.959  30.367  32.724  1.00  0.00     0.029 A 
ATOM     56  N   UNL A   1      44.198  28.244  32.148  1.00  0.00    -0.354 N 
ATOM     57  N   UNL A   1      44.728  26.542  28.296  1.00  0.00    -0.248 NA
ATOM     58  C   UNL A   1      43.939  24.893  29.741  1.00  0.00     0.031 C 
ATOM     59  C   UNL A   1      44.728  30.274  31.524  1.00  0.00     0.029 A 
ATOM     60  C   UNL A   1      44.773  28.940  31.122  1.00  0.00     0.049 A 
ATOM     61  H   UNL A   1      44.260  27.269  32.268  1.00  0.00     0.167 HD
ATOM     62  C   UNL A   1      44.938  26.976  29.593  1.00  0.00     0.074 A 
ATOM     63  C   UNL A   1      44.574  25.841  30.435  1.00  0.00     0.031 C 
ATOM     64  C   UNL A   1      45.099  28.304  29.863  1.00  0.00     0.037 A 
BRANCH  51  65
ATOM     65  C   UNL A   1      42.629  27.426  34.732  1.00  0.00     0.057 A 
ATOM     66  C   UNL A   1      42.266  27.581  36.087  1.00  0.00     0.134 A 
ATOM     67  C   UNL A   1      42.888  26.098  34.338  1.00  0.00     0.134 A 
ATOM     68  F   UNL A   1      41.929  28.762  36.614  1.00  0.00    -0.206 F 
ATOM     69  C   UNL A   1      42.125  26.503  36.966  1.00  0.00     0.040 A 
ATOM     70  C   UNL A   1      42.706  25.007  35.200  1.00  0.00     0.040 A 
ATOM     71  F   UNL A   1      43.241  25.811  33.077  1.00  0.00    -0.206 F 
ATOM     72  C   UNL A   1      42.308  25.207  36.516  1.00  0.00     0.006 A 
ENDBRANCH  51  65
BRANCH  52  73
ATOM     73  C   UNL A   1      42.834  23.856  26.763  1.00  0.00     0.057 A 
ATOM     74  C   UNL A   1      42.243  22.734  27.371  1.00  0.00     0.134 A 
ATOM     75  C   UNL A   1      43.596  23.599  25.613  1.00  0.00     0.134 A 
ATOM     76  F   UNL A   1      41.565  22.852  28.522  1.00  0.00    -0.206 F 
ATOM     77  C   UNL A   1      42.403  21.437  26.878  1.00  0.00     0.040 A 
ATOM     78  C   UNL A   1      43.770  22.300  25.110  1.00  0.00     0.040 A 
ATOM     79  F   UNL A   1      44.240  24.593  24.985  1.00  0.00    -0.206 F 
ATOM     80  C   UNL A   1      43.180  21.213  25.748  1.00  0.00     0.006 A 
ENDBRANCH  52  73
BRANCH  64  81
ATOM     81  C   UNL A   1      45.465  29.191  28.710  1.00  0.00     0.057 A 
ATOM     82  C   UNL A   1      46.818  29.425  28.443  1.00  0.00     0.134 A 
ATOM     83  C   UNL A   1      44.534  29.868  27.911  1.00  0.00     0.134 A 
ATOM     84  F   UNL A   1      47.764  28.837  29.191  1.00  0.00    -0.206 F 
ATOM     85  C   UNL A   1      47.230  30.288  27.428  1.00  0.00     0.040 A 
ATOM     86  C   UNL A   1      44.931  30.719  26.876  1.00  0.00     0.040 A 
ATOM     87  F   UNL A   1      43.220  29.735  28.130  1.00  0.00    -0.206 F 
ATOM     88  C   UNL A   1      46.285  30.933  26.634  1.00  0.00     0.006 A 
ENDBRANCH  64  81
ENDBRANCH  38  39
ENDBRANCH  30  33
ENDBRANCH  28  29
ENDBRANCH  27  28
ENDBRANCH   1  27
TORSDOF 14
ENDMDL
