MODEL 1
REMARK VINA RESULT:     -12.0      0.000      0.000
REMARK SMILES O=C(NCCCNC(=O)[C@H]1C=C[C@@H](NC(=O)c2ccc(Cl)cn2)C1)c1ccc(-c2c3nc(c(-c4c(F)cccc4F)c4ccc([nH]4)c(-c4c(F)cccc4F)c4nc(c(-c5c(F)cccc5F)c5ccc2[nH]5)C=C4)C=C3)cc1
REMARK SMILES IDX 5 1 4 2 3 3 1 4 2 5 25 7 26 8 78 9 27 10 77 11 28 12 29 13
REMARK SMILES IDX 30 14 71 15 31 16 76 17 70 18 72 19 32 20 75 21 69 22 68 23
REMARK SMILES IDX 33 25 59 26 42 27 58 28 43 29 46 30 57 31 73 32 44 33 45 34
REMARK SMILES IDX 56 36 74 37 47 38 34 39 35 40 40 41 36 42 37 43 39 44 41 45
REMARK SMILES IDX 38 46 60 47 61 48 66 49 62 50 63 51 65 52 67 53 64 54 48 55
REMARK SMILES IDX 49 56 54 57 50 58 51 59 53 60 55 61 52 62 6 63 7 64 8 65
REMARK SMILES IDX 9 67 10 68 11 69 24 70 12 71 13 72 14 73 15 74 16 76 17 77
REMARK SMILES IDX 18 78 23 79 19 80 22 81 20 82 21 83
REMARK H PARENT 3 6 72 24 46 35 7 66 14 75
REMARK Flexibility Score: inf
ROOT
ATOM      1  C   UNL A   1      37.926  19.558  24.828  1.00  0.00     0.042 C 
ENDROOT
BRANCH   1   2
ATOM      2  C   UNL A   1      39.016  20.018  25.787  1.00  0.00     0.118 C 
BRANCH   2   3
ATOM      3  N   UNL A   1      40.141  19.098  25.840  1.00  0.00    -0.352 N 
ATOM      4  O   UNL A   1      42.301  18.463  25.904  1.00  0.00    -0.269 OA
ATOM      5  C   UNL A   1      41.471  19.351  26.078  1.00  0.00     0.251 C 
ATOM      6  H   UNL A   1      39.917  18.152  25.684  1.00  0.00     0.163 HD
BRANCH   5   7
ATOM      7  C   UNL A   1      41.907  20.691  26.527  1.00  0.00     0.039 A 
ATOM      8  C   UNL A   1      42.157  21.706  25.602  1.00  0.00     0.014 A 
ATOM      9  C   UNL A   1      42.037  20.948  27.896  1.00  0.00     0.014 A 
ATOM     10  C   UNL A   1      42.673  22.922  26.031  1.00  0.00     0.010 A 
ATOM     11  C   UNL A   1      42.462  22.207  28.334  1.00  0.00     0.010 A 
ATOM     12  C   UNL A   1      42.805  23.198  27.402  1.00  0.00    -0.014 A 
BRANCH  12  13
ATOM     13  C   UNL A   1      43.213  24.563  27.818  1.00  0.00     0.031 A 
ATOM     14  C   UNL A   1      44.651  25.000  27.786  1.00  0.00     0.074 A 
ATOM     15  C   UNL A   1      42.249  25.432  28.179  1.00  0.00     0.049 A 
ATOM     16  N   UNL A   1      45.158  26.175  28.064  1.00  0.00    -0.248 NA
ATOM     17  C   UNL A   1      45.651  23.992  27.402  1.00  0.00     0.031 C 
ATOM     18  C   UNL A   1      40.820  25.113  28.268  1.00  0.00     0.029 A 
ATOM     19  N   UNL A   1      42.310  26.760  28.508  1.00  0.00    -0.354 N 
ATOM     20  C   UNL A   1      46.530  26.049  27.895  1.00  0.00     0.074 A 
ATOM     21  C   UNL A   1      46.783  24.674  27.521  1.00  0.00     0.031 C 
ATOM     22  C   UNL A   1      40.137  26.226  28.571  1.00  0.00     0.029 A 
ATOM     23  C   UNL A   1      41.081  27.321  28.759  1.00  0.00     0.049 A 
ATOM     24  H   UNL A   1      43.154  27.266  28.561  1.00  0.00     0.167 HD
ATOM     25  C   UNL A   1      47.487  26.999  28.029  1.00  0.00     0.037 A 
ATOM     26  C   UNL A   1      40.747  28.574  29.115  1.00  0.00     0.037 A 
ATOM     27  C   UNL A   1      47.227  28.370  28.394  1.00  0.00     0.049 A 
ATOM     28  C   UNL A   1      41.832  29.596  29.271  1.00  0.00     0.074 A 
ATOM     29  C   UNL A   1      48.130  29.410  28.538  1.00  0.00     0.029 A 
ATOM     30  N   UNL A   1      45.973  28.891  28.671  1.00  0.00    -0.354 N 
ATOM     31  N   UNL A   1      43.122  29.467  29.082  1.00  0.00    -0.248 NA
ATOM     32  C   UNL A   1      41.416  30.940  29.695  1.00  0.00     0.031 C 
ATOM     33  C   UNL A   1      47.426  30.551  28.939  1.00  0.00     0.029 A 
ATOM     34  C   UNL A   1      46.080  30.233  29.002  1.00  0.00     0.049 A 
ATOM     35  H   UNL A   1      45.130  28.384  28.636  1.00  0.00     0.167 HD
ATOM     36  C   UNL A   1      43.671  30.711  29.352  1.00  0.00     0.074 A 
ATOM     37  C   UNL A   1      42.569  31.591  29.687  1.00  0.00     0.031 C 
ATOM     38  C   UNL A   1      44.972  31.091  29.338  1.00  0.00     0.037 A 
BRANCH  25  39
ATOM     39  C   UNL A   1      48.913  26.596  27.786  1.00  0.00     0.057 A 
ATOM     40  C   UNL A   1      49.725  26.105  28.816  1.00  0.00     0.134 A 
ATOM     41  C   UNL A   1      49.457  26.629  26.495  1.00  0.00     0.134 A 
ATOM     42  F   UNL A   1      49.270  26.057  30.076  1.00  0.00    -0.206 F 
ATOM     43  C   UNL A   1      51.030  25.672  28.572  1.00  0.00     0.040 A 
ATOM     44  C   UNL A   1      50.752  26.178  26.235  1.00  0.00     0.040 A 
ATOM     45  F   UNL A   1      48.730  27.082  25.462  1.00  0.00    -0.206 F 
ATOM     46  C   UNL A   1      51.544  25.699  27.276  1.00  0.00     0.006 A 
ENDBRANCH  25  39
BRANCH  26  47
ATOM     47  C   UNL A   1      39.326  28.921  29.365  1.00  0.00     0.057 A 
ATOM     48  C   UNL A   1      38.743  28.741  30.624  1.00  0.00     0.134 A 
ATOM     49  C   UNL A   1      38.515  29.435  28.346  1.00  0.00     0.134 A 
ATOM     50  F   UNL A   1      39.464  28.238  31.637  1.00  0.00    -0.206 F 
ATOM     51  C   UNL A   1      37.398  29.036  30.855  1.00  0.00     0.040 A 
ATOM     52  C   UNL A   1      37.177  29.763  28.570  1.00  0.00     0.040 A 
ATOM     53  F   UNL A   1      39.016  29.639  27.118  1.00  0.00    -0.206 F 
ATOM     54  C   UNL A   1      36.614  29.554  29.827  1.00  0.00     0.006 A 
ENDBRANCH  26  47
BRANCH  38  55
ATOM     55  C   UNL A   1      45.259  32.522  29.680  1.00  0.00     0.057 A 
ATOM     56  C   UNL A   1      45.539  32.923  30.992  1.00  0.00     0.134 A 
ATOM     57  C   UNL A   1      45.255  33.509  28.686  1.00  0.00     0.134 A 
ATOM     58  F   UNL A   1      45.542  32.027  31.991  1.00  0.00    -0.206 F 
ATOM     59  C   UNL A   1      45.772  34.262  31.310  1.00  0.00     0.040 A 
ATOM     60  C   UNL A   1      45.513  34.847  28.989  1.00  0.00     0.040 A 
ATOM     61  F   UNL A   1      45.001  33.190  27.408  1.00  0.00    -0.206 F 
ATOM     62  C   UNL A   1      45.763  35.227  30.306  1.00  0.00     0.006 A 
ENDBRANCH  38  55
ENDBRANCH  12  13
ENDBRANCH   5   7
ENDBRANCH   2   3
ENDBRANCH   1   2
BRANCH   1  63
ATOM     63  C   UNL A   1      36.619  20.329  24.971  1.00  0.00     0.117 C 
BRANCH  63  64
ATOM     64  N   UNL A   1      35.466  19.449  24.927  1.00  0.00    -0.356 N 
ATOM     65  C   UNL A   1      34.139  19.759  24.827  1.00  0.00     0.227 C 
ATOM     66  H   UNL A   1      35.670  18.488  24.979  1.00  0.00     0.163 HD
ATOM     67  O   UNL A   1      33.329  18.831  24.848  1.00  0.00    -0.274 OA
BRANCH  65  68
ATOM     68  C   UNL A   1      33.736  21.222  24.643  1.00  0.00     0.103 C 
ATOM     69  C   UNL A   1      32.648  21.401  23.620  1.00  0.00    -0.016 C 
ATOM     70  C   UNL A   1      33.082  21.826  25.893  1.00  0.00     0.047 C 
ATOM     71  C   UNL A   1      31.726  22.282  24.024  1.00  0.00    -0.006 C 
ATOM     72  C   UNL A   1      32.065  22.837  25.363  1.00  0.00     0.106 C 
BRANCH  72  73
ATOM     73  N   UNL A   1      30.870  22.902  26.167  1.00  0.00    -0.344 N 
ATOM     74  C   UNL A   1      30.178  24.019  26.583  1.00  0.00     0.270 C 
ATOM     75  H   UNL A   1      30.500  22.038  26.455  1.00  0.00     0.164 HD
ATOM     76  O   UNL A   1      29.240  23.899  27.365  1.00  0.00    -0.267 OA
BRANCH  74  77
ATOM     77  C   UNL A   1      30.566  25.364  26.067  1.00  0.00     0.128 A 
ATOM     78  C   UNL A   1      30.089  25.804  24.834  1.00  0.00     0.036 A 
ATOM     79  N   UNL A   1      31.397  26.094  26.854  1.00  0.00    -0.250 NA
ATOM     80  C   UNL A   1      30.517  27.044  24.361  1.00  0.00     0.024 A 
ATOM     81  C   UNL A   1      31.765  27.309  26.380  1.00  0.00     0.132 A 
ATOM     82  C   UNL A   1      31.369  27.812  25.149  1.00  0.00     0.059 A 
ATOM     83  Cl  UNL A   1      31.918  29.342  24.601  1.00  0.00    -0.083 Cl
ENDBRANCH  74  77
ENDBRANCH  72  73
ENDBRANCH  65  68
ENDBRANCH  63  64
ENDBRANCH   1  63
TORSDOF 12
ENDMDL
MODEL 2
REMARK VINA RESULT:     -12.0      1.000      1.810
REMARK SMILES O=C(NCCCNC(=O)[C@H]1C=C[C@@H](NC(=O)c2ccc(Cl)cn2)C1)c1ccc(-c2c3nc(c(-c4c(F)cccc4F)c4ccc([nH]4)c(-c4c(F)cccc4F)c4nc(c(-c5c(F)cccc5F)c5ccc2[nH]5)C=C4)C=C3)cc1
REMARK SMILES IDX 5 1 4 2 3 3 1 4 2 5 25 7 26 8 78 9 27 10 77 11 28 12 29 13
REMARK SMILES IDX 30 14 71 15 31 16 76 17 70 18 72 19 32 20 75 21 69 22 68 23
REMARK SMILES IDX 33 25 59 26 42 27 58 28 43 29 46 30 57 31 73 32 44 33 45 34
REMARK SMILES IDX 56 36 74 37 47 38 34 39 35 40 40 41 36 42 37 43 39 44 41 45
REMARK SMILES IDX 38 46 60 47 61 48 66 49 62 50 63 51 65 52 67 53 64 54 48 55
REMARK SMILES IDX 49 56 54 57 50 58 51 59 53 60 55 61 52 62 6 63 7 64 8 65
REMARK SMILES IDX 9 67 10 68 11 69 24 70 12 71 13 72 14 73 15 74 16 76 17 77
REMARK SMILES IDX 18 78 23 79 19 80 22 81 20 82 21 83
REMARK H PARENT 3 6 72 24 46 35 7 66 14 75
REMARK Flexibility Score: inf
ROOT
ATOM      1  C   UNL A   1      38.006  19.276  24.967  1.00  0.00     0.042 C 
ENDROOT
BRANCH   1   2
ATOM      2  C   UNL A   1      39.159  19.950  25.700  1.00  0.00     0.118 C 
BRANCH   2   3
ATOM      3  N   UNL A   1      40.361  19.131  25.729  1.00  0.00    -0.352 N 
ATOM      4  O   UNL A   1      42.566  18.686  25.819  1.00  0.00    -0.269 OA
ATOM      5  C   UNL A   1      41.655  19.483  26.024  1.00  0.00     0.251 C 
ATOM      6  H   UNL A   1      40.227  18.182  25.504  1.00  0.00     0.163 HD
BRANCH   5   7
ATOM      7  C   UNL A   1      41.957  20.824  26.573  1.00  0.00     0.039 A 
ATOM      8  C   UNL A   1      41.918  21.055  27.949  1.00  0.00     0.014 A 
ATOM      9  C   UNL A   1      42.315  21.857  25.702  1.00  0.00     0.014 A 
ATOM     10  C   UNL A   1      42.094  22.343  28.440  1.00  0.00     0.010 A 
ATOM     11  C   UNL A   1      42.590  23.133  26.207  1.00  0.00     0.010 A 
ATOM     12  C   UNL A   1      42.459  23.391  27.579  1.00  0.00    -0.014 A 
BRANCH  12  13
ATOM     13  C   UNL A   1      42.786  24.715  28.167  1.00  0.00     0.031 A 
ATOM     14  C   UNL A   1      44.200  25.104  28.494  1.00  0.00     0.074 A 
ATOM     15  C   UNL A   1      41.781  25.592  28.353  1.00  0.00     0.049 A 
ATOM     16  N   UNL A   1      44.651  26.243  28.958  1.00  0.00    -0.248 NA
ATOM     17  C   UNL A   1      45.243  24.088  28.284  1.00  0.00     0.031 C 
ATOM     18  C   UNL A   1      40.365  25.316  28.091  1.00  0.00     0.029 A 
ATOM     19  N   UNL A   1      41.789  26.895  28.775  1.00  0.00    -0.354 N 
ATOM     20  C   UNL A   1      46.023  26.082  29.100  1.00  0.00     0.074 A 
ATOM     21  C   UNL A   1      46.330  24.724  28.704  1.00  0.00     0.031 C 
ATOM     22  C   UNL A   1      39.651  26.431  28.302  1.00  0.00     0.029 A 
ATOM     23  C   UNL A   1      40.546  27.480  28.773  1.00  0.00     0.049 A 
ATOM     24  H   UNL A   1      42.607  27.369  29.052  1.00  0.00     0.167 HD
ATOM     25  C   UNL A   1      46.940  26.989  29.513  1.00  0.00     0.037 A 
ATOM     26  C   UNL A   1      40.162  28.720  29.125  1.00  0.00     0.037 A 
ATOM     27  C   UNL A   1      46.629  28.344  29.898  1.00  0.00     0.049 A 
ATOM     28  C   UNL A   1      41.201  29.695  29.593  1.00  0.00     0.074 A 
ATOM     29  C   UNL A   1      47.493  29.343  30.313  1.00  0.00     0.029 A 
ATOM     30  N   UNL A   1      45.354  28.889  29.913  1.00  0.00    -0.354 N 
ATOM     31  N   UNL A   1      42.497  29.534  29.696  1.00  0.00    -0.248 NA
ATOM     32  C   UNL A   1      40.723  31.024  29.998  1.00  0.00     0.031 C 
ATOM     33  C   UNL A   1      46.737  30.481  30.617  1.00  0.00     0.029 A 
ATOM     34  C   UNL A   1      45.407  30.205  30.348  1.00  0.00     0.049 A 
ATOM     35  H   UNL A   1      44.533  28.413  29.653  1.00  0.00     0.167 HD
ATOM     36  C   UNL A   1      42.992  30.741  30.167  1.00  0.00     0.074 A 
ATOM     37  C   UNL A   1      41.859  31.635  30.297  1.00  0.00     0.031 C 
ATOM     38  C   UNL A   1      44.268  31.077  30.477  1.00  0.00     0.037 A 
BRANCH  25  39
ATOM     39  C   UNL A   1      48.376  26.555  29.577  1.00  0.00     0.057 A 
ATOM     40  C   UNL A   1      49.268  26.803  28.526  1.00  0.00     0.134 A 
ATOM     41  C   UNL A   1      48.891  25.948  30.730  1.00  0.00     0.134 A 
ATOM     42  F   UNL A   1      48.838  27.371  27.390  1.00  0.00    -0.206 F 
ATOM     43  C   UNL A   1      50.617  26.454  28.616  1.00  0.00     0.040 A 
ATOM     44  C   UNL A   1      50.242  25.615  30.841  1.00  0.00     0.040 A 
ATOM     45  F   UNL A   1      48.092  25.689  31.777  1.00  0.00    -0.206 F 
ATOM     46  C   UNL A   1      51.109  25.866  29.781  1.00  0.00     0.006 A 
ENDBRANCH  25  39
BRANCH  26  47
ATOM     47  C   UNL A   1      38.729  29.100  29.065  1.00  0.00     0.057 A 
ATOM     48  C   UNL A   1      38.148  29.564  27.880  1.00  0.00     0.134 A 
ATOM     49  C   UNL A   1      37.907  29.015  30.196  1.00  0.00     0.134 A 
ATOM     50  F   UNL A   1      38.887  29.683  26.767  1.00  0.00    -0.206 F 
ATOM     51  C   UNL A   1      36.808  29.952  27.826  1.00  0.00     0.040 A 
ATOM     52  C   UNL A   1      36.559  29.370  30.149  1.00  0.00     0.040 A 
ATOM     53  F   UNL A   1      38.401  28.569  31.360  1.00  0.00    -0.206 F 
ATOM     54  C   UNL A   1      36.009  29.850  28.963  1.00  0.00     0.006 A 
ENDBRANCH  26  47
BRANCH  38  55
ATOM     55  C   UNL A   1      44.495  32.475  30.969  1.00  0.00     0.057 A 
ATOM     56  C   UNL A   1      44.463  32.789  32.334  1.00  0.00     0.134 A 
ATOM     57  C   UNL A   1      44.747  33.518  30.069  1.00  0.00     0.134 A 
ATOM     58  F   UNL A   1      44.210  31.837  33.245  1.00  0.00    -0.206 F 
ATOM     59  C   UNL A   1      44.641  34.097  32.784  1.00  0.00     0.040 A 
ATOM     60  C   UNL A   1      44.953  34.825  30.510  1.00  0.00     0.040 A 
ATOM     61  F   UNL A   1      44.798  33.283  28.749  1.00  0.00    -0.206 F 
ATOM     62  C   UNL A   1      44.891  35.119  31.871  1.00  0.00     0.006 A 
ENDBRANCH  38  55
ENDBRANCH  12  13
ENDBRANCH   5   7
ENDBRANCH   2   3
ENDBRANCH   1   2
BRANCH   1  63
ATOM     63  C   UNL A   1      36.700  20.057  25.031  1.00  0.00     0.117 C 
BRANCH  63  64
ATOM     64  N   UNL A   1      35.546  19.197  24.836  1.00  0.00    -0.356 N 
ATOM     65  C   UNL A   1      34.228  19.527  24.699  1.00  0.00     0.227 C 
ATOM     66  H   UNL A   1      35.744  18.234  24.797  1.00  0.00     0.163 HD
ATOM     67  O   UNL A   1      33.415  18.611  24.581  1.00  0.00    -0.274 OA
BRANCH  65  68
ATOM     68  C   UNL A   1      33.840  21.005  24.650  1.00  0.00     0.103 C 
ATOM     69  C   UNL A   1      32.746  21.286  23.656  1.00  0.00    -0.016 C 
ATOM     70  C   UNL A   1      33.204  21.504  25.954  1.00  0.00     0.047 C 
ATOM     71  C   UNL A   1      31.838  22.138  24.144  1.00  0.00    -0.006 C 
ATOM     72  C   UNL A   1      32.195  22.569  25.524  1.00  0.00     0.106 C 
BRANCH  72  73
ATOM     73  N   UNL A   1      31.007  22.576  26.342  1.00  0.00    -0.344 N 
ATOM     74  C   UNL A   1      30.227  23.651  26.708  1.00  0.00     0.270 C 
ATOM     75  H   UNL A   1      30.716  21.700  26.681  1.00  0.00     0.164 HD
ATOM     76  O   UNL A   1      29.311  23.494  27.510  1.00  0.00    -0.267 OA
BRANCH  74  77
ATOM     77  C   UNL A   1      30.492  24.994  26.117  1.00  0.00     0.128 A 
ATOM     78  C   UNL A   1      29.924  25.343  24.893  1.00  0.00     0.036 A 
ATOM     79  N   UNL A   1      31.309  25.814  26.826  1.00  0.00    -0.250 NA
ATOM     80  C   UNL A   1      30.239  26.586  24.346  1.00  0.00     0.024 A 
ATOM     81  C   UNL A   1      31.566  27.029  26.282  1.00  0.00     0.132 A 
ATOM     82  C   UNL A   1      31.074  27.446  25.054  1.00  0.00     0.059 A 
ATOM     83  Cl  UNL A   1      31.486  28.983  24.413  1.00  0.00    -0.083 Cl
ENDBRANCH  74  77
ENDBRANCH  72  73
ENDBRANCH  65  68
ENDBRANCH  63  64
ENDBRANCH   1  63
TORSDOF 12
ENDMDL
MODEL 3
REMARK VINA RESULT:     -12.0      0.570      1.108
REMARK SMILES O=C(NCCCNC(=O)[C@H]1C=C[C@@H](NC(=O)c2ccc(Cl)cn2)C1)c1ccc(-c2c3nc(c(-c4c(F)cccc4F)c4ccc([nH]4)c(-c4c(F)cccc4F)c4nc(c(-c5c(F)cccc5F)c5ccc2[nH]5)C=C4)C=C3)cc1
REMARK SMILES IDX 5 1 4 2 3 3 1 4 2 5 25 7 26 8 78 9 27 10 77 11 28 12 29 13
REMARK SMILES IDX 30 14 71 15 31 16 76 17 70 18 72 19 32 20 75 21 69 22 68 23
REMARK SMILES IDX 33 25 59 26 42 27 58 28 43 29 46 30 57 31 73 32 44 33 45 34
REMARK SMILES IDX 56 36 74 37 47 38 34 39 35 40 40 41 36 42 37 43 39 44 41 45
REMARK SMILES IDX 38 46 60 47 61 48 66 49 62 50 63 51 65 52 67 53 64 54 48 55
REMARK SMILES IDX 49 56 54 57 50 58 51 59 53 60 55 61 52 62 6 63 7 64 8 65
REMARK SMILES IDX 9 67 10 68 11 69 24 70 12 71 13 72 14 73 15 74 16 76 17 77
REMARK SMILES IDX 18 78 23 79 19 80 22 81 20 82 21 83
REMARK H PARENT 3 6 72 24 46 35 7 66 14 75
REMARK Flexibility Score: inf
ROOT
ATOM      1  C   UNL A   1      37.867  19.639  24.837  1.00  0.00     0.042 C 
ENDROOT
BRANCH   1   2
ATOM      2  C   UNL A   1      38.958  20.127  25.780  1.00  0.00     0.118 C 
BRANCH   2   3
ATOM      3  N   UNL A   1      40.112  19.241  25.809  1.00  0.00    -0.352 N 
ATOM      4  O   UNL A   1      42.290  18.673  25.878  1.00  0.00    -0.269 OA
ATOM      5  C   UNL A   1      41.429  19.525  26.080  1.00  0.00     0.251 C 
ATOM      6  H   UNL A   1      39.921  18.297  25.605  1.00  0.00     0.163 HD
BRANCH   5   7
ATOM      7  C   UNL A   1      41.814  20.856  26.598  1.00  0.00     0.039 A 
ATOM      8  C   UNL A   1      42.161  21.887  25.723  1.00  0.00     0.014 A 
ATOM      9  C   UNL A   1      41.800  21.086  27.976  1.00  0.00     0.014 A 
ATOM     10  C   UNL A   1      42.627  23.095  26.227  1.00  0.00     0.010 A 
ATOM     11  C   UNL A   1      42.175  22.337  28.480  1.00  0.00     0.010 A 
ATOM     12  C   UNL A   1      42.614  23.344  27.609  1.00  0.00    -0.014 A 
BRANCH  12  13
ATOM     13  C   UNL A   1      42.976  24.701  28.092  1.00  0.00     0.031 A 
ATOM     14  C   UNL A   1      44.409  25.131  28.232  1.00  0.00     0.074 A 
ATOM     15  C   UNL A   1      41.979  25.569  28.353  1.00  0.00     0.049 A 
ATOM     16  N   UNL A   1      44.884  26.300  28.585  1.00  0.00    -0.248 NA
ATOM     17  C   UNL A   1      45.444  24.125  27.948  1.00  0.00     0.031 C 
ATOM     18  C   UNL A   1      40.549  25.254  28.273  1.00  0.00     0.029 A 
ATOM     19  N   UNL A   1      42.006  26.891  28.709  1.00  0.00    -0.354 N 
ATOM     20  C   UNL A   1      46.266  26.170  28.573  1.00  0.00     0.074 A 
ATOM     21  C   UNL A   1      46.557  24.800  28.207  1.00  0.00     0.031 C 
ATOM     22  C   UNL A   1      39.839  26.366  28.513  1.00  0.00     0.029 A 
ATOM     23  C   UNL A   1      40.758  27.453  28.826  1.00  0.00     0.049 A 
ATOM     24  H   UNL A   1      42.839  27.392  28.866  1.00  0.00     0.167 HD
ATOM     25  C   UNL A   1      47.204  27.113  28.831  1.00  0.00     0.037 A 
ATOM     26  C   UNL A   1      40.388  28.702  29.162  1.00  0.00     0.037 A 
ATOM     27  C   UNL A   1      46.908  28.479  29.186  1.00  0.00     0.049 A 
ATOM     28  C   UNL A   1      41.452  29.716  29.458  1.00  0.00     0.074 A 
ATOM     29  C   UNL A   1      47.791  29.513  29.450  1.00  0.00     0.029 A 
ATOM     30  N   UNL A   1      45.632  29.002  29.325  1.00  0.00    -0.354 N 
ATOM     31  N   UNL A   1      42.754  29.584  29.416  1.00  0.00    -0.248 NA
ATOM     32  C   UNL A   1      40.993  31.055  29.853  1.00  0.00     0.031 C 
ATOM     33  C   UNL A   1      47.049  30.650  29.786  1.00  0.00     0.029 A 
ATOM     34  C   UNL A   1      45.704  30.338  29.688  1.00  0.00     0.049 A 
ATOM     35  H   UNL A   1      44.797  28.499  29.186  1.00  0.00     0.167 HD
ATOM     36  C   UNL A   1      43.272  30.821  29.768  1.00  0.00     0.074 A 
ATOM     37  C   UNL A   1      42.142  31.701  29.988  1.00  0.00     0.031 C 
ATOM     38  C   UNL A   1      44.568  31.195  29.909  1.00  0.00     0.037 A 
BRANCH  25  39
ATOM     39  C   UNL A   1      48.648  26.707  28.747  1.00  0.00     0.057 A 
ATOM     40  C   UNL A   1      49.320  26.145  29.839  1.00  0.00     0.134 A 
ATOM     41  C   UNL A   1      49.351  26.811  27.540  1.00  0.00     0.134 A 
ATOM     42  F   UNL A   1      48.707  26.027  31.027  1.00  0.00    -0.206 F 
ATOM     43  C   UNL A   1      50.643  25.711  29.737  1.00  0.00     0.040 A 
ATOM     44  C   UNL A   1      50.667  26.360  27.419  1.00  0.00     0.040 A 
ATOM     45  F   UNL A   1      48.764  27.333  26.452  1.00  0.00    -0.206 F 
ATOM     46  C   UNL A   1      51.317  25.809  28.520  1.00  0.00     0.006 A 
ENDBRANCH  25  39
BRANCH  26  47
ATOM     47  C   UNL A   1      38.949  29.052  29.253  1.00  0.00     0.057 A 
ATOM     48  C   UNL A   1      38.243  29.522  28.140  1.00  0.00     0.134 A 
ATOM     49  C   UNL A   1      38.248  28.932  30.459  1.00  0.00     0.134 A 
ATOM     50  F   UNL A   1      38.864  29.674  26.961  1.00  0.00    -0.206 F 
ATOM     51  C   UNL A   1      36.898  29.884  28.228  1.00  0.00     0.040 A 
ATOM     52  C   UNL A   1      36.895  29.261  30.554  1.00  0.00     0.040 A 
ATOM     53  F   UNL A   1      38.865  28.479  31.560  1.00  0.00    -0.206 F 
ATOM     54  C   UNL A   1      36.219  29.748  29.438  1.00  0.00     0.006 A 
ENDBRANCH  26  47
BRANCH  38  55
ATOM     55  C   UNL A   1      44.817  32.620  30.305  1.00  0.00     0.057 A 
ATOM     56  C   UNL A   1      44.944  32.999  31.647  1.00  0.00     0.134 A 
ATOM     57  C   UNL A   1      44.932  33.622  29.334  1.00  0.00     0.134 A 
ATOM     58  F   UNL A   1      44.827  32.087  32.625  1.00  0.00    -0.206 F 
ATOM     59  C   UNL A   1      45.142  34.331  32.012  1.00  0.00     0.040 A 
ATOM     60  C   UNL A   1      45.157  34.953  29.686  1.00  0.00     0.040 A 
ATOM     61  F   UNL A   1      44.827  33.324  28.030  1.00  0.00    -0.206 F 
ATOM     62  C   UNL A   1      45.254  35.312  31.029  1.00  0.00     0.006 A 
ENDBRANCH  38  55
ENDBRANCH  12  13
ENDBRANCH   5   7
ENDBRANCH   2   3
ENDBRANCH   1   2
BRANCH   1  63
ATOM     63  C   UNL A   1      36.535  20.358  25.016  1.00  0.00     0.117 C 
BRANCH  63  64
ATOM     64  N   UNL A   1      35.411  19.444  24.924  1.00  0.00    -0.356 N 
ATOM     65  C   UNL A   1      34.083  19.713  24.749  1.00  0.00     0.227 C 
ATOM     66  H   UNL A   1      35.640  18.490  25.000  1.00  0.00     0.163 HD
ATOM     67  O   UNL A   1      33.301  18.762  24.740  1.00  0.00    -0.274 OA
BRANCH  65  68
ATOM     68  C   UNL A   1      33.648  21.161  24.525  1.00  0.00     0.103 C 
ATOM     69  C   UNL A   1      32.504  21.280  23.555  1.00  0.00    -0.016 C 
ATOM     70  C   UNL A   1      33.054  21.811  25.781  1.00  0.00     0.047 C 
ATOM     71  C   UNL A   1      31.592  22.166  23.970  1.00  0.00    -0.006 C 
ATOM     72  C   UNL A   1      31.995  22.785  25.263  1.00  0.00     0.106 C 
BRANCH  72  73
ATOM     73  N   UNL A   1      30.844  22.870  26.127  1.00  0.00    -0.344 N 
ATOM     74  C   UNL A   1      30.199  23.999  26.585  1.00  0.00     0.270 C 
ATOM     75  H   UNL A   1      30.470  22.012  26.429  1.00  0.00     0.164 HD
ATOM     76  O   UNL A   1      29.299  23.893  27.414  1.00  0.00    -0.267 OA
BRANCH  74  77
ATOM     77  C   UNL A   1      30.589  25.339  26.059  1.00  0.00     0.128 A 
ATOM     78  C   UNL A   1      30.032  25.814  24.873  1.00  0.00     0.036 A 
ATOM     79  N   UNL A   1      31.504  26.029  26.787  1.00  0.00    -0.250 NA
ATOM     80  C   UNL A   1      30.462  27.046  24.385  1.00  0.00     0.024 A 
ATOM     81  C   UNL A   1      31.874  27.239  26.302  1.00  0.00     0.132 A 
ATOM     82  C   UNL A   1      31.399  27.774  25.113  1.00  0.00     0.059 A 
ATOM     83  Cl  UNL A   1      31.954  29.294  24.544  1.00  0.00    -0.083 Cl
ENDBRANCH  74  77
ENDBRANCH  72  73
ENDBRANCH  65  68
ENDBRANCH  63  64
ENDBRANCH   1  63
TORSDOF 12
ENDMDL
