MODEL 1
REMARK VINA RESULT:     -12.1      0.000      0.000
REMARK SMILES CC[C@H]1SC[C@H](C(=O)NCCCNC(=O)c2ccc(-c3c4nc(c(-c5c(F)cccc5F)c5ccc([nH]5)c(-c5c(F)cccc5F)c5nc(c(-c6c(F)cccc6F)c6ccc3[nH]6)C=C5)C=C4)cc2)N1C(=O)Cc1ccc(F)c(F)c1
REMARK SMILES IDX 10 1 9 2 7 3 8 4 6 6 3 7 4 8 70 9 5 10 2 11 1 12 71 13 72 14
REMARK SMILES IDX 73 15 74 16 75 17 81 18 76 19 79 20 77 21 80 22 78 23 11 24
REMARK SMILES IDX 12 25 13 26 14 27 15 29 16 30 17 31 69 32 18 33 68 34 19 35
REMARK SMILES IDX 20 36 21 37 62 38 22 39 67 40 61 41 63 42 23 43 66 44 60 45
REMARK SMILES IDX 59 46 24 48 50 49 33 50 49 51 34 52 37 53 48 54 64 55 35 56
REMARK SMILES IDX 36 57 47 59 65 60 38 61 25 62 26 63 31 64 27 65 28 66 30 67
REMARK SMILES IDX 32 68 29 69 51 70 52 71 57 72 53 73 54 74 56 75 58 76 55 77
REMARK SMILES IDX 39 78 40 79 45 80 41 81 42 82 44 83 46 84 43 85
REMARK H PARENT 9 5 13 28 63 47 37 58
REMARK Flexibility Score: inf
ROOT
ATOM      1  C   UNL A   1      31.873  30.595  26.117  1.00  0.00     0.117 C 
ENDROOT
BRANCH   1   2
ATOM      2  N   UNL A   1      31.413  29.490  26.947  1.00  0.00    -0.354 N 
ATOM      3  C   UNL A   1      31.658  28.144  26.791  1.00  0.00     0.243 C 
ATOM      4  O   UNL A   1      31.329  27.373  27.691  1.00  0.00    -0.273 OA
ATOM      5  H   UNL A   1      30.854  29.738  27.718  1.00  0.00     0.163 HD
BRANCH   3   6
ATOM      6  C   UNL A   1      32.390  27.703  25.510  1.00  0.00     0.185 C 
ATOM      7  C   UNL A   1      32.751  25.630  24.258  1.00  0.00     0.143 C 
ATOM      8  S   UNL A   1      34.056  25.592  25.507  1.00  0.00    -0.134 SA
ATOM      9  N   UNL A   1      31.784  26.589  24.764  1.00  0.00    -0.318 N 
ATOM     10  C   UNL A   1      33.830  27.327  25.913  1.00  0.00     0.107 C 
BRANCH   7  11
ATOM     11  C   UNL A   1      33.365  26.005  22.882  1.00  0.00     0.033 C 
ATOM     12  C   UNL A   1      32.893  25.234  21.651  1.00  0.00     0.007 C 
ENDBRANCH   7  11
BRANCH   9  13
ATOM     13  C   UNL A   1      30.478  26.693  24.312  1.00  0.00     0.228 C 
ATOM     14  O   UNL A   1      29.539  26.206  24.945  1.00  0.00    -0.274 OA
BRANCH  13  15
ATOM     15  C   UNL A   1      30.231  27.397  22.975  1.00  0.00     0.135 C 
BRANCH  15  16
ATOM     16  C   UNL A   1      29.346  28.617  23.083  1.00  0.00    -0.036 A 
ATOM     17  C   UNL A   1      27.958  28.507  22.902  1.00  0.00     0.007 A 
ATOM     18  C   UNL A   1      29.893  29.869  23.411  1.00  0.00     0.046 A 
ATOM     19  C   UNL A   1      27.125  29.608  23.122  1.00  0.00     0.043 A 
ATOM     20  C   UNL A   1      29.053  30.954  23.649  1.00  0.00     0.159 A 
ATOM     21  C   UNL A   1      27.678  30.821  23.515  1.00  0.00     0.158 A 
ATOM     22  F   UNL A   1      29.584  32.115  24.058  1.00  0.00    -0.204 F 
ATOM     23  F   UNL A   1      26.870  31.856  23.785  1.00  0.00    -0.204 F 
ENDBRANCH  15  16
ENDBRANCH  13  15
ENDBRANCH   9  13
ENDBRANCH   3   6
ENDBRANCH   1   2
BRANCH   1  24
ATOM     24  C   UNL A   1      31.544  31.961  26.685  1.00  0.00     0.042 C 
BRANCH  24  25
ATOM     25  C   UNL A   1      32.745  32.705  27.243  1.00  0.00     0.118 C 
BRANCH  25  26
ATOM     26  N   UNL A   1      32.443  34.087  27.597  1.00  0.00    -0.352 N 
ATOM     27  C   UNL A   1      32.994  34.896  28.558  1.00  0.00     0.251 C 
ATOM     28  H   UNL A   1      31.732  34.506  27.059  1.00  0.00     0.163 HD
ATOM     29  O   UNL A   1      32.484  35.987  28.801  1.00  0.00    -0.269 OA
BRANCH  27  30
ATOM     30  C   UNL A   1      34.178  34.449  29.322  1.00  0.00     0.039 A 
ATOM     31  C   UNL A   1      33.991  33.869  30.579  1.00  0.00     0.014 A 
ATOM     32  C   UNL A   1      35.467  34.596  28.805  1.00  0.00     0.014 A 
ATOM     33  C   UNL A   1      35.089  33.364  31.279  1.00  0.00     0.010 A 
ATOM     34  C   UNL A   1      36.545  34.005  29.455  1.00  0.00     0.010 A 
ATOM     35  C   UNL A   1      36.369  33.386  30.702  1.00  0.00    -0.014 A 
BRANCH  35  36
ATOM     36  C   UNL A   1      37.536  32.770  31.382  1.00  0.00     0.031 A 
ATOM     37  C   UNL A   1      38.212  31.568  30.782  1.00  0.00     0.074 A 
ATOM     38  C   UNL A   1      37.942  33.252  32.574  1.00  0.00     0.049 A 
ATOM     39  N   UNL A   1      39.199  30.852  31.258  1.00  0.00    -0.248 NA
ATOM     40  C   UNL A   1      37.695  31.089  29.489  1.00  0.00     0.031 C 
ATOM     41  C   UNL A   1      37.340  34.383  33.282  1.00  0.00     0.029 A 
ATOM     42  N   UNL A   1      38.956  32.843  33.405  1.00  0.00    -0.354 N 
ATOM     43  C   UNL A   1      39.403  29.831  30.338  1.00  0.00     0.074 A 
ATOM     44  C   UNL A   1      38.408  29.989  29.301  1.00  0.00     0.031 C 
ATOM     45  C   UNL A   1      38.014  34.598  34.424  1.00  0.00     0.029 A 
ATOM     46  C   UNL A   1      39.066  33.594  34.551  1.00  0.00     0.049 A 
ATOM     47  H   UNL A   1      39.548  32.084  33.199  1.00  0.00     0.167 HD
ATOM     48  C   UNL A   1      40.349  28.863  30.346  1.00  0.00     0.037 A 
ATOM     49  C   UNL A   1      39.912  33.479  35.591  1.00  0.00     0.037 A 
ATOM     50  C   UNL A   1      41.359  28.729  31.363  1.00  0.00     0.049 A 
ATOM     51  C   UNL A   1      40.943  32.382  35.580  1.00  0.00     0.074 A 
ATOM     52  C   UNL A   1      42.409  27.828  31.420  1.00  0.00     0.029 A 
ATOM     53  N   UNL A   1      41.441  29.512  32.505  1.00  0.00    -0.354 N 
ATOM     54  N   UNL A   1      41.177  31.476  34.662  1.00  0.00    -0.248 NA
ATOM     55  C   UNL A   1      41.829  32.296  36.749  1.00  0.00     0.031 C 
ATOM     56  C   UNL A   1      43.091  28.028  32.623  1.00  0.00     0.029 A 
ATOM     57  C   UNL A   1      42.504  29.093  33.288  1.00  0.00     0.049 A 
ATOM     58  H   UNL A   1      40.834  30.255  32.726  1.00  0.00     0.167 HD
ATOM     59  C   UNL A   1      42.260  30.738  35.125  1.00  0.00     0.074 A 
ATOM     60  C   UNL A   1      42.642  31.311  36.398  1.00  0.00     0.031 C 
ATOM     61  C   UNL A   1      42.883  29.682  34.547  1.00  0.00     0.037 A 
BRANCH  48  62
ATOM     62  C   UNL A   1      40.341  27.868  29.222  1.00  0.00     0.057 A 
ATOM     63  C   UNL A   1      41.167  28.010  28.099  1.00  0.00     0.134 A 
ATOM     64  C   UNL A   1      39.535  26.724  29.289  1.00  0.00     0.134 A 
ATOM     65  F   UNL A   1      41.955  29.087  27.964  1.00  0.00    -0.206 F 
ATOM     66  C   UNL A   1      41.173  27.062  27.072  1.00  0.00     0.040 A 
ATOM     67  C   UNL A   1      39.555  25.755  28.285  1.00  0.00     0.040 A 
ATOM     68  F   UNL A   1      38.725  26.522  30.340  1.00  0.00    -0.206 F 
ATOM     69  C   UNL A   1      40.373  25.926  27.169  1.00  0.00     0.006 A 
ENDBRANCH  48  62
BRANCH  49  70
ATOM     70  C   UNL A   1      39.843  34.434  36.728  1.00  0.00     0.057 A 
ATOM     71  C   UNL A   1      40.537  35.649  36.690  1.00  0.00     0.134 A 
ATOM     72  C   UNL A   1      39.113  34.145  37.887  1.00  0.00     0.134 A 
ATOM     73  F   UNL A   1      41.269  35.975  35.614  1.00  0.00    -0.206 F 
ATOM     74  C   UNL A   1      40.535  36.528  37.775  1.00  0.00     0.040 A 
ATOM     75  C   UNL A   1      39.079  35.029  38.968  1.00  0.00     0.040 A 
ATOM     76  F   UNL A   1      38.418  33.003  37.985  1.00  0.00    -0.206 F 
ATOM     77  C   UNL A   1      39.801  36.219  38.918  1.00  0.00     0.006 A 
ENDBRANCH  49  70
BRANCH  61  78
ATOM     78  C   UNL A   1      44.072  29.108  35.259  1.00  0.00     0.057 A 
ATOM     79  C   UNL A   1      43.948  28.088  36.211  1.00  0.00     0.134 A 
ATOM     80  C   UNL A   1      45.365  29.557  34.960  1.00  0.00     0.134 A 
ATOM     81  F   UNL A   1      42.737  27.622  36.555  1.00  0.00    -0.206 F 
ATOM     82  C   UNL A   1      45.064  27.554  36.858  1.00  0.00     0.040 A 
ATOM     83  C   UNL A   1      46.490  29.010  35.576  1.00  0.00     0.040 A 
ATOM     84  F   UNL A   1      45.556  30.524  34.050  1.00  0.00    -0.206 F 
ATOM     85  C   UNL A   1      46.341  28.010  36.534  1.00  0.00     0.006 A 
ENDBRANCH  61  78
ENDBRANCH  35  36
ENDBRANCH  27  30
ENDBRANCH  25  26
ENDBRANCH  24  25
ENDBRANCH   1  24
TORSDOF 14
ENDMDL
MODEL 2
REMARK VINA RESULT:     -11.9      0.515      6.187
REMARK SMILES CC[C@H]1SC[C@H](C(=O)NCCCNC(=O)c2ccc(-c3c4nc(c(-c5c(F)cccc5F)c5ccc([nH]5)c(-c5c(F)cccc5F)c5nc(c(-c6c(F)cccc6F)c6ccc3[nH]6)C=C5)C=C4)cc2)N1C(=O)Cc1ccc(F)c(F)c1
REMARK SMILES IDX 10 1 9 2 7 3 8 4 6 6 3 7 4 8 70 9 5 10 2 11 1 12 71 13 72 14
REMARK SMILES IDX 73 15 74 16 75 17 81 18 76 19 79 20 77 21 80 22 78 23 11 24
REMARK SMILES IDX 12 25 13 26 14 27 15 29 16 30 17 31 69 32 18 33 68 34 19 35
REMARK SMILES IDX 20 36 21 37 62 38 22 39 67 40 61 41 63 42 23 43 66 44 60 45
REMARK SMILES IDX 59 46 24 48 50 49 33 50 49 51 34 52 37 53 48 54 64 55 35 56
REMARK SMILES IDX 36 57 47 59 65 60 38 61 25 62 26 63 31 64 27 65 28 66 30 67
REMARK SMILES IDX 32 68 29 69 51 70 52 71 57 72 53 73 54 74 56 75 58 76 55 77
REMARK SMILES IDX 39 78 40 79 45 80 41 81 42 82 44 83 46 84 43 85
REMARK H PARENT 9 5 13 28 63 47 37 58
REMARK Flexibility Score: inf
ROOT
ATOM      1  C   UNL A   1      31.781  30.596  25.928  1.00  0.00     0.117 C 
ENDROOT
BRANCH   1   2
ATOM      2  N   UNL A   1      31.401  29.496  26.804  1.00  0.00    -0.354 N 
ATOM      3  C   UNL A   1      31.712  28.160  26.682  1.00  0.00     0.243 C 
ATOM      4  O   UNL A   1      31.447  27.402  27.615  1.00  0.00    -0.273 OA
ATOM      5  H   UNL A   1      30.852  29.739  27.583  1.00  0.00     0.163 HD
BRANCH   3   6
ATOM      6  C   UNL A   1      32.430  27.716  25.394  1.00  0.00     0.185 C 
ATOM      7  C   UNL A   1      32.777  25.640  24.143  1.00  0.00     0.143 C 
ATOM      8  S   UNL A   1      34.095  25.604  25.379  1.00  0.00    -0.134 SA
ATOM      9  N   UNL A   1      31.816  26.600  24.657  1.00  0.00    -0.318 N 
ATOM     10  C   UNL A   1      33.874  27.339  25.783  1.00  0.00     0.107 C 
BRANCH   7  11
ATOM     11  C   UNL A   1      33.376  26.011  22.760  1.00  0.00     0.033 C 
ATOM     12  C   UNL A   1      32.897  25.233  21.537  1.00  0.00     0.007 C 
ENDBRANCH   7  11
BRANCH   9  13
ATOM     13  C   UNL A   1      30.505  26.704  24.218  1.00  0.00     0.228 C 
ATOM     14  O   UNL A   1      29.573  26.215  24.859  1.00  0.00    -0.274 OA
BRANCH  13  15
ATOM     15  C   UNL A   1      30.243  27.411  22.886  1.00  0.00     0.135 C 
BRANCH  15  16
ATOM     16  C   UNL A   1      29.357  28.629  23.006  1.00  0.00    -0.036 A 
ATOM     17  C   UNL A   1      27.962  28.507  22.895  1.00  0.00     0.007 A 
ATOM     18  C   UNL A   1      29.911  29.892  23.275  1.00  0.00     0.046 A 
ATOM     19  C   UNL A   1      27.134  29.609  23.127  1.00  0.00     0.043 A 
ATOM     20  C   UNL A   1      29.077  30.978  23.526  1.00  0.00     0.159 A 
ATOM     21  C   UNL A   1      27.698  30.835  23.463  1.00  0.00     0.158 A 
ATOM     22  F   UNL A   1      29.619  32.152  23.879  1.00  0.00    -0.204 F 
ATOM     23  F   UNL A   1      26.897  31.871  23.744  1.00  0.00    -0.204 F 
ENDBRANCH  15  16
ENDBRANCH  13  15
ENDBRANCH   9  13
ENDBRANCH   3   6
ENDBRANCH   1   2
BRANCH   1  24
ATOM     24  C   UNL A   1      31.513  31.965  26.518  1.00  0.00     0.042 C 
BRANCH  24  25
ATOM     25  C   UNL A   1      32.714  32.584  27.214  1.00  0.00     0.118 C 
BRANCH  25  26
ATOM     26  N   UNL A   1      32.482  33.962  27.628  1.00  0.00    -0.352 N 
ATOM     27  C   UNL A   1      33.086  34.706  28.610  1.00  0.00     0.251 C 
ATOM     28  H   UNL A   1      31.782  34.436  27.121  1.00  0.00     0.163 HD
ATOM     29  O   UNL A   1      32.630  35.808  28.906  1.00  0.00    -0.269 OA
BRANCH  27  30
ATOM     30  C   UNL A   1      34.260  34.175  29.334  1.00  0.00     0.039 A 
ATOM     31  C   UNL A   1      34.054  33.385  30.468  1.00  0.00     0.014 A 
ATOM     32  C   UNL A   1      35.558  34.448  28.900  1.00  0.00     0.014 A 
ATOM     33  C   UNL A   1      35.147  32.806  31.116  1.00  0.00     0.010 A 
ATOM     34  C   UNL A   1      36.636  33.791  29.483  1.00  0.00     0.010 A 
ATOM     35  C   UNL A   1      36.443  32.966  30.600  1.00  0.00    -0.014 A 
BRANCH  35  36
ATOM     36  C   UNL A   1      37.610  32.282  31.212  1.00  0.00     0.031 A 
ATOM     37  C   UNL A   1      38.205  32.802  32.493  1.00  0.00     0.074 A 
ATOM     38  C   UNL A   1      38.177  31.236  30.578  1.00  0.00     0.049 A 
ATOM     39  N   UNL A   1      39.261  32.383  33.143  1.00  0.00    -0.248 NA
ATOM     40  C   UNL A   1      37.541  33.961  33.112  1.00  0.00     0.031 C 
ATOM     41  C   UNL A   1      37.723  30.667  29.307  1.00  0.00     0.029 A 
ATOM     42  N   UNL A   1      39.265  30.469  30.914  1.00  0.00    -0.354 N 
ATOM     43  C   UNL A   1      39.399  33.238  34.229  1.00  0.00     0.074 A 
ATOM     44  C   UNL A   1      38.351  34.229  34.125  1.00  0.00     0.031 C 
ATOM     45  C   UNL A   1      38.505  29.623  28.988  1.00  0.00     0.029 A 
ATOM     46  C   UNL A   1      39.542  29.477  30.004  1.00  0.00     0.049 A 
ATOM     47  H   UNL A   1      39.796  30.616  31.730  1.00  0.00     0.167 HD
ATOM     48  C   UNL A   1      40.305  33.189  35.234  1.00  0.00     0.037 A 
ATOM     49  C   UNL A   1      40.527  28.559  29.987  1.00  0.00     0.037 A 
ATOM     50  C   UNL A   1      41.327  32.181  35.351  1.00  0.00     0.049 A 
ATOM     51  C   UNL A   1      41.529  28.539  31.110  1.00  0.00     0.074 A 
ATOM     52  C   UNL A   1      42.244  32.000  36.372  1.00  0.00     0.029 A 
ATOM     53  N   UNL A   1      41.572  31.190  34.413  1.00  0.00    -0.354 N 
ATOM     54  N   UNL A   1      41.597  29.302  32.173  1.00  0.00    -0.248 NA
ATOM     55  C   UNL A   1      42.591  27.526  31.029  1.00  0.00     0.031 C 
ATOM     56  C   UNL A   1      43.080  30.936  36.025  1.00  0.00     0.029 A 
ATOM     57  C   UNL A   1      42.647  30.415  34.816  1.00  0.00     0.049 A 
ATOM     58  H   UNL A   1      41.058  31.057  33.583  1.00  0.00     0.167 HD
ATOM     59  C   UNL A   1      42.682  28.837  32.906  1.00  0.00     0.074 A 
ATOM     60  C   UNL A   1      43.234  27.719  32.171  1.00  0.00     0.031 C 
ATOM     61  C   UNL A   1      43.177  29.294  34.082  1.00  0.00     0.037 A 
BRANCH  48  62
ATOM     62  C   UNL A   1      40.238  34.254  36.290  1.00  0.00     0.057 A 
ATOM     63  C   UNL A   1      40.952  35.454  36.180  1.00  0.00     0.134 A 
ATOM     64  C   UNL A   1      39.407  34.098  37.406  1.00  0.00     0.134 A 
ATOM     65  F   UNL A   1      41.777  35.664  35.142  1.00  0.00    -0.206 F 
ATOM     66  C   UNL A   1      40.860  36.451  37.154  1.00  0.00     0.040 A 
ATOM     67  C   UNL A   1      39.282  35.099  38.370  1.00  0.00     0.040 A 
ATOM     68  F   UNL A   1      38.690  32.976  37.570  1.00  0.00    -0.206 F 
ATOM     69  C   UNL A   1      40.015  36.279  38.248  1.00  0.00     0.006 A 
ENDBRANCH  48  62
BRANCH  49  70
ATOM     70  C   UNL A   1      40.613  27.566  28.884  1.00  0.00     0.057 A 
ATOM     71  C   UNL A   1      41.484  27.763  27.805  1.00  0.00     0.134 A 
ATOM     72  C   UNL A   1      39.809  26.420  28.863  1.00  0.00     0.134 A 
ATOM     73  F   UNL A   1      42.266  28.851  27.759  1.00  0.00    -0.206 F 
ATOM     74  C   UNL A   1      41.530  26.874  26.730  1.00  0.00     0.040 A 
ATOM     75  C   UNL A   1      39.866  25.508  27.807  1.00  0.00     0.040 A 
ATOM     76  F   UNL A   1      38.960  26.168  29.869  1.00  0.00    -0.206 F 
ATOM     77  C   UNL A   1      40.721  25.740  26.732  1.00  0.00     0.006 A 
ENDBRANCH  49  70
BRANCH  61  78
ATOM     78  C   UNL A   1      44.342  28.557  34.673  1.00  0.00     0.057 A 
ATOM     79  C   UNL A   1      45.667  28.943  34.432  1.00  0.00     0.134 A 
ATOM     80  C   UNL A   1      44.133  27.468  35.530  1.00  0.00     0.134 A 
ATOM     81  F   UNL A   1      45.937  29.969  33.611  1.00  0.00    -0.206 F 
ATOM     82  C   UNL A   1      46.741  28.255  34.998  1.00  0.00     0.040 A 
ATOM     83  C   UNL A   1      45.198  26.793  36.127  1.00  0.00     0.040 A 
ATOM     84  F   UNL A   1      42.889  27.053  35.812  1.00  0.00    -0.206 F 
ATOM     85  C   UNL A   1      46.507  27.181  35.856  1.00  0.00     0.006 A 
ENDBRANCH  61  78
ENDBRANCH  35  36
ENDBRANCH  27  30
ENDBRANCH  25  26
ENDBRANCH  24  25
ENDBRANCH   1  24
TORSDOF 14
ENDMDL
MODEL 3
REMARK VINA RESULT:     -11.8      3.997      8.180
REMARK SMILES CC[C@H]1SC[C@H](C(=O)NCCCNC(=O)c2ccc(-c3c4nc(c(-c5c(F)cccc5F)c5ccc([nH]5)c(-c5c(F)cccc5F)c5nc(c(-c6c(F)cccc6F)c6ccc3[nH]6)C=C5)C=C4)cc2)N1C(=O)Cc1ccc(F)c(F)c1
REMARK SMILES IDX 10 1 9 2 7 3 8 4 6 6 3 7 4 8 70 9 5 10 2 11 1 12 71 13 72 14
REMARK SMILES IDX 73 15 74 16 75 17 81 18 76 19 79 20 77 21 80 22 78 23 11 24
REMARK SMILES IDX 12 25 13 26 14 27 15 29 16 30 17 31 69 32 18 33 68 34 19 35
REMARK SMILES IDX 20 36 21 37 62 38 22 39 67 40 61 41 63 42 23 43 66 44 60 45
REMARK SMILES IDX 59 46 24 48 50 49 33 50 49 51 34 52 37 53 48 54 64 55 35 56
REMARK SMILES IDX 36 57 47 59 65 60 38 61 25 62 26 63 31 64 27 65 28 66 30 67
REMARK SMILES IDX 32 68 29 69 51 70 52 71 57 72 53 73 54 74 56 75 58 76 55 77
REMARK SMILES IDX 39 78 40 79 45 80 41 81 42 82 44 83 46 84 43 85
REMARK H PARENT 9 5 13 28 63 47 37 58
REMARK Flexibility Score: inf
ROOT
ATOM      1  C   UNL A   1      33.841  27.084  25.340  1.00  0.00     0.117 C 
ENDROOT
BRANCH   1   2
ATOM      2  N   UNL A   1      32.705  26.381  25.922  1.00  0.00    -0.354 N 
ATOM      3  C   UNL A   1      32.603  25.048  26.252  1.00  0.00     0.243 C 
ATOM      4  O   UNL A   1      31.625  24.670  26.895  1.00  0.00    -0.273 OA
ATOM      5  H   UNL A   1      31.909  26.930  26.103  1.00  0.00     0.163 HD
BRANCH   3   6
ATOM      6  C   UNL A   1      33.764  24.126  25.837  1.00  0.00     0.185 C 
ATOM      7  C   UNL A   1      34.049  21.997  24.661  1.00  0.00     0.143 C 
ATOM      8  S   UNL A   1      33.713  21.489  26.362  1.00  0.00    -0.134 SA
ATOM      9  N   UNL A   1      33.581  23.370  24.587  1.00  0.00    -0.318 N 
ATOM     10  C   UNL A   1      34.005  23.142  26.999  1.00  0.00     0.107 C 
BRANCH   7  11
ATOM     11  C   UNL A   1      35.561  21.818  24.358  1.00  0.00     0.033 C 
ATOM     12  C   UNL A   1      36.323  20.737  25.120  1.00  0.00     0.007 C 
ENDBRANCH   7  11
BRANCH   9  13
ATOM     13  C   UNL A   1      33.332  24.048  23.403  1.00  0.00     0.228 C 
ATOM     14  O   UNL A   1      34.212  24.706  22.843  1.00  0.00    -0.274 OA
BRANCH  13  15
ATOM     15  C   UNL A   1      31.916  23.994  22.825  1.00  0.00     0.135 C 
BRANCH  15  16
ATOM     16  C   UNL A   1      31.130  25.270  23.020  1.00  0.00    -0.036 A 
ATOM     17  C   UNL A   1      31.530  26.456  22.384  1.00  0.00     0.007 A 
ATOM     18  C   UNL A   1      29.962  25.276  23.802  1.00  0.00     0.046 A 
ATOM     19  C   UNL A   1      30.737  27.604  22.464  1.00  0.00     0.043 A 
ATOM     20  C   UNL A   1      29.169  26.419  23.858  1.00  0.00     0.159 A 
ATOM     21  C   UNL A   1      29.548  27.572  23.185  1.00  0.00     0.158 A 
ATOM     22  F   UNL A   1      28.008  26.377  24.527  1.00  0.00    -0.204 F 
ATOM     23  F   UNL A   1      28.762  28.656  23.207  1.00  0.00    -0.204 F 
ENDBRANCH  15  16
ENDBRANCH  13  15
ENDBRANCH   9  13
ENDBRANCH   3   6
ENDBRANCH   1   2
BRANCH   1  24
ATOM     24  C   UNL A   1      34.018  28.494  25.864  1.00  0.00     0.042 C 
BRANCH  24  25
ATOM     25  C   UNL A   1      33.683  28.654  27.337  1.00  0.00     0.118 C 
BRANCH  25  26
ATOM     26  N   UNL A   1      33.720  30.042  27.781  1.00  0.00    -0.352 N 
ATOM     27  C   UNL A   1      34.726  30.752  28.388  1.00  0.00     0.251 C 
ATOM     28  H   UNL A   1      32.893  30.552  27.618  1.00  0.00     0.163 HD
ATOM     29  O   UNL A   1      34.498  31.875  28.828  1.00  0.00    -0.269 OA
BRANCH  27  30
ATOM     30  C   UNL A   1      36.071  30.159  28.541  1.00  0.00     0.039 A 
ATOM     31  C   UNL A   1      36.965  30.225  27.470  1.00  0.00     0.014 A 
ATOM     32  C   UNL A   1      36.456  29.543  29.735  1.00  0.00     0.014 A 
ATOM     33  C   UNL A   1      38.268  29.745  27.625  1.00  0.00     0.010 A 
ATOM     34  C   UNL A   1      37.779  29.158  29.921  1.00  0.00     0.010 A 
ATOM     35  C   UNL A   1      38.699  29.251  28.866  1.00  0.00    -0.014 A 
BRANCH  35  36
ATOM     36  C   UNL A   1      40.104  28.825  29.085  1.00  0.00     0.031 A 
ATOM     37  C   UNL A   1      41.089  29.767  29.720  1.00  0.00     0.074 A 
ATOM     38  C   UNL A   1      40.509  27.615  28.648  1.00  0.00     0.049 A 
ATOM     39  N   UNL A   1      42.370  29.603  29.933  1.00  0.00    -0.248 NA
ATOM     40  C   UNL A   1      40.574  31.078  30.150  1.00  0.00     0.031 C 
ATOM     41  C   UNL A   1      39.661  26.629  27.975  1.00  0.00     0.029 A 
ATOM     42  N   UNL A   1      41.741  27.013  28.699  1.00  0.00    -0.354 N 
ATOM     43  C   UNL A   1      42.815  30.793  30.497  1.00  0.00     0.074 A 
ATOM     44  C   UNL A   1      41.680  31.687  30.549  1.00  0.00     0.031 C 
ATOM     45  C   UNL A   1      40.390  25.533  27.704  1.00  0.00     0.029 A 
ATOM     46  C   UNL A   1      41.764  25.756  28.142  1.00  0.00     0.049 A 
ATOM     47  H   UNL A   1      42.534  27.440  29.096  1.00  0.00     0.167 HD
ATOM     48  C   UNL A   1      44.052  31.102  30.951  1.00  0.00     0.037 A 
ATOM     49  C   UNL A   1      42.780  24.886  27.993  1.00  0.00     0.037 A 
ATOM     50  C   UNL A   1      45.171  30.197  30.928  1.00  0.00     0.049 A 
ATOM     51  C   UNL A   1      44.148  25.264  28.493  1.00  0.00     0.074 A 
ATOM     52  C   UNL A   1      46.445  30.390  31.434  1.00  0.00     0.029 A 
ATOM     53  N   UNL A   1      45.153  28.931  30.361  1.00  0.00    -0.354 N 
ATOM     54  N   UNL A   1      44.534  26.360  29.100  1.00  0.00    -0.248 NA
ATOM     55  C   UNL A   1      45.222  24.282  28.289  1.00  0.00     0.031 C 
ATOM     56  C   UNL A   1      47.213  29.265  31.123  1.00  0.00     0.029 A 
ATOM     57  C   UNL A   1      46.402  28.345  30.477  1.00  0.00     0.049 A 
ATOM     58  H   UNL A   1      44.368  28.512  29.940  1.00  0.00     0.167 HD
ATOM     59  C   UNL A   1      45.883  26.183  29.384  1.00  0.00     0.074 A 
ATOM     60  C   UNL A   1      46.243  24.870  28.894  1.00  0.00     0.031 C 
ATOM     61  C   UNL A   1      46.744  27.030  29.997  1.00  0.00     0.037 A 
BRANCH  48  62
ATOM     62  C   UNL A   1      44.267  32.478  31.513  1.00  0.00     0.057 A 
ATOM     63  C   UNL A   1      44.594  33.570  30.698  1.00  0.00     0.134 A 
ATOM     64  C   UNL A   1      44.093  32.723  32.881  1.00  0.00     0.134 A 
ATOM     65  F   UNL A   1      44.788  33.403  29.381  1.00  0.00    -0.206 F 
ATOM     66  C   UNL A   1      44.764  34.851  31.227  1.00  0.00     0.040 A 
ATOM     67  C   UNL A   1      44.229  34.005  33.417  1.00  0.00     0.040 A 
ATOM     68  F   UNL A   1      43.773  31.725  33.717  1.00  0.00    -0.206 F 
ATOM     69  C   UNL A   1      44.571  35.073  32.589  1.00  0.00     0.006 A 
ENDBRANCH  48  62
BRANCH  49  70
ATOM     70  C   UNL A   1      42.551  23.560  27.360  1.00  0.00     0.057 A 
ATOM     71  C   UNL A   1      42.187  22.449  28.130  1.00  0.00     0.134 A 
ATOM     72  C   UNL A   1      42.720  23.364  25.985  1.00  0.00     0.134 A 
ATOM     73  F   UNL A   1      42.027  22.570  29.457  1.00  0.00    -0.206 F 
ATOM     74  C   UNL A   1      42.031  21.184  27.562  1.00  0.00     0.040 A 
ATOM     75  C   UNL A   1      42.539  22.109  25.398  1.00  0.00     0.040 A 
ATOM     76  F   UNL A   1      43.059  24.388  25.189  1.00  0.00    -0.206 F 
ATOM     77  C   UNL A   1      42.204  21.013  26.190  1.00  0.00     0.006 A 
ENDBRANCH  49  70
BRANCH  61  78
ATOM     78  C   UNL A   1      48.148  26.547  30.218  1.00  0.00     0.057 A 
ATOM     79  C   UNL A   1      49.172  26.794  29.295  1.00  0.00     0.134 A 
ATOM     80  C   UNL A   1      48.486  25.858  31.389  1.00  0.00     0.134 A 
ATOM     81  F   UNL A   1      48.914  27.436  28.146  1.00  0.00    -0.206 F 
ATOM     82  C   UNL A   1      50.477  26.349  29.519  1.00  0.00     0.040 A 
ATOM     83  C   UNL A   1      49.793  25.436  31.639  1.00  0.00     0.040 A 
ATOM     84  F   UNL A   1      47.555  25.598  32.320  1.00  0.00    -0.206 F 
ATOM     85  C   UNL A   1      50.791  25.675  30.698  1.00  0.00     0.006 A 
ENDBRANCH  61  78
ENDBRANCH  35  36
ENDBRANCH  27  30
ENDBRANCH  25  26
ENDBRANCH  24  25
ENDBRANCH   1  24
TORSDOF 14
ENDMDL
