MODEL 1
REMARK VINA RESULT:     -11.7      0.000      0.000
REMARK SMILES CCc1ccc(C(=O)N2CC[C@H](C(=O)NCCCNC(=O)c3ccc(-c4c5nc(c(-c6c(F)cccc6F)c6ccc([nH]6)c(-c6c(F)cccc6F)c6nc(c(-c7c(F)cccc7F)c7ccc4[nH]7)C=C6)C=C5)cc3)[C@@H]2C)s1
REMARK SMILES IDX 16 1 15 2 13 3 14 4 12 6 9 7 10 8 76 9 11 10 77 11 7 12 8 13
REMARK SMILES IDX 6 14 3 15 4 16 78 17 5 18 2 19 1 20 17 21 18 22 19 23 20 24
REMARK SMILES IDX 21 26 22 27 23 28 75 29 24 30 74 31 25 32 26 33 27 34 68 35
REMARK SMILES IDX 28 36 73 37 67 38 69 39 29 40 72 41 66 42 65 43 30 45 56 46
REMARK SMILES IDX 39 47 55 48 40 49 43 50 54 51 70 52 41 53 42 54 53 56 71 57
REMARK SMILES IDX 44 58 31 59 32 60 37 61 33 62 34 63 36 64 38 65 35 66 57 67
REMARK SMILES IDX 58 68 63 69 59 70 60 71 62 72 64 73 61 74 45 75 46 76 51 77
REMARK SMILES IDX 47 78 48 79 50 80 52 81 49 82
REMARK H PARENT 15 5 19 25 69 44 43 55
REMARK Flexibility Score: inf
ROOT
ATOM      1  C   UNL A   1      37.000  20.566  24.947  1.00  0.00     0.117 C 
ENDROOT
BRANCH   1   2
ATOM      2  N   UNL A   1      35.762  19.811  25.036  1.00  0.00    -0.356 N 
ATOM      3  C   UNL A   1      34.466  20.203  24.885  1.00  0.00     0.225 C 
ATOM      4  O   UNL A   1      33.593  19.338  24.955  1.00  0.00    -0.275 OA
ATOM      5  H   UNL A   1      35.880  18.855  25.242  1.00  0.00     0.163 HD
BRANCH   3   6
ATOM      6  C   UNL A   1      34.133  21.668  24.667  1.00  0.00     0.102 C 
ATOM      7  N   UNL A   1      32.594  23.067  25.829  1.00  0.00    -0.334 N 
ATOM      8  C   UNL A   1      31.802  22.253  24.932  1.00  0.00     0.121 C 
ATOM      9  C   UNL A   1      33.939  22.494  25.964  1.00  0.00     0.094 C 
ATOM     10  C   UNL A   1      32.812  21.827  23.888  1.00  0.00     0.037 C 
ATOM     11  C   UNL A   1      34.038  21.707  27.274  1.00  0.00     0.032 C 
BRANCH   7  12
ATOM     12  C   UNL A   1      31.999  24.113  26.527  1.00  0.00     0.264 C 
ATOM     13  O   UNL A   1      31.133  23.863  27.370  1.00  0.00    -0.268 OA
BRANCH  12  14
ATOM     14  C   UNL A   1      32.368  25.482  26.188  1.00  0.00     0.092 A 
ATOM     15  C   UNL A   1      32.208  27.862  25.474  1.00  0.00     0.005 A 
ATOM     16  C   UNL A   1      33.502  27.376  25.425  1.00  0.00     0.016 A 
ATOM     17  S   UNL A   1      31.134  26.666  26.065  1.00  0.00    -0.135 S 
ATOM     18  C   UNL A   1      33.589  26.006  25.809  1.00  0.00     0.026 A 
BRANCH  15  19
ATOM     19  C   UNL A   1      31.766  29.234  25.034  1.00  0.00     0.043 C 
ATOM     20  C   UNL A   1      30.672  29.296  23.981  1.00  0.00     0.010 C 
ENDBRANCH  15  19
ENDBRANCH  12  14
ENDBRANCH   7  12
ENDBRANCH   3   6
ENDBRANCH   1   2
BRANCH   1  21
ATOM     21  C   UNL A   1      38.236  19.675  24.857  1.00  0.00     0.042 C 
BRANCH  21  22
ATOM     22  C   UNL A   1      39.194  19.760  26.046  1.00  0.00     0.118 C 
BRANCH  22  23
ATOM     23  N   UNL A   1      40.456  19.080  25.814  1.00  0.00    -0.352 N 
ATOM     24  C   UNL A   1      41.742  19.543  25.938  1.00  0.00     0.251 C 
ATOM     25  H   UNL A   1      40.377  18.143  25.522  1.00  0.00     0.163 HD
ATOM     26  O   UNL A   1      42.672  18.823  25.585  1.00  0.00    -0.269 OA
BRANCH  24  27
ATOM     27  C   UNL A   1      42.029  20.899  26.460  1.00  0.00     0.039 A 
ATOM     28  C   UNL A   1      41.930  21.105  27.841  1.00  0.00     0.014 A 
ATOM     29  C   UNL A   1      42.321  21.977  25.617  1.00  0.00     0.014 A 
ATOM     30  C   UNL A   1      42.164  22.371  28.382  1.00  0.00     0.010 A 
ATOM     31  C   UNL A   1      42.584  23.237  26.160  1.00  0.00     0.010 A 
ATOM     32  C   UNL A   1      42.506  23.443  27.545  1.00  0.00    -0.014 A 
BRANCH  32  33
ATOM     33  C   UNL A   1      42.776  24.783  28.119  1.00  0.00     0.031 A 
ATOM     34  C   UNL A   1      44.168  25.176  28.517  1.00  0.00     0.074 A 
ATOM     35  C   UNL A   1      41.758  25.644  28.298  1.00  0.00     0.049 A 
ATOM     36  N   UNL A   1      44.587  26.300  29.043  1.00  0.00    -0.248 NA
ATOM     37  C   UNL A   1      45.224  24.174  28.312  1.00  0.00     0.031 C 
ATOM     38  C   UNL A   1      40.355  25.377  27.976  1.00  0.00     0.029 A 
ATOM     39  N   UNL A   1      41.751  26.922  28.792  1.00  0.00    -0.354 N 
ATOM     40  C   UNL A   1      45.948  26.132  29.255  1.00  0.00     0.074 A 
ATOM     41  C   UNL A   1      46.286  24.798  28.803  1.00  0.00     0.031 C 
ATOM     42  C   UNL A   1      39.626  26.467  28.266  1.00  0.00     0.029 A 
ATOM     43  C   UNL A   1      40.507  27.502  28.799  1.00  0.00     0.049 A 
ATOM     44  H   UNL A   1      42.561  27.381  29.112  1.00  0.00     0.167 HD
ATOM     45  C   UNL A   1      46.837  27.009  29.778  1.00  0.00     0.037 A 
ATOM     46  C   UNL A   1      40.123  28.732  29.184  1.00  0.00     0.037 A 
ATOM     47  C   UNL A   1      46.524  28.351  30.191  1.00  0.00     0.049 A 
ATOM     48  C   UNL A   1      41.137  29.707  29.700  1.00  0.00     0.074 A 
ATOM     49  C   UNL A   1      47.376  29.323  30.688  1.00  0.00     0.029 A 
ATOM     50  N   UNL A   1      45.259  28.911  30.146  1.00  0.00    -0.354 N 
ATOM     51  N   UNL A   1      42.425  29.543  29.868  1.00  0.00    -0.248 NA
ATOM     52  C   UNL A   1      40.643  31.040  30.077  1.00  0.00     0.031 C 
ATOM     53  C   UNL A   1      46.622  30.474  30.947  1.00  0.00     0.029 A 
ATOM     54  C   UNL A   1      45.305  30.216  30.606  1.00  0.00     0.049 A 
ATOM     55  H   UNL A   1      44.447  28.450  29.834  1.00  0.00     0.167 HD
ATOM     56  C   UNL A   1      42.900  30.752  30.356  1.00  0.00     0.074 A 
ATOM     57  C   UNL A   1      41.761  31.642  30.459  1.00  0.00     0.031 C 
ATOM     58  C   UNL A   1      44.167  31.091  30.689  1.00  0.00     0.037 A 
BRANCH  45  59
ATOM     59  C   UNL A   1      48.245  26.533  29.934  1.00  0.00     0.057 A 
ATOM     60  C   UNL A   1      48.665  25.862  31.088  1.00  0.00     0.134 A 
ATOM     61  C   UNL A   1      49.182  26.731  28.914  1.00  0.00     0.134 A 
ATOM     62  F   UNL A   1      47.812  25.658  32.103  1.00  0.00    -0.206 F 
ATOM     63  C   UNL A   1      49.977  25.410  31.225  1.00  0.00     0.040 A 
ATOM     64  C   UNL A   1      50.495  26.277  29.036  1.00  0.00     0.040 A 
ATOM     65  F   UNL A   1      48.835  27.372  27.787  1.00  0.00    -0.206 F 
ATOM     66  C   UNL A   1      50.896  25.615  30.195  1.00  0.00     0.006 A 
ENDBRANCH  45  59
BRANCH  46  67
ATOM     67  C   UNL A   1      38.703  29.124  29.058  1.00  0.00     0.057 A 
ATOM     68  C   UNL A   1      37.844  29.057  30.159  1.00  0.00     0.134 A 
ATOM     69  C   UNL A   1      38.180  29.579  27.844  1.00  0.00     0.134 A 
ATOM     70  F   UNL A   1      38.295  28.614  31.341  1.00  0.00    -0.206 F 
ATOM     71  C   UNL A   1      36.502  29.426  30.056  1.00  0.00     0.040 A 
ATOM     72  C   UNL A   1      36.842  29.957  27.729  1.00  0.00     0.040 A 
ATOM     73  F   UNL A   1      38.962  29.661  26.759  1.00  0.00    -0.206 F 
ATOM     74  C   UNL A   1      35.999  29.880  28.838  1.00  0.00     0.006 A 
ENDBRANCH  46  67
BRANCH  58  75
ATOM     75  C   UNL A   1      44.387  32.487  31.175  1.00  0.00     0.057 A 
ATOM     76  C   UNL A   1      44.670  33.529  30.285  1.00  0.00     0.134 A 
ATOM     77  C   UNL A   1      44.295  32.796  32.536  1.00  0.00     0.134 A 
ATOM     78  F   UNL A   1      44.782  33.289  28.970  1.00  0.00    -0.206 F 
ATOM     79  C   UNL A   1      44.861  34.835  30.736  1.00  0.00     0.040 A 
ATOM     80  C   UNL A   1      44.479  34.098  32.999  1.00  0.00     0.040 A 
ATOM     81  F   UNL A   1      44.032  31.834  33.435  1.00  0.00    -0.206 F 
ATOM     82  C   UNL A   1      44.763  35.123  32.097  1.00  0.00     0.006 A 
ENDBRANCH  58  75
ENDBRANCH  32  33
ENDBRANCH  24  27
ENDBRANCH  22  23
ENDBRANCH  21  22
ENDBRANCH   1  21
TORSDOF 13
ENDMDL
MODEL 2
REMARK VINA RESULT:     -11.6      0.302      1.495
REMARK SMILES CCc1ccc(C(=O)N2CC[C@H](C(=O)NCCCNC(=O)c3ccc(-c4c5nc(c(-c6c(F)cccc6F)c6ccc([nH]6)c(-c6c(F)cccc6F)c6nc(c(-c7c(F)cccc7F)c7ccc4[nH]7)C=C6)C=C5)cc3)[C@@H]2C)s1
REMARK SMILES IDX 16 1 15 2 13 3 14 4 12 6 9 7 10 8 76 9 11 10 77 11 7 12 8 13
REMARK SMILES IDX 6 14 3 15 4 16 78 17 5 18 2 19 1 20 17 21 18 22 19 23 20 24
REMARK SMILES IDX 21 26 22 27 23 28 75 29 24 30 74 31 25 32 26 33 27 34 68 35
REMARK SMILES IDX 28 36 73 37 67 38 69 39 29 40 72 41 66 42 65 43 30 45 56 46
REMARK SMILES IDX 39 47 55 48 40 49 43 50 54 51 70 52 41 53 42 54 53 56 71 57
REMARK SMILES IDX 44 58 31 59 32 60 37 61 33 62 34 63 36 64 38 65 35 66 57 67
REMARK SMILES IDX 58 68 63 69 59 70 60 71 62 72 64 73 61 74 45 75 46 76 51 77
REMARK SMILES IDX 47 78 48 79 50 80 52 81 49 82
REMARK H PARENT 15 5 19 25 69 44 43 55
REMARK Flexibility Score: inf
ROOT
ATOM      1  C   UNL A   1      36.972  20.511  24.953  1.00  0.00     0.117 C 
ENDROOT
BRANCH   1   2
ATOM      2  N   UNL A   1      35.690  19.830  25.006  1.00  0.00    -0.356 N 
ATOM      3  C   UNL A   1      34.422  20.303  24.852  1.00  0.00     0.225 C 
ATOM      4  O   UNL A   1      33.498  19.491  24.886  1.00  0.00    -0.275 OA
ATOM      5  H   UNL A   1      35.747  18.863  25.185  1.00  0.00     0.163 HD
BRANCH   3   6
ATOM      6  C   UNL A   1      34.180  21.791  24.673  1.00  0.00     0.102 C 
ATOM      7  N   UNL A   1      32.648  23.229  25.797  1.00  0.00    -0.334 N 
ATOM      8  C   UNL A   1      31.871  22.493  24.823  1.00  0.00     0.121 C 
ATOM      9  C   UNL A   1      33.951  22.579  25.989  1.00  0.00     0.094 C 
ATOM     10  C   UNL A   1      32.920  22.051  23.824  1.00  0.00     0.037 C 
ATOM     11  C   UNL A   1      33.928  21.740  27.270  1.00  0.00     0.032 C 
BRANCH   7  12
ATOM     12  C   UNL A   1      32.067  24.279  26.500  1.00  0.00     0.264 C 
ATOM     13  O   UNL A   1      31.140  24.046  27.280  1.00  0.00    -0.268 OA
BRANCH  12  14
ATOM     14  C   UNL A   1      32.528  25.637  26.238  1.00  0.00     0.092 A 
ATOM     15  C   UNL A   1      32.523  28.091  25.816  1.00  0.00     0.005 A 
ATOM     16  C   UNL A   1      33.721  27.493  25.471  1.00  0.00     0.016 A 
ATOM     17  S   UNL A   1      31.439  26.941  26.475  1.00  0.00    -0.135 S 
ATOM     18  C   UNL A   1      33.714  26.085  25.689  1.00  0.00     0.026 A 
BRANCH  15  19
ATOM     19  C   UNL A   1      32.173  29.544  25.611  1.00  0.00     0.043 C 
ATOM     20  C   UNL A   1      32.503  30.495  26.750  1.00  0.00     0.010 C 
ENDBRANCH  15  19
ENDBRANCH  12  14
ENDBRANCH   7  12
ENDBRANCH   3   6
ENDBRANCH   1   2
BRANCH   1  21
ATOM     21  C   UNL A   1      38.157  19.549  24.913  1.00  0.00     0.042 C 
BRANCH  21  22
ATOM     22  C   UNL A   1      39.172  19.712  26.044  1.00  0.00     0.118 C 
BRANCH  22  23
ATOM     23  N   UNL A   1      40.452  19.088  25.759  1.00  0.00    -0.352 N 
ATOM     24  C   UNL A   1      41.724  19.581  25.905  1.00  0.00     0.251 C 
ATOM     25  H   UNL A   1      40.399  18.170  25.406  1.00  0.00     0.163 HD
ATOM     26  O   UNL A   1      42.673  18.915  25.498  1.00  0.00    -0.269 OA
BRANCH  24  27
ATOM     27  C   UNL A   1      41.975  20.908  26.514  1.00  0.00     0.039 A 
ATOM     28  C   UNL A   1      42.277  21.975  25.661  1.00  0.00     0.014 A 
ATOM     29  C   UNL A   1      41.990  21.101  27.900  1.00  0.00     0.014 A 
ATOM     30  C   UNL A   1      42.548  23.240  26.186  1.00  0.00     0.010 A 
ATOM     31  C   UNL A   1      42.233  22.373  28.424  1.00  0.00     0.010 A 
ATOM     32  C   UNL A   1      42.515  23.451  27.571  1.00  0.00    -0.014 A 
BRANCH  32  33
ATOM     33  C   UNL A   1      42.782  24.797  28.130  1.00  0.00     0.031 A 
ATOM     34  C   UNL A   1      44.175  25.201  28.517  1.00  0.00     0.074 A 
ATOM     35  C   UNL A   1      41.761  25.656  28.307  1.00  0.00     0.049 A 
ATOM     36  N   UNL A   1      44.591  26.331  29.029  1.00  0.00    -0.248 NA
ATOM     37  C   UNL A   1      45.234  24.201  28.315  1.00  0.00     0.031 C 
ATOM     38  C   UNL A   1      40.357  25.378  27.996  1.00  0.00     0.029 A 
ATOM     39  N   UNL A   1      41.751  26.939  28.789  1.00  0.00    -0.354 N 
ATOM     40  C   UNL A   1      45.954  26.172  29.235  1.00  0.00     0.074 A 
ATOM     41  C   UNL A   1      46.296  24.835  28.794  1.00  0.00     0.031 C 
ATOM     42  C   UNL A   1      39.625  26.468  28.280  1.00  0.00     0.029 A 
ATOM     43  C   UNL A   1      40.505  27.512  28.798  1.00  0.00     0.049 A 
ATOM     44  H   UNL A   1      42.561  27.404  29.100  1.00  0.00     0.167 HD
ATOM     45  C   UNL A   1      46.842  27.058  29.744  1.00  0.00     0.037 A 
ATOM     46  C   UNL A   1      40.117  28.744  29.173  1.00  0.00     0.037 A 
ATOM     47  C   UNL A   1      46.526  28.402  30.146  1.00  0.00     0.049 A 
ATOM     48  C   UNL A   1      41.129  29.729  29.674  1.00  0.00     0.074 A 
ATOM     49  C   UNL A   1      47.375  29.383  30.629  1.00  0.00     0.029 A 
ATOM     50  N   UNL A   1      45.257  28.956  30.103  1.00  0.00    -0.354 N 
ATOM     51  N   UNL A   1      42.419  29.572  29.836  1.00  0.00    -0.248 NA
ATOM     52  C   UNL A   1      40.631  31.063  30.041  1.00  0.00     0.031 C 
ATOM     53  C   UNL A   1      46.617  30.534  30.881  1.00  0.00     0.029 A 
ATOM     54  C   UNL A   1      45.300  30.266  30.550  1.00  0.00     0.049 A 
ATOM     55  H   UNL A   1      44.446  28.489  29.801  1.00  0.00     0.167 HD
ATOM     56  C   UNL A   1      42.891  30.788  30.310  1.00  0.00     0.074 A 
ATOM     57  C   UNL A   1      41.749  31.674  30.411  1.00  0.00     0.031 C 
ATOM     58  C   UNL A   1      44.158  31.136  30.632  1.00  0.00     0.037 A 
BRANCH  45  59
ATOM     59  C   UNL A   1      48.253  26.590  29.897  1.00  0.00     0.057 A 
ATOM     60  C   UNL A   1      48.664  25.865  31.020  1.00  0.00     0.134 A 
ATOM     61  C   UNL A   1      49.202  26.852  28.902  1.00  0.00     0.134 A 
ATOM     62  F   UNL A   1      47.799  25.598  32.010  1.00  0.00    -0.206 F 
ATOM     63  C   UNL A   1      49.980  25.421  31.154  1.00  0.00     0.040 A 
ATOM     64  C   UNL A   1      50.519  26.407  29.021  1.00  0.00     0.040 A 
ATOM     65  F   UNL A   1      48.865  27.547  27.806  1.00  0.00    -0.206 F 
ATOM     66  C   UNL A   1      50.911  25.689  30.150  1.00  0.00     0.006 A 
ENDBRANCH  45  59
BRANCH  46  67
ATOM     67  C   UNL A   1      38.695  29.129  29.052  1.00  0.00     0.057 A 
ATOM     68  C   UNL A   1      38.174  29.565  27.829  1.00  0.00     0.134 A 
ATOM     69  C   UNL A   1      37.829  29.064  30.147  1.00  0.00     0.134 A 
ATOM     70  F   UNL A   1      38.968  29.658  26.752  1.00  0.00    -0.206 F 
ATOM     71  C   UNL A   1      36.833  29.928  27.700  1.00  0.00     0.040 A 
ATOM     72  C   UNL A   1      36.485  29.419  30.030  1.00  0.00     0.040 A 
ATOM     73  F   UNL A   1      38.279  28.654  31.342  1.00  0.00    -0.206 F 
ATOM     74  C   UNL A   1      35.985  29.853  28.803  1.00  0.00     0.006 A 
ENDBRANCH  46  67
BRANCH  58  75
ATOM     75  C   UNL A   1      44.375  32.538  31.103  1.00  0.00     0.057 A 
ATOM     76  C   UNL A   1      44.312  32.866  32.461  1.00  0.00     0.134 A 
ATOM     77  C   UNL A   1      44.668  33.562  30.195  1.00  0.00     0.134 A 
ATOM     78  F   UNL A   1      44.022  31.927  33.375  1.00  0.00    -0.206 F 
ATOM     79  C   UNL A   1      44.528  34.172  32.902  1.00  0.00     0.040 A 
ATOM     80  C   UNL A   1      44.891  34.869  30.624  1.00  0.00     0.040 A 
ATOM     81  F   UNL A   1      44.735  33.305  28.879  1.00  0.00    -0.206 F 
ATOM     82  C   UNL A   1      44.822  35.178  31.982  1.00  0.00     0.006 A 
ENDBRANCH  58  75
ENDBRANCH  32  33
ENDBRANCH  24  27
ENDBRANCH  22  23
ENDBRANCH  21  22
ENDBRANCH   1  21
TORSDOF 13
ENDMDL
MODEL 3
REMARK VINA RESULT:     -11.5      4.487      9.533
REMARK SMILES CCc1ccc(C(=O)N2CC[C@H](C(=O)NCCCNC(=O)c3ccc(-c4c5nc(c(-c6c(F)cccc6F)c6ccc([nH]6)c(-c6c(F)cccc6F)c6nc(c(-c7c(F)cccc7F)c7ccc4[nH]7)C=C6)C=C5)cc3)[C@@H]2C)s1
REMARK SMILES IDX 16 1 15 2 13 3 14 4 12 6 9 7 10 8 76 9 11 10 77 11 7 12 8 13
REMARK SMILES IDX 6 14 3 15 4 16 78 17 5 18 2 19 1 20 17 21 18 22 19 23 20 24
REMARK SMILES IDX 21 26 22 27 23 28 75 29 24 30 74 31 25 32 26 33 27 34 68 35
REMARK SMILES IDX 28 36 73 37 67 38 69 39 29 40 72 41 66 42 65 43 30 45 56 46
REMARK SMILES IDX 39 47 55 48 40 49 43 50 54 51 70 52 41 53 42 54 53 56 71 57
REMARK SMILES IDX 44 58 31 59 32 60 37 61 33 62 34 63 36 64 38 65 35 66 57 67
REMARK SMILES IDX 58 68 63 69 59 70 60 71 62 72 64 73 61 74 45 75 46 76 51 77
REMARK SMILES IDX 47 78 48 79 50 80 52 81 49 82
REMARK H PARENT 15 5 19 25 69 44 43 55
REMARK Flexibility Score: inf
ROOT
ATOM      1  C   UNL A   1      31.598  30.690  26.239  1.00  0.00     0.117 C 
ENDROOT
BRANCH   1   2
ATOM      2  N   UNL A   1      30.896  30.559  24.975  1.00  0.00    -0.356 N 
ATOM      3  C   UNL A   1      30.647  29.466  24.202  1.00  0.00     0.225 C 
ATOM      4  O   UNL A   1      29.967  29.622  23.188  1.00  0.00    -0.275 OA
ATOM      5  H   UNL A   1      30.541  31.405  24.615  1.00  0.00     0.163 HD
BRANCH   3   6
ATOM      6  C   UNL A   1      31.224  28.115  24.584  1.00  0.00     0.102 C 
ATOM      7  N   UNL A   1      32.513  26.588  23.285  1.00  0.00    -0.334 N 
ATOM      8  C   UNL A   1      31.140  26.423  22.859  1.00  0.00     0.121 C 
ATOM      9  C   UNL A   1      32.651  27.837  24.045  1.00  0.00     0.094 C 
ATOM     10  C   UNL A   1      30.356  26.964  24.036  1.00  0.00     0.037 C 
ATOM     11  C   UNL A   1      33.245  28.926  23.148  1.00  0.00     0.032 C 
BRANCH   7  12
ATOM     12  C   UNL A   1      33.491  25.710  22.832  1.00  0.00     0.264 C 
ATOM     13  O   UNL A   1      33.826  25.737  21.645  1.00  0.00    -0.268 OA
BRANCH  12  14
ATOM     14  C   UNL A   1      34.043  24.733  23.764  1.00  0.00     0.092 A 
ATOM     15  C   UNL A   1      34.587  22.568  24.865  1.00  0.00     0.005 A 
ATOM     16  C   UNL A   1      34.824  23.656  25.684  1.00  0.00     0.016 A 
ATOM     17  S   UNL A   1      34.037  23.075  23.325  1.00  0.00    -0.135 S 
ATOM     18  C   UNL A   1      34.487  24.894  25.062  1.00  0.00     0.026 A 
BRANCH  15  19
ATOM     19  C   UNL A   1      34.740  21.120  25.259  1.00  0.00     0.043 C 
ATOM     20  C   UNL A   1      36.093  20.478  24.994  1.00  0.00     0.010 C 
ENDBRANCH  15  19
ENDBRANCH  12  14
ENDBRANCH   7  12
ENDBRANCH   3   6
ENDBRANCH   1   2
BRANCH   1  21
ATOM     21  C   UNL A   1      31.401  32.055  26.893  1.00  0.00     0.042 C 
BRANCH  21  22
ATOM     22  C   UNL A   1      32.622  32.976  26.869  1.00  0.00     0.118 C 
BRANCH  22  23
ATOM     23  N   UNL A   1      32.432  34.198  27.629  1.00  0.00    -0.352 N 
ATOM     24  C   UNL A   1      33.121  34.676  28.715  1.00  0.00     0.251 C 
ATOM     25  H   UNL A   1      31.694  34.772  27.319  1.00  0.00     0.163 HD
ATOM     26  O   UNL A   1      32.721  35.693  29.277  1.00  0.00    -0.269 OA
BRANCH  24  27
ATOM     27  C   UNL A   1      34.317  33.978  29.241  1.00  0.00     0.039 A 
ATOM     28  C   UNL A   1      34.123  32.963  30.185  1.00  0.00     0.014 A 
ATOM     29  C   UNL A   1      35.617  34.350  28.879  1.00  0.00     0.014 A 
ATOM     30  C   UNL A   1      35.218  32.292  30.732  1.00  0.00     0.010 A 
ATOM     31  C   UNL A   1      36.712  33.659  29.404  1.00  0.00     0.010 A 
ATOM     32  C   UNL A   1      36.520  32.627  30.335  1.00  0.00    -0.014 A 
BRANCH  32  33
ATOM     33  C   UNL A   1      37.684  31.902  30.898  1.00  0.00     0.031 A 
ATOM     34  C   UNL A   1      38.163  32.192  32.291  1.00  0.00     0.074 A 
ATOM     35  C   UNL A   1      38.325  30.990  30.145  1.00  0.00     0.049 A 
ATOM     36  N   UNL A   1      39.168  31.663  32.941  1.00  0.00    -0.248 NA
ATOM     37  C   UNL A   1      37.425  33.217  33.044  1.00  0.00     0.031 C 
ATOM     38  C   UNL A   1      37.977  30.634  28.768  1.00  0.00     0.029 A 
ATOM     39  N   UNL A   1      39.402  30.195  30.436  1.00  0.00    -0.354 N 
ATOM     40  C   UNL A   1      39.201  32.308  34.171  1.00  0.00     0.074 A 
ATOM     41  C   UNL A   1      38.117  33.267  34.175  1.00  0.00     0.031 C 
ATOM     42  C   UNL A   1      38.816  29.676  28.341  1.00  0.00     0.029 A 
ATOM     43  C   UNL A   1      39.762  29.360  29.408  1.00  0.00     0.049 A 
ATOM     44  H   UNL A   1      39.873  30.220  31.300  1.00  0.00     0.167 HD
ATOM     45  C   UNL A   1      40.057  32.116  35.202  1.00  0.00     0.037 A 
ATOM     46  C   UNL A   1      40.737  28.437  29.338  1.00  0.00     0.037 A 
ATOM     47  C   UNL A   1      41.111  31.138  35.229  1.00  0.00     0.049 A 
ATOM     48  C   UNL A   1      41.632  28.200  30.517  1.00  0.00     0.074 A 
ATOM     49  C   UNL A   1      41.994  30.846  36.254  1.00  0.00     0.029 A 
ATOM     50  N   UNL A   1      41.417  30.287  34.181  1.00  0.00    -0.354 N 
ATOM     51  N   UNL A   1      41.632  28.798  31.682  1.00  0.00    -0.248 NA
ATOM     52  C   UNL A   1      42.658  27.158  30.371  1.00  0.00     0.031 C 
ATOM     53  C   UNL A   1      42.839  29.816  35.823  1.00  0.00     0.029 A 
ATOM     54  C   UNL A   1      42.476  29.467  34.533  1.00  0.00     0.049 A 
ATOM     55  H   UNL A   1      40.952  30.266  33.313  1.00  0.00     0.167 HD
ATOM     56  C   UNL A   1      42.647  28.197  32.414  1.00  0.00     0.074 A 
ATOM     57  C   UNL A   1      43.242  27.188  31.562  1.00  0.00     0.031 C 
ATOM     58  C   UNL A   1      43.047  28.461  33.680  1.00  0.00     0.037 A 
BRANCH  45  59
ATOM     59  C   UNL A   1      39.883  32.998  36.397  1.00  0.00     0.057 A 
ATOM     60  C   UNL A   1      40.640  34.162  36.562  1.00  0.00     0.134 A 
ATOM     61  C   UNL A   1      38.936  32.687  37.380  1.00  0.00     0.134 A 
ATOM     62  F   UNL A   1      41.571  34.501  35.657  1.00  0.00    -0.206 F 
ATOM     63  C   UNL A   1      40.467  34.987  37.673  1.00  0.00     0.040 A 
ATOM     64  C   UNL A   1      38.748  33.508  38.492  1.00  0.00     0.040 A 
ATOM     65  F   UNL A   1      38.186  31.580  37.276  1.00  0.00    -0.206 F 
ATOM     66  C   UNL A   1      39.516  34.662  38.640  1.00  0.00     0.006 A 
ENDBRANCH  45  59
BRANCH  46  67
ATOM     67  C   UNL A   1      40.896  27.636  28.106  1.00  0.00     0.057 A 
ATOM     68  C   UNL A   1      40.251  26.403  27.967  1.00  0.00     0.134 A 
ATOM     69  C   UNL A   1      41.685  28.086  27.043  1.00  0.00     0.134 A 
ATOM     70  F   UNL A   1      39.494  25.921  28.964  1.00  0.00    -0.206 F 
ATOM     71  C   UNL A   1      40.389  25.638  26.809  1.00  0.00     0.040 A 
ATOM     72  C   UNL A   1      41.827  27.333  25.878  1.00  0.00     0.040 A 
ATOM     73  F   UNL A   1      42.325  29.260  27.126  1.00  0.00    -0.206 F 
ATOM     74  C   UNL A   1      41.178  26.104  25.759  1.00  0.00     0.006 A 
ENDBRANCH  46  67
BRANCH  58  75
ATOM     75  C   UNL A   1      44.166  27.632  34.221  1.00  0.00     0.057 A 
ATOM     76  C   UNL A   1      45.495  28.058  34.131  1.00  0.00     0.134 A 
ATOM     77  C   UNL A   1      43.911  26.411  34.855  1.00  0.00     0.134 A 
ATOM     78  F   UNL A   1      45.799  29.215  33.523  1.00  0.00    -0.206 F 
ATOM     79  C   UNL A   1      46.539  27.291  34.649  1.00  0.00     0.040 A 
ATOM     80  C   UNL A   1      44.945  25.638  35.381  1.00  0.00     0.040 A 
ATOM     81  F   UNL A   1      42.656  25.950  34.964  1.00  0.00    -0.206 F 
ATOM     82  C   UNL A   1      46.265  26.077  35.279  1.00  0.00     0.006 A 
ENDBRANCH  58  75
ENDBRANCH  32  33
ENDBRANCH  24  27
ENDBRANCH  22  23
ENDBRANCH  21  22
ENDBRANCH   1  21
TORSDOF 13
ENDMDL
