MODEL 1
REMARK VINA RESULT:     -10.2      0.000      0.000
REMARK SMILES C=CC[NH+](CC=C)[C@@H](C(=O)NCCCNC(=O)c1ccc(-c2c3nc(c(-c4c(F)cccc4F)c4ccc([nH]4)c(-c4c(F)cccc4F)c4nc(c(-c5c(F)cccc5F)c5ccc2[nH]5)C=C4)C=C3)cc1)c1ccc(F)c(C)c1
REMARK SMILES IDX 12 1 11 2 9 3 10 4 8 6 4 7 3 9 2 10 1 11 5 12 6 13 7 14
REMARK SMILES IDX 72 15 73 16 79 17 74 18 77 19 75 20 78 21 76 22 13 23 14 24
REMARK SMILES IDX 15 25 16 26 17 28 18 29 19 30 71 31 20 32 70 33 21 34 22 35
REMARK SMILES IDX 23 36 64 37 24 38 69 39 63 40 65 41 25 42 68 43 62 44 61 45
REMARK SMILES IDX 26 47 52 48 35 49 51 50 36 51 39 52 50 53 66 54 37 55 38 56
REMARK SMILES IDX 49 58 67 59 40 60 27 61 28 62 33 63 29 64 30 65 32 66 34 67
REMARK SMILES IDX 31 68 53 69 54 70 59 71 55 72 56 73 58 74 60 75 57 76 41 77
REMARK SMILES IDX 42 78 47 79 43 80 44 81 46 82 48 83 45 84
REMARK H PARENT 11 5 4 8 15 27 65 46 39 57
REMARK Flexibility Score: inf
ROOT
ATOM      1  C   UNL A   1      32.829  26.458  25.796  1.00  0.00     0.118 C 
ENDROOT
BRANCH   1   2
ATOM      2  N   UNL A   1      32.809  25.114  26.365  1.00  0.00    -0.351 N 
ATOM      3  C   UNL A   1      33.580  23.981  26.191  1.00  0.00     0.283 C 
ATOM      4  O   UNL A   1      33.500  23.157  27.111  1.00  0.00    -0.268 OA
ATOM      5  H   UNL A   1      32.083  24.985  27.018  1.00  0.00     0.163 HD
BRANCH   3   6
ATOM      6  C   UNL A   1      34.440  23.708  24.896  1.00  0.00     0.306 C 
BRANCH   6   7
ATOM      7  N   UNL A   1      33.662  22.850  23.916  1.00  0.00    -0.314 N 
ATOM      8  H   UNL A   1      34.209  21.990  23.865  1.00  0.00     0.349 HD
BRANCH   7   9
ATOM      9  C   UNL A   1      33.610  23.383  22.542  1.00  0.00     0.291 C 
BRANCH   9  10
ATOM     10  C   UNL A   1      32.652  24.532  22.349  1.00  0.00     0.025 C 
ATOM     11  C   UNL A   1      32.951  25.741  21.851  1.00  0.00     0.010 C 
ENDBRANCH   9  10
ENDBRANCH   7   9
BRANCH   7  12
ATOM     12  C   UNL A   1      32.328  22.500  24.390  1.00  0.00     0.291 C 
BRANCH  12  13
ATOM     13  C   UNL A   1      32.188  21.023  24.597  1.00  0.00     0.025 C 
ATOM     14  C   UNL A   1      33.015  20.093  24.100  1.00  0.00     0.010 C 
ENDBRANCH  12  13
ENDBRANCH   7  12
ENDBRANCH   6   7
BRANCH   6  15
ATOM     15  C   UNL A   1      35.799  23.062  25.294  1.00  0.00     0.020 A 
ATOM     16  C   UNL A   1      36.847  23.834  25.821  1.00  0.00     0.013 A 
ATOM     17  C   UNL A   1      36.041  21.686  25.099  1.00  0.00     0.017 A 
ATOM     18  C   UNL A   1      38.107  23.262  26.055  1.00  0.00     0.040 A 
ATOM     19  C   UNL A   1      37.326  21.132  25.214  1.00  0.00    -0.015 A 
ATOM     20  C   UNL A   1      38.343  21.932  25.720  1.00  0.00     0.126 A 
ATOM     21  C   UNL A   1      37.619  19.737  24.746  1.00  0.00     0.047 C 
ATOM     22  F   UNL A   1      39.579  21.430  25.871  1.00  0.00    -0.207 F 
ENDBRANCH   6  15
ENDBRANCH   3   6
ENDBRANCH   1   2
BRANCH   1  23
ATOM     23  C   UNL A   1      33.597  27.589  26.521  1.00  0.00     0.042 C 
BRANCH  23  24
ATOM     24  C   UNL A   1      34.024  28.871  25.783  1.00  0.00     0.118 C 
BRANCH  24  25
ATOM     25  N   UNL A   1      33.672  30.118  26.434  1.00  0.00    -0.352 N 
ATOM     26  C   UNL A   1      34.329  30.796  27.435  1.00  0.00     0.251 C 
ATOM     27  H   UNL A   1      32.844  30.542  26.112  1.00  0.00     0.163 HD
ATOM     28  O   UNL A   1      33.831  31.845  27.867  1.00  0.00    -0.269 OA
BRANCH  26  29
ATOM     29  C   UNL A   1      35.591  30.312  28.058  1.00  0.00     0.039 A 
ATOM     30  C   UNL A   1      36.765  30.376  27.296  1.00  0.00     0.014 A 
ATOM     31  C   UNL A   1      35.632  29.687  29.310  1.00  0.00     0.014 A 
ATOM     32  C   UNL A   1      37.973  29.862  27.794  1.00  0.00     0.010 A 
ATOM     33  C   UNL A   1      36.851  29.184  29.815  1.00  0.00     0.010 A 
ATOM     34  C   UNL A   1      38.039  29.272  29.067  1.00  0.00    -0.014 A 
BRANCH  34  35
ATOM     35  C   UNL A   1      39.359  28.823  29.611  1.00  0.00     0.031 A 
ATOM     36  C   UNL A   1      39.990  29.460  30.824  1.00  0.00     0.074 A 
ATOM     37  C   UNL A   1      40.005  27.801  29.011  1.00  0.00     0.049 A 
ATOM     38  N   UNL A   1      41.094  29.130  31.452  1.00  0.00    -0.248 NA
ATOM     39  C   UNL A   1      39.298  30.620  31.401  1.00  0.00     0.031 C 
ATOM     40  C   UNL A   1      39.541  27.104  27.811  1.00  0.00     0.029 A 
ATOM     41  N   UNL A   1      41.184  27.168  29.328  1.00  0.00    -0.354 N 
ATOM     42  C   UNL A   1      41.225  30.030  32.504  1.00  0.00     0.074 A 
ATOM     43  C   UNL A   1      40.108  30.949  32.400  1.00  0.00     0.031 C 
ATOM     44  C   UNL A   1      40.414  26.132  27.503  1.00  0.00     0.029 A 
ATOM     45  C   UNL A   1      41.510  26.145  28.469  1.00  0.00     0.049 A 
ATOM     46  H   UNL A   1      41.743  27.423  30.097  1.00  0.00     0.167 HD
ATOM     47  C   UNL A   1      42.172  30.080  33.476  1.00  0.00     0.037 A 
ATOM     48  C   UNL A   1      42.566  25.307  28.453  1.00  0.00     0.037 A 
ATOM     49  C   UNL A   1      43.292  29.176  33.589  1.00  0.00     0.049 A 
ATOM     50  C   UNL A   1      43.609  25.391  29.533  1.00  0.00     0.074 A 
ATOM     51  C   UNL A   1      44.275  29.137  34.566  1.00  0.00     0.029 A 
ATOM     52  N   UNL A   1      43.589  28.160  32.695  1.00  0.00    -0.354 N 
ATOM     53  N   UNL A   1      43.674  26.204  30.558  1.00  0.00    -0.248 NA
ATOM     54  C   UNL A   1      44.721  24.430  29.458  1.00  0.00     0.031 C 
ATOM     55  C   UNL A   1      45.187  28.127  34.240  1.00  0.00     0.029 A 
ATOM     56  C   UNL A   1      44.748  27.505  33.084  1.00  0.00     0.049 A 
ATOM     57  H   UNL A   1      43.054  27.936  31.899  1.00  0.00     0.167 HD
ATOM     58  C   UNL A   1      44.817  25.841  31.259  1.00  0.00     0.074 A 
ATOM     59  C   UNL A   1      45.403  24.718  30.557  1.00  0.00     0.031 C 
ATOM     60  C   UNL A   1      45.337  26.393  32.382  1.00  0.00     0.037 A 
BRANCH  47  61
ATOM     61  C   UNL A   1      42.041  31.152  34.522  1.00  0.00     0.057 A 
ATOM     62  C   UNL A   1      42.624  32.416  34.355  1.00  0.00     0.134 A 
ATOM     63  C   UNL A   1      41.267  30.949  35.672  1.00  0.00     0.134 A 
ATOM     64  F   UNL A   1      43.377  32.678  33.275  1.00  0.00    -0.206 F 
ATOM     65  C   UNL A   1      42.459  33.429  35.301  1.00  0.00     0.040 A 
ATOM     66  C   UNL A   1      41.075  31.962  36.614  1.00  0.00     0.040 A 
ATOM     67  F   UNL A   1      40.665  29.770  35.888  1.00  0.00    -0.206 F 
ATOM     68  C   UNL A   1      41.677  33.205  36.431  1.00  0.00     0.006 A 
ENDBRANCH  47  61
BRANCH  48  69
ATOM     69  C   UNL A   1      42.687  24.292  27.375  1.00  0.00     0.057 A 
ATOM     70  C   UNL A   1      42.256  22.974  27.566  1.00  0.00     0.134 A 
ATOM     71  C   UNL A   1      43.257  24.612  26.137  1.00  0.00     0.134 A 
ATOM     72  F   UNL A   1      41.724  22.600  28.738  1.00  0.00    -0.206 F 
ATOM     73  C   UNL A   1      42.405  22.005  26.572  1.00  0.00     0.040 A 
ATOM     74  C   UNL A   1      43.387  23.660  25.125  1.00  0.00     0.040 A 
ATOM     75  F   UNL A   1      43.686  25.859  25.890  1.00  0.00    -0.206 F 
ATOM     76  C   UNL A   1      42.968  22.350  25.344  1.00  0.00     0.006 A 
ENDBRANCH  48  69
BRANCH  60  77
ATOM     77  C   UNL A   1      46.596  25.782  32.929  1.00  0.00     0.057 A 
ATOM     78  C   UNL A   1      47.865  26.219  32.525  1.00  0.00     0.134 A 
ATOM     79  C   UNL A   1      46.542  24.749  33.873  1.00  0.00     0.134 A 
ATOM     80  F   UNL A   1      47.990  27.194  31.613  1.00  0.00    -0.206 F 
ATOM     81  C   UNL A   1      49.032  25.631  33.018  1.00  0.00     0.040 A 
ATOM     82  C   UNL A   1      47.701  24.169  34.392  1.00  0.00     0.040 A 
ATOM     83  F   UNL A   1      45.360  24.285  34.309  1.00  0.00    -0.206 F 
ATOM     84  C   UNL A   1      48.952  24.605  33.958  1.00  0.00     0.006 A 
ENDBRANCH  60  77
ENDBRANCH  34  35
ENDBRANCH  26  29
ENDBRANCH  24  25
ENDBRANCH  23  24
ENDBRANCH   1  23
TORSDOF 16
ENDMDL
MODEL 2
REMARK VINA RESULT:     -10.1      3.343      7.937
REMARK SMILES C=CC[NH+](CC=C)[C@@H](C(=O)NCCCNC(=O)c1ccc(-c2c3nc(c(-c4c(F)cccc4F)c4ccc([nH]4)c(-c4c(F)cccc4F)c4nc(c(-c5c(F)cccc5F)c5ccc2[nH]5)C=C4)C=C3)cc1)c1ccc(F)c(C)c1
REMARK SMILES IDX 12 1 11 2 9 3 10 4 8 6 4 7 3 9 2 10 1 11 5 12 6 13 7 14
REMARK SMILES IDX 72 15 73 16 79 17 74 18 77 19 75 20 78 21 76 22 13 23 14 24
REMARK SMILES IDX 15 25 16 26 17 28 18 29 19 30 71 31 20 32 70 33 21 34 22 35
REMARK SMILES IDX 23 36 64 37 24 38 69 39 63 40 65 41 25 42 68 43 62 44 61 45
REMARK SMILES IDX 26 47 52 48 35 49 51 50 36 51 39 52 50 53 66 54 37 55 38 56
REMARK SMILES IDX 49 58 67 59 40 60 27 61 28 62 33 63 29 64 30 65 32 66 34 67
REMARK SMILES IDX 31 68 53 69 54 70 59 71 55 72 56 73 58 74 60 75 57 76 41 77
REMARK SMILES IDX 42 78 47 79 43 80 44 81 46 82 48 83 45 84
REMARK H PARENT 11 5 4 8 15 27 65 46 39 57
REMARK Flexibility Score: inf
ROOT
ATOM      1  C   UNL A   1      37.794  21.846  25.294  1.00  0.00     0.118 C 
ENDROOT
BRANCH   1   2
ATOM      2  N   UNL A   1      36.668  21.927  26.219  1.00  0.00    -0.351 N 
ATOM      3  C   UNL A   1      35.333  21.585  26.145  1.00  0.00     0.283 C 
ATOM      4  O   UNL A   1      34.774  21.449  27.241  1.00  0.00    -0.268 OA
ATOM      5  H   UNL A   1      36.916  22.312  27.091  1.00  0.00     0.163 HD
BRANCH   3   6
ATOM      6  C   UNL A   1      34.546  21.447  24.783  1.00  0.00     0.306 C 
BRANCH   6   7
ATOM      7  N   UNL A   1      33.440  22.482  24.705  1.00  0.00    -0.314 N 
ATOM      8  H   UNL A   1      32.640  22.008  25.125  1.00  0.00     0.349 HD
BRANCH   7   9
ATOM      9  C   UNL A   1      33.031  22.839  23.334  1.00  0.00     0.291 C 
BRANCH   9  10
ATOM     10  C   UNL A   1      31.539  22.908  23.120  1.00  0.00     0.025 C 
ATOM     11  C   UNL A   1      30.769  23.999  23.243  1.00  0.00     0.010 C 
ENDBRANCH   9  10
ENDBRANCH   7   9
BRANCH   7  12
ATOM     12  C   UNL A   1      33.712  23.677  25.496  1.00  0.00     0.291 C 
BRANCH  12  13
ATOM     13  C   UNL A   1      32.629  23.933  26.497  1.00  0.00     0.025 C 
ATOM     14  C   UNL A   1      31.709  23.038  26.883  1.00  0.00     0.010 C 
ENDBRANCH  12  13
ENDBRANCH   7  12
ENDBRANCH   6   7
BRANCH   6  15
ATOM     15  C   UNL A   1      34.006  19.995  24.632  1.00  0.00     0.020 A 
ATOM     16  C   UNL A   1      32.629  19.735  24.542  1.00  0.00     0.013 A 
ATOM     17  C   UNL A   1      34.879  18.886  24.624  1.00  0.00     0.017 A 
ATOM     18  C   UNL A   1      32.151  18.415  24.535  1.00  0.00     0.040 A 
ATOM     19  C   UNL A   1      34.408  17.568  24.739  1.00  0.00    -0.015 A 
ATOM     20  C   UNL A   1      33.038  17.350  24.667  1.00  0.00     0.126 A 
ATOM     21  C   UNL A   1      35.346  16.426  25.000  1.00  0.00     0.047 C 
ATOM     22  F   UNL A   1      32.553  16.102  24.746  1.00  0.00    -0.207 F 
ENDBRANCH   6  15
ENDBRANCH   3   6
ENDBRANCH   1   2
BRANCH   1  23
ATOM     23  C   UNL A   1      38.449  20.476  24.995  1.00  0.00     0.042 C 
BRANCH  23  24
ATOM     24  C   UNL A   1      39.075  19.624  26.115  1.00  0.00     0.118 C 
BRANCH  24  25
ATOM     25  N   UNL A   1      40.318  18.958  25.777  1.00  0.00    -0.352 N 
ATOM     26  C   UNL A   1      41.609  19.429  25.852  1.00  0.00     0.251 C 
ATOM     27  H   UNL A   1      40.225  18.035  25.448  1.00  0.00     0.163 HD
ATOM     28  O   UNL A   1      42.532  18.689  25.484  1.00  0.00    -0.269 OA
BRANCH  26  29
ATOM     29  C   UNL A   1      41.953  20.800  26.317  1.00  0.00     0.039 A 
ATOM     30  C   UNL A   1      41.902  21.059  27.693  1.00  0.00     0.014 A 
ATOM     31  C   UNL A   1      42.200  21.862  25.439  1.00  0.00     0.014 A 
ATOM     32  C   UNL A   1      42.136  22.350  28.190  1.00  0.00     0.010 A 
ATOM     33  C   UNL A   1      42.450  23.157  25.942  1.00  0.00     0.010 A 
ATOM     34  C   UNL A   1      42.429  23.417  27.324  1.00  0.00    -0.014 A 
BRANCH  34  35
ATOM     35  C   UNL A   1      42.772  24.760  27.889  1.00  0.00     0.031 A 
ATOM     36  C   UNL A   1      44.193  25.174  28.179  1.00  0.00     0.074 A 
ATOM     37  C   UNL A   1      41.782  25.644  28.132  1.00  0.00     0.049 A 
ATOM     38  N   UNL A   1      44.649  26.329  28.602  1.00  0.00    -0.248 NA
ATOM     39  C   UNL A   1      45.235  24.158  27.978  1.00  0.00     0.031 C 
ATOM     40  C   UNL A   1      40.356  25.382  27.935  1.00  0.00     0.029 A 
ATOM     41  N   UNL A   1      41.821  26.939  28.594  1.00  0.00    -0.354 N 
ATOM     42  C   UNL A   1      46.028  26.188  28.706  1.00  0.00     0.074 A 
ATOM     43  C   UNL A   1      46.329  24.816  28.344  1.00  0.00     0.031 C 
ATOM     44  C   UNL A   1      39.658  26.483  28.255  1.00  0.00     0.029 A 
ATOM     45  C   UNL A   1      40.581  27.526  28.699  1.00  0.00     0.049 A 
ATOM     46  H   UNL A   1      42.656  27.404  28.827  1.00  0.00     0.167 HD
ATOM     47  C   UNL A   1      46.961  27.113  29.051  1.00  0.00     0.037 A 
ATOM     48  C   UNL A   1      40.219  28.759  29.104  1.00  0.00     0.037 A 
ATOM     49  C   UNL A   1      46.677  28.479  29.420  1.00  0.00     0.049 A 
ATOM     50  C   UNL A   1      41.270  29.761  29.495  1.00  0.00     0.074 A 
ATOM     51  C   UNL A   1      47.569  29.489  29.747  1.00  0.00     0.029 A 
ATOM     52  N   UNL A   1      45.409  29.029  29.521  1.00  0.00    -0.354 N 
ATOM     53  N   UNL A   1      42.573  29.627  29.516  1.00  0.00    -0.248 NA
ATOM     54  C   UNL A   1      40.797  31.092  29.907  1.00  0.00     0.031 C 
ATOM     55  C   UNL A   1      46.839  30.635  30.086  1.00  0.00     0.029 A 
ATOM     56  C   UNL A   1      45.494  30.354  29.926  1.00  0.00     0.049 A 
ATOM     57  H   UNL A   1      44.570  28.550  29.333  1.00  0.00     0.167 HD
ATOM     58  C   UNL A   1      43.074  30.857  29.923  1.00  0.00     0.074 A 
ATOM     59  C   UNL A   1      41.938  31.733  30.113  1.00  0.00     0.031 C 
ATOM     60  C   UNL A   1      44.364  31.225  30.125  1.00  0.00     0.037 A 
BRANCH  47  61
ATOM     61  C   UNL A   1      48.403  26.685  29.041  1.00  0.00     0.057 A 
ATOM     62  C   UNL A   1      48.976  26.013  30.129  1.00  0.00     0.134 A 
ATOM     63  C   UNL A   1      49.206  26.881  27.910  1.00  0.00     0.134 A 
ATOM     64  F   UNL A   1      48.262  25.792  31.244  1.00  0.00    -0.206 F 
ATOM     65  C   UNL A   1      50.300  25.569  30.100  1.00  0.00     0.040 A 
ATOM     66  C   UNL A   1      50.524  26.421  27.860  1.00  0.00     0.040 A 
ATOM     67  F   UNL A   1      48.717  27.501  26.826  1.00  0.00    -0.206 F 
ATOM     68  C   UNL A   1      51.075  25.767  28.961  1.00  0.00     0.006 A 
ENDBRANCH  47  61
BRANCH  48  69
ATOM     69  C   UNL A   1      38.781  29.130  29.148  1.00  0.00     0.057 A 
ATOM     70  C   UNL A   1      38.039  29.022  30.331  1.00  0.00     0.134 A 
ATOM     71  C   UNL A   1      38.111  29.579  28.005  1.00  0.00     0.134 A 
ATOM     72  F   UNL A   1      38.620  28.574  31.454  1.00  0.00    -0.206 F 
ATOM     73  C   UNL A   1      36.678  29.329  30.371  1.00  0.00     0.040 A 
ATOM     74  C   UNL A   1      36.756  29.915  28.037  1.00  0.00     0.040 A 
ATOM     75  F   UNL A   1      38.766  29.707  26.842  1.00  0.00    -0.206 F 
ATOM     76  C   UNL A   1      36.034  29.782  29.220  1.00  0.00     0.006 A 
ENDBRANCH  48  69
BRANCH  60  77
ATOM     77  C   UNL A   1      44.614  32.640  30.562  1.00  0.00     0.057 A 
ATOM     78  C   UNL A   1      44.687  32.993  31.916  1.00  0.00     0.134 A 
ATOM     79  C   UNL A   1      44.789  33.662  29.620  1.00  0.00     0.134 A 
ATOM     80  F   UNL A   1      44.513  32.067  32.870  1.00  0.00    -0.206 F 
ATOM     81  C   UNL A   1      44.895  34.315  32.317  1.00  0.00     0.040 A 
ATOM     82  C   UNL A   1      45.023  34.983  30.008  1.00  0.00     0.040 A 
ATOM     83  F   UNL A   1      44.738  33.395  28.306  1.00  0.00    -0.206 F 
ATOM     84  C   UNL A   1      45.068  35.314  31.362  1.00  0.00     0.006 A 
ENDBRANCH  60  77
ENDBRANCH  34  35
ENDBRANCH  26  29
ENDBRANCH  24  25
ENDBRANCH  23  24
ENDBRANCH   1  23
TORSDOF 16
ENDMDL
MODEL 3
REMARK VINA RESULT:     -10.1      3.044      7.626
REMARK SMILES C=CC[NH+](CC=C)[C@@H](C(=O)NCCCNC(=O)c1ccc(-c2c3nc(c(-c4c(F)cccc4F)c4ccc([nH]4)c(-c4c(F)cccc4F)c4nc(c(-c5c(F)cccc5F)c5ccc2[nH]5)C=C4)C=C3)cc1)c1ccc(F)c(C)c1
REMARK SMILES IDX 12 1 11 2 9 3 10 4 8 6 4 7 3 9 2 10 1 11 5 12 6 13 7 14
REMARK SMILES IDX 72 15 73 16 79 17 74 18 77 19 75 20 78 21 76 22 13 23 14 24
REMARK SMILES IDX 15 25 16 26 17 28 18 29 19 30 71 31 20 32 70 33 21 34 22 35
REMARK SMILES IDX 23 36 64 37 24 38 69 39 63 40 65 41 25 42 68 43 62 44 61 45
REMARK SMILES IDX 26 47 52 48 35 49 51 50 36 51 39 52 50 53 66 54 37 55 38 56
REMARK SMILES IDX 49 58 67 59 40 60 27 61 28 62 33 63 29 64 30 65 32 66 34 67
REMARK SMILES IDX 31 68 53 69 54 70 59 71 55 72 56 73 58 74 60 75 57 76 41 77
REMARK SMILES IDX 42 78 47 79 43 80 44 81 46 82 48 83 45 84
REMARK H PARENT 11 5 4 8 15 27 65 46 39 57
REMARK Flexibility Score: inf
ROOT
ATOM      1  C   UNL A   1      34.374  24.036  25.409  1.00  0.00     0.118 C 
ENDROOT
BRANCH   1   2
ATOM      2  N   UNL A   1      33.310  24.239  26.388  1.00  0.00    -0.351 N 
ATOM      3  C   UNL A   1      32.101  24.905  26.373  1.00  0.00     0.283 C 
ATOM      4  O   UNL A   1      31.304  24.546  27.250  1.00  0.00    -0.268 OA
ATOM      5  H   UNL A   1      33.497  23.806  27.252  1.00  0.00     0.163 HD
BRANCH   3   6
ATOM      6  C   UNL A   1      31.770  26.082  25.374  1.00  0.00     0.306 C 
BRANCH   6   7
ATOM      7  N   UNL A   1      32.081  25.668  23.948  1.00  0.00    -0.314 N 
ATOM      8  H   UNL A   1      32.259  24.667  24.024  1.00  0.00     0.349 HD
BRANCH   7   9
ATOM      9  C   UNL A   1      33.310  26.263  23.392  1.00  0.00     0.291 C 
BRANCH   9  10
ATOM     10  C   UNL A   1      33.078  27.356  22.379  1.00  0.00     0.025 C 
ATOM     11  C   UNL A   1      33.640  28.574  22.380  1.00  0.00     0.010 C 
ENDBRANCH   9  10
ENDBRANCH   7   9
BRANCH   7  12
ATOM     12  C   UNL A   1      30.955  25.850  23.037  1.00  0.00     0.291 C 
BRANCH  12  13
ATOM     13  C   UNL A   1      29.734  26.326  23.761  1.00  0.00     0.025 C 
ATOM     14  C   UNL A   1      29.077  27.465  23.499  1.00  0.00     0.010 C 
ENDBRANCH  12  13
ENDBRANCH   7  12
ENDBRANCH   6   7
BRANCH   6  15
ATOM     15  C   UNL A   1      32.544  27.364  25.797  1.00  0.00     0.020 A 
ATOM     16  C   UNL A   1      33.854  27.293  26.300  1.00  0.00     0.013 A 
ATOM     17  C   UNL A   1      31.942  28.639  25.731  1.00  0.00     0.017 A 
ATOM     18  C   UNL A   1      34.491  28.441  26.795  1.00  0.00     0.040 A 
ATOM     19  C   UNL A   1      32.522  29.768  26.333  1.00  0.00    -0.015 A 
ATOM     20  C   UNL A   1      33.811  29.654  26.838  1.00  0.00     0.126 A 
ATOM     21  C   UNL A   1      31.754  31.047  26.491  1.00  0.00     0.047 C 
ATOM     22  F   UNL A   1      34.408  30.718  27.397  1.00  0.00    -0.207 F 
ENDBRANCH   6  15
ENDBRANCH   3   6
ENDBRANCH   1   2
BRANCH   1  23
ATOM     23  C   UNL A   1      35.714  23.398  25.848  1.00  0.00     0.042 C 
BRANCH  23  24
ATOM     24  C   UNL A   1      37.043  23.773  25.168  1.00  0.00     0.118 C 
BRANCH  24  25
ATOM     25  N   UNL A   1      38.145  22.857  25.392  1.00  0.00    -0.352 N 
ATOM     26  C   UNL A   1      39.294  23.036  26.127  1.00  0.00     0.251 C 
ATOM     27  H   UNL A   1      38.057  21.979  24.956  1.00  0.00     0.163 HD
ATOM     28  O   UNL A   1      40.125  22.118  26.164  1.00  0.00    -0.269 OA
BRANCH  26  29
ATOM     29  C   UNL A   1      39.612  24.297  26.851  1.00  0.00     0.039 A 
ATOM     30  C   UNL A   1      39.051  24.484  28.121  1.00  0.00     0.014 A 
ATOM     31  C   UNL A   1      40.336  25.346  26.273  1.00  0.00     0.014 A 
ATOM     32  C   UNL A   1      39.245  25.683  28.824  1.00  0.00     0.010 A 
ATOM     33  C   UNL A   1      40.543  26.547  26.987  1.00  0.00     0.010 A 
ATOM     34  C   UNL A   1      40.007  26.728  28.274  1.00  0.00    -0.014 A 
BRANCH  34  35
ATOM     35  C   UNL A   1      40.279  27.956  29.086  1.00  0.00     0.031 A 
ATOM     36  C   UNL A   1      39.304  29.104  29.162  1.00  0.00     0.074 A 
ATOM     37  C   UNL A   1      41.426  28.038  29.792  1.00  0.00     0.049 A 
ATOM     38  N   UNL A   1      39.370  30.201  29.879  1.00  0.00    -0.248 NA
ATOM     39  C   UNL A   1      38.105  29.015  28.317  1.00  0.00     0.031 C 
ATOM     40  C   UNL A   1      42.483  27.026  29.796  1.00  0.00     0.029 A 
ATOM     41  N   UNL A   1      41.894  29.011  30.644  1.00  0.00    -0.354 N 
ATOM     42  C   UNL A   1      38.221  30.927  29.587  1.00  0.00     0.074 A 
ATOM     43  C   UNL A   1      37.497  30.164  28.589  1.00  0.00     0.031 C 
ATOM     44  C   UNL A   1      43.466  27.420  30.621  1.00  0.00     0.029 A 
ATOM     45  C   UNL A   1      43.122  28.721  31.192  1.00  0.00     0.049 A 
ATOM     46  H   UNL A   1      41.399  29.837  30.843  1.00  0.00     0.167 HD
ATOM     47  C   UNL A   1      37.797  32.107  30.109  1.00  0.00     0.037 A 
ATOM     48  C   UNL A   1      43.890  29.414  32.055  1.00  0.00     0.037 A 
ATOM     49  C   UNL A   1      38.509  32.880  31.097  1.00  0.00     0.049 A 
ATOM     50  C   UNL A   1      43.404  30.726  32.608  1.00  0.00     0.074 A 
ATOM     51  C   UNL A   1      38.129  34.067  31.705  1.00  0.00     0.029 A 
ATOM     52  N   UNL A   1      39.751  32.554  31.619  1.00  0.00    -0.354 N 
ATOM     53  N   UNL A   1      42.281  31.357  32.372  1.00  0.00    -0.248 NA
ATOM     54  C   UNL A   1      44.290  31.414  33.561  1.00  0.00     0.031 C 
ATOM     55  C   UNL A   1      39.157  34.480  32.559  1.00  0.00     0.029 A 
ATOM     56  C   UNL A   1      40.159  33.527  32.521  1.00  0.00     0.049 A 
ATOM     57  H   UNL A   1      40.268  31.751  31.384  1.00  0.00     0.167 HD
ATOM     58  C   UNL A   1      42.317  32.503  33.157  1.00  0.00     0.074 A 
ATOM     59  C   UNL A   1      43.560  32.467  33.897  1.00  0.00     0.031 C 
ATOM     60  C   UNL A   1      41.401  33.498  33.252  1.00  0.00     0.037 A 
BRANCH  47  61
ATOM     61  C   UNL A   1      36.478  32.647  29.628  1.00  0.00     0.057 A 
ATOM     62  C   UNL A   1      36.387  33.447  28.482  1.00  0.00     0.134 A 
ATOM     63  C   UNL A   1      35.280  32.306  30.270  1.00  0.00     0.134 A 
ATOM     64  F   UNL A   1      37.496  33.811  27.818  1.00  0.00    -0.206 F 
ATOM     65  C   UNL A   1      35.158  33.906  28.004  1.00  0.00     0.040 A 
ATOM     66  C   UNL A   1      34.042  32.738  29.789  1.00  0.00     0.040 A 
ATOM     67  F   UNL A   1      35.291  31.527  31.362  1.00  0.00    -0.206 F 
ATOM     68  C   UNL A   1      33.980  33.546  28.655  1.00  0.00     0.006 A 
ENDBRANCH  47  61
BRANCH  48  69
ATOM     69  C   UNL A   1      45.210  28.873  32.469  1.00  0.00     0.057 A 
ATOM     70  C   UNL A   1      45.338  28.054  33.598  1.00  0.00     0.134 A 
ATOM     71  C   UNL A   1      46.376  29.179  31.758  1.00  0.00     0.134 A 
ATOM     72  F   UNL A   1      44.261  27.746  34.334  1.00  0.00    -0.206 F 
ATOM     73  C   UNL A   1      46.581  27.576  34.017  1.00  0.00     0.040 A 
ATOM     74  C   UNL A   1      47.621  28.685  32.150  1.00  0.00     0.040 A 
ATOM     75  F   UNL A   1      46.320  29.955  30.666  1.00  0.00    -0.206 F 
ATOM     76  C   UNL A   1      47.727  27.888  33.287  1.00  0.00     0.006 A 
ENDBRANCH  48  69
BRANCH  60  77
ATOM     77  C   UNL A   1      41.704  34.623  34.200  1.00  0.00     0.057 A 
ATOM     78  C   UNL A   1      41.334  34.571  35.550  1.00  0.00     0.134 A 
ATOM     79  C   UNL A   1      42.379  35.769  33.761  1.00  0.00     0.134 A 
ATOM     80  F   UNL A   1      40.672  33.510  36.034  1.00  0.00    -0.206 F 
ATOM     81  C   UNL A   1      41.597  35.631  36.422  1.00  0.00     0.040 A 
ATOM     82  C   UNL A   1      42.670  36.825  34.628  1.00  0.00     0.040 A 
ATOM     83  F   UNL A   1      42.769  35.883  32.482  1.00  0.00    -0.206 F 
ATOM     84  C   UNL A   1      42.270  36.760  35.962  1.00  0.00     0.006 A 
ENDBRANCH  60  77
ENDBRANCH  34  35
ENDBRANCH  26  29
ENDBRANCH  24  25
ENDBRANCH  23  24
ENDBRANCH   1  23
TORSDOF 16
ENDMDL
