MODEL 1
REMARK VINA RESULT:     -11.5      0.000      0.000
REMARK SMILES Cc1cc(C)n2ncc(C(=O)N(C)CCCC(=O)NCCCNC(=O)c3ccc(-c4c5nc(c(-c6c(F)cccc6F)c6ccc([nH]6)c(-c6c(F)cccc6F)c6nc(c(-c7c(F)cccc7F)c7ccc4[nH]7)C=C6)C=C5)cc3)c2n1
REMARK SMILES IDX 17 1 18 2 19 3 16 5 15 6 14 7 12 8 13 9 10 10 11 11 9 12
REMARK SMILES IDX 1 13 2 14 3 15 81 16 4 17 80 18 5 19 6 20 7 21 8 22 20 23
REMARK SMILES IDX 21 24 22 25 23 26 24 27 25 29 26 30 27 31 79 32 28 33 78 34
REMARK SMILES IDX 29 35 30 36 31 37 72 38 32 39 77 40 71 41 73 42 33 43 76 44
REMARK SMILES IDX 70 45 69 46 34 48 60 49 43 50 59 51 44 52 47 53 58 54 74 55
REMARK SMILES IDX 45 56 46 57 57 59 75 60 48 61 35 62 36 63 41 64 37 65 38 66
REMARK SMILES IDX 40 67 42 68 39 69 61 70 62 71 67 72 63 73 64 74 66 75 68 76
REMARK SMILES IDX 65 77 49 78 50 79 55 80 51 81 52 82 54 83 56 84 53 85
REMARK H PARENT 19 4 23 28 73 47 47 58
REMARK Flexibility Score: inf
ROOT
ATOM      1  C   UNL A   1      38.960  21.534  25.856  1.00  0.00     0.220 C 
ATOM      2  O   UNL A   1      38.259  20.971  25.010  1.00  0.00    -0.275 OA
ATOM      3  N   UNL A   1      39.985  20.811  26.377  1.00  0.00    -0.356 N 
ATOM      4  H   UNL A   1      40.049  19.888  26.039  1.00  0.00     0.163 HD
ENDROOT
BRANCH   1   5
ATOM      5  C   UNL A   1      38.735  22.999  26.187  1.00  0.00     0.102 C 
BRANCH   5   6
ATOM      6  C   UNL A   1      37.368  23.669  26.013  1.00  0.00     0.031 C 
BRANCH   6   7
ATOM      7  C   UNL A   1      36.243  23.126  25.125  1.00  0.00     0.120 C 
BRANCH   7   8
ATOM      8  N   UNL A   1      34.931  22.622  25.581  1.00  0.00    -0.342 N 
ATOM      9  C   UNL A   1      34.989  21.217  25.984  1.00  0.00     0.147 C 
BRANCH   8  10
ATOM     10  C   UNL A   1      33.758  23.401  25.525  1.00  0.00     0.259 C 
ATOM     11  O   UNL A   1      32.851  23.188  26.326  1.00  0.00    -0.269 OA
BRANCH  10  12
ATOM     12  C   UNL A   1      33.561  24.461  24.527  1.00  0.00     0.104 A 
ATOM     13  C   UNL A   1      33.650  28.584  27.255  1.00  0.00     0.067 C 
ATOM     14  C   UNL A   1      33.635  27.802  25.962  1.00  0.00     0.042 A 
ATOM     15  C   UNL A   1      33.843  28.585  24.704  1.00  0.00     0.047 A 
ATOM     16  N   UNL A   1      33.452  26.512  26.015  1.00  0.00    -0.233 NA
ATOM     17  C   UNL A   1      33.783  27.893  23.555  1.00  0.00     0.043 A 
ATOM     18  C   UNL A   1      33.487  25.825  24.826  1.00  0.00     0.168 A 
ATOM     19  C   UNL A   1      34.004  28.530  22.217  1.00  0.00     0.067 C 
ATOM     20  N   UNL A   1      33.571  26.507  23.603  1.00  0.00    -0.219 N 
ATOM     21  N   UNL A   1      33.481  25.651  22.558  1.00  0.00    -0.174 NA
ATOM     22  C   UNL A   1      33.552  24.445  23.117  1.00  0.00     0.151 A 
ENDBRANCH  10  12
ENDBRANCH   8  10
ENDBRANCH   7   8
ENDBRANCH   6   7
ENDBRANCH   5   6
ENDBRANCH   1   5
BRANCH   3  23
ATOM     23  C   UNL A   1      41.002  21.168  27.348  1.00  0.00     0.117 C 
BRANCH  23  24
ATOM     24  C   UNL A   1      42.250  20.284  27.210  1.00  0.00     0.042 C 
BRANCH  24  25
ATOM     25  C   UNL A   1      42.479  19.775  25.808  1.00  0.00     0.118 C 
BRANCH  25  26
ATOM     26  N   UNL A   1      43.873  19.415  25.516  1.00  0.00    -0.352 N 
ATOM     27  C   UNL A   1      44.880  20.258  25.035  1.00  0.00     0.251 C 
ATOM     28  H   UNL A   1      44.126  18.477  25.677  1.00  0.00     0.163 HD
ATOM     29  O   UNL A   1      45.877  19.834  24.498  1.00  0.00    -0.269 OA
BRANCH  27  30
ATOM     30  C   UNL A   1      44.667  21.708  25.227  1.00  0.00     0.039 A 
ATOM     31  C   UNL A   1      43.703  22.457  24.552  1.00  0.00     0.014 A 
ATOM     32  C   UNL A   1      45.377  22.252  26.279  1.00  0.00     0.014 A 
ATOM     33  C   UNL A   1      43.410  23.730  25.044  1.00  0.00     0.010 A 
ATOM     34  C   UNL A   1      44.791  23.264  26.966  1.00  0.00     0.010 A 
ATOM     35  C   UNL A   1      43.947  24.111  26.285  1.00  0.00    -0.014 A 
BRANCH  35  36
ATOM     36  C   UNL A   1      43.673  25.379  26.942  1.00  0.00     0.031 A 
ATOM     37  C   UNL A   1      44.642  26.458  26.651  1.00  0.00     0.074 A 
ATOM     38  C   UNL A   1      42.535  25.609  27.642  1.00  0.00     0.049 A 
ATOM     39  N   UNL A   1      45.570  26.894  27.432  1.00  0.00    -0.248 NA
ATOM     40  C   UNL A   1      44.697  27.009  25.291  1.00  0.00     0.031 C 
ATOM     41  C   UNL A   1      41.325  24.781  27.794  1.00  0.00     0.029 A 
ATOM     42  N   UNL A   1      42.212  26.716  28.359  1.00  0.00    -0.354 N 
ATOM     43  C   UNL A   1      46.215  27.913  26.743  1.00  0.00     0.074 A 
ATOM     44  C   UNL A   1      45.753  27.824  25.381  1.00  0.00     0.031 C 
ATOM     45  C   UNL A   1      40.335  25.502  28.365  1.00  0.00     0.029 A 
ATOM     46  C   UNL A   1      40.897  26.758  28.810  1.00  0.00     0.049 A 
ATOM     47  H   UNL A   1      42.859  27.433  28.545  1.00  0.00     0.167 HD
ATOM     48  C   UNL A   1      46.925  28.863  27.414  1.00  0.00     0.037 A 
ATOM     49  C   UNL A   1      40.327  27.754  29.528  1.00  0.00     0.037 A 
ATOM     50  C   UNL A   1      47.142  28.459  28.784  1.00  0.00     0.049 A 
ATOM     51  C   UNL A   1      41.437  28.503  30.169  1.00  0.00     0.074 A 
ATOM     52  C   UNL A   1      47.833  27.431  29.394  1.00  0.00     0.029 A 
ATOM     53  N   UNL A   1      46.261  28.930  29.730  1.00  0.00    -0.354 N 
ATOM     54  N   UNL A   1      42.205  27.998  31.095  1.00  0.00    -0.248 NA
ATOM     55  C   UNL A   1      41.997  29.624  29.431  1.00  0.00     0.031 C 
ATOM     56  C   UNL A   1      47.006  27.026  30.483  1.00  0.00     0.029 A 
ATOM     57  C   UNL A   1      45.896  27.872  30.525  1.00  0.00     0.049 A 
ATOM     58  H   UNL A   1      45.949  29.859  29.820  1.00  0.00     0.167 HD
ATOM     59  C   UNL A   1      43.481  28.445  30.782  1.00  0.00     0.074 A 
ATOM     60  C   UNL A   1      43.279  29.500  29.787  1.00  0.00     0.031 C 
ATOM     61  C   UNL A   1      44.591  27.729  31.133  1.00  0.00     0.037 A 
BRANCH  48  62
ATOM     62  C   UNL A   1      47.130  30.288  26.967  1.00  0.00     0.057 A 
ATOM     63  C   UNL A   1      48.422  30.846  27.041  1.00  0.00     0.134 A 
ATOM     64  C   UNL A   1      46.095  31.214  26.738  1.00  0.00     0.134 A 
ATOM     65  F   UNL A   1      49.498  30.071  27.247  1.00  0.00    -0.206 F 
ATOM     66  C   UNL A   1      48.651  32.224  26.986  1.00  0.00     0.040 A 
ATOM     67  C   UNL A   1      46.319  32.591  26.633  1.00  0.00     0.040 A 
ATOM     68  F   UNL A   1      44.806  30.859  26.697  1.00  0.00    -0.206 F 
ATOM     69  C   UNL A   1      47.596  33.105  26.794  1.00  0.00     0.006 A 
ENDBRANCH  48  62
BRANCH  49  70
ATOM     70  C   UNL A   1      38.962  28.310  29.398  1.00  0.00     0.057 A 
ATOM     71  C   UNL A   1      38.115  28.407  30.511  1.00  0.00     0.134 A 
ATOM     72  C   UNL A   1      38.573  29.038  28.259  1.00  0.00     0.134 A 
ATOM     73  F   UNL A   1      38.419  27.772  31.652  1.00  0.00    -0.206 F 
ATOM     74  C   UNL A   1      36.972  29.219  30.510  1.00  0.00     0.040 A 
ATOM     75  C   UNL A   1      37.434  29.850  28.244  1.00  0.00     0.040 A 
ATOM     76  F   UNL A   1      39.338  29.061  27.158  1.00  0.00    -0.206 F 
ATOM     77  C   UNL A   1      36.639  29.958  29.379  1.00  0.00     0.006 A 
ENDBRANCH  49  70
BRANCH  61  78
ATOM     78  C   UNL A   1      44.407  26.549  32.056  1.00  0.00     0.057 A 
ATOM     79  C   UNL A   1      44.331  25.214  31.626  1.00  0.00     0.134 A 
ATOM     80  C   UNL A   1      44.492  26.756  33.436  1.00  0.00     0.134 A 
ATOM     81  F   UNL A   1      44.333  24.905  30.326  1.00  0.00    -0.206 F 
ATOM     82  C   UNL A   1      44.314  24.142  32.526  1.00  0.00     0.040 A 
ATOM     83  C   UNL A   1      44.507  25.694  34.345  1.00  0.00     0.040 A 
ATOM     84  F   UNL A   1      44.621  27.999  33.925  1.00  0.00    -0.206 F 
ATOM     85  C   UNL A   1      44.412  24.381  33.892  1.00  0.00     0.006 A 
ENDBRANCH  61  78
ENDBRANCH  35  36
ENDBRANCH  27  30
ENDBRANCH  25  26
ENDBRANCH  24  25
ENDBRANCH  23  24
ENDBRANCH   3  23
TORSDOF 15
ENDMDL
MODEL 2
REMARK VINA RESULT:     -11.1      1.354      2.046
REMARK SMILES Cc1cc(C)n2ncc(C(=O)N(C)CCCC(=O)NCCCNC(=O)c3ccc(-c4c5nc(c(-c6c(F)cccc6F)c6ccc([nH]6)c(-c6c(F)cccc6F)c6nc(c(-c7c(F)cccc7F)c7ccc4[nH]7)C=C6)C=C5)cc3)c2n1
REMARK SMILES IDX 17 1 18 2 19 3 16 5 15 6 14 7 12 8 13 9 10 10 11 11 9 12
REMARK SMILES IDX 1 13 2 14 3 15 81 16 4 17 80 18 5 19 6 20 7 21 8 22 20 23
REMARK SMILES IDX 21 24 22 25 23 26 24 27 25 29 26 30 27 31 79 32 28 33 78 34
REMARK SMILES IDX 29 35 30 36 31 37 72 38 32 39 77 40 71 41 73 42 33 43 76 44
REMARK SMILES IDX 70 45 69 46 34 48 60 49 43 50 59 51 44 52 47 53 58 54 74 55
REMARK SMILES IDX 45 56 46 57 57 59 75 60 48 61 35 62 36 63 41 64 37 65 38 66
REMARK SMILES IDX 40 67 42 68 39 69 61 70 62 71 67 72 63 73 64 74 66 75 68 76
REMARK SMILES IDX 65 77 49 78 50 79 55 80 51 81 52 82 54 83 56 84 53 85
REMARK H PARENT 19 4 23 28 73 47 47 58
REMARK Flexibility Score: inf
ROOT
ATOM      1  C   UNL A   1      39.457  21.546  26.147  1.00  0.00     0.220 C 
ATOM      2  O   UNL A   1      39.126  22.735  26.126  1.00  0.00    -0.275 OA
ATOM      3  N   UNL A   1      40.456  21.205  27.003  1.00  0.00    -0.356 N 
ATOM      4  H   UNL A   1      40.836  21.959  27.509  1.00  0.00     0.163 HD
ENDROOT
BRANCH   1   5
ATOM      5  C   UNL A   1      38.688  20.520  25.333  1.00  0.00     0.102 C 
BRANCH   5   6
ATOM      6  C   UNL A   1      37.255  20.777  24.852  1.00  0.00     0.031 C 
BRANCH   6   7
ATOM      7  C   UNL A   1      36.148  21.393  25.715  1.00  0.00     0.120 C 
BRANCH   7   8
ATOM      8  N   UNL A   1      35.242  22.494  25.325  1.00  0.00    -0.342 N 
ATOM      9  C   UNL A   1      35.922  23.788  25.303  1.00  0.00     0.147 C 
BRANCH   8  10
ATOM     10  C   UNL A   1      33.863  22.299  25.105  1.00  0.00     0.259 C 
ATOM     11  O   UNL A   1      33.460  21.202  24.727  1.00  0.00    -0.269 OA
BRANCH  10  12
ATOM     12  C   UNL A   1      32.875  23.369  25.294  1.00  0.00     0.104 A 
ATOM     13  C   UNL A   1      32.722  25.529  20.848  1.00  0.00     0.067 C 
ATOM     14  C   UNL A   1      32.254  25.283  22.263  1.00  0.00     0.042 A 
ATOM     15  C   UNL A   1      30.970  25.937  22.666  1.00  0.00     0.047 A 
ATOM     16  N   UNL A   1      32.978  24.524  23.037  1.00  0.00    -0.233 NA
ATOM     17  C   UNL A   1      30.582  25.753  23.939  1.00  0.00     0.043 A 
ATOM     18  C   UNL A   1      32.503  24.285  24.304  1.00  0.00     0.168 A 
ATOM     19  C   UNL A   1      29.303  26.315  24.482  1.00  0.00     0.067 C 
ATOM     20  N   UNL A   1      31.364  24.950  24.782  1.00  0.00    -0.219 N 
ATOM     21  N   UNL A   1      31.135  24.654  26.083  1.00  0.00    -0.174 NA
ATOM     22  C   UNL A   1      31.986  23.665  26.348  1.00  0.00     0.151 A 
ENDBRANCH  10  12
ENDBRANCH   8  10
ENDBRANCH   7   8
ENDBRANCH   6   7
ENDBRANCH   5   6
ENDBRANCH   1   5
BRANCH   3  23
ATOM     23  C   UNL A   1      41.057  19.918  27.298  1.00  0.00     0.117 C 
BRANCH  23  24
ATOM     24  C   UNL A   1      42.533  19.874  26.881  1.00  0.00     0.042 C 
BRANCH  24  25
ATOM     25  C   UNL A   1      42.738  19.593  25.413  1.00  0.00     0.118 C 
BRANCH  25  26
ATOM     26  N   UNL A   1      44.099  19.161  25.064  1.00  0.00    -0.352 N 
ATOM     27  C   UNL A   1      45.145  19.962  24.594  1.00  0.00     0.251 C 
ATOM     28  H   UNL A   1      44.295  18.203  25.174  1.00  0.00     0.163 HD
ATOM     29  O   UNL A   1      46.099  19.502  24.010  1.00  0.00    -0.269 OA
BRANCH  27  30
ATOM     30  C   UNL A   1      45.030  21.411  24.859  1.00  0.00     0.039 A 
ATOM     31  C   UNL A   1      44.221  22.282  24.129  1.00  0.00     0.014 A 
ATOM     32  C   UNL A   1      45.647  21.826  26.023  1.00  0.00     0.014 A 
ATOM     33  C   UNL A   1      43.975  23.545  24.670  1.00  0.00     0.010 A 
ATOM     34  C   UNL A   1      45.065  22.845  26.705  1.00  0.00     0.010 A 
ATOM     35  C   UNL A   1      44.385  23.804  25.989  1.00  0.00    -0.014 A 
BRANCH  35  36
ATOM     36  C   UNL A   1      44.137  25.050  26.696  1.00  0.00     0.031 A 
ATOM     37  C   UNL A   1      45.143  26.110  26.467  1.00  0.00     0.074 A 
ATOM     38  C   UNL A   1      42.994  25.285  27.385  1.00  0.00     0.049 A 
ATOM     39  N   UNL A   1      46.069  26.484  27.282  1.00  0.00    -0.248 NA
ATOM     40  C   UNL A   1      45.239  26.717  25.133  1.00  0.00     0.031 C 
ATOM     41  C   UNL A   1      41.758  24.489  27.481  1.00  0.00     0.029 A 
ATOM     42  N   UNL A   1      42.691  26.370  28.143  1.00  0.00    -0.354 N 
ATOM     43  C   UNL A   1      46.758  27.511  26.648  1.00  0.00     0.074 A 
ATOM     44  C   UNL A   1      46.317  27.494  25.277  1.00  0.00     0.031 C 
ATOM     45  C   UNL A   1      40.779  25.215  28.066  1.00  0.00     0.029 A 
ATOM     46  C   UNL A   1      41.371  26.433  28.573  1.00  0.00     0.049 A 
ATOM     47  H   UNL A   1      43.356  27.059  28.371  1.00  0.00     0.167 HD
ATOM     48  C   UNL A   1      47.483  28.409  27.371  1.00  0.00     0.037 A 
ATOM     49  C   UNL A   1      40.817  27.415  29.325  1.00  0.00     0.037 A 
ATOM     50  C   UNL A   1      47.663  27.941  28.727  1.00  0.00     0.049 A 
ATOM     51  C   UNL A   1      41.937  28.102  30.016  1.00  0.00     0.074 A 
ATOM     52  C   UNL A   1      48.312  26.867  29.303  1.00  0.00     0.029 A 
ATOM     53  N   UNL A   1      46.780  28.398  29.677  1.00  0.00    -0.354 N 
ATOM     54  N   UNL A   1      42.673  27.535  30.932  1.00  0.00    -0.248 NA
ATOM     55  C   UNL A   1      42.545  29.235  29.336  1.00  0.00     0.031 C 
ATOM     56  C   UNL A   1      47.454  26.442  30.359  1.00  0.00     0.029 A 
ATOM     57  C   UNL A   1      46.369  27.320  30.419  1.00  0.00     0.049 A 
ATOM     58  H   UNL A   1      46.494  29.332  29.801  1.00  0.00     0.167 HD
ATOM     59  C   UNL A   1      43.968  27.954  30.659  1.00  0.00     0.074 A 
ATOM     60  C   UNL A   1      43.816  29.056  29.708  1.00  0.00     0.031 C 
ATOM     61  C   UNL A   1      45.049  27.190  30.998  1.00  0.00     0.037 A 
BRANCH  48  62
ATOM     62  C   UNL A   1      47.739  29.845  26.990  1.00  0.00     0.057 A 
ATOM     63  C   UNL A   1      49.031  30.378  27.169  1.00  0.00     0.134 A 
ATOM     64  C   UNL A   1      46.736  30.796  26.725  1.00  0.00     0.134 A 
ATOM     65  F   UNL A   1      50.080  29.578  27.419  1.00  0.00    -0.206 F 
ATOM     66  C   UNL A   1      49.284  31.753  27.178  1.00  0.00     0.040 A 
ATOM     67  C   UNL A   1      46.987  32.171  26.683  1.00  0.00     0.040 A 
ATOM     68  F   UNL A   1      45.447  30.464  26.586  1.00  0.00    -0.206 F 
ATOM     69  C   UNL A   1      48.257  32.657  26.947  1.00  0.00     0.006 A 
ENDBRANCH  48  62
BRANCH  49  70
ATOM     70  C   UNL A   1      39.473  28.017  29.195  1.00  0.00     0.057 A 
ATOM     71  C   UNL A   1      38.614  28.105  30.300  1.00  0.00     0.134 A 
ATOM     72  C   UNL A   1      39.122  28.794  28.077  1.00  0.00     0.134 A 
ATOM     73  F   UNL A   1      38.882  27.424  31.424  1.00  0.00    -0.206 F 
ATOM     74  C   UNL A   1      37.497  28.952  30.311  1.00  0.00     0.040 A 
ATOM     75  C   UNL A   1      38.009  29.642  28.073  1.00  0.00     0.040 A 
ATOM     76  F   UNL A   1      39.902  28.829  26.986  1.00  0.00    -0.206 F 
ATOM     77  C   UNL A   1      37.202  29.738  29.201  1.00  0.00     0.006 A 
ENDBRANCH  49  70
BRANCH  61  78
ATOM     78  C   UNL A   1      44.813  25.979  31.867  1.00  0.00     0.057 A 
ATOM     79  C   UNL A   1      44.613  26.030  33.255  1.00  0.00     0.134 A 
ATOM     80  C   UNL A   1      44.602  24.741  31.250  1.00  0.00     0.134 A 
ATOM     81  F   UNL A   1      44.705  27.182  33.927  1.00  0.00    -0.206 F 
ATOM     82  C   UNL A   1      44.246  24.900  33.996  1.00  0.00     0.040 A 
ATOM     83  C   UNL A   1      44.205  23.613  31.973  1.00  0.00     0.040 A 
ATOM     84  F   UNL A   1      44.721  24.622  29.919  1.00  0.00    -0.206 F 
ATOM     85  C   UNL A   1      44.031  23.687  33.352  1.00  0.00     0.006 A 
ENDBRANCH  61  78
ENDBRANCH  35  36
ENDBRANCH  27  30
ENDBRANCH  25  26
ENDBRANCH  24  25
ENDBRANCH  23  24
ENDBRANCH   3  23
TORSDOF 15
ENDMDL
MODEL 3
REMARK VINA RESULT:     -11.1      2.905      8.313
REMARK SMILES Cc1cc(C)n2ncc(C(=O)N(C)CCCC(=O)NCCCNC(=O)c3ccc(-c4c5nc(c(-c6c(F)cccc6F)c6ccc([nH]6)c(-c6c(F)cccc6F)c6nc(c(-c7c(F)cccc7F)c7ccc4[nH]7)C=C6)C=C5)cc3)c2n1
REMARK SMILES IDX 17 1 18 2 19 3 16 5 15 6 14 7 12 8 13 9 10 10 11 11 9 12
REMARK SMILES IDX 1 13 2 14 3 15 81 16 4 17 80 18 5 19 6 20 7 21 8 22 20 23
REMARK SMILES IDX 21 24 22 25 23 26 24 27 25 29 26 30 27 31 79 32 28 33 78 34
REMARK SMILES IDX 29 35 30 36 31 37 72 38 32 39 77 40 71 41 73 42 33 43 76 44
REMARK SMILES IDX 70 45 69 46 34 48 60 49 43 50 59 51 44 52 47 53 58 54 74 55
REMARK SMILES IDX 45 56 46 57 57 59 75 60 48 61 35 62 36 63 41 64 37 65 38 66
REMARK SMILES IDX 40 67 42 68 39 69 61 70 62 71 67 72 63 73 64 74 66 75 68 76
REMARK SMILES IDX 65 77 49 78 50 79 55 80 51 81 52 82 54 83 56 84 53 85
REMARK H PARENT 19 4 23 28 73 47 47 58
REMARK Flexibility Score: inf
ROOT
ATOM      1  C   UNL A   1      32.706  28.800  25.432  1.00  0.00     0.220 C 
ATOM      2  O   UNL A   1      32.374  28.718  24.245  1.00  0.00    -0.275 OA
ATOM      3  N   UNL A   1      33.742  29.631  25.719  1.00  0.00    -0.356 N 
ATOM      4  H   UNL A   1      34.144  30.071  24.935  1.00  0.00     0.163 HD
ENDROOT
BRANCH   1   5
ATOM      5  C   UNL A   1      31.901  28.088  26.505  1.00  0.00     0.102 C 
BRANCH   5   6
ATOM      6  C   UNL A   1      31.502  26.614  26.375  1.00  0.00     0.031 C 
BRANCH   6   7
ATOM      7  C   UNL A   1      32.495  25.459  26.204  1.00  0.00     0.120 C 
BRANCH   7   8
ATOM      8  N   UNL A   1      32.158  24.042  25.953  1.00  0.00    -0.342 N 
ATOM      9  C   UNL A   1      31.009  23.898  25.060  1.00  0.00     0.147 C 
BRANCH   8  10
ATOM     10  C   UNL A   1      32.823  22.979  26.596  1.00  0.00     0.259 C 
ATOM     11  O   UNL A   1      32.660  22.804  27.801  1.00  0.00    -0.269 OA
BRANCH  10  12
ATOM     12  C   UNL A   1      33.730  22.069  25.884  1.00  0.00     0.104 A 
ATOM     13  C   UNL A   1      38.116  24.310  26.323  1.00  0.00     0.067 C 
ATOM     14  C   UNL A   1      37.197  23.168  25.957  1.00  0.00     0.042 A 
ATOM     15  C   UNL A   1      37.852  21.882  25.564  1.00  0.00     0.047 A 
ATOM     16  N   UNL A   1      35.909  23.363  26.010  1.00  0.00    -0.233 NA
ATOM     17  C   UNL A   1      37.031  20.885  25.195  1.00  0.00     0.043 A 
ATOM     18  C   UNL A   1      35.101  22.292  25.713  1.00  0.00     0.168 A 
ATOM     19  C   UNL A   1      37.535  19.528  24.807  1.00  0.00     0.067 C 
ATOM     20  N   UNL A   1      35.645  21.091  25.235  1.00  0.00    -0.219 N 
ATOM     21  N   UNL A   1      34.671  20.211  24.902  1.00  0.00    -0.174 NA
ATOM     22  C   UNL A   1      33.554  20.771  25.361  1.00  0.00     0.151 A 
ENDBRANCH  10  12
ENDBRANCH   8  10
ENDBRANCH   7   8
ENDBRANCH   6   7
ENDBRANCH   5   6
ENDBRANCH   1   5
BRANCH   3  23
ATOM     23  C   UNL A   1      34.355  29.981  26.986  1.00  0.00     0.117 C 
BRANCH  23  24
ATOM     24  C   UNL A   1      33.664  31.189  27.634  1.00  0.00     0.042 C 
BRANCH  24  25
ATOM     25  C   UNL A   1      34.619  32.280  28.051  1.00  0.00     0.118 C 
BRANCH  25  26
ATOM     26  N   UNL A   1      34.578  32.605  29.483  1.00  0.00    -0.352 N 
ATOM     27  C   UNL A   1      35.362  32.048  30.499  1.00  0.00     0.251 C 
ATOM     28  H   UNL A   1      33.927  33.291  29.758  1.00  0.00     0.163 HD
ATOM     29  O   UNL A   1      35.044  32.101  31.665  1.00  0.00    -0.269 OA
BRANCH  27  30
ATOM     30  C   UNL A   1      36.616  31.394  30.072  1.00  0.00     0.039 A 
ATOM     31  C   UNL A   1      37.828  32.060  29.891  1.00  0.00     0.014 A 
ATOM     32  C   UNL A   1      36.557  30.014  30.044  1.00  0.00     0.014 A 
ATOM     33  C   UNL A   1      38.985  31.286  29.786  1.00  0.00     0.010 A 
ATOM     34  C   UNL A   1      37.687  29.337  30.366  1.00  0.00     0.010 A 
ATOM     35  C   UNL A   1      38.900  29.910  30.060  1.00  0.00    -0.014 A 
BRANCH  35  36
ATOM     36  C   UNL A   1      40.035  29.001  30.050  1.00  0.00     0.031 A 
ATOM     37  C   UNL A   1      40.645  28.746  31.373  1.00  0.00     0.074 A 
ATOM     38  C   UNL A   1      40.411  28.314  28.944  1.00  0.00     0.049 A 
ATOM     39  N   UNL A   1      41.753  29.231  31.819  1.00  0.00    -0.248 NA
ATOM     40  C   UNL A   1      39.872  28.001  32.375  1.00  0.00     0.031 C 
ATOM     41  C   UNL A   1      39.761  28.197  27.626  1.00  0.00     0.029 A 
ATOM     42  N   UNL A   1      41.494  27.508  28.797  1.00  0.00    -0.354 N 
ATOM     43  C   UNL A   1      41.926  28.705  33.093  1.00  0.00     0.074 A 
ATOM     44  C   UNL A   1      40.668  28.098  33.444  1.00  0.00     0.031 C 
ATOM     45  C   UNL A   1      40.339  27.211  26.906  1.00  0.00     0.029 A 
ATOM     46  C   UNL A   1      41.523  26.777  27.615  1.00  0.00     0.049 A 
ATOM     47  H   UNL A   1      42.204  27.446  29.476  1.00  0.00     0.167 HD
ATOM     48  C   UNL A   1      43.165  28.649  33.657  1.00  0.00     0.037 A 
ATOM     49  C   UNL A   1      42.481  25.895  27.240  1.00  0.00     0.037 A 
ATOM     50  C   UNL A   1      44.099  29.461  32.911  1.00  0.00     0.049 A 
ATOM     51  C   UNL A   1      43.695  26.229  28.026  1.00  0.00     0.074 A 
ATOM     52  C   UNL A   1      44.216  30.812  32.652  1.00  0.00     0.029 A 
ATOM     53  N   UNL A   1      44.871  28.829  31.964  1.00  0.00    -0.354 N 
ATOM     54  N   UNL A   1      44.368  27.337  27.877  1.00  0.00    -0.248 NA
ATOM     55  C   UNL A   1      43.860  25.561  29.308  1.00  0.00     0.031 C 
ATOM     56  C   UNL A   1      44.645  30.890  31.294  1.00  0.00     0.029 A 
ATOM     57  C   UNL A   1      44.836  29.589  30.822  1.00  0.00     0.049 A 
ATOM     58  H   UNL A   1      45.360  27.983  32.084  1.00  0.00     0.167 HD
ATOM     59  C   UNL A   1      44.701  27.728  29.167  1.00  0.00     0.074 A 
ATOM     60  C   UNL A   1      44.423  26.557  30.000  1.00  0.00     0.031 C 
ATOM     61  C   UNL A   1      44.893  29.043  29.483  1.00  0.00     0.037 A 
BRANCH  48  62
ATOM     62  C   UNL A   1      43.633  27.619  34.654  1.00  0.00     0.057 A 
ATOM     63  C   UNL A   1      43.958  28.033  35.960  1.00  0.00     0.134 A 
ATOM     64  C   UNL A   1      44.042  26.312  34.325  1.00  0.00     0.134 A 
ATOM     65  F   UNL A   1      43.617  29.254  36.403  1.00  0.00    -0.206 F 
ATOM     66  C   UNL A   1      44.714  27.245  36.834  1.00  0.00     0.040 A 
ATOM     67  C   UNL A   1      44.756  25.497  35.209  1.00  0.00     0.040 A 
ATOM     68  F   UNL A   1      43.862  25.785  33.109  1.00  0.00    -0.206 F 
ATOM     69  C   UNL A   1      45.127  25.976  36.456  1.00  0.00     0.006 A 
ENDBRANCH  48  62
BRANCH  49  70
ATOM     70  C   UNL A   1      42.310  24.598  26.550  1.00  0.00     0.057 A 
ATOM     71  C   UNL A   1      43.107  24.258  25.448  1.00  0.00     0.134 A 
ATOM     72  C   UNL A   1      41.588  23.545  27.139  1.00  0.00     0.134 A 
ATOM     73  F   UNL A   1      43.855  25.189  24.838  1.00  0.00    -0.206 F 
ATOM     74  C   UNL A   1      43.217  22.939  24.986  1.00  0.00     0.040 A 
ATOM     75  C   UNL A   1      41.688  22.224  26.687  1.00  0.00     0.040 A 
ATOM     76  F   UNL A   1      40.838  23.747  28.233  1.00  0.00    -0.206 F 
ATOM     77  C   UNL A   1      42.520  21.914  25.619  1.00  0.00     0.006 A 
ENDBRANCH  49  70
BRANCH  61  78
ATOM     78  C   UNL A   1      44.944  30.041  28.352  1.00  0.00     0.057 A 
ATOM     79  C   UNL A   1      43.832  30.761  27.885  1.00  0.00     0.134 A 
ATOM     80  C   UNL A   1      46.191  30.417  27.843  1.00  0.00     0.134 A 
ATOM     81  F   UNL A   1      42.608  30.539  28.373  1.00  0.00    -0.206 F 
ATOM     82  C   UNL A   1      43.954  31.786  26.940  1.00  0.00     0.040 A 
ATOM     83  C   UNL A   1      46.330  31.459  26.922  1.00  0.00     0.040 A 
ATOM     84  F   UNL A   1      47.307  29.814  28.279  1.00  0.00    -0.206 F 
ATOM     85  C   UNL A   1      45.210  32.145  26.462  1.00  0.00     0.006 A 
ENDBRANCH  61  78
ENDBRANCH  35  36
ENDBRANCH  27  30
ENDBRANCH  25  26
ENDBRANCH  24  25
ENDBRANCH  23  24
ENDBRANCH   3  23
TORSDOF 15
ENDMDL
