MODEL 1
REMARK VINA RESULT:     -13.1      0.000      0.000
REMARK SMILES O=C(NCCCNC(=O)c1cc(Cl)ccc1NC(=O)c1ccc2c(c1)C(=O)N(Cc1ccco1)C2=O)c1ccc(-c2c3nc(c(-c4c(F)cccc4F)c4ccc([nH]4)c(-c4c(F)cccc4F)c4nc(c(-c5c(F)cccc5F)c5ccc2[nH]5)C=C4)C=C3)cc1
REMARK SMILES IDX 6 1 5 2 4 3 3 4 1 5 2 6 37 8 38 9 90 10 39 11 89 12 40 13
REMARK SMILES IDX 41 14 42 15 83 16 43 17 88 18 82 19 84 20 44 21 87 22 81 23
REMARK SMILES IDX 80 24 45 26 71 27 54 28 70 29 55 30 58 31 69 32 85 33 56 34
REMARK SMILES IDX 57 35 68 37 86 38 59 39 46 40 47 41 52 42 48 43 49 44 51 45
REMARK SMILES IDX 53 46 50 47 72 48 73 49 78 50 74 51 75 52 77 53 79 54 76 55
REMARK SMILES IDX 60 56 61 57 66 58 62 59 63 60 65 61 67 62 64 63 7 64 8 65
REMARK SMILES IDX 9 67 10 68 11 69 16 70 12 71 15 72 13 73 14 74 17 75 18 76
REMARK SMILES IDX 19 78 20 79 21 80 25 81 22 82 24 83 23 84 26 85 35 86 27 87
REMARK SMILES IDX 28 88 36 89 29 90 30 91 31 92 34 93 32 94 33 95
REMARK H PARENT 3 7 84 25 58 36 7 66 17 77
REMARK Flexibility Score: inf
ROOT
ATOM      1  C   UNL A   1      31.349  30.556  25.737  1.00  0.00     0.118 C 
ENDROOT
BRANCH   1   2
ATOM      2  C   UNL A   1      31.254  31.965  26.307  1.00  0.00     0.042 C 
BRANCH   2   3
ATOM      3  C   UNL A   1      32.501  32.410  27.058  1.00  0.00     0.118 C 
BRANCH   3   4
ATOM      4  N   UNL A   1      32.417  33.791  27.510  1.00  0.00    -0.352 N 
ATOM      5  O   UNL A   1      32.755  35.574  28.832  1.00  0.00    -0.269 OA
ATOM      6  C   UNL A   1      33.134  34.466  28.465  1.00  0.00     0.251 C 
ATOM      7  H   UNL A   1      31.731  34.330  27.054  1.00  0.00     0.163 HD
BRANCH   6   8
ATOM      8  C   UNL A   1      34.345  33.869  29.068  1.00  0.00     0.039 A 
ATOM      9  C   UNL A   1      35.622  34.341  28.756  1.00  0.00     0.014 A 
ATOM     10  C   UNL A   1      34.191  32.849  30.011  1.00  0.00     0.014 A 
ATOM     11  C   UNL A   1      36.746  33.707  29.275  1.00  0.00     0.010 A 
ATOM     12  C   UNL A   1      35.317  32.269  30.598  1.00  0.00     0.010 A 
ATOM     13  C   UNL A   1      36.605  32.674  30.211  1.00  0.00    -0.014 A 
BRANCH  13  14
ATOM     14  C   UNL A   1      37.801  32.050  30.826  1.00  0.00     0.031 A 
ATOM     15  C   UNL A   1      38.570  30.988  30.096  1.00  0.00     0.074 A 
ATOM     16  C   UNL A   1      38.168  32.417  32.068  1.00  0.00     0.049 A 
ATOM     17  N   UNL A   1      39.573  30.257  30.513  1.00  0.00    -0.248 NA
ATOM     18  C   UNL A   1      38.148  30.701  28.717  1.00  0.00     0.031 C 
ATOM     19  C   UNL A   1      37.501  33.438  32.877  1.00  0.00     0.029 A 
ATOM     20  N   UNL A   1      39.181  31.960  32.874  1.00  0.00    -0.354 N 
ATOM     21  C   UNL A   1      39.885  29.406  29.461  1.00  0.00     0.074 A 
ATOM     22  C   UNL A   1      38.949  29.695  28.395  1.00  0.00     0.031 C 
ATOM     23  C   UNL A   1      38.122  33.533  34.062  1.00  0.00     0.029 A 
ATOM     24  C   UNL A   1      39.186  32.537  34.120  1.00  0.00     0.049 A 
ATOM     25  H   UNL A   1      39.838  31.286  32.587  1.00  0.00     0.167 HD
ATOM     26  C   UNL A   1      40.866  28.474  29.392  1.00  0.00     0.037 A 
ATOM     27  C   UNL A   1      39.935  32.268  35.206  1.00  0.00     0.037 A 
ATOM     28  C   UNL A   1      41.791  28.195  30.462  1.00  0.00     0.049 A 
ATOM     29  C   UNL A   1      40.981  31.196  35.127  1.00  0.00     0.074 A 
ATOM     30  C   UNL A   1      42.844  27.298  30.479  1.00  0.00     0.029 A 
ATOM     31  N   UNL A   1      41.763  28.801  31.710  1.00  0.00    -0.354 N 
ATOM     32  N   UNL A   1      41.293  30.422  34.116  1.00  0.00    -0.248 NA
ATOM     33  C   UNL A   1      41.781  30.957  36.336  1.00  0.00     0.031 C 
ATOM     34  C   UNL A   1      43.411  27.315  31.757  1.00  0.00     0.029 A 
ATOM     35  C   UNL A   1      42.759  28.273  32.515  1.00  0.00     0.049 A 
ATOM     36  H   UNL A   1      41.127  29.502  31.984  1.00  0.00     0.167 HD
ATOM     37  C   UNL A   1      42.344  29.627  34.555  1.00  0.00     0.074 A 
ATOM     38  C   UNL A   1      42.616  30.013  35.924  1.00  0.00     0.031 C 
ATOM     39  C   UNL A   1      43.027  28.673  33.876  1.00  0.00     0.037 A 
BRANCH  26  40
ATOM     40  C   UNL A   1      40.957  27.659  28.133  1.00  0.00     0.057 A 
ATOM     41  C   UNL A   1      40.291  26.435  27.984  1.00  0.00     0.134 A 
ATOM     42  C   UNL A   1      41.720  28.110  27.047  1.00  0.00     0.134 A 
ATOM     43  F   UNL A   1      39.549  25.937  28.986  1.00  0.00    -0.206 F 
ATOM     44  C   UNL A   1      40.414  25.670  26.822  1.00  0.00     0.040 A 
ATOM     45  C   UNL A   1      41.825  27.370  25.867  1.00  0.00     0.040 A 
ATOM     46  F   UNL A   1      42.376  29.277  27.114  1.00  0.00    -0.206 F 
ATOM     47  C   UNL A   1      41.181  26.141  25.757  1.00  0.00     0.006 A 
ENDBRANCH  26  40
BRANCH  27  48
ATOM     48  C   UNL A   1      39.696  33.031  36.456  1.00  0.00     0.057 A 
ATOM     49  C   UNL A   1      40.404  34.203  36.735  1.00  0.00     0.134 A 
ATOM     50  C   UNL A   1      38.715  32.632  37.373  1.00  0.00     0.134 A 
ATOM     51  F   UNL A   1      41.364  34.627  35.900  1.00  0.00    -0.206 F 
ATOM     52  C   UNL A   1      40.148  34.953  37.884  1.00  0.00     0.040 A 
ATOM     53  C   UNL A   1      38.431  33.386  38.512  1.00  0.00     0.040 A 
ATOM     54  F   UNL A   1      37.993  31.523  37.154  1.00  0.00    -0.206 F 
ATOM     55  C   UNL A   1      39.152  34.549  38.772  1.00  0.00     0.006 A 
ENDBRANCH  27  48
BRANCH  39  56
ATOM     56  C   UNL A   1      44.176  28.010  34.577  1.00  0.00     0.057 A 
ATOM     57  C   UNL A   1      45.457  28.573  34.607  1.00  0.00     0.134 A 
ATOM     58  C   UNL A   1      43.971  26.826  35.299  1.00  0.00     0.134 A 
ATOM     59  F   UNL A   1      45.722  29.697  33.926  1.00  0.00    -0.206 F 
ATOM     60  C   UNL A   1      46.497  27.978  35.326  1.00  0.00     0.040 A 
ATOM     61  C   UNL A   1      44.996  26.237  36.042  1.00  0.00     0.040 A 
ATOM     62  F   UNL A   1      42.765  26.237  35.316  1.00  0.00    -0.206 F 
ATOM     63  C   UNL A   1      46.263  26.812  36.055  1.00  0.00     0.006 A 
ENDBRANCH  39  56
ENDBRANCH  13  14
ENDBRANCH   6   8
ENDBRANCH   3   4
ENDBRANCH   2   3
ENDBRANCH   1   2
BRANCH   1  64
ATOM     64  N   UNL A   1      31.614  29.549  26.760  1.00  0.00    -0.352 N 
ATOM     65  C   UNL A   1      31.757  28.188  26.632  1.00  0.00     0.253 C 
ATOM     66  H   UNL A   1      31.703  29.896  27.678  1.00  0.00     0.163 HD
ATOM     67  O   UNL A   1      31.770  27.463  27.621  1.00  0.00    -0.269 OA
BRANCH  65  68
ATOM     68  C   UNL A   1      31.815  27.597  25.280  1.00  0.00     0.064 A 
ATOM     69  C   UNL A   1      32.847  28.009  24.421  1.00  0.00     0.036 A 
ATOM     70  C   UNL A   1      30.821  26.702  24.845  1.00  0.00     0.054 A 
ATOM     71  C   UNL A   1      32.789  27.679  23.076  1.00  0.00     0.041 A 
ATOM     72  C   UNL A   1      30.721  26.496  23.466  1.00  0.00     0.028 A 
ATOM     73  Cl  UNL A   1      34.010  28.237  22.005  1.00  0.00    -0.084 Cl
ATOM     74  C   UNL A   1      31.704  26.965  22.587  1.00  0.00     0.023 A 
BRANCH  70  75
ATOM     75  N   UNL A   1      29.991  26.062  25.801  1.00  0.00    -0.321 N 
ATOM     76  C   UNL A   1      30.026  24.816  26.393  1.00  0.00     0.255 C 
ATOM     77  H   UNL A   1      29.239  26.620  26.105  1.00  0.00     0.170 HD
ATOM     78  O   UNL A   1      29.108  24.437  27.116  1.00  0.00    -0.269 OA
BRANCH  76  79
ATOM     79  C   UNL A   1      31.164  23.898  26.189  1.00  0.00     0.041 A 
ATOM     80  C   UNL A   1      30.870  22.520  26.059  1.00  0.00     0.015 A 
ATOM     81  C   UNL A   1      32.467  24.389  26.014  1.00  0.00     0.028 A 
ATOM     82  C   UNL A   1      31.849  21.628  25.617  1.00  0.00     0.015 A 
ATOM     83  C   UNL A   1      33.404  23.488  25.548  1.00  0.00     0.054 A 
ATOM     84  C   UNL A   1      33.093  22.157  25.331  1.00  0.00     0.053 A 
ATOM     85  C   UNL A   1      34.752  23.714  25.028  1.00  0.00     0.261 C 
ATOM     86  C   UNL A   1      34.230  21.544  24.653  1.00  0.00     0.261 C 
ATOM     87  O   UNL A   1      35.277  24.811  24.973  1.00  0.00    -0.269 OA
ATOM     88  N   UNL A   1      35.192  22.512  24.553  1.00  0.00    -0.267 N 
ATOM     89  O   UNL A   1      34.220  20.411  24.216  1.00  0.00    -0.269 OA
BRANCH  88  90
ATOM     90  C   UNL A   1      36.460  22.315  23.883  1.00  0.00     0.204 C 
BRANCH  90  91
ATOM     91  C   UNL A   1      37.536  22.152  24.896  1.00  0.00     0.123 A 
ATOM     92  C   UNL A   1      38.098  23.006  25.825  1.00  0.00     0.047 A 
ATOM     93  O   UNL A   1      38.126  20.926  24.978  1.00  0.00    -0.467 OA
ATOM     94  C   UNL A   1      39.097  22.266  26.497  1.00  0.00     0.042 A 
ATOM     95  C   UNL A   1      39.070  21.004  25.951  1.00  0.00     0.195 A 
ENDBRANCH  90  91
ENDBRANCH  88  90
ENDBRANCH  76  79
ENDBRANCH  70  75
ENDBRANCH  65  68
ENDBRANCH   1  64
TORSDOF 14
ENDMDL
MODEL 2
REMARK VINA RESULT:     -13.1      4.331      9.944
REMARK SMILES O=C(NCCCNC(=O)c1cc(Cl)ccc1NC(=O)c1ccc2c(c1)C(=O)N(Cc1ccco1)C2=O)c1ccc(-c2c3nc(c(-c4c(F)cccc4F)c4ccc([nH]4)c(-c4c(F)cccc4F)c4nc(c(-c5c(F)cccc5F)c5ccc2[nH]5)C=C4)C=C3)cc1
REMARK SMILES IDX 6 1 5 2 4 3 3 4 1 5 2 6 37 8 38 9 90 10 39 11 89 12 40 13
REMARK SMILES IDX 41 14 42 15 83 16 43 17 88 18 82 19 84 20 44 21 87 22 81 23
REMARK SMILES IDX 80 24 45 26 71 27 54 28 70 29 55 30 58 31 69 32 85 33 56 34
REMARK SMILES IDX 57 35 68 37 86 38 59 39 46 40 47 41 52 42 48 43 49 44 51 45
REMARK SMILES IDX 53 46 50 47 72 48 73 49 78 50 74 51 75 52 77 53 79 54 76 55
REMARK SMILES IDX 60 56 61 57 66 58 62 59 63 60 65 61 67 62 64 63 7 64 8 65
REMARK SMILES IDX 9 67 10 68 11 69 16 70 12 71 15 72 13 73 14 74 17 75 18 76
REMARK SMILES IDX 19 78 20 79 21 80 25 81 22 82 24 83 23 84 26 85 35 86 27 87
REMARK SMILES IDX 28 88 36 89 29 90 30 91 31 92 34 93 32 94 33 95
REMARK H PARENT 3 7 84 25 58 36 7 66 17 77
REMARK Flexibility Score: inf
ROOT
ATOM      1  C   UNL A   1      36.597  20.407  24.996  1.00  0.00     0.118 C 
ENDROOT
BRANCH   1   2
ATOM      2  C   UNL A   1      37.813  19.490  25.012  1.00  0.00     0.042 C 
BRANCH   2   3
ATOM      3  C   UNL A   1      39.005  20.062  25.765  1.00  0.00     0.118 C 
BRANCH   3   4
ATOM      4  N   UNL A   1      40.119  19.128  25.839  1.00  0.00    -0.352 N 
ATOM      5  O   UNL A   1      42.253  18.429  25.870  1.00  0.00    -0.269 OA
ATOM      6  C   UNL A   1      41.456  19.344  26.057  1.00  0.00     0.251 C 
ATOM      7  H   UNL A   1      39.871  18.184  25.712  1.00  0.00     0.163 HD
BRANCH   6   8
ATOM      8  C   UNL A   1      41.950  20.667  26.496  1.00  0.00     0.039 A 
ATOM      9  C   UNL A   1      42.159  20.954  27.847  1.00  0.00     0.014 A 
ATOM     10  C   UNL A   1      42.262  21.623  25.524  1.00  0.00     0.014 A 
ATOM     11  C   UNL A   1      42.545  22.233  28.237  1.00  0.00     0.010 A 
ATOM     12  C   UNL A   1      42.731  22.879  25.911  1.00  0.00     0.010 A 
ATOM     13  C   UNL A   1      42.848  23.203  27.273  1.00  0.00    -0.014 A 
BRANCH  13  14
ATOM     14  C   UNL A   1      43.336  24.542  27.683  1.00  0.00     0.031 A 
ATOM     15  C   UNL A   1      42.373  25.603  28.128  1.00  0.00     0.074 A 
ATOM     16  C   UNL A   1      44.653  24.811  27.613  1.00  0.00     0.049 A 
ATOM     17  N   UNL A   1      42.601  26.858  28.421  1.00  0.00    -0.248 NA
ATOM     18  C   UNL A   1      40.963  25.204  28.248  1.00  0.00     0.031 C 
ATOM     19  C   UNL A   1      45.686  23.861  27.197  1.00  0.00     0.029 A 
ATOM     20  N   UNL A   1      45.346  25.967  27.872  1.00  0.00    -0.354 N 
ATOM     21  C   UNL A   1      41.365  27.406  28.734  1.00  0.00     0.074 A 
ATOM     22  C   UNL A   1      40.386  26.353  28.570  1.00  0.00     0.031 C 
ATOM     23  C   UNL A   1      46.881  24.470  27.232  1.00  0.00     0.029 A 
ATOM     24  C   UNL A   1      46.690  25.866  27.607  1.00  0.00     0.049 A 
ATOM     25  H   UNL A   1      44.922  26.786  28.214  1.00  0.00     0.167 HD
ATOM     26  C   UNL A   1      41.076  28.671  29.125  1.00  0.00     0.037 A 
ATOM     27  C   UNL A   1      47.657  26.801  27.623  1.00  0.00     0.037 A 
ATOM     28  C   UNL A   1      42.061  29.711  29.283  1.00  0.00     0.049 A 
ATOM     29  C   UNL A   1      47.309  28.209  28.009  1.00  0.00     0.074 A 
ATOM     30  C   UNL A   1      41.877  31.014  29.710  1.00  0.00     0.029 A 
ATOM     31  N   UNL A   1      43.413  29.570  29.003  1.00  0.00    -0.354 N 
ATOM     32  N   UNL A   1      46.143  28.709  28.337  1.00  0.00    -0.248 NA
ATOM     33  C   UNL A   1      48.408  29.185  28.026  1.00  0.00     0.031 C 
ATOM     34  C   UNL A   1      43.106  31.678  29.629  1.00  0.00     0.029 A 
ATOM     35  C   UNL A   1      44.069  30.771  29.218  1.00  0.00     0.049 A 
ATOM     36  H   UNL A   1      43.843  28.739  28.696  1.00  0.00     0.167 HD
ATOM     37  C   UNL A   1      46.370  30.047  28.632  1.00  0.00     0.074 A 
ATOM     38  C   UNL A   1      47.788  30.280  28.441  1.00  0.00     0.031 C 
ATOM     39  C   UNL A   1      45.484  30.990  29.035  1.00  0.00     0.037 A 
BRANCH  26  40
ATOM     40  C   UNL A   1      39.631  29.007  29.366  1.00  0.00     0.057 A 
ATOM     41  C   UNL A   1      39.047  28.928  30.638  1.00  0.00     0.134 A 
ATOM     42  C   UNL A   1      38.812  29.424  28.308  1.00  0.00     0.134 A 
ATOM     43  F   UNL A   1      39.769  28.528  31.696  1.00  0.00    -0.206 F 
ATOM     44  C   UNL A   1      37.693  29.208  30.840  1.00  0.00     0.040 A 
ATOM     45  C   UNL A   1      37.465  29.738  28.504  1.00  0.00     0.040 A 
ATOM     46  F   UNL A   1      39.306  29.533  27.066  1.00  0.00    -0.206 F 
ATOM     47  C   UNL A   1      36.900  29.619  29.770  1.00  0.00     0.006 A 
ENDBRANCH  26  40
BRANCH  27  48
ATOM     48  C   UNL A   1      49.040  26.419  27.246  1.00  0.00     0.057 A 
ATOM     49  C   UNL A   1      49.964  26.003  28.208  1.00  0.00     0.134 A 
ATOM     50  C   UNL A   1      49.450  26.408  25.906  1.00  0.00     0.134 A 
ATOM     51  F   UNL A   1      49.632  26.004  29.508  1.00  0.00    -0.206 F 
ATOM     52  C   UNL A   1      51.250  25.592  27.854  1.00  0.00     0.040 A 
ATOM     53  C   UNL A   1      50.724  25.975  25.536  1.00  0.00     0.040 A 
ATOM     54  F   UNL A   1      48.605  26.782  24.935  1.00  0.00    -0.206 F 
ATOM     55  C   UNL A   1      51.630  25.568  26.513  1.00  0.00     0.006 A 
ENDBRANCH  27  48
BRANCH  39  56
ATOM     56  C   UNL A   1      46.019  32.355  29.354  1.00  0.00     0.057 A 
ATOM     57  C   UNL A   1      46.043  33.387  28.409  1.00  0.00     0.134 A 
ATOM     58  C   UNL A   1      46.444  32.658  30.655  1.00  0.00     0.134 A 
ATOM     59  F   UNL A   1      45.663  33.159  27.143  1.00  0.00    -0.206 F 
ATOM     60  C   UNL A   1      46.476  34.671  28.744  1.00  0.00     0.040 A 
ATOM     61  C   UNL A   1      46.855  33.945  31.008  1.00  0.00     0.040 A 
ATOM     62  F   UNL A   1      46.441  31.715  31.610  1.00  0.00    -0.206 F 
ATOM     63  C   UNL A   1      46.873  34.955  30.051  1.00  0.00     0.006 A 
ENDBRANCH  39  56
ENDBRANCH  13  14
ENDBRANCH   6   8
ENDBRANCH   3   4
ENDBRANCH   2   3
ENDBRANCH   1   2
BRANCH   1  64
ATOM     64  N   UNL A   1      36.805  21.608  24.194  1.00  0.00    -0.352 N 
ATOM     65  C   UNL A   1      35.908  22.588  23.837  1.00  0.00     0.253 C 
ATOM     66  H   UNL A   1      37.722  21.736  23.858  1.00  0.00     0.163 HD
ATOM     67  O   UNL A   1      36.198  23.422  22.986  1.00  0.00    -0.269 OA
BRANCH  65  68
ATOM     68  C   UNL A   1      34.558  22.578  24.436  1.00  0.00     0.064 A 
ATOM     69  C   UNL A   1      34.455  22.582  25.837  1.00  0.00     0.036 A 
ATOM     70  C   UNL A   1      33.414  22.492  23.623  1.00  0.00     0.054 A 
ATOM     71  C   UNL A   1      33.233  22.316  26.432  1.00  0.00     0.041 A 
ATOM     72  C   UNL A   1      32.227  22.099  24.247  1.00  0.00     0.028 A 
ATOM     73  Cl  UNL A   1      33.110  22.251  28.144  1.00  0.00    -0.084 Cl
ATOM     74  C   UNL A   1      32.128  22.026  25.642  1.00  0.00     0.023 A 
BRANCH  70  75
ATOM     75  N   UNL A   1      33.513  22.807  22.243  1.00  0.00    -0.321 N 
ATOM     76  C   UNL A   1      33.240  23.948  21.516  1.00  0.00     0.255 C 
ATOM     77  H   UNL A   1      33.845  22.061  21.693  1.00  0.00     0.170 HD
ATOM     78  O   UNL A   1      33.290  23.939  20.288  1.00  0.00    -0.269 OA
BRANCH  76  79
ATOM     79  C   UNL A   1      32.888  25.218  22.180  1.00  0.00     0.041 A 
ATOM     80  C   UNL A   1      31.946  26.050  21.530  1.00  0.00     0.015 A 
ATOM     81  C   UNL A   1      33.379  25.527  23.458  1.00  0.00     0.028 A 
ATOM     82  C   UNL A   1      31.376  27.133  22.204  1.00  0.00     0.015 A 
ATOM     83  C   UNL A   1      32.774  26.584  24.109  1.00  0.00     0.054 A 
ATOM     84  C   UNL A   1      31.784  27.342  23.507  1.00  0.00     0.053 A 
ATOM     85  C   UNL A   1      32.859  27.004  25.507  1.00  0.00     0.261 C 
ATOM     86  C   UNL A   1      31.226  28.226  24.525  1.00  0.00     0.261 C 
ATOM     87  O   UNL A   1      33.564  26.455  26.332  1.00  0.00    -0.269 OA
ATOM     88  N   UNL A   1      31.945  28.005  25.668  1.00  0.00    -0.267 N 
ATOM     89  O   UNL A   1      30.254  28.931  24.342  1.00  0.00    -0.269 OA
BRANCH  88  90
ATOM     90  C   UNL A   1      31.657  28.651  26.932  1.00  0.00     0.204 C 
BRANCH  90  91
ATOM     91  C   UNL A   1      32.596  29.786  27.133  1.00  0.00     0.123 A 
ATOM     92  C   UNL A   1      33.943  29.860  27.431  1.00  0.00     0.047 A 
ATOM     93  O   UNL A   1      32.081  31.042  27.004  1.00  0.00    -0.467 OA
ATOM     94  C   UNL A   1      34.262  31.235  27.506  1.00  0.00     0.042 A 
ATOM     95  C   UNL A   1      33.098  31.913  27.231  1.00  0.00     0.195 A 
ENDBRANCH  90  91
ENDBRANCH  88  90
ENDBRANCH  76  79
ENDBRANCH  70  75
ENDBRANCH  65  68
ENDBRANCH   1  64
TORSDOF 14
ENDMDL
MODEL 3
REMARK VINA RESULT:     -12.7      4.265      9.044
REMARK SMILES O=C(NCCCNC(=O)c1cc(Cl)ccc1NC(=O)c1ccc2c(c1)C(=O)N(Cc1ccco1)C2=O)c1ccc(-c2c3nc(c(-c4c(F)cccc4F)c4ccc([nH]4)c(-c4c(F)cccc4F)c4nc(c(-c5c(F)cccc5F)c5ccc2[nH]5)C=C4)C=C3)cc1
REMARK SMILES IDX 6 1 5 2 4 3 3 4 1 5 2 6 37 8 38 9 90 10 39 11 89 12 40 13
REMARK SMILES IDX 41 14 42 15 83 16 43 17 88 18 82 19 84 20 44 21 87 22 81 23
REMARK SMILES IDX 80 24 45 26 71 27 54 28 70 29 55 30 58 31 69 32 85 33 56 34
REMARK SMILES IDX 57 35 68 37 86 38 59 39 46 40 47 41 52 42 48 43 49 44 51 45
REMARK SMILES IDX 53 46 50 47 72 48 73 49 78 50 74 51 75 52 77 53 79 54 76 55
REMARK SMILES IDX 60 56 61 57 66 58 62 59 63 60 65 61 67 62 64 63 7 64 8 65
REMARK SMILES IDX 9 67 10 68 11 69 16 70 12 71 15 72 13 73 14 74 17 75 18 76
REMARK SMILES IDX 19 78 20 79 21 80 25 81 22 82 24 83 23 84 26 85 35 86 27 87
REMARK SMILES IDX 28 88 36 89 29 90 30 91 31 92 34 93 32 94 33 95
REMARK H PARENT 3 7 84 25 58 36 7 66 17 77
REMARK Flexibility Score: inf
ROOT
ATOM      1  C   UNL A   1      37.277  19.500  24.424  1.00  0.00     0.118 C 
ENDROOT
BRANCH   1   2
ATOM      2  C   UNL A   1      38.222  18.894  25.454  1.00  0.00     0.042 C 
BRANCH   2   3
ATOM      3  C   UNL A   1      39.410  19.781  25.796  1.00  0.00     0.118 C 
BRANCH   3   4
ATOM      4  N   UNL A   1      40.582  19.015  26.193  1.00  0.00    -0.352 N 
ATOM      5  O   UNL A   1      42.746  18.588  26.613  1.00  0.00    -0.269 OA
ATOM      6  C   UNL A   1      41.853  19.424  26.510  1.00  0.00     0.251 C 
ATOM      7  H   UNL A   1      40.440  18.043  26.240  1.00  0.00     0.163 HD
BRANCH   6   8
ATOM      8  C   UNL A   1      42.162  20.856  26.711  1.00  0.00     0.039 A 
ATOM      9  C   UNL A   1      42.340  21.388  27.991  1.00  0.00     0.014 A 
ATOM     10  C   UNL A   1      42.332  21.669  25.588  1.00  0.00     0.014 A 
ATOM     11  C   UNL A   1      42.549  22.754  28.154  1.00  0.00     0.010 A 
ATOM     12  C   UNL A   1      42.627  23.024  25.750  1.00  0.00     0.010 A 
ATOM     13  C   UNL A   1      42.708  23.583  27.036  1.00  0.00    -0.014 A 
BRANCH  13  14
ATOM     14  C   UNL A   1      43.010  25.025  27.207  1.00  0.00     0.031 A 
ATOM     15  C   UNL A   1      44.324  25.589  26.753  1.00  0.00     0.074 A 
ATOM     16  C   UNL A   1      42.107  25.818  27.814  1.00  0.00     0.049 A 
ATOM     17  N   UNL A   1      44.806  26.796  26.912  1.00  0.00    -0.248 NA
ATOM     18  C   UNL A   1      45.220  24.673  26.032  1.00  0.00     0.031 C 
ATOM     19  C   UNL A   1      40.796  25.384  28.298  1.00  0.00     0.029 A 
ATOM     20  N   UNL A   1      42.163  27.148  28.144  1.00  0.00    -0.354 N 
ATOM     21  C   UNL A   1      46.070  26.778  26.338  1.00  0.00     0.074 A 
ATOM     22  C   UNL A   1      46.290  25.433  25.849  1.00  0.00     0.031 C 
ATOM     23  C   UNL A   1      40.169  26.428  28.860  1.00  0.00     0.029 A 
ATOM     24  C   UNL A   1      41.059  27.584  28.834  1.00  0.00     0.049 A 
ATOM     25  H   UNL A   1      42.919  27.733  27.908  1.00  0.00     0.167 HD
ATOM     26  C   UNL A   1      46.962  27.793  26.228  1.00  0.00     0.037 A 
ATOM     27  C   UNL A   1      40.804  28.768  29.420  1.00  0.00     0.037 A 
ATOM     28  C   UNL A   1      46.731  29.127  26.722  1.00  0.00     0.049 A 
ATOM     29  C   UNL A   1      41.825  29.864  29.332  1.00  0.00     0.074 A 
ATOM     30  C   UNL A   1      47.554  30.235  26.627  1.00  0.00     0.029 A 
ATOM     31  N   UNL A   1      45.599  29.528  27.417  1.00  0.00    -0.354 N 
ATOM     32  N   UNL A   1      43.003  29.848  28.756  1.00  0.00    -0.248 NA
ATOM     33  C   UNL A   1      41.487  31.141  29.975  1.00  0.00     0.031 C 
ATOM     34  C   UNL A   1      46.948  31.289  27.320  1.00  0.00     0.029 A 
ATOM     35  C   UNL A   1      45.717  30.859  27.785  1.00  0.00     0.049 A 
ATOM     36  H   UNL A   1      44.826  28.952  27.620  1.00  0.00     0.167 HD
ATOM     37  C   UNL A   1      43.533  31.119  28.937  1.00  0.00     0.074 A 
ATOM     38  C   UNL A   1      42.547  31.880  29.678  1.00  0.00     0.031 C 
ATOM     39  C   UNL A   1      44.723  31.610  28.515  1.00  0.00     0.037 A 
BRANCH  26  40
ATOM     40  C   UNL A   1      48.285  27.483  25.586  1.00  0.00     0.057 A 
ATOM     41  C   UNL A   1      48.469  27.513  24.197  1.00  0.00     0.134 A 
ATOM     42  C   UNL A   1      49.397  27.155  26.374  1.00  0.00     0.134 A 
ATOM     43  F   UNL A   1      47.445  27.811  23.381  1.00  0.00    -0.206 F 
ATOM     44  C   UNL A   1      49.695  27.187  23.613  1.00  0.00     0.040 A 
ATOM     45  C   UNL A   1      50.638  26.860  25.803  1.00  0.00     0.040 A 
ATOM     46  F   UNL A   1      49.299  27.118  27.710  1.00  0.00    -0.206 F 
ATOM     47  C   UNL A   1      50.785  26.863  24.419  1.00  0.00     0.006 A 
ENDBRANCH  26  40
BRANCH  27  48
ATOM     48  C   UNL A   1      39.525  28.955  30.148  1.00  0.00     0.057 A 
ATOM     49  C   UNL A   1      38.393  29.463  29.505  1.00  0.00     0.134 A 
ATOM     50  C   UNL A   1      39.392  28.578  31.491  1.00  0.00     0.134 A 
ATOM     51  F   UNL A   1      38.462  29.853  28.223  1.00  0.00    -0.206 F 
ATOM     52  C   UNL A   1      37.173  29.593  30.170  1.00  0.00     0.040 A 
ATOM     53  C   UNL A   1      38.172  28.678  32.161  1.00  0.00     0.040 A 
ATOM     54  F   UNL A   1      40.439  28.071  32.159  1.00  0.00    -0.206 F 
ATOM     55  C   UNL A   1      37.058  29.190  31.500  1.00  0.00     0.006 A 
ENDBRANCH  27  48
BRANCH  39  56
ATOM     56  C   UNL A   1      45.016  33.055  28.791  1.00  0.00     0.057 A 
ATOM     57  C   UNL A   1      45.744  33.468  29.913  1.00  0.00     0.134 A 
ATOM     58  C   UNL A   1      44.627  34.041  27.873  1.00  0.00     0.134 A 
ATOM     59  F   UNL A   1      46.134  32.578  30.837  1.00  0.00    -0.206 F 
ATOM     60  C   UNL A   1      46.070  34.811  30.116  1.00  0.00     0.040 A 
ATOM     61  C   UNL A   1      44.969  35.382  28.052  1.00  0.00     0.040 A 
ATOM     62  F   UNL A   1      43.932  33.711  26.773  1.00  0.00    -0.206 F 
ATOM     63  C   UNL A   1      45.692  35.771  29.177  1.00  0.00     0.006 A 
ENDBRANCH  39  56
ENDBRANCH  13  14
ENDBRANCH   6   8
ENDBRANCH   3   4
ENDBRANCH   2   3
ENDBRANCH   1   2
BRANCH   1  64
ATOM     64  N   UNL A   1      35.875  19.405  24.819  1.00  0.00    -0.352 N 
ATOM     65  C   UNL A   1      35.005  20.398  25.203  1.00  0.00     0.253 C 
ATOM     66  H   UNL A   1      35.496  18.495  24.810  1.00  0.00     0.163 HD
ATOM     67  O   UNL A   1      33.920  20.122  25.703  1.00  0.00    -0.269 OA
BRANCH  65  68
ATOM     68  C   UNL A   1      35.426  21.808  25.079  1.00  0.00     0.064 A 
ATOM     69  C   UNL A   1      36.646  22.188  25.662  1.00  0.00     0.036 A 
ATOM     70  C   UNL A   1      34.591  22.753  24.457  1.00  0.00     0.054 A 
ATOM     71  C   UNL A   1      36.950  23.534  25.791  1.00  0.00     0.041 A 
ATOM     72  C   UNL A   1      34.863  24.099  24.717  1.00  0.00     0.028 A 
ATOM     73  Cl  UNL A   1      38.407  24.012  26.565  1.00  0.00    -0.084 Cl
ATOM     74  C   UNL A   1      36.040  24.493  25.364  1.00  0.00     0.023 A 
BRANCH  70  75
ATOM     75  N   UNL A   1      33.542  22.309  23.612  1.00  0.00    -0.321 N 
ATOM     76  C   UNL A   1      32.227  22.700  23.459  1.00  0.00     0.255 C 
ATOM     77  H   UNL A   1      33.805  21.575  23.012  1.00  0.00     0.170 HD
ATOM     78  O   UNL A   1      31.463  22.070  22.732  1.00  0.00    -0.269 OA
BRANCH  76  79
ATOM     79  C   UNL A   1      31.691  23.888  24.153  1.00  0.00     0.041 A 
ATOM     80  C   UNL A   1      31.184  23.702  25.461  1.00  0.00     0.015 A 
ATOM     81  C   UNL A   1      31.791  25.166  23.580  1.00  0.00     0.028 A 
ATOM     82  C   UNL A   1      30.897  24.803  26.270  1.00  0.00     0.015 A 
ATOM     83  C   UNL A   1      31.528  26.234  24.416  1.00  0.00     0.054 A 
ATOM     84  C   UNL A   1      31.122  26.053  25.727  1.00  0.00     0.053 A 
ATOM     85  C   UNL A   1      31.778  27.662  24.226  1.00  0.00     0.261 C 
ATOM     86  C   UNL A   1      31.135  27.360  26.376  1.00  0.00     0.261 C 
ATOM     87  O   UNL A   1      32.249  28.133  23.208  1.00  0.00    -0.269 OA
ATOM     88  N   UNL A   1      31.484  28.268  25.414  1.00  0.00    -0.267 N 
ATOM     89  O   UNL A   1      30.945  27.521  27.564  1.00  0.00    -0.269 OA
BRANCH  88  90
ATOM     90  C   UNL A   1      31.668  29.680  25.676  1.00  0.00     0.204 C 
BRANCH  90  91
ATOM     91  C   UNL A   1      32.948  29.887  26.404  1.00  0.00     0.123 A 
ATOM     92  C   UNL A   1      34.128  29.172  26.466  1.00  0.00     0.047 A 
ATOM     93  O   UNL A   1      33.039  31.000  27.186  1.00  0.00    -0.467 OA
ATOM     94  C   UNL A   1      34.978  29.877  27.348  1.00  0.00     0.042 A 
ATOM     95  C   UNL A   1      34.273  30.986  27.753  1.00  0.00     0.195 A 
ENDBRANCH  90  91
ENDBRANCH  88  90
ENDBRANCH  76  79
ENDBRANCH  70  75
ENDBRANCH  65  68
ENDBRANCH   1  64
TORSDOF 14
ENDMDL
