MODEL 1
REMARK VINA RESULT:     -13.1      0.000      0.000
REMARK SMILES Cc1ccn2c([C@@H]3CCCC[C@@H]3C(=O)NCCCNC(=O)c3ccc(-c4c5nc(c(-c6c(F)cccc6F)c6ccc([nH]6)c(-c6c(F)cccc6F)c6nc(c(-c7c(F)cccc7F)c7ccc4[nH]7)C=C6)C=C5)cc3)nnc2c1
REMARK SMILES IDX 17 1 16 2 15 3 13 4 14 5 12 7 7 8 8 9 9 10 11 11 10 12 6 13
REMARK SMILES IDX 1 14 2 15 3 16 79 17 4 18 78 19 5 20 77 21 76 22 18 23 19 24
REMARK SMILES IDX 20 25 21 27 22 28 23 29 75 30 24 31 74 32 25 33 26 34 27 35
REMARK SMILES IDX 68 36 28 37 73 38 67 39 69 40 29 41 72 42 66 43 65 44 30 46
REMARK SMILES IDX 56 47 39 48 55 49 40 50 43 51 54 52 70 53 41 54 42 55 53 57
REMARK SMILES IDX 71 58 44 59 31 60 32 61 37 62 33 63 34 64 36 65 38 66 35 67
REMARK SMILES IDX 57 68 58 69 63 70 59 71 60 72 62 73 64 74 61 75 45 76 46 77
REMARK SMILES IDX 51 78 47 79 48 80 50 81 52 82 49 83
REMARK H PARENT 15 6 19 26 69 45 43 56
REMARK Flexibility Score: inf
ROOT
ATOM      1  C   UNL A   1      32.135  29.520  26.878  1.00  0.00     0.042 C 
ENDROOT
BRANCH   1   2
ATOM      2  C   UNL A   1      32.477  28.094  27.311  1.00  0.00     0.117 C 
BRANCH   2   3
ATOM      3  N   UNL A   1      31.357  27.178  27.204  1.00  0.00    -0.356 N 
ATOM      4  C   UNL A   1      30.981  26.348  26.196  1.00  0.00     0.223 C 
ATOM      5  O   UNL A   1      30.174  25.462  26.483  1.00  0.00    -0.275 OA
ATOM      6  H   UNL A   1      30.771  27.154  27.994  1.00  0.00     0.163 HD
BRANCH   4   7
ATOM      7  C   UNL A   1      31.580  26.479  24.801  1.00  0.00     0.089 C 
ATOM      8  C   UNL A   1      30.619  26.109  23.646  1.00  0.00     0.071 C 
ATOM      9  C   UNL A   1      30.311  24.616  23.508  1.00  0.00     0.012 C 
ATOM     10  C   UNL A   1      31.594  23.784  23.479  1.00  0.00     0.001 C 
ATOM     11  C   UNL A   1      32.840  25.596  24.752  1.00  0.00     0.014 C 
ATOM     12  C   UNL A   1      32.521  24.099  24.650  1.00  0.00     0.001 C 
BRANCH   8  13
ATOM     13  C   UNL A   1      29.427  27.019  23.519  1.00  0.00     0.141 A 
ATOM     14  C   UNL A   1      28.149  31.796  20.889  1.00  0.00     0.044 C 
ATOM     15  C   UNL A   1      28.510  30.565  21.665  1.00  0.00    -0.046 A 
ATOM     16  C   UNL A   1      29.930  30.244  21.757  1.00  0.00     0.022 A 
ATOM     17  C   UNL A   1      27.593  29.781  22.271  1.00  0.00     0.053 A 
ATOM     18  C   UNL A   1      30.314  29.132  22.403  1.00  0.00     0.095 A 
ATOM     19  C   UNL A   1      28.002  28.587  22.930  1.00  0.00     0.161 A 
ATOM     20  N   UNL A   1      29.357  28.276  22.940  1.00  0.00    -0.286 N 
ATOM     21  N   UNL A   1      27.324  27.646  23.545  1.00  0.00    -0.130 NA
ATOM     22  N   UNL A   1      28.213  26.668  23.912  1.00  0.00    -0.134 NA
ENDBRANCH   8  13
ENDBRANCH   4   7
ENDBRANCH   2   3
ENDBRANCH   1   2
BRANCH   1  23
ATOM     23  C   UNL A   1      33.336  30.452  26.693  1.00  0.00     0.118 C 
BRANCH  23  24
ATOM     24  N   UNL A   1      33.603  31.338  27.810  1.00  0.00    -0.352 N 
ATOM     25  C   UNL A   1      34.713  31.709  28.518  1.00  0.00     0.251 C 
ATOM     26  H   UNL A   1      32.787  31.780  28.138  1.00  0.00     0.163 HD
ATOM     27  O   UNL A   1      34.570  32.663  29.278  1.00  0.00    -0.269 OA
BRANCH  25  28
ATOM     28  C   UNL A   1      36.024  31.004  28.499  1.00  0.00     0.039 A 
ATOM     29  C   UNL A   1      36.218  29.655  28.211  1.00  0.00     0.014 A 
ATOM     30  C   UNL A   1      37.133  31.773  28.906  1.00  0.00     0.014 A 
ATOM     31  C   UNL A   1      37.452  29.061  28.457  1.00  0.00     0.010 A 
ATOM     32  C   UNL A   1      38.372  31.190  29.134  1.00  0.00     0.010 A 
ATOM     33  C   UNL A   1      38.509  29.818  28.972  1.00  0.00    -0.014 A 
BRANCH  33  34
ATOM     34  C   UNL A   1      39.768  29.135  29.255  1.00  0.00     0.031 A 
ATOM     35  C   UNL A   1      40.109  29.038  30.702  1.00  0.00     0.074 A 
ATOM     36  C   UNL A   1      40.539  28.564  28.308  1.00  0.00     0.049 A 
ATOM     37  N   UNL A   1      41.104  29.585  31.322  1.00  0.00    -0.248 NA
ATOM     38  C   UNL A   1      39.157  28.351  31.588  1.00  0.00     0.031 C 
ATOM     39  C   UNL A   1      40.239  28.343  26.892  1.00  0.00     0.029 A 
ATOM     40  N   UNL A   1      41.763  27.980  28.450  1.00  0.00    -0.354 N 
ATOM     41  C   UNL A   1      41.010  29.168  32.648  1.00  0.00     0.074 A 
ATOM     42  C   UNL A   1      39.727  28.529  32.781  1.00  0.00     0.031 C 
ATOM     43  C   UNL A   1      41.144  27.483  26.369  1.00  0.00     0.029 A 
ATOM     44  C   UNL A   1      42.161  27.204  27.369  1.00  0.00     0.049 A 
ATOM     45  H   UNL A   1      42.319  28.098  29.254  1.00  0.00     0.167 HD
ATOM     46  C   UNL A   1      42.088  29.200  33.480  1.00  0.00     0.037 A 
ATOM     47  C   UNL A   1      43.222  26.358  27.326  1.00  0.00     0.037 A 
ATOM     48  C   UNL A   1      43.107  30.088  32.983  1.00  0.00     0.049 A 
ATOM     49  C   UNL A   1      44.154  26.748  28.412  1.00  0.00     0.074 A 
ATOM     50  C   UNL A   1      43.172  31.439  32.701  1.00  0.00     0.029 A 
ATOM     51  N   UNL A   1      44.204  29.534  32.369  1.00  0.00    -0.354 N 
ATOM     52  N   UNL A   1      44.854  27.847  28.402  1.00  0.00    -0.248 NA
ATOM     53  C   UNL A   1      43.953  26.146  29.723  1.00  0.00     0.031 C 
ATOM     54  C   UNL A   1      43.986  31.531  31.533  1.00  0.00     0.029 A 
ATOM     55  C   UNL A   1      44.413  30.242  31.215  1.00  0.00     0.049 A 
ATOM     56  H   UNL A   1      44.738  28.774  32.697  1.00  0.00     0.167 HD
ATOM     57  C   UNL A   1      44.799  28.310  29.708  1.00  0.00     0.074 A 
ATOM     58  C   UNL A   1      44.299  27.181  30.493  1.00  0.00     0.031 C 
ATOM     59  C   UNL A   1      44.887  29.643  29.993  1.00  0.00     0.037 A 
BRANCH  46  60
ATOM     60  C   UNL A   1      42.389  28.149  34.525  1.00  0.00     0.057 A 
ATOM     61  C   UNL A   1      41.990  28.241  35.873  1.00  0.00     0.134 A 
ATOM     62  C   UNL A   1      42.787  26.865  34.107  1.00  0.00     0.134 A 
ATOM     63  F   UNL A   1      41.548  29.379  36.419  1.00  0.00    -0.206 F 
ATOM     64  C   UNL A   1      41.923  27.131  36.720  1.00  0.00     0.040 A 
ATOM     65  C   UNL A   1      42.678  25.739  34.932  1.00  0.00     0.040 A 
ATOM     66  F   UNL A   1      43.202  26.647  32.850  1.00  0.00    -0.206 F 
ATOM     67  C   UNL A   1      42.227  25.868  36.239  1.00  0.00     0.006 A 
ENDBRANCH  46  60
BRANCH  47  68
ATOM     68  C   UNL A   1      43.346  25.067  26.607  1.00  0.00     0.057 A 
ATOM     69  C   UNL A   1      44.071  24.967  25.407  1.00  0.00     0.134 A 
ATOM     70  C   UNL A   1      42.535  23.968  26.926  1.00  0.00     0.134 A 
ATOM     71  F   UNL A   1      44.815  25.988  24.959  1.00  0.00    -0.206 F 
ATOM     72  C   UNL A   1      43.989  23.849  24.569  1.00  0.00     0.040 A 
ATOM     73  C   UNL A   1      42.438  22.843  26.092  1.00  0.00     0.040 A 
ATOM     74  F   UNL A   1      41.766  23.984  28.024  1.00  0.00    -0.206 F 
ATOM     75  C   UNL A   1      43.160  22.787  24.904  1.00  0.00     0.006 A 
ENDBRANCH  47  68
BRANCH  59  76
ATOM     76  C   UNL A   1      45.265  30.574  28.875  1.00  0.00     0.057 A 
ATOM     77  C   UNL A   1      46.584  31.034  28.793  1.00  0.00     0.134 A 
ATOM     78  C   UNL A   1      44.345  31.126  27.970  1.00  0.00     0.134 A 
ATOM     79  F   UNL A   1      47.506  30.600  29.666  1.00  0.00    -0.206 F 
ATOM     80  C   UNL A   1      46.977  31.981  27.845  1.00  0.00     0.040 A 
ATOM     81  C   UNL A   1      44.732  32.048  26.992  1.00  0.00     0.040 A 
ATOM     82  F   UNL A   1      43.040  30.833  28.040  1.00  0.00    -0.206 F 
ATOM     83  C   UNL A   1      46.053  32.480  26.930  1.00  0.00     0.006 A 
ENDBRANCH  59  76
ENDBRANCH  33  34
ENDBRANCH  25  28
ENDBRANCH  23  24
ENDBRANCH   1  23
TORSDOF 11
ENDMDL
MODEL 2
REMARK VINA RESULT:     -12.9      3.448      7.886
REMARK SMILES Cc1ccn2c([C@@H]3CCCC[C@@H]3C(=O)NCCCNC(=O)c3ccc(-c4c5nc(c(-c6c(F)cccc6F)c6ccc([nH]6)c(-c6c(F)cccc6F)c6nc(c(-c7c(F)cccc7F)c7ccc4[nH]7)C=C6)C=C5)cc3)nnc2c1
REMARK SMILES IDX 17 1 16 2 15 3 13 4 14 5 12 7 7 8 8 9 9 10 11 11 10 12 6 13
REMARK SMILES IDX 1 14 2 15 3 16 79 17 4 18 78 19 5 20 77 21 76 22 18 23 19 24
REMARK SMILES IDX 20 25 21 27 22 28 23 29 75 30 24 31 74 32 25 33 26 34 27 35
REMARK SMILES IDX 68 36 28 37 73 38 67 39 69 40 29 41 72 42 66 43 65 44 30 46
REMARK SMILES IDX 56 47 39 48 55 49 40 50 43 51 54 52 70 53 41 54 42 55 53 57
REMARK SMILES IDX 71 58 44 59 31 60 32 61 37 62 33 63 34 64 36 65 38 66 35 67
REMARK SMILES IDX 57 68 58 69 63 70 59 71 60 72 62 73 64 74 61 75 45 76 46 77
REMARK SMILES IDX 51 78 47 79 48 80 50 81 52 82 49 83
REMARK H PARENT 15 6 19 26 69 45 43 56
REMARK Flexibility Score: inf
ROOT
ATOM      1  C   UNL A   1      38.384  21.796  25.746  1.00  0.00     0.042 C 
ENDROOT
BRANCH   1   2
ATOM      2  C   UNL A   1      37.325  22.889  25.599  1.00  0.00     0.117 C 
BRANCH   2   3
ATOM      3  N   UNL A   1      36.114  22.618  26.351  1.00  0.00    -0.356 N 
ATOM      4  C   UNL A   1      35.062  21.803  26.078  1.00  0.00     0.223 C 
ATOM      5  O   UNL A   1      34.318  21.529  27.021  1.00  0.00    -0.275 OA
ATOM      6  H   UNL A   1      36.042  23.107  27.201  1.00  0.00     0.163 HD
BRANCH   4   7
ATOM      7  C   UNL A   1      34.859  21.216  24.687  1.00  0.00     0.089 C 
ATOM      8  C   UNL A   1      33.629  21.764  23.925  1.00  0.00     0.071 C 
ATOM      9  C   UNL A   1      32.272  21.295  24.456  1.00  0.00     0.012 C 
ATOM     10  C   UNL A   1      32.229  19.773  24.601  1.00  0.00     0.001 C 
ATOM     11  C   UNL A   1      34.757  19.687  24.838  1.00  0.00     0.014 C 
ATOM     12  C   UNL A   1      33.407  19.229  25.404  1.00  0.00     0.001 C 
BRANCH   8  13
ATOM     13  C   UNL A   1      33.710  23.231  23.595  1.00  0.00     0.141 A 
ATOM     14  C   UNL A   1      33.352  28.100  26.337  1.00  0.00     0.044 C 
ATOM     15  C   UNL A   1      33.361  26.805  25.583  1.00  0.00    -0.046 A 
ATOM     16  C   UNL A   1      32.869  25.631  26.294  1.00  0.00     0.022 A 
ATOM     17  C   UNL A   1      33.785  26.700  24.305  1.00  0.00     0.053 A 
ATOM     18  C   UNL A   1      32.892  24.434  25.687  1.00  0.00     0.095 A 
ATOM     19  C   UNL A   1      33.835  25.424  23.675  1.00  0.00     0.161 A 
ATOM     20  N   UNL A   1      33.421  24.316  24.405  1.00  0.00    -0.286 N 
ATOM     21  N   UNL A   1      34.239  25.047  22.484  1.00  0.00    -0.130 NA
ATOM     22  N   UNL A   1      34.161  23.679  22.434  1.00  0.00    -0.134 NA
ENDBRANCH   8  13
ENDBRANCH   4   7
ENDBRANCH   2   3
ENDBRANCH   1   2
BRANCH   1  23
ATOM     23  C   UNL A   1      39.627  22.194  26.549  1.00  0.00     0.118 C 
BRANCH  23  24
ATOM     24  N   UNL A   1      40.858  22.253  25.785  1.00  0.00    -0.352 N 
ATOM     25  C   UNL A   1      41.968  23.053  25.781  1.00  0.00     0.251 C 
ATOM     26  H   UNL A   1      40.908  21.543  25.104  1.00  0.00     0.163 HD
ATOM     27  O   UNL A   1      42.915  22.651  25.112  1.00  0.00    -0.269 OA
BRANCH  25  28
ATOM     28  C   UNL A   1      42.075  24.382  26.443  1.00  0.00     0.039 A 
ATOM     29  C   UNL A   1      42.723  24.642  27.648  1.00  0.00     0.014 A 
ATOM     30  C   UNL A   1      41.363  25.428  25.819  1.00  0.00     0.014 A 
ATOM     31  C   UNL A   1      42.551  25.869  28.280  1.00  0.00     0.010 A 
ATOM     32  C   UNL A   1      41.205  26.661  26.437  1.00  0.00     0.010 A 
ATOM     33  C   UNL A   1      41.745  26.855  27.701  1.00  0.00    -0.014 A 
BRANCH  33  34
ATOM     34  C   UNL A   1      41.561  28.106  28.429  1.00  0.00     0.031 A 
ATOM     35  C   UNL A   1      42.645  29.108  28.226  1.00  0.00     0.074 A 
ATOM     36  C   UNL A   1      40.471  28.387  29.171  1.00  0.00     0.049 A 
ATOM     37  N   UNL A   1      43.479  29.563  29.102  1.00  0.00    -0.248 NA
ATOM     38  C   UNL A   1      42.911  29.564  26.854  1.00  0.00     0.031 C 
ATOM     39  C   UNL A   1      39.216  27.640  29.275  1.00  0.00     0.029 A 
ATOM     40  N   UNL A   1      40.235  29.478  29.953  1.00  0.00    -0.354 N 
ATOM     41  C   UNL A   1      44.267  30.500  28.437  1.00  0.00     0.074 A 
ATOM     42  C   UNL A   1      43.966  30.359  27.036  1.00  0.00     0.031 C 
ATOM     43  C   UNL A   1      38.283  28.408  29.885  1.00  0.00     0.029 A 
ATOM     44  C   UNL A   1      38.909  29.640  30.335  1.00  0.00     0.049 A 
ATOM     45  H   UNL A   1      40.947  30.102  30.225  1.00  0.00     0.167 HD
ATOM     46  C   UNL A   1      44.953  31.461  29.115  1.00  0.00     0.037 A 
ATOM     47  C   UNL A   1      38.365  30.731  30.933  1.00  0.00     0.037 A 
ATOM     48  C   UNL A   1      45.119  31.107  30.502  1.00  0.00     0.049 A 
ATOM     49  C   UNL A   1      39.472  31.507  31.545  1.00  0.00     0.074 A 
ATOM     50  C   UNL A   1      45.728  30.067  31.178  1.00  0.00     0.029 A 
ATOM     51  N   UNL A   1      44.305  31.715  31.426  1.00  0.00    -0.354 N 
ATOM     52  N   UNL A   1      40.147  31.104  32.584  1.00  0.00    -0.248 NA
ATOM     53  C   UNL A   1      40.132  32.508  30.720  1.00  0.00     0.031 C 
ATOM     54  C   UNL A   1      44.872  29.799  32.287  1.00  0.00     0.029 A 
ATOM     55  C   UNL A   1      43.833  30.728  32.250  1.00  0.00     0.049 A 
ATOM     56  H   UNL A   1      44.101  32.677  31.484  1.00  0.00     0.167 HD
ATOM     57  C   UNL A   1      41.460  31.449  32.304  1.00  0.00     0.074 A 
ATOM     58  C   UNL A   1      41.379  32.382  31.180  1.00  0.00     0.031 C 
ATOM     59  C   UNL A   1      42.506  30.733  32.813  1.00  0.00     0.037 A 
BRANCH  46  60
ATOM     60  C   UNL A   1      45.134  32.882  28.631  1.00  0.00     0.057 A 
ATOM     61  C   UNL A   1      46.329  33.381  28.077  1.00  0.00     0.134 A 
ATOM     62  C   UNL A   1      43.993  33.674  28.399  1.00  0.00     0.134 A 
ATOM     63  F   UNL A   1      47.494  32.732  28.172  1.00  0.00    -0.206 F 
ATOM     64  C   UNL A   1      46.374  34.537  27.292  1.00  0.00     0.040 A 
ATOM     65  C   UNL A   1      44.019  34.806  27.576  1.00  0.00     0.040 A 
ATOM     66  F   UNL A   1      42.794  33.316  28.886  1.00  0.00    -0.206 F 
ATOM     67  C   UNL A   1      45.210  35.231  27.004  1.00  0.00     0.006 A 
ENDBRANCH  46  60
BRANCH  47  68
ATOM     68  C   UNL A   1      37.006  31.296  30.761  1.00  0.00     0.057 A 
ATOM     69  C   UNL A   1      36.615  31.907  29.557  1.00  0.00     0.134 A 
ATOM     70  C   UNL A   1      36.151  31.499  31.856  1.00  0.00     0.134 A 
ATOM     71  F   UNL A   1      37.394  31.850  28.468  1.00  0.00    -0.206 F 
ATOM     72  C   UNL A   1      35.454  32.680  29.446  1.00  0.00     0.040 A 
ATOM     73  C   UNL A   1      34.987  32.277  31.761  1.00  0.00     0.040 A 
ATOM     74  F   UNL A   1      36.458  31.000  33.061  1.00  0.00    -0.206 F 
ATOM     75  C   UNL A   1      34.642  32.878  30.554  1.00  0.00     0.006 A 
ENDBRANCH  47  68
BRANCH  59  76
ATOM     76  C   UNL A   1      42.202  29.698  33.860  1.00  0.00     0.057 A 
ATOM     77  C   UNL A   1      42.402  30.017  35.207  1.00  0.00     0.134 A 
ATOM     78  C   UNL A   1      41.849  28.370  33.570  1.00  0.00     0.134 A 
ATOM     79  F   UNL A   1      42.803  31.249  35.556  1.00  0.00    -0.206 F 
ATOM     80  C   UNL A   1      42.241  29.071  36.221  1.00  0.00     0.040 A 
ATOM     81  C   UNL A   1      41.649  27.422  34.578  1.00  0.00     0.040 A 
ATOM     82  F   UNL A   1      41.743  27.939  32.306  1.00  0.00    -0.206 F 
ATOM     83  C   UNL A   1      41.848  27.772  35.909  1.00  0.00     0.006 A 
ENDBRANCH  59  76
ENDBRANCH  33  34
ENDBRANCH  25  28
ENDBRANCH  23  24
ENDBRANCH   1  23
TORSDOF 11
ENDMDL
MODEL 3
REMARK VINA RESULT:     -12.9      1.619      3.243
REMARK SMILES Cc1ccn2c([C@@H]3CCCC[C@@H]3C(=O)NCCCNC(=O)c3ccc(-c4c5nc(c(-c6c(F)cccc6F)c6ccc([nH]6)c(-c6c(F)cccc6F)c6nc(c(-c7c(F)cccc7F)c7ccc4[nH]7)C=C6)C=C5)cc3)nnc2c1
REMARK SMILES IDX 17 1 16 2 15 3 13 4 14 5 12 7 7 8 8 9 9 10 11 11 10 12 6 13
REMARK SMILES IDX 1 14 2 15 3 16 79 17 4 18 78 19 5 20 77 21 76 22 18 23 19 24
REMARK SMILES IDX 20 25 21 27 22 28 23 29 75 30 24 31 74 32 25 33 26 34 27 35
REMARK SMILES IDX 68 36 28 37 73 38 67 39 69 40 29 41 72 42 66 43 65 44 30 46
REMARK SMILES IDX 56 47 39 48 55 49 40 50 43 51 54 52 70 53 41 54 42 55 53 57
REMARK SMILES IDX 71 58 44 59 31 60 32 61 37 62 33 63 34 64 36 65 38 66 35 67
REMARK SMILES IDX 57 68 58 69 63 70 59 71 60 72 62 73 64 74 61 75 45 76 46 77
REMARK SMILES IDX 51 78 47 79 48 80 50 81 52 82 49 83
REMARK H PARENT 15 6 19 26 69 45 43 56
REMARK Flexibility Score: inf
ROOT
ATOM      1  C   UNL A   1      34.727  29.496  27.438  1.00  0.00     0.042 C 
ENDROOT
BRANCH   1   2
ATOM      2  C   UNL A   1      33.593  28.483  27.286  1.00  0.00     0.117 C 
BRANCH   2   3
ATOM      3  N   UNL A   1      33.687  27.694  26.073  1.00  0.00    -0.356 N 
ATOM      4  C   UNL A   1      32.779  27.467  25.087  1.00  0.00     0.223 C 
ATOM      5  O   UNL A   1      33.216  27.013  24.029  1.00  0.00    -0.275 OA
ATOM      6  H   UNL A   1      34.553  27.247  25.941  1.00  0.00     0.163 HD
BRANCH   4   7
ATOM      7  C   UNL A   1      31.308  27.818  25.273  1.00  0.00     0.089 C 
ATOM      8  C   UNL A   1      30.316  26.783  24.690  1.00  0.00     0.071 C 
ATOM      9  C   UNL A   1      30.240  26.742  23.162  1.00  0.00     0.012 C 
ATOM     10  C   UNL A   1      30.024  28.140  22.580  1.00  0.00     0.001 C 
ATOM     11  C   UNL A   1      31.076  29.200  24.635  1.00  0.00     0.014 C 
ATOM     12  C   UNL A   1      31.037  29.154  23.103  1.00  0.00     0.001 C 
BRANCH   8  13
ATOM     13  C   UNL A   1      30.364  25.436  25.361  1.00  0.00     0.141 A 
ATOM     14  C   UNL A   1      32.676  20.428  24.391  1.00  0.00     0.044 C 
ATOM     15  C   UNL A   1      31.982  21.738  24.613  1.00  0.00    -0.046 A 
ATOM     16  C   UNL A   1      31.940  22.655  23.480  1.00  0.00     0.022 A 
ATOM     17  C   UNL A   1      31.405  22.077  25.786  1.00  0.00     0.053 A 
ATOM     18  C   UNL A   1      31.370  23.861  23.628  1.00  0.00     0.095 A 
ATOM     19  C   UNL A   1      30.828  23.368  25.948  1.00  0.00     0.161 A 
ATOM     20  N   UNL A   1      30.864  24.242  24.867  1.00  0.00    -0.286 N 
ATOM     21  N   UNL A   1      30.255  23.953  26.974  1.00  0.00    -0.130 NA
ATOM     22  N   UNL A   1      29.966  25.242  26.609  1.00  0.00    -0.134 NA
ENDBRANCH   8  13
ENDBRANCH   4   7
ENDBRANCH   2   3
ENDBRANCH   1   2
BRANCH   1  23
ATOM     23  C   UNL A   1      34.297  30.966  27.424  1.00  0.00     0.118 C 
BRANCH  23  24
ATOM     24  N   UNL A   1      34.132  31.569  28.733  1.00  0.00    -0.352 N 
ATOM     25  C   UNL A   1      34.951  31.834  29.796  1.00  0.00     0.251 C 
ATOM     26  H   UNL A   1      33.205  31.859  28.895  1.00  0.00     0.163 HD
ATOM     27  O   UNL A   1      34.480  32.562  30.666  1.00  0.00    -0.269 OA
BRANCH  25  28
ATOM     28  C   UNL A   1      36.302  31.249  30.010  1.00  0.00     0.039 A 
ATOM     29  C   UNL A   1      37.513  31.853  29.677  1.00  0.00     0.014 A 
ATOM     30  C   UNL A   1      36.320  29.929  30.504  1.00  0.00     0.014 A 
ATOM     31  C   UNL A   1      38.691  31.113  29.704  1.00  0.00     0.010 A 
ATOM     32  C   UNL A   1      37.496  29.192  30.552  1.00  0.00     0.010 A 
ATOM     33  C   UNL A   1      38.671  29.768  30.087  1.00  0.00    -0.014 A 
BRANCH  33  34
ATOM     34  C   UNL A   1      39.927  29.026  30.053  1.00  0.00     0.031 A 
ATOM     35  C   UNL A   1      40.602  28.888  31.373  1.00  0.00     0.074 A 
ATOM     36  C   UNL A   1      40.419  28.437  28.944  1.00  0.00     0.049 A 
ATOM     37  N   UNL A   1      41.741  29.379  31.737  1.00  0.00    -0.248 NA
ATOM     38  C   UNL A   1      39.861  28.228  32.459  1.00  0.00     0.031 C 
ATOM     39  C   UNL A   1      39.776  28.255  27.641  1.00  0.00     0.029 A 
ATOM     40  N   UNL A   1      41.612  27.798  28.781  1.00  0.00    -0.354 N 
ATOM     41  C   UNL A   1      41.951  28.943  33.044  1.00  0.00     0.074 A 
ATOM     42  C   UNL A   1      40.709  28.359  33.480  1.00  0.00     0.031 C 
ATOM     43  C   UNL A   1      40.487  27.366  26.909  1.00  0.00     0.029 A 
ATOM     44  C   UNL A   1      41.701  27.024  27.630  1.00  0.00     0.049 A 
ATOM     45  H   UNL A   1      42.351  27.877  29.428  1.00  0.00     0.167 HD
ATOM     46  C   UNL A   1      43.198  28.913  33.591  1.00  0.00     0.037 A 
ATOM     47  C   UNL A   1      42.679  26.133  27.327  1.00  0.00     0.037 A 
ATOM     48  C   UNL A   1      44.108  29.764  32.869  1.00  0.00     0.049 A 
ATOM     49  C   UNL A   1      43.863  26.463  28.159  1.00  0.00     0.074 A 
ATOM     50  C   UNL A   1      44.166  31.115  32.588  1.00  0.00     0.029 A 
ATOM     51  N   UNL A   1      44.996  29.173  32.004  1.00  0.00    -0.354 N 
ATOM     52  N   UNL A   1      44.590  27.531  27.986  1.00  0.00    -0.248 NA
ATOM     53  C   UNL A   1      43.956  25.848  29.475  1.00  0.00     0.031 C 
ATOM     54  C   UNL A   1      44.677  31.193  31.258  1.00  0.00     0.029 A 
ATOM     55  C   UNL A   1      44.954  29.892  30.839  1.00  0.00     0.049 A 
ATOM     56  H   UNL A   1      45.558  28.385  32.188  1.00  0.00     0.167 HD
ATOM     57  C   UNL A   1      44.874  27.972  29.270  1.00  0.00     0.074 A 
ATOM     58  C   UNL A   1      44.526  26.853  30.145  1.00  0.00     0.031 C 
ATOM     59  C   UNL A   1      45.091  29.294  29.533  1.00  0.00     0.037 A 
BRANCH  46  60
ATOM     60  C   UNL A   1      43.692  27.832  34.526  1.00  0.00     0.057 A 
ATOM     61  C   UNL A   1      43.862  28.006  35.913  1.00  0.00     0.134 A 
ATOM     62  C   UNL A   1      43.676  26.493  34.090  1.00  0.00     0.134 A 
ATOM     63  F   UNL A   1      43.863  29.210  36.495  1.00  0.00    -0.206 F 
ATOM     64  C   UNL A   1      43.936  26.933  36.807  1.00  0.00     0.040 A 
ATOM     65  C   UNL A   1      43.701  25.413  34.980  1.00  0.00     0.040 A 
ATOM     66  F   UNL A   1      43.535  26.193  32.790  1.00  0.00    -0.206 F 
ATOM     67  C   UNL A   1      43.814  25.632  36.347  1.00  0.00     0.006 A 
ENDBRANCH  46  60
BRANCH  47  68
ATOM     68  C   UNL A   1      42.565  24.852  26.591  1.00  0.00     0.057 A 
ATOM     69  C   UNL A   1      41.922  23.738  27.158  1.00  0.00     0.134 A 
ATOM     70  C   UNL A   1      43.318  24.600  25.434  1.00  0.00     0.134 A 
ATOM     71  F   UNL A   1      41.242  23.843  28.309  1.00  0.00    -0.206 F 
ATOM     72  C   UNL A   1      42.026  22.452  26.618  1.00  0.00     0.040 A 
ATOM     73  C   UNL A   1      43.437  23.313  24.885  1.00  0.00     0.040 A 
ATOM     74  F   UNL A   1      44.009  25.585  24.843  1.00  0.00    -0.206 F 
ATOM     75  C   UNL A   1      42.797  22.233  25.485  1.00  0.00     0.006 A 
ENDBRANCH  47  68
BRANCH  59  76
ATOM     76  C   UNL A   1      45.231  30.227  28.364  1.00  0.00     0.057 A 
ATOM     77  C   UNL A   1      46.512  30.610  27.952  1.00  0.00     0.134 A 
ATOM     78  C   UNL A   1      44.149  30.855  27.728  1.00  0.00     0.134 A 
ATOM     79  F   UNL A   1      47.596  30.100  28.557  1.00  0.00    -0.206 F 
ATOM     80  C   UNL A   1      46.711  31.554  26.942  1.00  0.00     0.040 A 
ATOM     81  C   UNL A   1      44.333  31.775  26.691  1.00  0.00     0.040 A 
ATOM     82  F   UNL A   1      42.888  30.640  28.126  1.00  0.00    -0.206 F 
ATOM     83  C   UNL A   1      45.619  32.129  26.298  1.00  0.00     0.006 A 
ENDBRANCH  59  76
ENDBRANCH  33  34
ENDBRANCH  25  28
ENDBRANCH  23  24
ENDBRANCH   1  23
TORSDOF 11
ENDMDL
