MODEL 1
REMARK VINA RESULT:     -12.7      0.000      0.000
REMARK SMILES Cc1ccc(S(=O)(=O)N(CC(=O)NCCCNC(=O)c2ccc(-c3c4nc(c(-c5c(F)cccc5F)c5ccc([nH]5)c(-c5c(F)cccc5F)c5nc(c(-c6c(F)cccc6F)c6ccc3[nH]6)C=C5)C=C4)cc2)c2cc(Cl)cc(Cl)c2)cc1
REMARK SMILES IDX 14 1 13 2 11 3 12 4 10 6 9 7 6 8 7 9 8 10 5 11 1 12 2 13
REMARK SMILES IDX 3 14 83 15 4 16 82 17 74 18 75 19 81 20 76 21 79 22 77 23
REMARK SMILES IDX 78 24 80 25 15 26 16 27 17 28 18 29 19 31 20 32 21 33 73 34
REMARK SMILES IDX 22 35 72 36 23 37 24 38 25 39 66 40 26 41 71 42 65 43 67 44
REMARK SMILES IDX 27 45 70 46 64 47 63 48 28 50 54 51 37 52 53 53 38 54 41 55
REMARK SMILES IDX 52 56 68 57 39 58 40 59 51 61 69 62 42 63 29 64 30 65 35 66
REMARK SMILES IDX 31 67 32 68 34 69 36 70 33 71 55 72 56 73 61 74 57 75 58 76
REMARK SMILES IDX 60 77 62 78 59 79 43 80 44 81 49 82 45 83 46 84 48 85 50 86
REMARK SMILES IDX 47 87
REMARK H PARENT 13 5 17 30 67 49 41 60
REMARK Flexibility Score: inf
ROOT
ATOM      1  C   UNL A   1      37.825  21.151  25.428  1.00  0.00     0.117 C 
ENDROOT
BRANCH   1   2
ATOM      2  N   UNL A   1      37.383  21.747  24.179  1.00  0.00    -0.354 N 
ATOM      3  C   UNL A   1      36.587  22.829  23.931  1.00  0.00     0.240 C 
ATOM      4  O   UNL A   1      36.602  23.270  22.776  1.00  0.00    -0.273 OA
ATOM      5  H   UNL A   1      37.714  21.292  23.371  1.00  0.00     0.163 HD
BRANCH   3   6
ATOM      6  C   UNL A   1      35.699  23.499  24.978  1.00  0.00     0.235 C 
BRANCH   6   7
ATOM      7  N   UNL A   1      34.277  23.657  24.570  1.00  0.00    -0.257 N 
BRANCH   7   8
ATOM      8  S   UNL A   1      33.143  22.545  25.257  1.00  0.00     0.264 S 
ATOM      9  O   UNL A   1      31.841  22.973  24.770  1.00  0.00    -0.201 OA
ATOM     10  O   UNL A   1      33.409  22.468  26.676  1.00  0.00    -0.201 OA
BRANCH   8  11
ATOM     11  C   UNL A   1      33.365  20.870  24.628  1.00  0.00     0.088 A 
ATOM     12  C   UNL A   1      33.517  16.720  23.391  1.00  0.00     0.044 C 
ATOM     13  C   UNL A   1      33.482  18.171  23.775  1.00  0.00    -0.051 A 
ATOM     14  C   UNL A   1      32.423  18.997  23.381  1.00  0.00     0.005 A 
ATOM     15  C   UNL A   1      34.474  18.703  24.597  1.00  0.00     0.005 A 
ATOM     16  C   UNL A   1      32.372  20.339  23.789  1.00  0.00     0.022 A 
ATOM     17  C   UNL A   1      34.395  20.024  25.049  1.00  0.00     0.022 A 
ENDBRANCH   8  11
ENDBRANCH   7   8
BRANCH   7  18
ATOM     18  C   UNL A   1      33.890  25.094  24.606  1.00  0.00     0.055 A 
ATOM     19  C   UNL A   1      33.842  25.795  23.385  1.00  0.00     0.047 A 
ATOM     20  C   UNL A   1      33.764  25.840  25.785  1.00  0.00     0.047 A 
ATOM     21  C   UNL A   1      33.744  27.189  23.352  1.00  0.00     0.044 A 
ATOM     22  C   UNL A   1      33.626  27.234  25.736  1.00  0.00     0.044 A 
ATOM     23  Cl  UNL A   1      33.808  28.010  21.840  1.00  0.00    -0.084 Cl
ATOM     24  C   UNL A   1      33.640  27.917  24.527  1.00  0.00     0.041 A 
ATOM     25  Cl  UNL A   1      33.482  28.126  27.203  1.00  0.00    -0.084 Cl
ENDBRANCH   7  18
ENDBRANCH   6   7
ENDBRANCH   3   6
ENDBRANCH   1   2
BRANCH   1  26
ATOM     26  C   UNL A   1      39.194  21.601  25.912  1.00  0.00     0.042 C 
BRANCH  26  27
ATOM     27  C   UNL A   1      39.192  22.966  26.571  1.00  0.00     0.118 C 
BRANCH  27  28
ATOM     28  N   UNL A   1      40.401  23.251  27.343  1.00  0.00    -0.352 N 
ATOM     29  C   UNL A   1      40.860  24.445  27.879  1.00  0.00     0.251 C 
ATOM     30  H   UNL A   1      40.980  22.473  27.508  1.00  0.00     0.163 HD
ATOM     31  O   UNL A   1      41.910  24.464  28.514  1.00  0.00    -0.269 OA
BRANCH  29  32
ATOM     32  C   UNL A   1      39.987  25.645  27.863  1.00  0.00     0.039 A 
ATOM     33  C   UNL A   1      40.375  26.659  26.978  1.00  0.00     0.014 A 
ATOM     34  C   UNL A   1      39.199  25.936  28.964  1.00  0.00     0.014 A 
ATOM     35  C   UNL A   1      40.331  27.971  27.416  1.00  0.00     0.010 A 
ATOM     36  C   UNL A   1      39.303  27.203  29.479  1.00  0.00     0.010 A 
ATOM     37  C   UNL A   1      39.951  28.190  28.732  1.00  0.00    -0.014 A 
BRANCH  37  38
ATOM     38  C   UNL A   1      40.129  29.444  29.426  1.00  0.00     0.031 A 
ATOM     39  C   UNL A   1      39.086  30.454  29.239  1.00  0.00     0.074 A 
ATOM     40  C   UNL A   1      41.140  29.578  30.310  1.00  0.00     0.049 A 
ATOM     41  N   UNL A   1      39.225  31.693  29.531  1.00  0.00    -0.248 NA
ATOM     42  C   UNL A   1      37.801  30.146  28.613  1.00  0.00     0.031 C 
ATOM     43  C   UNL A   1      41.325  30.604  31.330  1.00  0.00     0.029 A 
ATOM     44  N   UNL A   1      42.353  28.876  30.309  1.00  0.00    -0.354 N 
ATOM     45  C   UNL A   1      37.978  32.265  29.458  1.00  0.00     0.074 A 
ATOM     46  C   UNL A   1      37.181  31.321  28.721  1.00  0.00     0.031 C 
ATOM     47  C   UNL A   1      42.632  30.676  31.637  1.00  0.00     0.029 A 
ATOM     48  C   UNL A   1      43.334  29.821  30.696  1.00  0.00     0.049 A 
ATOM     49  H   UNL A   1      42.494  27.927  30.086  1.00  0.00     0.167 HD
ATOM     50  C   UNL A   1      37.761  33.395  30.184  1.00  0.00     0.037 A 
ATOM     51  C   UNL A   1      44.258  30.251  29.782  1.00  0.00     0.037 A 
ATOM     52  C   UNL A   1      39.040  33.910  30.693  1.00  0.00     0.049 A 
ATOM     53  C   UNL A   1      44.138  31.729  29.439  1.00  0.00     0.074 A 
ATOM     54  C   UNL A   1      39.686  33.890  31.917  1.00  0.00     0.029 A 
ATOM     55  N   UNL A   1      40.010  34.257  29.766  1.00  0.00    -0.354 N 
ATOM     56  N   UNL A   1      43.167  32.507  29.838  1.00  0.00    -0.248 NA
ATOM     57  C   UNL A   1      45.067  32.424  28.551  1.00  0.00     0.031 C 
ATOM     58  C   UNL A   1      41.068  34.192  31.692  1.00  0.00     0.029 A 
ATOM     59  C   UNL A   1      41.251  34.433  30.342  1.00  0.00     0.049 A 
ATOM     60  H   UNL A   1      39.833  34.364  28.803  1.00  0.00     0.167 HD
ATOM     61  C   UNL A   1      43.288  33.745  29.262  1.00  0.00     0.074 A 
ATOM     62  C   UNL A   1      44.487  33.633  28.445  1.00  0.00     0.031 C 
ATOM     63  C   UNL A   1      42.379  34.749  29.471  1.00  0.00     0.037 A 
BRANCH  50  64
ATOM     64  C   UNL A   1      36.408  33.926  30.616  1.00  0.00     0.057 A 
ATOM     65  C   UNL A   1      36.025  33.828  31.969  1.00  0.00     0.134 A 
ATOM     66  C   UNL A   1      35.397  34.444  29.779  1.00  0.00     0.134 A 
ATOM     67  F   UNL A   1      36.875  33.386  32.907  1.00  0.00    -0.206 F 
ATOM     68  C   UNL A   1      34.745  34.165  32.432  1.00  0.00     0.040 A 
ATOM     69  C   UNL A   1      34.120  34.803  30.232  1.00  0.00     0.040 A 
ATOM     70  F   UNL A   1      35.555  34.622  28.468  1.00  0.00    -0.206 F 
ATOM     71  C   UNL A   1      33.783  34.650  31.562  1.00  0.00     0.006 A 
ENDBRANCH  50  64
BRANCH  51  72
ATOM     72  C   UNL A   1      44.626  29.162  28.823  1.00  0.00     0.057 A 
ATOM     73  C   UNL A   1      44.083  29.208  27.523  1.00  0.00     0.134 A 
ATOM     74  C   UNL A   1      45.789  28.406  28.994  1.00  0.00     0.134 A 
ATOM     75  F   UNL A   1      42.954  29.898  27.285  1.00  0.00    -0.206 F 
ATOM     76  C   UNL A   1      44.765  28.693  26.417  1.00  0.00     0.040 A 
ATOM     77  C   UNL A   1      46.461  27.854  27.896  1.00  0.00     0.040 A 
ATOM     78  F   UNL A   1      46.370  28.304  30.198  1.00  0.00    -0.206 F 
ATOM     79  C   UNL A   1      45.985  28.052  26.600  1.00  0.00     0.006 A 
ENDBRANCH  51  72
BRANCH  63  80
ATOM     80  C   UNL A   1      42.451  36.117  28.822  1.00  0.00     0.057 A 
ATOM     81  C   UNL A   1      41.973  36.383  27.533  1.00  0.00     0.134 A 
ATOM     82  C   UNL A   1      43.093  37.212  29.448  1.00  0.00     0.134 A 
ATOM     83  F   UNL A   1      41.476  35.407  26.761  1.00  0.00    -0.206 F 
ATOM     84  C   UNL A   1      42.020  37.663  26.960  1.00  0.00     0.040 A 
ATOM     85  C   UNL A   1      43.200  38.477  28.864  1.00  0.00     0.040 A 
ATOM     86  F   UNL A   1      43.640  37.127  30.667  1.00  0.00    -0.206 F 
ATOM     87  C   UNL A   1      42.633  38.717  27.628  1.00  0.00     0.006 A 
ENDBRANCH  63  80
ENDBRANCH  37  38
ENDBRANCH  29  32
ENDBRANCH  27  28
ENDBRANCH  26  27
ENDBRANCH   1  26
TORSDOF 14
ENDMDL
MODEL 2
REMARK VINA RESULT:     -12.6      3.878      9.167
REMARK SMILES Cc1ccc(S(=O)(=O)N(CC(=O)NCCCNC(=O)c2ccc(-c3c4nc(c(-c5c(F)cccc5F)c5ccc([nH]5)c(-c5c(F)cccc5F)c5nc(c(-c6c(F)cccc6F)c6ccc3[nH]6)C=C5)C=C4)cc2)c2cc(Cl)cc(Cl)c2)cc1
REMARK SMILES IDX 14 1 13 2 11 3 12 4 10 6 9 7 6 8 7 9 8 10 5 11 1 12 2 13
REMARK SMILES IDX 3 14 83 15 4 16 82 17 74 18 75 19 81 20 76 21 79 22 77 23
REMARK SMILES IDX 78 24 80 25 15 26 16 27 17 28 18 29 19 31 20 32 21 33 73 34
REMARK SMILES IDX 22 35 72 36 23 37 24 38 25 39 66 40 26 41 71 42 65 43 67 44
REMARK SMILES IDX 27 45 70 46 64 47 63 48 28 50 54 51 37 52 53 53 38 54 41 55
REMARK SMILES IDX 52 56 68 57 39 58 40 59 51 61 69 62 42 63 29 64 30 65 35 66
REMARK SMILES IDX 31 67 32 68 34 69 36 70 33 71 55 72 56 73 61 74 57 75 58 76
REMARK SMILES IDX 60 77 62 78 59 79 43 80 44 81 49 82 45 83 46 84 48 85 50 86
REMARK SMILES IDX 47 87
REMARK H PARENT 13 5 17 30 67 49 41 60
REMARK Flexibility Score: inf
ROOT
ATOM      1  C   UNL A   1      32.008  29.615  25.535  1.00  0.00     0.117 C 
ENDROOT
BRANCH   1   2
ATOM      2  N   UNL A   1      31.452  28.410  26.124  1.00  0.00    -0.354 N 
ATOM      3  C   UNL A   1      31.872  27.110  26.081  1.00  0.00     0.240 C 
ATOM      4  O   UNL A   1      31.359  26.339  26.900  1.00  0.00    -0.273 OA
ATOM      5  H   UNL A   1      30.629  28.553  26.645  1.00  0.00     0.163 HD
BRANCH   3   6
ATOM      6  C   UNL A   1      32.912  26.577  25.097  1.00  0.00     0.235 C 
BRANCH   6   7
ATOM      7  N   UNL A   1      32.341  25.842  23.936  1.00  0.00    -0.257 N 
BRANCH   7   8
ATOM      8  S   UNL A   1      32.129  26.743  22.475  1.00  0.00     0.264 S 
ATOM      9  O   UNL A   1      31.801  25.756  21.458  1.00  0.00    -0.201 OA
ATOM     10  O   UNL A   1      33.279  27.605  22.319  1.00  0.00    -0.201 OA
BRANCH   8  11
ATOM     11  C   UNL A   1      30.702  27.843  22.553  1.00  0.00     0.088 A 
ATOM     12  C   UNL A   1      27.518  30.734  23.078  1.00  0.00     0.044 C 
ATOM     13  C   UNL A   1      28.608  29.728  22.848  1.00  0.00    -0.051 A 
ATOM     14  C   UNL A   1      29.823  30.100  22.263  1.00  0.00     0.005 A 
ATOM     15  C   UNL A   1      28.451  28.413  23.286  1.00  0.00     0.005 A 
ATOM     16  C   UNL A   1      30.856  29.163  22.101  1.00  0.00     0.022 A 
ATOM     17  C   UNL A   1      29.500  27.494  23.174  1.00  0.00     0.022 A 
ENDBRANCH   8  11
ENDBRANCH   7   8
BRANCH   7  18
ATOM     18  C   UNL A   1      32.997  24.513  23.798  1.00  0.00     0.055 A 
ATOM     19  C   UNL A   1      32.297  23.380  24.256  1.00  0.00     0.047 A 
ATOM     20  C   UNL A   1      34.337  24.338  23.427  1.00  0.00     0.047 A 
ATOM     21  C   UNL A   1      32.932  22.144  24.403  1.00  0.00     0.044 A 
ATOM     22  C   UNL A   1      34.951  23.084  23.541  1.00  0.00     0.044 A 
ATOM     23  Cl  UNL A   1      32.066  20.818  25.078  1.00  0.00    -0.084 Cl
ATOM     24  C   UNL A   1      34.264  21.989  24.051  1.00  0.00     0.041 A 
ATOM     25  Cl  UNL A   1      36.602  22.900  23.084  1.00  0.00    -0.084 Cl
ENDBRANCH   7  18
ENDBRANCH   6   7
ENDBRANCH   3   6
ENDBRANCH   1   2
BRANCH   1  26
ATOM     26  C   UNL A   1      33.307  30.101  26.157  1.00  0.00     0.042 C 
BRANCH  26  27
ATOM     27  C   UNL A   1      33.160  30.576  27.589  1.00  0.00     0.118 C 
BRANCH  27  28
ATOM     28  N   UNL A   1      34.122  31.610  27.970  1.00  0.00    -0.352 N 
ATOM     29  C   UNL A   1      35.419  31.493  28.447  1.00  0.00     0.251 C 
ATOM     30  H   UNL A   1      33.797  32.533  27.874  1.00  0.00     0.163 HD
ATOM     31  O   UNL A   1      36.068  32.504  28.698  1.00  0.00    -0.269 OA
BRANCH  29  32
ATOM     32  C   UNL A   1      36.086  30.168  28.454  1.00  0.00     0.039 A 
ATOM     33  C   UNL A   1      36.334  29.627  29.722  1.00  0.00     0.014 A 
ATOM     34  C   UNL A   1      36.838  29.771  27.361  1.00  0.00     0.014 A 
ATOM     35  C   UNL A   1      37.562  29.035  29.960  1.00  0.00     0.010 A 
ATOM     36  C   UNL A   1      38.116  29.344  27.614  1.00  0.00     0.010 A 
ATOM     37  C   UNL A   1      38.492  29.064  28.931  1.00  0.00    -0.014 A 
BRANCH  37  38
ATOM     38  C   UNL A   1      39.894  28.761  29.100  1.00  0.00     0.031 A 
ATOM     39  C   UNL A   1      40.320  27.404  28.755  1.00  0.00     0.074 A 
ATOM     40  C   UNL A   1      40.755  29.751  29.417  1.00  0.00     0.049 A 
ATOM     41  N   UNL A   1      41.436  26.888  29.115  1.00  0.00    -0.248 NA
ATOM     42  C   UNL A   1      39.458  26.473  28.028  1.00  0.00     0.031 C 
ATOM     43  C   UNL A   1      42.211  29.749  29.333  1.00  0.00     0.029 A 
ATOM     44  N   UNL A   1      40.454  30.937  30.100  1.00  0.00    -0.354 N 
ATOM     45  C   UNL A   1      41.587  25.722  28.404  1.00  0.00     0.074 A 
ATOM     46  C   UNL A   1      40.275  25.427  27.894  1.00  0.00     0.031 C 
ATOM     47  C   UNL A   1      42.693  30.679  30.175  1.00  0.00     0.029 A 
ATOM     48  C   UNL A   1      41.566  31.175  30.945  1.00  0.00     0.049 A 
ATOM     49  H   UNL A   1      39.643  31.488  30.011  1.00  0.00     0.167 HD
ATOM     50  C   UNL A   1      42.853  25.261  28.214  1.00  0.00     0.037 A 
ATOM     51  C   UNL A   1      41.423  31.050  32.301  1.00  0.00     0.037 A 
ATOM     52  C   UNL A   1      43.785  26.006  29.073  1.00  0.00     0.049 A 
ATOM     53  C   UNL A   1      42.243  29.916  32.900  1.00  0.00     0.074 A 
ATOM     54  C   UNL A   1      44.700  27.025  28.871  1.00  0.00     0.029 A 
ATOM     55  N   UNL A   1      43.582  25.953  30.443  1.00  0.00    -0.354 N 
ATOM     56  N   UNL A   1      42.906  29.031  32.204  1.00  0.00    -0.248 NA
ATOM     57  C   UNL A   1      42.311  29.646  34.335  1.00  0.00     0.031 C 
ATOM     58  C   UNL A   1      45.005  27.603  30.146  1.00  0.00     0.029 A 
ATOM     59  C   UNL A   1      44.308  26.910  31.120  1.00  0.00     0.049 A 
ATOM     60  H   UNL A   1      42.985  25.305  30.883  1.00  0.00     0.167 HD
ATOM     61  C   UNL A   1      43.437  28.079  33.035  1.00  0.00     0.074 A 
ATOM     62  C   UNL A   1      43.015  28.501  34.362  1.00  0.00     0.031 C 
ATOM     63  C   UNL A   1      44.148  27.004  32.568  1.00  0.00     0.037 A 
BRANCH  50  64
ATOM     64  C   UNL A   1      43.293  24.301  27.127  1.00  0.00     0.057 A 
ATOM     65  C   UNL A   1      43.761  24.812  25.900  1.00  0.00     0.134 A 
ATOM     66  C   UNL A   1      43.201  22.893  27.154  1.00  0.00     0.134 A 
ATOM     67  F   UNL A   1      43.939  26.127  25.711  1.00  0.00    -0.206 F 
ATOM     68  C   UNL A   1      44.058  24.003  24.793  1.00  0.00     0.040 A 
ATOM     69  C   UNL A   1      43.513  22.072  26.062  1.00  0.00     0.040 A 
ATOM     70  F   UNL A   1      42.787  22.209  28.221  1.00  0.00    -0.206 F 
ATOM     71  C   UNL A   1      43.930  22.626  24.869  1.00  0.00     0.006 A 
ENDBRANCH  50  64
BRANCH  51  72
ATOM     72  C   UNL A   1      40.058  31.468  32.749  1.00  0.00     0.057 A 
ATOM     73  C   UNL A   1      39.138  30.461  33.110  1.00  0.00     0.134 A 
ATOM     74  C   UNL A   1      39.819  32.750  33.252  1.00  0.00     0.134 A 
ATOM     75  F   UNL A   1      39.292  29.208  32.648  1.00  0.00    -0.206 F 
ATOM     76  C   UNL A   1      38.149  30.674  34.074  1.00  0.00     0.040 A 
ATOM     77  C   UNL A   1      38.805  32.981  34.191  1.00  0.00     0.040 A 
ATOM     78  F   UNL A   1      40.640  33.767  32.955  1.00  0.00    -0.206 F 
ATOM     79  C   UNL A   1      38.011  31.931  34.651  1.00  0.00     0.006 A 
ENDBRANCH  51  72
BRANCH  63  80
ATOM     80  C   UNL A   1      44.715  25.908  33.446  1.00  0.00     0.057 A 
ATOM     81  C   UNL A   1      46.069  25.547  33.449  1.00  0.00     0.134 A 
ATOM     82  C   UNL A   1      43.893  25.104  34.271  1.00  0.00     0.134 A 
ATOM     83  F   UNL A   1      46.942  26.119  32.608  1.00  0.00    -0.206 F 
ATOM     84  C   UNL A   1      46.583  24.550  34.292  1.00  0.00     0.040 A 
ATOM     85  C   UNL A   1      44.382  24.068  35.071  1.00  0.00     0.040 A 
ATOM     86  F   UNL A   1      42.570  25.284  34.364  1.00  0.00    -0.206 F 
ATOM     87  C   UNL A   1      45.739  23.808  35.109  1.00  0.00     0.006 A 
ENDBRANCH  63  80
ENDBRANCH  37  38
ENDBRANCH  29  32
ENDBRANCH  27  28
ENDBRANCH  26  27
ENDBRANCH   1  26
TORSDOF 14
ENDMDL
MODEL 3
REMARK VINA RESULT:     -12.4      2.629      4.198
REMARK SMILES Cc1ccc(S(=O)(=O)N(CC(=O)NCCCNC(=O)c2ccc(-c3c4nc(c(-c5c(F)cccc5F)c5ccc([nH]5)c(-c5c(F)cccc5F)c5nc(c(-c6c(F)cccc6F)c6ccc3[nH]6)C=C5)C=C4)cc2)c2cc(Cl)cc(Cl)c2)cc1
REMARK SMILES IDX 14 1 13 2 11 3 12 4 10 6 9 7 6 8 7 9 8 10 5 11 1 12 2 13
REMARK SMILES IDX 3 14 83 15 4 16 82 17 74 18 75 19 81 20 76 21 79 22 77 23
REMARK SMILES IDX 78 24 80 25 15 26 16 27 17 28 18 29 19 31 20 32 21 33 73 34
REMARK SMILES IDX 22 35 72 36 23 37 24 38 25 39 66 40 26 41 71 42 65 43 67 44
REMARK SMILES IDX 27 45 70 46 64 47 63 48 28 50 54 51 37 52 53 53 38 54 41 55
REMARK SMILES IDX 52 56 68 57 39 58 40 59 51 61 69 62 42 63 29 64 30 65 35 66
REMARK SMILES IDX 31 67 32 68 34 69 36 70 33 71 55 72 56 73 61 74 57 75 58 76
REMARK SMILES IDX 60 77 62 78 59 79 43 80 44 81 49 82 45 83 46 84 48 85 50 86
REMARK SMILES IDX 47 87
REMARK H PARENT 13 5 17 30 67 49 41 60
REMARK Flexibility Score: inf
ROOT
ATOM      1  C   UNL A   1      38.108  23.683  25.848  1.00  0.00     0.117 C 
ENDROOT
BRANCH   1   2
ATOM      2  N   UNL A   1      37.411  23.365  24.614  1.00  0.00    -0.354 N 
ATOM      3  C   UNL A   1      36.085  23.428  24.288  1.00  0.00     0.240 C 
ATOM      4  O   UNL A   1      35.811  23.359  23.085  1.00  0.00    -0.273 OA
ATOM      5  H   UNL A   1      37.993  23.049  23.887  1.00  0.00     0.163 HD
BRANCH   3   6
ATOM      6  C   UNL A   1      34.957  23.569  25.308  1.00  0.00     0.235 C 
BRANCH   6   7
ATOM      7  N   UNL A   1      33.641  23.944  24.724  1.00  0.00    -0.257 N 
BRANCH   7   8
ATOM      8  S   UNL A   1      32.277  22.997  25.210  1.00  0.00     0.264 S 
ATOM      9  O   UNL A   1      31.136  23.586  24.527  1.00  0.00    -0.201 OA
ATOM     10  O   UNL A   1      32.301  22.901  26.653  1.00  0.00    -0.201 OA
BRANCH   8  11
ATOM     11  C   UNL A   1      32.374  21.300  24.607  1.00  0.00     0.088 A 
ATOM     12  C   UNL A   1      33.087  17.260  23.213  1.00  0.00     0.044 C 
ATOM     13  C   UNL A   1      32.796  18.645  23.714  1.00  0.00    -0.051 A 
ATOM     14  C   UNL A   1      33.015  18.989  25.053  1.00  0.00     0.005 A 
ATOM     15  C   UNL A   1      32.371  19.636  22.830  1.00  0.00     0.005 A 
ATOM     16  C   UNL A   1      32.790  20.301  25.501  1.00  0.00     0.022 A 
ATOM     17  C   UNL A   1      32.200  20.955  23.264  1.00  0.00     0.022 A 
ENDBRANCH   8  11
ENDBRANCH   7   8
BRANCH   7  18
ATOM     18  C   UNL A   1      33.463  25.421  24.766  1.00  0.00     0.055 A 
ATOM     19  C   UNL A   1      33.610  26.139  23.563  1.00  0.00     0.047 A 
ATOM     20  C   UNL A   1      33.355  26.161  25.951  1.00  0.00     0.047 A 
ATOM     21  C   UNL A   1      33.716  27.532  23.558  1.00  0.00     0.044 A 
ATOM     22  C   UNL A   1      33.423  27.561  25.927  1.00  0.00     0.044 A 
ATOM     23  Cl  UNL A   1      34.013  28.356  22.076  1.00  0.00    -0.084 Cl
ATOM     24  C   UNL A   1      33.628  28.251  24.740  1.00  0.00     0.041 A 
ATOM     25  Cl  UNL A   1      33.296  28.443  27.401  1.00  0.00    -0.084 Cl
ENDBRANCH   7  18
ENDBRANCH   6   7
ENDBRANCH   3   6
ENDBRANCH   1   2
BRANCH   1  26
ATOM     26  C   UNL A   1      38.957  22.560  26.421  1.00  0.00     0.042 C 
BRANCH  26  27
ATOM     27  C   UNL A   1      40.448  22.817  26.341  1.00  0.00     0.118 C 
BRANCH  27  28
ATOM     28  N   UNL A   1      41.204  21.726  25.724  1.00  0.00    -0.352 N 
ATOM     29  C   UNL A   1      42.539  21.378  25.855  1.00  0.00     0.251 C 
ATOM     30  H   UNL A   1      40.682  21.150  25.122  1.00  0.00     0.163 HD
ATOM     31  O   UNL A   1      42.976  20.403  25.249  1.00  0.00    -0.269 OA
BRANCH  29  32
ATOM     32  C   UNL A   1      43.381  22.049  26.876  1.00  0.00     0.039 A 
ATOM     33  C   UNL A   1      42.938  21.922  28.198  1.00  0.00     0.014 A 
ATOM     34  C   UNL A   1      44.200  23.104  26.506  1.00  0.00     0.014 A 
ATOM     35  C   UNL A   1      42.964  23.039  29.015  1.00  0.00     0.010 A 
ATOM     36  C   UNL A   1      44.082  24.260  27.235  1.00  0.00     0.010 A 
ATOM     37  C   UNL A   1      43.385  24.233  28.446  1.00  0.00    -0.014 A 
BRANCH  37  38
ATOM     38  C   UNL A   1      43.200  25.528  29.057  1.00  0.00     0.031 A 
ATOM     39  C   UNL A   1      42.061  26.320  28.591  1.00  0.00     0.074 A 
ATOM     40  C   UNL A   1      43.971  25.884  30.106  1.00  0.00     0.049 A 
ATOM     41  N   UNL A   1      41.924  27.576  28.804  1.00  0.00    -0.248 NA
ATOM     42  C   UNL A   1      41.003  25.754  27.756  1.00  0.00     0.031 C 
ATOM     43  C   UNL A   1      43.766  26.972  31.056  1.00  0.00     0.029 A 
ATOM     44  N   UNL A   1      45.261  25.417  30.396  1.00  0.00    -0.354 N 
ATOM     45  C   UNL A   1      40.639  27.905  28.446  1.00  0.00     0.074 A 
ATOM     46  C   UNL A   1      40.182  26.800  27.648  1.00  0.00     0.031 C 
ATOM     47  C   UNL A   1      44.951  27.296  31.604  1.00  0.00     0.029 A 
ATOM     48  C   UNL A   1      45.966  26.543  30.888  1.00  0.00     0.049 A 
ATOM     49  H   UNL A   1      45.604  24.501  30.281  1.00  0.00     0.167 HD
ATOM     50  C   UNL A   1      40.089  29.008  29.024  1.00  0.00     0.037 A 
ATOM     51  C   UNL A   1      46.970  27.093  30.137  1.00  0.00     0.037 A 
ATOM     52  C   UNL A   1      41.130  29.771  29.726  1.00  0.00     0.049 A 
ATOM     53  C   UNL A   1      46.672  28.507  29.660  1.00  0.00     0.074 A 
ATOM     54  C   UNL A   1      41.506  29.924  31.050  1.00  0.00     0.029 A 
ATOM     55  N   UNL A   1      42.195  30.248  28.979  1.00  0.00    -0.354 N 
ATOM     56  N   UNL A   1      45.522  29.111  29.800  1.00  0.00    -0.248 NA
ATOM     57  C   UNL A   1      47.630  29.321  28.914  1.00  0.00     0.031 C 
ATOM     58  C   UNL A   1      42.833  30.464  31.072  1.00  0.00     0.029 A 
ATOM     59  C   UNL A   1      43.243  30.674  29.767  1.00  0.00     0.049 A 
ATOM     60  H   UNL A   1      42.203  30.277  27.995  1.00  0.00     0.167 HD
ATOM     61  C   UNL A   1      45.545  30.324  29.160  1.00  0.00     0.074 A 
ATOM     62  C   UNL A   1      46.887  30.397  28.602  1.00  0.00     0.031 C 
ATOM     63  C   UNL A   1      44.455  31.152  29.109  1.00  0.00     0.037 A 
BRANCH  50  64
ATOM     64  C   UNL A   1      38.606  29.300  29.142  1.00  0.00     0.057 A 
ATOM     65  C   UNL A   1      37.896  29.746  28.008  1.00  0.00     0.134 A 
ATOM     66  C   UNL A   1      37.830  29.271  30.319  1.00  0.00     0.134 A 
ATOM     67  F   UNL A   1      38.472  29.805  26.799  1.00  0.00    -0.206 F 
ATOM     68  C   UNL A   1      36.559  30.170  28.056  1.00  0.00     0.040 A 
ATOM     69  C   UNL A   1      36.488  29.673  30.377  1.00  0.00     0.040 A 
ATOM     70  F   UNL A   1      38.307  28.876  31.499  1.00  0.00    -0.206 F 
ATOM     71  C   UNL A   1      35.850  30.140  29.245  1.00  0.00     0.006 A 
ENDBRANCH  50  64
BRANCH  51  72
ATOM     72  C   UNL A   1      47.706  26.049  29.359  1.00  0.00     0.057 A 
ATOM     73  C   UNL A   1      47.446  25.941  27.977  1.00  0.00     0.134 A 
ATOM     74  C   UNL A   1      48.918  25.523  29.814  1.00  0.00     0.134 A 
ATOM     75  F   UNL A   1      46.292  26.407  27.468  1.00  0.00    -0.206 F 
ATOM     76  C   UNL A   1      48.420  25.511  27.071  1.00  0.00     0.040 A 
ATOM     77  C   UNL A   1      49.887  25.054  28.917  1.00  0.00     0.040 A 
ATOM     78  F   UNL A   1      49.244  25.578  31.113  1.00  0.00    -0.206 F 
ATOM     79  C   UNL A   1      49.665  25.108  27.541  1.00  0.00     0.006 A 
ENDBRANCH  51  72
BRANCH  63  80
ATOM     80  C   UNL A   1      44.423  32.480  28.378  1.00  0.00     0.057 A 
ATOM     81  C   UNL A   1      44.526  33.717  29.026  1.00  0.00     0.134 A 
ATOM     82  C   UNL A   1      44.199  32.564  26.983  1.00  0.00     0.134 A 
ATOM     83  F   UNL A   1      44.590  33.799  30.362  1.00  0.00    -0.206 F 
ATOM     84  C   UNL A   1      44.526  34.936  28.330  1.00  0.00     0.040 A 
ATOM     85  C   UNL A   1      44.137  33.774  26.286  1.00  0.00     0.040 A 
ATOM     86  F   UNL A   1      44.043  31.482  26.211  1.00  0.00    -0.206 F 
ATOM     87  C   UNL A   1      44.334  34.967  26.954  1.00  0.00     0.006 A 
ENDBRANCH  63  80
ENDBRANCH  37  38
ENDBRANCH  29  32
ENDBRANCH  27  28
ENDBRANCH  26  27
ENDBRANCH   1  26
TORSDOF 14
ENDMDL
